# generated using pymatgen
data_Li8SnO6
_symmetry_space_group_name_H-M   'P 1'
_cell_length_a   16.39819615
_cell_length_b   16.39819615
_cell_length_c   15.30080506
_cell_angle_alpha   90.00000000
_cell_angle_beta   90.00000000
_cell_angle_gamma   120.00000000
_symmetry_Int_Tables_number   1
_chemical_formula_structural   Li8SnO6
_chemical_formula_sum   'Li216 Sn27 O162'
_cell_volume   3563.17430464
_cell_formula_units_Z   27
loop_
 _symmetry_equiv_pos_site_id
 _symmetry_equiv_pos_as_xyz
  1  'x, y, z'
loop_
 _atom_site_type_symbol
 _atom_site_label
 _atom_site_symmetry_multiplicity
 _atom_site_fract_x
 _atom_site_fract_y
 _atom_site_fract_z
 _atom_site_occupancy
  Li  Li0  1  -0.11786845  -0.10389960  0.45359347  1
  Li  Li1  1  -0.11786845  0.22943373  0.45359347  1
  Li  Li2  1  -0.11786845  0.56276707  0.45359347  1
  Li  Li3  1  0.21546488  -0.10389960  0.45359347  1
  Li  Li4  1  0.21546488  0.22943373  0.45359347  1
  Li  Li5  1  0.21546488  0.56276707  0.45359347  1
  Li  Li6  1  0.54879821  -0.10389960  0.45359347  1
  Li  Li7  1  0.54879821  0.22943373  0.45359347  1
  Li  Li8  1  0.54879821  0.56276707  0.45359347  1
  Li  Li9  1  0.10435377  0.00721151  0.78692680  1
  Li  Li10  1  0.10435377  0.34054485  0.78692680  1
  Li  Li11  1  0.10435377  0.67387818  0.78692680  1
  Li  Li12  1  0.43768710  0.00721151  0.78692680  1
  Li  Li13  1  0.43768710  0.34054485  0.78692680  1
  Li  Li14  1  0.43768710  0.67387818  0.78692680  1
  Li  Li15  1  0.77102044  0.00721151  0.78692680  1
  Li  Li16  1  0.77102044  0.34054485  0.78692680  1
  Li  Li17  1  0.77102044  0.67387818  0.78692680  1
  Li  Li18  1  -0.00675734  0.11832262  1.12026014  1
  Li  Li19  1  -0.00675734  0.45165596  1.12026014  1
  Li  Li20  1  -0.00675734  0.78498929  1.12026014  1
  Li  Li21  1  0.32657599  0.11832262  1.12026014  1
  Li  Li22  1  0.32657599  0.45165596  1.12026014  1
  Li  Li23  1  0.32657599  0.78498929  1.12026014  1
  Li  Li24  1  0.65990932  0.11832262  1.12026014  1
  Li  Li25  1  0.65990932  0.45165596  1.12026014  1
  Li  Li26  1  0.65990932  0.78498929  1.12026014  1
  Li  Li27  1  0.01396885  0.11786845  0.45359347  1
  Li  Li28  1  0.01396885  0.45120179  0.45359347  1
  Li  Li29  1  0.01396885  0.78453512  0.45359347  1
  Li  Li30  1  0.34730219  0.11786845  0.45359347  1
  Li  Li31  1  0.34730219  0.45120179  0.45359347  1
  Li  Li32  1  0.34730219  0.78453512  0.45359347  1
  Li  Li33  1  0.68063552  0.11786845  0.45359347  1
  Li  Li34  1  0.68063552  0.45120179  0.45359347  1
  Li  Li35  1  0.68063552  0.78453512  0.45359347  1
  Li  Li36  1  0.23619108  0.22897956  0.78692680  1
  Li  Li37  1  0.23619108  0.56231290  0.78692680  1
  Li  Li38  1  0.23619108  0.89564623  0.78692680  1
  Li  Li39  1  0.56952441  0.22897956  0.78692680  1
  Li  Li40  1  0.56952441  0.56231290  0.78692680  1
  Li  Li41  1  0.56952441  0.89564623  0.78692680  1
  Li  Li42  1  0.90285774  0.22897956  0.78692680  1
  Li  Li43  1  0.90285774  0.56231290  0.78692680  1
  Li  Li44  1  0.90285774  0.89564623  0.78692680  1
  Li  Li45  1  0.12507997  0.34009068  1.12026014  1
  Li  Li46  1  0.12507997  0.67342401  1.12026014  1
  Li  Li47  1  0.12507997  1.00675734  1.12026014  1
  Li  Li48  1  0.45841330  0.34009068  1.12026014  1
  Li  Li49  1  0.45841330  0.67342401  1.12026014  1
  Li  Li50  1  0.45841330  1.00675734  1.12026014  1
  Li  Li51  1  0.79174663  0.34009068  1.12026014  1
  Li  Li52  1  0.79174663  0.67342401  1.12026014  1
  Li  Li53  1  0.79174663  1.00675734  1.12026014  1
  Li  Li54  1  0.10389960  -0.01396885  0.45359347  1
  Li  Li55  1  0.10389960  0.31936448  0.45359347  1
  Li  Li56  1  0.10389960  0.65269781  0.45359347  1
  Li  Li57  1  0.43723293  -0.01396885  0.45359347  1
  Li  Li58  1  0.43723293  0.31936448  0.45359347  1
  Li  Li59  1  0.43723293  0.65269781  0.45359347  1
  Li  Li60  1  0.77056627  -0.01396885  0.45359347  1
  Li  Li61  1  0.77056627  0.31936448  0.45359347  1
  Li  Li62  1  0.77056627  0.65269781  0.45359347  1
  Li  Li63  1  0.32612182  0.09714226  0.78692680  1
  Li  Li64  1  0.32612182  0.43047559  0.78692680  1
  Li  Li65  1  0.32612182  0.76380892  0.78692680  1
  Li  Li66  1  0.65945515  0.09714226  0.78692680  1
  Li  Li67  1  0.65945515  0.43047559  0.78692680  1
  Li  Li68  1  0.65945515  0.76380892  0.78692680  1
  Li  Li69  1  0.99278849  0.09714226  0.78692680  1
  Li  Li70  1  0.99278849  0.43047559  0.78692680  1
  Li  Li71  1  0.99278849  0.76380892  0.78692680  1
  Li  Li72  1  0.21501071  0.20825337  1.12026014  1
  Li  Li73  1  0.21501071  0.54158670  1.12026014  1
  Li  Li74  1  0.21501071  0.87492003  1.12026014  1
  Li  Li75  1  0.54834404  0.20825337  1.12026014  1
  Li  Li76  1  0.54834404  0.54158670  1.12026014  1
  Li  Li77  1  0.54834404  0.87492003  1.12026014  1
  Li  Li78  1  0.88167738  0.20825337  1.12026014  1
  Li  Li79  1  0.88167738  0.54158670  1.12026014  1
  Li  Li80  1  0.88167738  0.87492003  1.12026014  1
  Li  Li81  1  0.11786845  0.10389960  0.54640653  1
  Li  Li82  1  0.11786845  0.43723293  0.54640653  1
  Li  Li83  1  0.11786845  0.77056627  0.54640653  1
  Li  Li84  1  0.45120179  0.10389960  0.54640653  1
  Li  Li85  1  0.45120179  0.43723293  0.54640653  1
  Li  Li86  1  0.45120179  0.77056627  0.54640653  1
  Li  Li87  1  0.78453512  0.10389960  0.54640653  1
  Li  Li88  1  0.78453512  0.43723293  0.54640653  1
  Li  Li89  1  0.78453512  0.77056627  0.54640653  1
  Li  Li90  1  0.34009068  0.21501071  0.87973986  1
  Li  Li91  1  0.34009068  0.54834404  0.87973986  1
  Li  Li92  1  0.34009068  0.88167738  0.87973986  1
  Li  Li93  1  0.67342401  0.21501071  0.87973986  1
  Li  Li94  1  0.67342401  0.54834404  0.87973986  1
  Li  Li95  1  0.67342401  0.88167738  0.87973986  1
  Li  Li96  1  1.00675734  0.21501071  0.87973986  1
  Li  Li97  1  1.00675734  0.54834404  0.87973986  1
  Li  Li98  1  1.00675734  0.88167738  0.87973986  1
  Li  Li99  1  0.22897956  0.32612182  1.21307320  1
  Li  Li100  1  0.22897956  0.65945515  1.21307320  1
  Li  Li101  1  0.22897956  0.99278849  1.21307320  1
  Li  Li102  1  0.56231290  0.32612182  1.21307320  1
  Li  Li103  1  0.56231290  0.65945515  1.21307320  1
  Li  Li104  1  0.56231290  0.99278849  1.21307320  1
  Li  Li105  1  0.89564623  0.32612182  1.21307320  1
  Li  Li106  1  0.89564623  0.65945515  1.21307320  1
  Li  Li107  1  0.89564623  0.99278849  1.21307320  1
  Li  Li108  1  -0.01396885  -0.11786845  0.54640653  1
  Li  Li109  1  -0.01396885  0.21546488  0.54640653  1
  Li  Li110  1  -0.01396885  0.54879821  0.54640653  1
  Li  Li111  1  0.31936448  -0.11786845  0.54640653  1
  Li  Li112  1  0.31936448  0.21546488  0.54640653  1
  Li  Li113  1  0.31936448  0.54879821  0.54640653  1
  Li  Li114  1  0.65269781  -0.11786845  0.54640653  1
  Li  Li115  1  0.65269781  0.21546488  0.54640653  1
  Li  Li116  1  0.65269781  0.54879821  0.54640653  1
  Li  Li117  1  0.20825337  -0.00675734  0.87973986  1
  Li  Li118  1  0.20825337  0.32657599  0.87973986  1
  Li  Li119  1  0.20825337  0.65990932  0.87973986  1
  Li  Li120  1  0.54158670  -0.00675734  0.87973986  1
  Li  Li121  1  0.54158670  0.32657599  0.87973986  1
  Li  Li122  1  0.54158670  0.65990932  0.87973986  1
  Li  Li123  1  0.87492003  -0.00675734  0.87973986  1
  Li  Li124  1  0.87492003  0.32657599  0.87973986  1
  Li  Li125  1  0.87492003  0.65990932  0.87973986  1
  Li  Li126  1  0.09714226  0.10435377  1.21307320  1
  Li  Li127  1  0.09714226  0.43768710  1.21307320  1
  Li  Li128  1  0.09714226  0.77102044  1.21307320  1
  Li  Li129  1  0.43047559  0.10435377  1.21307320  1
  Li  Li130  1  0.43047559  0.43768710  1.21307320  1
  Li  Li131  1  0.43047559  0.77102044  1.21307320  1
  Li  Li132  1  0.76380892  0.10435377  1.21307320  1
  Li  Li133  1  0.76380892  0.43768710  1.21307320  1
  Li  Li134  1  0.76380892  0.77102044  1.21307320  1
  Li  Li135  1  -0.10389960  0.01396885  0.54640653  1
  Li  Li136  1  -0.10389960  0.34730219  0.54640653  1
  Li  Li137  1  -0.10389960  0.68063552  0.54640653  1
  Li  Li138  1  0.22943373  0.01396885  0.54640653  1
  Li  Li139  1  0.22943373  0.34730219  0.54640653  1
  Li  Li140  1  0.22943373  0.68063552  0.54640653  1
  Li  Li141  1  0.56276707  0.01396885  0.54640653  1
  Li  Li142  1  0.56276707  0.34730219  0.54640653  1
  Li  Li143  1  0.56276707  0.68063552  0.54640653  1
  Li  Li144  1  0.11832262  0.12507997  0.87973986  1
  Li  Li145  1  0.11832262  0.45841330  0.87973986  1
  Li  Li146  1  0.11832262  0.79174663  0.87973986  1
  Li  Li147  1  0.45165596  0.12507997  0.87973986  1
  Li  Li148  1  0.45165596  0.45841330  0.87973986  1
  Li  Li149  1  0.45165596  0.79174663  0.87973986  1
  Li  Li150  1  0.78498929  0.12507997  0.87973986  1
  Li  Li151  1  0.78498929  0.45841330  0.87973986  1
  Li  Li152  1  0.78498929  0.79174663  0.87973986  1
  Li  Li153  1  0.00721151  0.23619108  1.21307320  1
  Li  Li154  1  0.00721151  0.56952441  1.21307320  1
  Li  Li155  1  0.00721151  0.90285774  1.21307320  1
  Li  Li156  1  0.34054485  0.23619108  1.21307320  1
  Li  Li157  1  0.34054485  0.56952441  1.21307320  1
  Li  Li158  1  0.34054485  0.90285774  1.21307320  1
  Li  Li159  1  0.67387818  0.23619108  1.21307320  1
  Li  Li160  1  0.67387818  0.56952441  1.21307320  1
  Li  Li161  1  0.67387818  0.90285774  1.21307320  1
  Li  Li162  1  -0.00000000  -0.00000000  0.34527431  1
  Li  Li163  1  -0.00000000  0.33333333  0.34527431  1
  Li  Li164  1  -0.00000000  0.66666667  0.34527431  1
  Li  Li165  1  0.33333333  -0.00000000  0.34527431  1
  Li  Li166  1  0.33333333  0.33333333  0.34527431  1
  Li  Li167  1  0.33333333  0.66666667  0.34527431  1
  Li  Li168  1  0.66666667  -0.00000000  0.34527431  1
  Li  Li169  1  0.66666667  0.33333333  0.34527431  1
  Li  Li170  1  0.66666667  0.66666667  0.34527431  1
  Li  Li171  1  0.22222222  0.11111111  0.67860765  1
  Li  Li172  1  0.22222222  0.44444444  0.67860765  1
  Li  Li173  1  0.22222222  0.77777778  0.67860765  1
  Li  Li174  1  0.55555556  0.11111111  0.67860765  1
  Li  Li175  1  0.55555556  0.44444444  0.67860765  1
  Li  Li176  1  0.55555556  0.77777778  0.67860765  1
  Li  Li177  1  0.88888889  0.11111111  0.67860765  1
  Li  Li178  1  0.88888889  0.44444444  0.67860765  1
  Li  Li179  1  0.88888889  0.77777778  0.67860765  1
  Li  Li180  1  0.11111111  0.22222222  1.01194098  1
  Li  Li181  1  0.11111111  0.55555556  1.01194098  1
  Li  Li182  1  0.11111111  0.88888889  1.01194098  1
  Li  Li183  1  0.44444444  0.22222222  1.01194098  1
  Li  Li184  1  0.44444444  0.55555556  1.01194098  1
  Li  Li185  1  0.44444444  0.88888889  1.01194098  1
  Li  Li186  1  0.77777778  0.22222222  1.01194098  1
  Li  Li187  1  0.77777778  0.55555556  1.01194098  1
  Li  Li188  1  0.77777778  0.88888889  1.01194098  1
  Li  Li189  1  -0.00000000  0.00000000  0.65472569  1
  Li  Li190  1  -0.00000000  0.33333333  0.65472569  1
  Li  Li191  1  -0.00000000  0.66666667  0.65472569  1
  Li  Li192  1  0.33333333  0.00000000  0.65472569  1
  Li  Li193  1  0.33333333  0.33333333  0.65472569  1
  Li  Li194  1  0.33333333  0.66666667  0.65472569  1
  Li  Li195  1  0.66666667  0.00000000  0.65472569  1
  Li  Li196  1  0.66666667  0.33333333  0.65472569  1
  Li  Li197  1  0.66666667  0.66666667  0.65472569  1
  Li  Li198  1  0.22222222  0.11111111  0.98805902  1
  Li  Li199  1  0.22222222  0.44444444  0.98805902  1
  Li  Li200  1  0.22222222  0.77777778  0.98805902  1
  Li  Li201  1  0.55555556  0.11111111  0.98805902  1
  Li  Li202  1  0.55555556  0.44444444  0.98805902  1
  Li  Li203  1  0.55555556  0.77777778  0.98805902  1
  Li  Li204  1  0.88888889  0.11111111  0.98805902  1
  Li  Li205  1  0.88888889  0.44444444  0.98805902  1
  Li  Li206  1  0.88888889  0.77777778  0.98805902  1
  Li  Li207  1  0.11111111  0.22222222  1.32139235  1
  Li  Li208  1  0.11111111  0.55555556  1.32139235  1
  Li  Li209  1  0.11111111  0.88888889  1.32139235  1
  Li  Li210  1  0.44444444  0.22222222  1.32139235  1
  Li  Li211  1  0.44444444  0.55555556  1.32139235  1
  Li  Li212  1  0.44444444  0.88888889  1.32139235  1
  Li  Li213  1  0.77777778  0.22222222  1.32139235  1
  Li  Li214  1  0.77777778  0.55555556  1.32139235  1
  Li  Li215  1  0.77777778  0.88888889  1.32139235  1
  Sn  Sn216  1  -0.00000000  -0.00000000  -0.00000000  1
  Sn  Sn217  1  -0.00000000  0.33333333  -0.00000000  1
  Sn  Sn218  1  -0.00000000  0.66666667  -0.00000000  1
  Sn  Sn219  1  0.33333333  -0.00000000  -0.00000000  1
  Sn  Sn220  1  0.33333333  0.33333333  -0.00000000  1
  Sn  Sn221  1  0.33333333  0.66666667  -0.00000000  1
  Sn  Sn222  1  0.66666667  -0.00000000  -0.00000000  1
  Sn  Sn223  1  0.66666667  0.33333333  -0.00000000  1
  Sn  Sn224  1  0.66666667  0.66666667  -0.00000000  1
  Sn  Sn225  1  0.22222222  0.11111111  0.33333333  1
  Sn  Sn226  1  0.22222222  0.44444444  0.33333333  1
  Sn  Sn227  1  0.22222222  0.77777778  0.33333333  1
  Sn  Sn228  1  0.55555556  0.11111111  0.33333333  1
  Sn  Sn229  1  0.55555556  0.44444444  0.33333333  1
  Sn  Sn230  1  0.55555556  0.77777778  0.33333333  1
  Sn  Sn231  1  0.88888889  0.11111111  0.33333333  1
  Sn  Sn232  1  0.88888889  0.44444444  0.33333333  1
  Sn  Sn233  1  0.88888889  0.77777778  0.33333333  1
  Sn  Sn234  1  0.11111111  0.22222222  0.66666667  1
  Sn  Sn235  1  0.11111111  0.55555556  0.66666667  1
  Sn  Sn236  1  0.11111111  0.88888889  0.66666667  1
  Sn  Sn237  1  0.44444444  0.22222222  0.66666667  1
  Sn  Sn238  1  0.44444444  0.55555556  0.66666667  1
  Sn  Sn239  1  0.44444444  0.88888889  0.66666667  1
  Sn  Sn240  1  0.77777778  0.22222222  0.66666667  1
  Sn  Sn241  1  0.77777778  0.55555556  0.66666667  1
  Sn  Sn242  1  0.77777778  0.88888889  0.66666667  1
  O  O243  1  0.10670778  -0.00986889  0.58545370  1
  O  O244  1  0.10670778  0.32346444  0.58545370  1
  O  O245  1  0.10670778  0.65679778  0.58545370  1
  O  O246  1  0.44004112  -0.00986889  0.58545370  1
  O  O247  1  0.44004112  0.32346444  0.58545370  1
  O  O248  1  0.44004112  0.65679778  0.58545370  1
  O  O249  1  0.77337445  -0.00986889  0.58545370  1
  O  O250  1  0.77337445  0.32346444  0.58545370  1
  O  O251  1  0.77337445  0.65679778  0.58545370  1
  O  O252  1  0.32893000  0.10124222  0.91878703  1
  O  O253  1  0.32893000  0.43457556  0.91878703  1
  O  O254  1  0.32893000  0.76790889  0.91878703  1
  O  O255  1  0.66226334  0.10124222  0.91878703  1
  O  O256  1  0.66226334  0.43457556  0.91878703  1
  O  O257  1  0.66226334  0.76790889  0.91878703  1
  O  O258  1  0.99559667  0.10124222  0.91878703  1
  O  O259  1  0.99559667  0.43457556  0.91878703  1
  O  O260  1  0.99559667  0.76790889  0.91878703  1
  O  O261  1  0.21781889  0.21235333  1.25212036  1
  O  O262  1  0.21781889  0.54568667  1.25212036  1
  O  O263  1  0.21781889  0.87902000  1.25212036  1
  O  O264  1  0.55115223  0.21235333  1.25212036  1
  O  O265  1  0.55115223  0.54568667  1.25212036  1
  O  O266  1  0.55115223  0.87902000  1.25212036  1
  O  O267  1  0.88448556  0.21235333  1.25212036  1
  O  O268  1  0.88448556  0.54568667  1.25212036  1
  O  O269  1  0.88448556  0.87902000  1.25212036  1
  O  O270  1  0.11657667  0.10670778  0.41454630  1
  O  O271  1  0.11657667  0.44004112  0.41454630  1
  O  O272  1  0.11657667  0.77337445  0.41454630  1
  O  O273  1  0.44991000  0.10670778  0.41454630  1
  O  O274  1  0.44991000  0.44004112  0.41454630  1
  O  O275  1  0.44991000  0.77337445  0.41454630  1
  O  O276  1  0.78324334  0.10670778  0.41454630  1
  O  O277  1  0.78324334  0.44004112  0.41454630  1
  O  O278  1  0.78324334  0.77337445  0.41454630  1
  O  O279  1  0.33879889  0.21781889  0.74787964  1
  O  O280  1  0.33879889  0.55115223  0.74787964  1
  O  O281  1  0.33879889  0.88448556  0.74787964  1
  O  O282  1  0.67213223  0.21781889  0.74787964  1
  O  O283  1  0.67213223  0.55115223  0.74787964  1
  O  O284  1  0.67213223  0.88448556  0.74787964  1
  O  O285  1  1.00546556  0.21781889  0.74787964  1
  O  O286  1  1.00546556  0.55115223  0.74787964  1
  O  O287  1  1.00546556  0.88448556  0.74787964  1
  O  O288  1  0.22768778  0.32893000  1.08121297  1
  O  O289  1  0.22768778  0.66226334  1.08121297  1
  O  O290  1  0.22768778  0.99559667  1.08121297  1
  O  O291  1  0.56102112  0.32893000  1.08121297  1
  O  O292  1  0.56102112  0.66226334  1.08121297  1
  O  O293  1  0.56102112  0.99559667  1.08121297  1
  O  O294  1  0.89435445  0.32893000  1.08121297  1
  O  O295  1  0.89435445  0.66226334  1.08121297  1
  O  O296  1  0.89435445  0.99559667  1.08121297  1
  O  O297  1  -0.00986889  -0.11657667  0.41454630  1
  O  O298  1  -0.00986889  0.21675666  0.41454630  1
  O  O299  1  -0.00986889  0.55009000  0.41454630  1
  O  O300  1  0.32346444  -0.11657667  0.41454630  1
  O  O301  1  0.32346444  0.21675666  0.41454630  1
  O  O302  1  0.32346444  0.55009000  0.41454630  1
  O  O303  1  0.65679778  -0.11657667  0.41454630  1
  O  O304  1  0.65679778  0.21675666  0.41454630  1
  O  O305  1  0.65679778  0.55009000  0.41454630  1
  O  O306  1  0.21235333  -0.00546556  0.74787964  1
  O  O307  1  0.21235333  0.32786777  0.74787964  1
  O  O308  1  0.21235333  0.66120111  0.74787964  1
  O  O309  1  0.54568667  -0.00546556  0.74787964  1
  O  O310  1  0.54568667  0.32786777  0.74787964  1
  O  O311  1  0.54568667  0.66120111  0.74787964  1
  O  O312  1  0.87902000  -0.00546556  0.74787964  1
  O  O313  1  0.87902000  0.32786777  0.74787964  1
  O  O314  1  0.87902000  0.66120111  0.74787964  1
  O  O315  1  0.10124222  0.10564555  1.08121297  1
  O  O316  1  0.10124222  0.43897888  1.08121297  1
  O  O317  1  0.10124222  0.77231222  1.08121297  1
  O  O318  1  0.43457556  0.10564555  1.08121297  1
  O  O319  1  0.43457556  0.43897888  1.08121297  1
  O  O320  1  0.43457556  0.77231222  1.08121297  1
  O  O321  1  0.76790889  0.10564555  1.08121297  1
  O  O322  1  0.76790889  0.43897888  1.08121297  1
  O  O323  1  0.76790889  0.77231222  1.08121297  1
  O  O324  1  -0.10670778  0.00986889  0.41454630  1
  O  O325  1  -0.10670778  0.34320222  0.41454630  1
  O  O326  1  -0.10670778  0.67653556  0.41454630  1
  O  O327  1  0.22662555  0.00986889  0.41454630  1
  O  O328  1  0.22662555  0.34320222  0.41454630  1
  O  O329  1  0.22662555  0.67653556  0.41454630  1
  O  O330  1  0.55995888  0.00986889  0.41454630  1
  O  O331  1  0.55995888  0.34320222  0.41454630  1
  O  O332  1  0.55995888  0.67653556  0.41454630  1
  O  O333  1  0.11551444  0.12098000  0.74787964  1
  O  O334  1  0.11551444  0.45431333  0.74787964  1
  O  O335  1  0.11551444  0.78764667  0.74787964  1
  O  O336  1  0.44884777  0.12098000  0.74787964  1
  O  O337  1  0.44884777  0.45431333  0.74787964  1
  O  O338  1  0.44884777  0.78764667  0.74787964  1
  O  O339  1  0.78218111  0.12098000  0.74787964  1
  O  O340  1  0.78218111  0.45431333  0.74787964  1
  O  O341  1  0.78218111  0.78764667  0.74787964  1
  O  O342  1  0.00440333  0.23209111  1.08121297  1
  O  O343  1  0.00440333  0.56542444  1.08121297  1
  O  O344  1  0.00440333  0.89875778  1.08121297  1
  O  O345  1  0.33773666  0.23209111  1.08121297  1
  O  O346  1  0.33773666  0.56542444  1.08121297  1
  O  O347  1  0.33773666  0.89875778  1.08121297  1
  O  O348  1  0.67107000  0.23209111  1.08121297  1
  O  O349  1  0.67107000  0.56542444  1.08121297  1
  O  O350  1  0.67107000  0.89875778  1.08121297  1
  O  O351  1  -0.11657667  -0.10670778  0.58545370  1
  O  O352  1  -0.11657667  0.22662555  0.58545370  1
  O  O353  1  -0.11657667  0.55995888  0.58545370  1
  O  O354  1  0.21675666  -0.10670778  0.58545370  1
  O  O355  1  0.21675666  0.22662555  0.58545370  1
  O  O356  1  0.21675666  0.55995888  0.58545370  1
  O  O357  1  0.55009000  -0.10670778  0.58545370  1
  O  O358  1  0.55009000  0.22662555  0.58545370  1
  O  O359  1  0.55009000  0.55995888  0.58545370  1
  O  O360  1  0.10564555  0.00440333  0.91878703  1
  O  O361  1  0.10564555  0.33773666  0.91878703  1
  O  O362  1  0.10564555  0.67107000  0.91878703  1
  O  O363  1  0.43897888  0.00440333  0.91878703  1
  O  O364  1  0.43897888  0.33773666  0.91878703  1
  O  O365  1  0.43897888  0.67107000  0.91878703  1
  O  O366  1  0.77231222  0.00440333  0.91878703  1
  O  O367  1  0.77231222  0.33773666  0.91878703  1
  O  O368  1  0.77231222  0.67107000  0.91878703  1
  O  O369  1  -0.00546556  0.11551444  1.25212036  1
  O  O370  1  -0.00546556  0.44884777  1.25212036  1
  O  O371  1  -0.00546556  0.78218111  1.25212036  1
  O  O372  1  0.32786777  0.11551444  1.25212036  1
  O  O373  1  0.32786777  0.44884777  1.25212036  1
  O  O374  1  0.32786777  0.78218111  1.25212036  1
  O  O375  1  0.66120111  0.11551444  1.25212036  1
  O  O376  1  0.66120111  0.44884777  1.25212036  1
  O  O377  1  0.66120111  0.78218111  1.25212036  1
  O  O378  1  0.00986889  0.11657667  0.58545370  1
  O  O379  1  0.00986889  0.44991000  0.58545370  1
  O  O380  1  0.00986889  0.78324334  0.58545370  1
  O  O381  1  0.34320222  0.11657667  0.58545370  1
  O  O382  1  0.34320222  0.44991000  0.58545370  1
  O  O383  1  0.34320222  0.78324334  0.58545370  1
  O  O384  1  0.67653556  0.11657667  0.58545370  1
  O  O385  1  0.67653556  0.44991000  0.58545370  1
  O  O386  1  0.67653556  0.78324334  0.58545370  1
  O  O387  1  0.23209111  0.22768778  0.91878703  1
  O  O388  1  0.23209111  0.56102112  0.91878703  1
  O  O389  1  0.23209111  0.89435445  0.91878703  1
  O  O390  1  0.56542444  0.22768778  0.91878703  1
  O  O391  1  0.56542444  0.56102112  0.91878703  1
  O  O392  1  0.56542444  0.89435445  0.91878703  1
  O  O393  1  0.89875778  0.22768778  0.91878703  1
  O  O394  1  0.89875778  0.56102112  0.91878703  1
  O  O395  1  0.89875778  0.89435445  0.91878703  1
  O  O396  1  0.12098000  0.33879889  1.25212036  1
  O  O397  1  0.12098000  0.67213223  1.25212036  1
  O  O398  1  0.12098000  1.00546556  1.25212036  1
  O  O399  1  0.45431333  0.33879889  1.25212036  1
  O  O400  1  0.45431333  0.67213223  1.25212036  1
  O  O401  1  0.45431333  1.00546556  1.25212036  1
  O  O402  1  0.78764667  0.33879889  1.25212036  1
  O  O403  1  0.78764667  0.67213223  1.25212036  1
  O  O404  1  0.78764667  1.00546556  1.25212036  1
