# generated using pymatgen
data_Cs2HgO2
_symmetry_space_group_name_H-M   'P 1'
_cell_length_a   13.16037455
_cell_length_b   13.16037455
_cell_length_c   14.42243800
_cell_angle_alpha   90.00000000
_cell_angle_beta   90.00000000
_cell_angle_gamma   90.00000000
_symmetry_Int_Tables_number   1
_chemical_formula_structural   Cs2HgO2
_chemical_formula_sum   'Cs36 Hg18 O36'
_cell_volume   2497.90075841
_cell_formula_units_Z   18
loop_
 _symmetry_equiv_pos_site_id
 _symmetry_equiv_pos_as_xyz
  1  'x, y, z'
loop_
 _atom_site_type_symbol
 _atom_site_label
 _atom_site_symmetry_multiplicity
 _atom_site_fract_x
 _atom_site_fract_y
 _atom_site_fract_z
 _atom_site_occupancy
  Cs  Cs0  1  -0.00000000  0.00000000  0.66473623  1
  Cs  Cs1  1  -0.00000000  0.33333333  0.66473623  1
  Cs  Cs2  1  -0.00000000  0.66666667  0.66473623  1
  Cs  Cs3  1  0.33333333  0.00000000  0.66473623  1
  Cs  Cs4  1  0.33333333  0.33333333  0.66473623  1
  Cs  Cs5  1  0.33333333  0.66666667  0.66473623  1
  Cs  Cs6  1  0.66666667  0.00000000  0.66473623  1
  Cs  Cs7  1  0.66666667  0.33333333  0.66473623  1
  Cs  Cs8  1  0.66666667  0.66666667  0.66473623  1
  Cs  Cs9  1  0.16666667  0.16666667  1.16473623  1
  Cs  Cs10  1  0.16666667  0.50000000  1.16473623  1
  Cs  Cs11  1  0.16666667  0.83333333  1.16473623  1
  Cs  Cs12  1  0.50000000  0.16666667  1.16473623  1
  Cs  Cs13  1  0.50000000  0.50000000  1.16473623  1
  Cs  Cs14  1  0.50000000  0.83333333  1.16473623  1
  Cs  Cs15  1  0.83333333  0.16666667  1.16473623  1
  Cs  Cs16  1  0.83333333  0.50000000  1.16473623  1
  Cs  Cs17  1  0.83333333  0.83333333  1.16473623  1
  Cs  Cs18  1  -0.00000000  0.00000000  0.33526377  1
  Cs  Cs19  1  -0.00000000  0.33333333  0.33526377  1
  Cs  Cs20  1  -0.00000000  0.66666667  0.33526377  1
  Cs  Cs21  1  0.33333333  0.00000000  0.33526377  1
  Cs  Cs22  1  0.33333333  0.33333333  0.33526377  1
  Cs  Cs23  1  0.33333333  0.66666667  0.33526377  1
  Cs  Cs24  1  0.66666667  0.00000000  0.33526377  1
  Cs  Cs25  1  0.66666667  0.33333333  0.33526377  1
  Cs  Cs26  1  0.66666667  0.66666667  0.33526377  1
  Cs  Cs27  1  0.16666667  0.16666667  0.83526377  1
  Cs  Cs28  1  0.16666667  0.50000000  0.83526377  1
  Cs  Cs29  1  0.16666667  0.83333333  0.83526377  1
  Cs  Cs30  1  0.50000000  0.16666667  0.83526377  1
  Cs  Cs31  1  0.50000000  0.50000000  0.83526377  1
  Cs  Cs32  1  0.50000000  0.83333333  0.83526377  1
  Cs  Cs33  1  0.83333333  0.16666667  0.83526377  1
  Cs  Cs34  1  0.83333333  0.50000000  0.83526377  1
  Cs  Cs35  1  0.83333333  0.83333333  0.83526377  1
  Hg  Hg36  1  0.00000000  0.00000000  0.00000000  1
  Hg  Hg37  1  0.00000000  0.33333333  0.00000000  1
  Hg  Hg38  1  0.00000000  0.66666667  0.00000000  1
  Hg  Hg39  1  0.33333333  0.00000000  0.00000000  1
  Hg  Hg40  1  0.33333333  0.33333333  0.00000000  1
  Hg  Hg41  1  0.33333333  0.66666667  0.00000000  1
  Hg  Hg42  1  0.66666667  0.00000000  0.00000000  1
  Hg  Hg43  1  0.66666667  0.33333333  0.00000000  1
  Hg  Hg44  1  0.66666667  0.66666667  0.00000000  1
  Hg  Hg45  1  0.16666667  0.16666667  0.50000000  1
  Hg  Hg46  1  0.16666667  0.50000000  0.50000000  1
  Hg  Hg47  1  0.16666667  0.83333333  0.50000000  1
  Hg  Hg48  1  0.50000000  0.16666667  0.50000000  1
  Hg  Hg49  1  0.50000000  0.50000000  0.50000000  1
  Hg  Hg50  1  0.50000000  0.83333333  0.50000000  1
  Hg  Hg51  1  0.83333333  0.16666667  0.50000000  1
  Hg  Hg52  1  0.83333333  0.50000000  0.50000000  1
  Hg  Hg53  1  0.83333333  0.83333333  0.50000000  1
  O  O54  1  0.00000000  -0.00000000  0.86281152  1
  O  O55  1  0.00000000  0.33333333  0.86281152  1
  O  O56  1  0.00000000  0.66666667  0.86281152  1
  O  O57  1  0.33333333  -0.00000000  0.86281152  1
  O  O58  1  0.33333333  0.33333333  0.86281152  1
  O  O59  1  0.33333333  0.66666667  0.86281152  1
  O  O60  1  0.66666667  -0.00000000  0.86281152  1
  O  O61  1  0.66666667  0.33333333  0.86281152  1
  O  O62  1  0.66666667  0.66666667  0.86281152  1
  O  O63  1  0.16666667  0.16666667  1.36281152  1
  O  O64  1  0.16666667  0.50000000  1.36281152  1
  O  O65  1  0.16666667  0.83333333  1.36281152  1
  O  O66  1  0.50000000  0.16666667  1.36281152  1
  O  O67  1  0.50000000  0.50000000  1.36281152  1
  O  O68  1  0.50000000  0.83333333  1.36281152  1
  O  O69  1  0.83333333  0.16666667  1.36281152  1
  O  O70  1  0.83333333  0.50000000  1.36281152  1
  O  O71  1  0.83333333  0.83333333  1.36281152  1
  O  O72  1  0.00000000  -0.00000000  0.13718848  1
  O  O73  1  0.00000000  0.33333333  0.13718848  1
  O  O74  1  0.00000000  0.66666667  0.13718848  1
  O  O75  1  0.33333333  -0.00000000  0.13718848  1
  O  O76  1  0.33333333  0.33333333  0.13718848  1
  O  O77  1  0.33333333  0.66666667  0.13718848  1
  O  O78  1  0.66666667  -0.00000000  0.13718848  1
  O  O79  1  0.66666667  0.33333333  0.13718848  1
  O  O80  1  0.66666667  0.66666667  0.13718848  1
  O  O81  1  0.16666667  0.16666667  0.63718848  1
  O  O82  1  0.16666667  0.50000000  0.63718848  1
  O  O83  1  0.16666667  0.83333333  0.63718848  1
  O  O84  1  0.50000000  0.16666667  0.63718848  1
  O  O85  1  0.50000000  0.50000000  0.63718848  1
  O  O86  1  0.50000000  0.83333333  0.63718848  1
  O  O87  1  0.83333333  0.16666667  0.63718848  1
  O  O88  1  0.83333333  0.50000000  0.63718848  1
  O  O89  1  0.83333333  0.83333333  0.63718848  1
