# generated using pymatgen
data_CrPb2O5
_symmetry_space_group_name_H-M   'P 1'
_cell_length_a   13.83589559
_cell_length_b   16.90784376
_cell_length_c   14.17717101
_cell_angle_alpha   90.00000000
_cell_angle_beta   113.89419461
_cell_angle_gamma   90.00000000
_symmetry_Int_Tables_number   1
_chemical_formula_structural   CrPb2O5
_chemical_formula_sum   'Cr24 Pb48 O120'
_cell_volume   3032.29482706
_cell_formula_units_Z   24
loop_
 _symmetry_equiv_pos_site_id
 _symmetry_equiv_pos_as_xyz
  1  'x, y, z'
loop_
 _atom_site_type_symbol
 _atom_site_label
 _atom_site_symmetry_multiplicity
 _atom_site_fract_x
 _atom_site_fract_y
 _atom_site_fract_z
 _atom_site_occupancy
  Cr  Cr0  1  0.82927731  -0.00000000  0.41888620  1
  Cr  Cr1  1  0.82927731  -0.00000000  0.91888620  1
  Cr  Cr2  1  0.82927731  0.33333333  0.41888620  1
  Cr  Cr3  1  0.82927731  0.33333333  0.91888620  1
  Cr  Cr4  1  0.82927731  0.66666667  0.41888620  1
  Cr  Cr5  1  0.82927731  0.66666667  0.91888620  1
  Cr  Cr6  1  1.32927731  0.16666667  0.41888620  1
  Cr  Cr7  1  1.32927731  0.16666667  0.91888620  1
  Cr  Cr8  1  1.32927731  0.50000000  0.41888620  1
  Cr  Cr9  1  1.32927731  0.50000000  0.91888620  1
  Cr  Cr10  1  1.32927731  0.83333333  0.41888620  1
  Cr  Cr11  1  1.32927731  0.83333333  0.91888620  1
  Cr  Cr12  1  0.17072269  0.00000000  0.08111380  1
  Cr  Cr13  1  0.17072269  0.00000000  0.58111380  1
  Cr  Cr14  1  0.17072269  0.33333333  0.08111380  1
  Cr  Cr15  1  0.17072269  0.33333333  0.58111380  1
  Cr  Cr16  1  0.17072269  0.66666667  0.08111380  1
  Cr  Cr17  1  0.17072269  0.66666667  0.58111380  1
  Cr  Cr18  1  0.67072269  0.16666667  0.08111380  1
  Cr  Cr19  1  0.67072269  0.16666667  0.58111380  1
  Cr  Cr20  1  0.67072269  0.50000000  0.08111380  1
  Cr  Cr21  1  0.67072269  0.50000000  0.58111380  1
  Cr  Cr22  1  0.67072269  0.83333333  0.08111380  1
  Cr  Cr23  1  0.67072269  0.83333333  0.58111380  1
  Pb  Pb24  1  0.51728478  0.00000000  0.38343121  1
  Pb  Pb25  1  0.51728478  0.00000000  0.88343121  1
  Pb  Pb26  1  0.51728478  0.33333333  0.38343121  1
  Pb  Pb27  1  0.51728478  0.33333333  0.88343121  1
  Pb  Pb28  1  0.51728478  0.66666667  0.38343121  1
  Pb  Pb29  1  0.51728478  0.66666667  0.88343121  1
  Pb  Pb30  1  1.01728478  0.16666667  0.38343121  1
  Pb  Pb31  1  1.01728478  0.16666667  0.88343121  1
  Pb  Pb32  1  1.01728478  0.50000000  0.38343121  1
  Pb  Pb33  1  1.01728478  0.50000000  0.88343121  1
  Pb  Pb34  1  1.01728478  0.83333333  0.38343121  1
  Pb  Pb35  1  1.01728478  0.83333333  0.88343121  1
  Pb  Pb36  1  0.48271522  -0.00000000  0.11656879  1
  Pb  Pb37  1  0.48271522  -0.00000000  0.61656879  1
  Pb  Pb38  1  0.48271522  0.33333333  0.11656879  1
  Pb  Pb39  1  0.48271522  0.33333333  0.61656879  1
  Pb  Pb40  1  0.48271522  0.66666667  0.11656879  1
  Pb  Pb41  1  0.48271522  0.66666667  0.61656879  1
  Pb  Pb42  1  0.98271522  0.16666667  0.11656879  1
  Pb  Pb43  1  0.98271522  0.16666667  0.61656879  1
  Pb  Pb44  1  0.98271522  0.50000000  0.11656879  1
  Pb  Pb45  1  0.98271522  0.50000000  0.61656879  1
  Pb  Pb46  1  0.98271522  0.83333333  0.11656879  1
  Pb  Pb47  1  0.98271522  0.83333333  0.61656879  1
  Pb  Pb48  1  0.85604862  0.00000000  0.19514606  1
  Pb  Pb49  1  0.85604862  0.00000000  0.69514606  1
  Pb  Pb50  1  0.85604862  0.33333333  0.19514606  1
  Pb  Pb51  1  0.85604862  0.33333333  0.69514606  1
  Pb  Pb52  1  0.85604862  0.66666667  0.19514606  1
  Pb  Pb53  1  0.85604862  0.66666667  0.69514606  1
  Pb  Pb54  1  1.35604862  0.16666667  0.19514606  1
  Pb  Pb55  1  1.35604862  0.16666667  0.69514606  1
  Pb  Pb56  1  1.35604862  0.50000000  0.19514606  1
  Pb  Pb57  1  1.35604862  0.50000000  0.69514606  1
  Pb  Pb58  1  1.35604862  0.83333333  0.19514606  1
  Pb  Pb59  1  1.35604862  0.83333333  0.69514606  1
  Pb  Pb60  1  0.14395138  0.00000000  0.30485394  1
  Pb  Pb61  1  0.14395138  0.00000000  0.80485394  1
  Pb  Pb62  1  0.14395138  0.33333333  0.30485394  1
  Pb  Pb63  1  0.14395138  0.33333333  0.80485394  1
  Pb  Pb64  1  0.14395138  0.66666667  0.30485394  1
  Pb  Pb65  1  0.14395138  0.66666667  0.80485394  1
  Pb  Pb66  1  0.64395138  0.16666667  0.30485394  1
  Pb  Pb67  1  0.64395138  0.16666667  0.80485394  1
  Pb  Pb68  1  0.64395138  0.50000000  0.30485394  1
  Pb  Pb69  1  0.64395138  0.50000000  0.80485394  1
  Pb  Pb70  1  0.64395138  0.83333333  0.30485394  1
  Pb  Pb71  1  0.64395138  0.83333333  0.80485394  1
  O  O72  1  0.50000000  -0.08283277  0.25000000  1
  O  O73  1  0.50000000  -0.08283277  0.75000000  1
  O  O74  1  0.50000000  0.25050057  0.25000000  1
  O  O75  1  0.50000000  0.25050057  0.75000000  1
  O  O76  1  0.50000000  0.58383390  0.25000000  1
  O  O77  1  0.50000000  0.58383390  0.75000000  1
  O  O78  1  1.00000000  0.08383390  0.25000000  1
  O  O79  1  1.00000000  0.08383390  0.75000000  1
  O  O80  1  1.00000000  0.41716723  0.25000000  1
  O  O81  1  1.00000000  0.41716723  0.75000000  1
  O  O82  1  1.00000000  0.75050057  0.25000000  1
  O  O83  1  1.00000000  0.75050057  0.75000000  1
  O  O84  1  0.50000000  0.08283277  0.25000000  1
  O  O85  1  0.50000000  0.08283277  0.75000000  1
  O  O86  1  0.50000000  0.41616610  0.25000000  1
  O  O87  1  0.50000000  0.41616610  0.75000000  1
  O  O88  1  0.50000000  0.74949943  0.25000000  1
  O  O89  1  0.50000000  0.74949943  0.75000000  1
  O  O90  1  1.00000000  0.24949943  0.25000000  1
  O  O91  1  1.00000000  0.24949943  0.75000000  1
  O  O92  1  1.00000000  0.58283277  0.25000000  1
  O  O93  1  1.00000000  0.58283277  0.75000000  1
  O  O94  1  1.00000000  0.91616610  0.25000000  1
  O  O95  1  1.00000000  0.91616610  0.75000000  1
  O  O96  1  0.64720631  -0.08765617  0.13840090  1
  O  O97  1  0.64720631  -0.08765617  0.63840090  1
  O  O98  1  0.64720631  0.24567717  0.13840090  1
  O  O99  1  0.64720631  0.24567717  0.63840090  1
  O  O100  1  0.64720631  0.57901050  0.13840090  1
  O  O101  1  0.64720631  0.57901050  0.63840090  1
  O  O102  1  1.14720631  0.07901050  0.13840090  1
  O  O103  1  1.14720631  0.07901050  0.63840090  1
  O  O104  1  1.14720631  0.41234383  0.13840090  1
  O  O105  1  1.14720631  0.41234383  0.63840090  1
  O  O106  1  1.14720631  0.74567717  0.13840090  1
  O  O107  1  1.14720631  0.74567717  0.63840090  1
  O  O108  1  0.35279369  -0.08765617  0.36159910  1
  O  O109  1  0.35279369  -0.08765617  0.86159910  1
  O  O110  1  0.35279369  0.24567717  0.36159910  1
  O  O111  1  0.35279369  0.24567717  0.86159910  1
  O  O112  1  0.35279369  0.57901050  0.36159910  1
  O  O113  1  0.35279369  0.57901050  0.86159910  1
  O  O114  1  0.85279369  0.07901050  0.36159910  1
  O  O115  1  0.85279369  0.07901050  0.86159910  1
  O  O116  1  0.85279369  0.41234383  0.36159910  1
  O  O117  1  0.85279369  0.41234383  0.86159910  1
  O  O118  1  0.85279369  0.74567717  0.36159910  1
  O  O119  1  0.85279369  0.74567717  0.86159910  1
  O  O120  1  0.35279369  0.08765617  0.36159910  1
  O  O121  1  0.35279369  0.08765617  0.86159910  1
  O  O122  1  0.35279369  0.42098950  0.36159910  1
  O  O123  1  0.35279369  0.42098950  0.86159910  1
  O  O124  1  0.35279369  0.75432283  0.36159910  1
  O  O125  1  0.35279369  0.75432283  0.86159910  1
  O  O126  1  0.85279369  0.25432283  0.36159910  1
  O  O127  1  0.85279369  0.25432283  0.86159910  1
  O  O128  1  0.85279369  0.58765617  0.36159910  1
  O  O129  1  0.85279369  0.58765617  0.86159910  1
  O  O130  1  0.85279369  0.92098950  0.36159910  1
  O  O131  1  0.85279369  0.92098950  0.86159910  1
  O  O132  1  0.64720631  0.08765617  0.13840090  1
  O  O133  1  0.64720631  0.08765617  0.63840090  1
  O  O134  1  0.64720631  0.42098950  0.13840090  1
  O  O135  1  0.64720631  0.42098950  0.63840090  1
  O  O136  1  0.64720631  0.75432283  0.13840090  1
  O  O137  1  0.64720631  0.75432283  0.63840090  1
  O  O138  1  1.14720631  0.25432283  0.13840090  1
  O  O139  1  1.14720631  0.25432283  0.63840090  1
  O  O140  1  1.14720631  0.58765617  0.13840090  1
  O  O141  1  1.14720631  0.58765617  0.63840090  1
  O  O142  1  1.14720631  0.92098950  0.13840090  1
  O  O143  1  1.14720631  0.92098950  0.63840090  1
  O  O144  1  0.09557403  0.00000000  0.45470548  1
  O  O145  1  0.09557403  0.00000000  0.95470548  1
  O  O146  1  0.09557403  0.33333333  0.45470548  1
  O  O147  1  0.09557403  0.33333333  0.95470548  1
  O  O148  1  0.09557403  0.66666667  0.45470548  1
  O  O149  1  0.09557403  0.66666667  0.95470548  1
  O  O150  1  0.59557403  0.16666667  0.45470548  1
  O  O151  1  0.59557403  0.16666667  0.95470548  1
  O  O152  1  0.59557403  0.50000000  0.45470548  1
  O  O153  1  0.59557403  0.50000000  0.95470548  1
  O  O154  1  0.59557403  0.83333333  0.45470548  1
  O  O155  1  0.59557403  0.83333333  0.95470548  1
  O  O156  1  0.90442597  -0.00000000  0.04529452  1
  O  O157  1  0.90442597  -0.00000000  0.54529452  1
  O  O158  1  0.90442597  0.33333333  0.04529452  1
  O  O159  1  0.90442597  0.33333333  0.54529452  1
  O  O160  1  0.90442597  0.66666667  0.04529452  1
  O  O161  1  0.90442597  0.66666667  0.54529452  1
  O  O162  1  1.40442597  0.16666667  0.04529452  1
  O  O163  1  1.40442597  0.16666667  0.54529452  1
  O  O164  1  1.40442597  0.50000000  0.04529452  1
  O  O165  1  1.40442597  0.50000000  0.54529452  1
  O  O166  1  1.40442597  0.83333333  0.04529452  1
  O  O167  1  1.40442597  0.83333333  0.54529452  1
  O  O168  1  0.70221421  -0.00000000  0.39824996  1
  O  O169  1  0.70221421  -0.00000000  0.89824996  1
  O  O170  1  0.70221421  0.33333333  0.39824996  1
  O  O171  1  0.70221421  0.33333333  0.89824996  1
  O  O172  1  0.70221421  0.66666667  0.39824996  1
  O  O173  1  0.70221421  0.66666667  0.89824996  1
  O  O174  1  1.20221421  0.16666667  0.39824996  1
  O  O175  1  1.20221421  0.16666667  0.89824996  1
  O  O176  1  1.20221421  0.50000000  0.39824996  1
  O  O177  1  1.20221421  0.50000000  0.89824996  1
  O  O178  1  1.20221421  0.83333333  0.39824996  1
  O  O179  1  1.20221421  0.83333333  0.89824996  1
  O  O180  1  0.29778579  0.00000000  0.10175004  1
  O  O181  1  0.29778579  0.00000000  0.60175004  1
  O  O182  1  0.29778579  0.33333333  0.10175004  1
  O  O183  1  0.29778579  0.33333333  0.60175004  1
  O  O184  1  0.29778579  0.66666667  0.10175004  1
  O  O185  1  0.29778579  0.66666667  0.60175004  1
  O  O186  1  0.79778579  0.16666667  0.10175004  1
  O  O187  1  0.79778579  0.16666667  0.60175004  1
  O  O188  1  0.79778579  0.50000000  0.10175004  1
  O  O189  1  0.79778579  0.50000000  0.60175004  1
  O  O190  1  0.79778579  0.83333333  0.10175004  1
  O  O191  1  0.79778579  0.83333333  0.60175004  1
