# generated using pymatgen
data_Sc2Ti2O7
_symmetry_space_group_name_H-M   'P 1'
_cell_length_a   18.99327883
_cell_length_b   17.74951777
_cell_length_c   15.54115053
_cell_angle_alpha   90.00000000
_cell_angle_beta   99.97376541
_cell_angle_gamma   90.00000000
_symmetry_Int_Tables_number   1
_chemical_formula_structural   Sc2Ti2O7
_chemical_formula_sum   'Sc72 Ti72 O252'
_cell_volume   5160.07655377
_cell_formula_units_Z   36
loop_
 _symmetry_equiv_pos_site_id
 _symmetry_equiv_pos_as_xyz
  1  'x, y, z'
loop_
 _atom_site_type_symbol
 _atom_site_label
 _atom_site_symmetry_multiplicity
 _atom_site_fract_x
 _atom_site_fract_y
 _atom_site_fract_z
 _atom_site_occupancy
  Sc  Sc0  1  0.16666667  -0.09351633  0.00000000  1
  Sc  Sc1  1  0.16666667  -0.09351633  0.33333333  1
  Sc  Sc2  1  0.16666667  -0.09351633  0.66666667  1
  Sc  Sc3  1  0.16666667  0.40648367  0.00000000  1
  Sc  Sc4  1  0.16666667  0.40648367  0.33333333  1
  Sc  Sc5  1  0.16666667  0.40648367  0.66666667  1
  Sc  Sc6  1  0.50000000  -0.09351633  0.00000000  1
  Sc  Sc7  1  0.50000000  -0.09351633  0.33333333  1
  Sc  Sc8  1  0.50000000  -0.09351633  0.66666667  1
  Sc  Sc9  1  0.50000000  0.40648367  0.00000000  1
  Sc  Sc10  1  0.50000000  0.40648367  0.33333333  1
  Sc  Sc11  1  0.50000000  0.40648367  0.66666667  1
  Sc  Sc12  1  0.83333333  -0.09351633  0.00000000  1
  Sc  Sc13  1  0.83333333  -0.09351633  0.33333333  1
  Sc  Sc14  1  0.83333333  -0.09351633  0.66666667  1
  Sc  Sc15  1  0.83333333  0.40648367  0.00000000  1
  Sc  Sc16  1  0.83333333  0.40648367  0.33333333  1
  Sc  Sc17  1  0.83333333  0.40648367  0.66666667  1
  Sc  Sc18  1  0.33333333  0.15648367  0.00000000  1
  Sc  Sc19  1  0.33333333  0.15648367  0.33333333  1
  Sc  Sc20  1  0.33333333  0.15648367  0.66666667  1
  Sc  Sc21  1  0.33333333  0.65648367  0.00000000  1
  Sc  Sc22  1  0.33333333  0.65648367  0.33333333  1
  Sc  Sc23  1  0.33333333  0.65648367  0.66666667  1
  Sc  Sc24  1  0.66666667  0.15648367  0.00000000  1
  Sc  Sc25  1  0.66666667  0.15648367  0.33333333  1
  Sc  Sc26  1  0.66666667  0.15648367  0.66666667  1
  Sc  Sc27  1  0.66666667  0.65648367  0.00000000  1
  Sc  Sc28  1  0.66666667  0.65648367  0.33333333  1
  Sc  Sc29  1  0.66666667  0.65648367  0.66666667  1
  Sc  Sc30  1  1.00000000  0.15648367  0.00000000  1
  Sc  Sc31  1  1.00000000  0.15648367  0.33333333  1
  Sc  Sc32  1  1.00000000  0.15648367  0.66666667  1
  Sc  Sc33  1  1.00000000  0.65648367  0.00000000  1
  Sc  Sc34  1  1.00000000  0.65648367  0.33333333  1
  Sc  Sc35  1  1.00000000  0.65648367  0.66666667  1
  Sc  Sc36  1  0.16666667  0.09351633  0.00000000  1
  Sc  Sc37  1  0.16666667  0.09351633  0.33333333  1
  Sc  Sc38  1  0.16666667  0.09351633  0.66666667  1
  Sc  Sc39  1  0.16666667  0.59351633  0.00000000  1
  Sc  Sc40  1  0.16666667  0.59351633  0.33333333  1
  Sc  Sc41  1  0.16666667  0.59351633  0.66666667  1
  Sc  Sc42  1  0.50000000  0.09351633  0.00000000  1
  Sc  Sc43  1  0.50000000  0.09351633  0.33333333  1
  Sc  Sc44  1  0.50000000  0.09351633  0.66666667  1
  Sc  Sc45  1  0.50000000  0.59351633  0.00000000  1
  Sc  Sc46  1  0.50000000  0.59351633  0.33333333  1
  Sc  Sc47  1  0.50000000  0.59351633  0.66666667  1
  Sc  Sc48  1  0.83333333  0.09351633  0.00000000  1
  Sc  Sc49  1  0.83333333  0.09351633  0.33333333  1
  Sc  Sc50  1  0.83333333  0.09351633  0.66666667  1
  Sc  Sc51  1  0.83333333  0.59351633  0.00000000  1
  Sc  Sc52  1  0.83333333  0.59351633  0.33333333  1
  Sc  Sc53  1  0.83333333  0.59351633  0.66666667  1
  Sc  Sc54  1  0.33333333  0.34351633  0.00000000  1
  Sc  Sc55  1  0.33333333  0.34351633  0.33333333  1
  Sc  Sc56  1  0.33333333  0.34351633  0.66666667  1
  Sc  Sc57  1  0.33333333  0.84351633  0.00000000  1
  Sc  Sc58  1  0.33333333  0.84351633  0.33333333  1
  Sc  Sc59  1  0.33333333  0.84351633  0.66666667  1
  Sc  Sc60  1  0.66666667  0.34351633  0.00000000  1
  Sc  Sc61  1  0.66666667  0.34351633  0.33333333  1
  Sc  Sc62  1  0.66666667  0.34351633  0.66666667  1
  Sc  Sc63  1  0.66666667  0.84351633  0.00000000  1
  Sc  Sc64  1  0.66666667  0.84351633  0.33333333  1
  Sc  Sc65  1  0.66666667  0.84351633  0.66666667  1
  Sc  Sc66  1  1.00000000  0.34351633  0.00000000  1
  Sc  Sc67  1  1.00000000  0.34351633  0.33333333  1
  Sc  Sc68  1  1.00000000  0.34351633  0.66666667  1
  Sc  Sc69  1  1.00000000  0.84351633  0.00000000  1
  Sc  Sc70  1  1.00000000  0.84351633  0.33333333  1
  Sc  Sc71  1  1.00000000  0.84351633  0.66666667  1
  Ti  Ti72  1  0.24721954  -0.00000000  0.20205793  1
  Ti  Ti73  1  0.24721954  -0.00000000  0.53539126  1
  Ti  Ti74  1  0.24721954  -0.00000000  0.86872460  1
  Ti  Ti75  1  0.24721954  0.50000000  0.20205793  1
  Ti  Ti76  1  0.24721954  0.50000000  0.53539126  1
  Ti  Ti77  1  0.24721954  0.50000000  0.86872460  1
  Ti  Ti78  1  0.58055288  -0.00000000  0.20205793  1
  Ti  Ti79  1  0.58055288  -0.00000000  0.53539126  1
  Ti  Ti80  1  0.58055288  -0.00000000  0.86872460  1
  Ti  Ti81  1  0.58055288  0.50000000  0.20205793  1
  Ti  Ti82  1  0.58055288  0.50000000  0.53539126  1
  Ti  Ti83  1  0.58055288  0.50000000  0.86872460  1
  Ti  Ti84  1  0.91388621  -0.00000000  0.20205793  1
  Ti  Ti85  1  0.91388621  -0.00000000  0.53539126  1
  Ti  Ti86  1  0.91388621  -0.00000000  0.86872460  1
  Ti  Ti87  1  0.91388621  0.50000000  0.20205793  1
  Ti  Ti88  1  0.91388621  0.50000000  0.53539126  1
  Ti  Ti89  1  0.91388621  0.50000000  0.86872460  1
  Ti  Ti90  1  0.41388621  0.25000000  0.20205793  1
  Ti  Ti91  1  0.41388621  0.25000000  0.53539126  1
  Ti  Ti92  1  0.41388621  0.25000000  0.86872460  1
  Ti  Ti93  1  0.41388621  0.75000000  0.20205793  1
  Ti  Ti94  1  0.41388621  0.75000000  0.53539126  1
  Ti  Ti95  1  0.41388621  0.75000000  0.86872460  1
  Ti  Ti96  1  0.74721954  0.25000000  0.20205793  1
  Ti  Ti97  1  0.74721954  0.25000000  0.53539126  1
  Ti  Ti98  1  0.74721954  0.25000000  0.86872460  1
  Ti  Ti99  1  0.74721954  0.75000000  0.20205793  1
  Ti  Ti100  1  0.74721954  0.75000000  0.53539126  1
  Ti  Ti101  1  0.74721954  0.75000000  0.86872460  1
  Ti  Ti102  1  1.08055288  0.25000000  0.20205793  1
  Ti  Ti103  1  1.08055288  0.25000000  0.53539126  1
  Ti  Ti104  1  1.08055288  0.25000000  0.86872460  1
  Ti  Ti105  1  1.08055288  0.75000000  0.20205793  1
  Ti  Ti106  1  1.08055288  0.75000000  0.53539126  1
  Ti  Ti107  1  1.08055288  0.75000000  0.86872460  1
  Ti  Ti108  1  0.08611379  -0.00000000  0.13127540  1
  Ti  Ti109  1  0.08611379  -0.00000000  0.46460874  1
  Ti  Ti110  1  0.08611379  -0.00000000  0.79794207  1
  Ti  Ti111  1  0.08611379  0.50000000  0.13127540  1
  Ti  Ti112  1  0.08611379  0.50000000  0.46460874  1
  Ti  Ti113  1  0.08611379  0.50000000  0.79794207  1
  Ti  Ti114  1  0.41944712  -0.00000000  0.13127540  1
  Ti  Ti115  1  0.41944712  -0.00000000  0.46460874  1
  Ti  Ti116  1  0.41944712  -0.00000000  0.79794207  1
  Ti  Ti117  1  0.41944712  0.50000000  0.13127540  1
  Ti  Ti118  1  0.41944712  0.50000000  0.46460874  1
  Ti  Ti119  1  0.41944712  0.50000000  0.79794207  1
  Ti  Ti120  1  0.75278046  -0.00000000  0.13127540  1
  Ti  Ti121  1  0.75278046  -0.00000000  0.46460874  1
  Ti  Ti122  1  0.75278046  -0.00000000  0.79794207  1
  Ti  Ti123  1  0.75278046  0.50000000  0.13127540  1
  Ti  Ti124  1  0.75278046  0.50000000  0.46460874  1
  Ti  Ti125  1  0.75278046  0.50000000  0.79794207  1
  Ti  Ti126  1  0.25278046  0.25000000  0.13127540  1
  Ti  Ti127  1  0.25278046  0.25000000  0.46460874  1
  Ti  Ti128  1  0.25278046  0.25000000  0.79794207  1
  Ti  Ti129  1  0.25278046  0.75000000  0.13127540  1
  Ti  Ti130  1  0.25278046  0.75000000  0.46460874  1
  Ti  Ti131  1  0.25278046  0.75000000  0.79794207  1
  Ti  Ti132  1  0.58611379  0.25000000  0.13127540  1
  Ti  Ti133  1  0.58611379  0.25000000  0.46460874  1
  Ti  Ti134  1  0.58611379  0.25000000  0.79794207  1
  Ti  Ti135  1  0.58611379  0.75000000  0.13127540  1
  Ti  Ti136  1  0.58611379  0.75000000  0.46460874  1
  Ti  Ti137  1  0.58611379  0.75000000  0.79794207  1
  Ti  Ti138  1  0.91944712  0.25000000  0.13127540  1
  Ti  Ti139  1  0.91944712  0.25000000  0.46460874  1
  Ti  Ti140  1  0.91944712  0.25000000  0.79794207  1
  Ti  Ti141  1  0.91944712  0.75000000  0.13127540  1
  Ti  Ti142  1  0.91944712  0.75000000  0.46460874  1
  Ti  Ti143  1  0.91944712  0.75000000  0.79794207  1
  O  O144  1  0.25691122  0.08742999  0.26724900  1
  O  O145  1  0.25691122  0.08742999  0.60058233  1
  O  O146  1  0.25691122  0.08742999  0.93391567  1
  O  O147  1  0.25691122  0.58742999  0.26724900  1
  O  O148  1  0.25691122  0.58742999  0.60058233  1
  O  O149  1  0.25691122  0.58742999  0.93391567  1
  O  O150  1  0.59024456  0.08742999  0.26724900  1
  O  O151  1  0.59024456  0.08742999  0.60058233  1
  O  O152  1  0.59024456  0.08742999  0.93391567  1
  O  O153  1  0.59024456  0.58742999  0.26724900  1
  O  O154  1  0.59024456  0.58742999  0.60058233  1
  O  O155  1  0.59024456  0.58742999  0.93391567  1
  O  O156  1  0.92357789  0.08742999  0.26724900  1
  O  O157  1  0.92357789  0.08742999  0.60058233  1
  O  O158  1  0.92357789  0.08742999  0.93391567  1
  O  O159  1  0.92357789  0.58742999  0.26724900  1
  O  O160  1  0.92357789  0.58742999  0.60058233  1
  O  O161  1  0.92357789  0.58742999  0.93391567  1
  O  O162  1  0.42357789  0.33742999  0.26724900  1
  O  O163  1  0.42357789  0.33742999  0.60058233  1
  O  O164  1  0.42357789  0.33742999  0.93391567  1
  O  O165  1  0.42357789  0.83742999  0.26724900  1
  O  O166  1  0.42357789  0.83742999  0.60058233  1
  O  O167  1  0.42357789  0.83742999  0.93391567  1
  O  O168  1  0.75691122  0.33742999  0.26724900  1
  O  O169  1  0.75691122  0.33742999  0.60058233  1
  O  O170  1  0.75691122  0.33742999  0.93391567  1
  O  O171  1  0.75691122  0.83742999  0.26724900  1
  O  O172  1  0.75691122  0.83742999  0.60058233  1
  O  O173  1  0.75691122  0.83742999  0.93391567  1
  O  O174  1  1.09024456  0.33742999  0.26724900  1
  O  O175  1  1.09024456  0.33742999  0.60058233  1
  O  O176  1  1.09024456  0.33742999  0.93391567  1
  O  O177  1  1.09024456  0.83742999  0.26724900  1
  O  O178  1  1.09024456  0.83742999  0.60058233  1
  O  O179  1  1.09024456  0.83742999  0.93391567  1
  O  O180  1  0.25691122  -0.08742999  0.26724900  1
  O  O181  1  0.25691122  -0.08742999  0.60058233  1
  O  O182  1  0.25691122  -0.08742999  0.93391567  1
  O  O183  1  0.25691122  0.41257001  0.26724900  1
  O  O184  1  0.25691122  0.41257001  0.60058233  1
  O  O185  1  0.25691122  0.41257001  0.93391567  1
  O  O186  1  0.59024456  -0.08742999  0.26724900  1
  O  O187  1  0.59024456  -0.08742999  0.60058233  1
  O  O188  1  0.59024456  -0.08742999  0.93391567  1
  O  O189  1  0.59024456  0.41257001  0.26724900  1
  O  O190  1  0.59024456  0.41257001  0.60058233  1
  O  O191  1  0.59024456  0.41257001  0.93391567  1
  O  O192  1  0.92357789  -0.08742999  0.26724900  1
  O  O193  1  0.92357789  -0.08742999  0.60058233  1
  O  O194  1  0.92357789  -0.08742999  0.93391567  1
  O  O195  1  0.92357789  0.41257001  0.26724900  1
  O  O196  1  0.92357789  0.41257001  0.60058233  1
  O  O197  1  0.92357789  0.41257001  0.93391567  1
  O  O198  1  0.42357789  0.16257001  0.26724900  1
  O  O199  1  0.42357789  0.16257001  0.60058233  1
  O  O200  1  0.42357789  0.16257001  0.93391567  1
  O  O201  1  0.42357789  0.66257001  0.26724900  1
  O  O202  1  0.42357789  0.66257001  0.60058233  1
  O  O203  1  0.42357789  0.66257001  0.93391567  1
  O  O204  1  0.75691122  0.16257001  0.26724900  1
  O  O205  1  0.75691122  0.16257001  0.60058233  1
  O  O206  1  0.75691122  0.16257001  0.93391567  1
  O  O207  1  0.75691122  0.66257001  0.26724900  1
  O  O208  1  0.75691122  0.66257001  0.60058233  1
  O  O209  1  0.75691122  0.66257001  0.93391567  1
  O  O210  1  1.09024456  0.16257001  0.26724900  1
  O  O211  1  1.09024456  0.16257001  0.60058233  1
  O  O212  1  1.09024456  0.16257001  0.93391567  1
  O  O213  1  1.09024456  0.66257001  0.26724900  1
  O  O214  1  1.09024456  0.66257001  0.60058233  1
  O  O215  1  1.09024456  0.66257001  0.93391567  1
  O  O216  1  0.18853127  0.00000000  0.08853296  1
  O  O217  1  0.18853127  0.00000000  0.42186630  1
  O  O218  1  0.18853127  0.00000000  0.75519963  1
  O  O219  1  0.18853127  0.50000000  0.08853296  1
  O  O220  1  0.18853127  0.50000000  0.42186630  1
  O  O221  1  0.18853127  0.50000000  0.75519963  1
  O  O222  1  0.52186461  0.00000000  0.08853296  1
  O  O223  1  0.52186461  0.00000000  0.42186630  1
  O  O224  1  0.52186461  0.00000000  0.75519963  1
  O  O225  1  0.52186461  0.50000000  0.08853296  1
  O  O226  1  0.52186461  0.50000000  0.42186630  1
  O  O227  1  0.52186461  0.50000000  0.75519963  1
  O  O228  1  0.85519794  0.00000000  0.08853296  1
  O  O229  1  0.85519794  0.00000000  0.42186630  1
  O  O230  1  0.85519794  0.00000000  0.75519963  1
  O  O231  1  0.85519794  0.50000000  0.08853296  1
  O  O232  1  0.85519794  0.50000000  0.42186630  1
  O  O233  1  0.85519794  0.50000000  0.75519963  1
  O  O234  1  0.35519794  0.25000000  0.08853296  1
  O  O235  1  0.35519794  0.25000000  0.42186630  1
  O  O236  1  0.35519794  0.25000000  0.75519963  1
  O  O237  1  0.35519794  0.75000000  0.08853296  1
  O  O238  1  0.35519794  0.75000000  0.42186630  1
  O  O239  1  0.35519794  0.75000000  0.75519963  1
  O  O240  1  0.68853127  0.25000000  0.08853296  1
  O  O241  1  0.68853127  0.25000000  0.42186630  1
  O  O242  1  0.68853127  0.25000000  0.75519963  1
  O  O243  1  0.68853127  0.75000000  0.08853296  1
  O  O244  1  0.68853127  0.75000000  0.42186630  1
  O  O245  1  0.68853127  0.75000000  0.75519963  1
  O  O246  1  1.02186461  0.25000000  0.08853296  1
  O  O247  1  1.02186461  0.25000000  0.42186630  1
  O  O248  1  1.02186461  0.25000000  0.75519963  1
  O  O249  1  1.02186461  0.75000000  0.08853296  1
  O  O250  1  1.02186461  0.75000000  0.42186630  1
  O  O251  1  1.02186461  0.75000000  0.75519963  1
  O  O252  1  -0.00000000  0.00000000  0.16666667  1
  O  O253  1  -0.00000000  0.00000000  0.50000000  1
  O  O254  1  -0.00000000  0.00000000  0.83333333  1
  O  O255  1  -0.00000000  0.50000000  0.16666667  1
  O  O256  1  -0.00000000  0.50000000  0.50000000  1
  O  O257  1  -0.00000000  0.50000000  0.83333333  1
  O  O258  1  0.33333333  0.00000000  0.16666667  1
  O  O259  1  0.33333333  0.00000000  0.50000000  1
  O  O260  1  0.33333333  0.00000000  0.83333333  1
  O  O261  1  0.33333333  0.50000000  0.16666667  1
  O  O262  1  0.33333333  0.50000000  0.50000000  1
  O  O263  1  0.33333333  0.50000000  0.83333333  1
  O  O264  1  0.66666667  0.00000000  0.16666667  1
  O  O265  1  0.66666667  0.00000000  0.50000000  1
  O  O266  1  0.66666667  0.00000000  0.83333333  1
  O  O267  1  0.66666667  0.50000000  0.16666667  1
  O  O268  1  0.66666667  0.50000000  0.50000000  1
  O  O269  1  0.66666667  0.50000000  0.83333333  1
  O  O270  1  0.16666667  0.25000000  0.16666667  1
  O  O271  1  0.16666667  0.25000000  0.50000000  1
  O  O272  1  0.16666667  0.25000000  0.83333333  1
  O  O273  1  0.16666667  0.75000000  0.16666667  1
  O  O274  1  0.16666667  0.75000000  0.50000000  1
  O  O275  1  0.16666667  0.75000000  0.83333333  1
  O  O276  1  0.50000000  0.25000000  0.16666667  1
  O  O277  1  0.50000000  0.25000000  0.50000000  1
  O  O278  1  0.50000000  0.25000000  0.83333333  1
  O  O279  1  0.50000000  0.75000000  0.16666667  1
  O  O280  1  0.50000000  0.75000000  0.50000000  1
  O  O281  1  0.50000000  0.75000000  0.83333333  1
  O  O282  1  0.83333333  0.25000000  0.16666667  1
  O  O283  1  0.83333333  0.25000000  0.50000000  1
  O  O284  1  0.83333333  0.25000000  0.83333333  1
  O  O285  1  0.83333333  0.75000000  0.16666667  1
  O  O286  1  0.83333333  0.75000000  0.50000000  1
  O  O287  1  0.83333333  0.75000000  0.83333333  1
  O  O288  1  0.14480206  0.00000000  0.24480037  1
  O  O289  1  0.14480206  0.00000000  0.57813370  1
  O  O290  1  0.14480206  0.00000000  0.91146704  1
  O  O291  1  0.14480206  0.50000000  0.24480037  1
  O  O292  1  0.14480206  0.50000000  0.57813370  1
  O  O293  1  0.14480206  0.50000000  0.91146704  1
  O  O294  1  0.47813539  0.00000000  0.24480037  1
  O  O295  1  0.47813539  0.00000000  0.57813370  1
  O  O296  1  0.47813539  0.00000000  0.91146704  1
  O  O297  1  0.47813539  0.50000000  0.24480037  1
  O  O298  1  0.47813539  0.50000000  0.57813370  1
  O  O299  1  0.47813539  0.50000000  0.91146704  1
  O  O300  1  0.81146873  0.00000000  0.24480037  1
  O  O301  1  0.81146873  0.00000000  0.57813370  1
  O  O302  1  0.81146873  0.00000000  0.91146704  1
  O  O303  1  0.81146873  0.50000000  0.24480037  1
  O  O304  1  0.81146873  0.50000000  0.57813370  1
  O  O305  1  0.81146873  0.50000000  0.91146704  1
  O  O306  1  0.31146873  0.25000000  0.24480037  1
  O  O307  1  0.31146873  0.25000000  0.57813370  1
  O  O308  1  0.31146873  0.25000000  0.91146704  1
  O  O309  1  0.31146873  0.75000000  0.24480037  1
  O  O310  1  0.31146873  0.75000000  0.57813370  1
  O  O311  1  0.31146873  0.75000000  0.91146704  1
  O  O312  1  0.64480206  0.25000000  0.24480037  1
  O  O313  1  0.64480206  0.25000000  0.57813370  1
  O  O314  1  0.64480206  0.25000000  0.91146704  1
  O  O315  1  0.64480206  0.75000000  0.24480037  1
  O  O316  1  0.64480206  0.75000000  0.57813370  1
  O  O317  1  0.64480206  0.75000000  0.91146704  1
  O  O318  1  0.97813539  0.25000000  0.24480037  1
  O  O319  1  0.97813539  0.25000000  0.57813370  1
  O  O320  1  0.97813539  0.25000000  0.91146704  1
  O  O321  1  0.97813539  0.75000000  0.24480037  1
  O  O322  1  0.97813539  0.75000000  0.57813370  1
  O  O323  1  0.97813539  0.75000000  0.91146704  1
  O  O324  1  0.07642211  0.08742999  0.06608433  1
  O  O325  1  0.07642211  0.08742999  0.39941767  1
  O  O326  1  0.07642211  0.08742999  0.73275100  1
  O  O327  1  0.07642211  0.58742999  0.06608433  1
  O  O328  1  0.07642211  0.58742999  0.39941767  1
  O  O329  1  0.07642211  0.58742999  0.73275100  1
  O  O330  1  0.40975544  0.08742999  0.06608433  1
  O  O331  1  0.40975544  0.08742999  0.39941767  1
  O  O332  1  0.40975544  0.08742999  0.73275100  1
  O  O333  1  0.40975544  0.58742999  0.06608433  1
  O  O334  1  0.40975544  0.58742999  0.39941767  1
  O  O335  1  0.40975544  0.58742999  0.73275100  1
  O  O336  1  0.74308878  0.08742999  0.06608433  1
  O  O337  1  0.74308878  0.08742999  0.39941767  1
  O  O338  1  0.74308878  0.08742999  0.73275100  1
  O  O339  1  0.74308878  0.58742999  0.06608433  1
  O  O340  1  0.74308878  0.58742999  0.39941767  1
  O  O341  1  0.74308878  0.58742999  0.73275100  1
  O  O342  1  0.24308878  0.33742999  0.06608433  1
  O  O343  1  0.24308878  0.33742999  0.39941767  1
  O  O344  1  0.24308878  0.33742999  0.73275100  1
  O  O345  1  0.24308878  0.83742999  0.06608433  1
  O  O346  1  0.24308878  0.83742999  0.39941767  1
  O  O347  1  0.24308878  0.83742999  0.73275100  1
  O  O348  1  0.57642211  0.33742999  0.06608433  1
  O  O349  1  0.57642211  0.33742999  0.39941767  1
  O  O350  1  0.57642211  0.33742999  0.73275100  1
  O  O351  1  0.57642211  0.83742999  0.06608433  1
  O  O352  1  0.57642211  0.83742999  0.39941767  1
  O  O353  1  0.57642211  0.83742999  0.73275100  1
  O  O354  1  0.90975544  0.33742999  0.06608433  1
  O  O355  1  0.90975544  0.33742999  0.39941767  1
  O  O356  1  0.90975544  0.33742999  0.73275100  1
  O  O357  1  0.90975544  0.83742999  0.06608433  1
  O  O358  1  0.90975544  0.83742999  0.39941767  1
  O  O359  1  0.90975544  0.83742999  0.73275100  1
  O  O360  1  0.07642211  -0.08742999  0.06608433  1
  O  O361  1  0.07642211  -0.08742999  0.39941767  1
  O  O362  1  0.07642211  -0.08742999  0.73275100  1
  O  O363  1  0.07642211  0.41257001  0.06608433  1
  O  O364  1  0.07642211  0.41257001  0.39941767  1
  O  O365  1  0.07642211  0.41257001  0.73275100  1
  O  O366  1  0.40975544  -0.08742999  0.06608433  1
  O  O367  1  0.40975544  -0.08742999  0.39941767  1
  O  O368  1  0.40975544  -0.08742999  0.73275100  1
  O  O369  1  0.40975544  0.41257001  0.06608433  1
  O  O370  1  0.40975544  0.41257001  0.39941767  1
  O  O371  1  0.40975544  0.41257001  0.73275100  1
  O  O372  1  0.74308878  -0.08742999  0.06608433  1
  O  O373  1  0.74308878  -0.08742999  0.39941767  1
  O  O374  1  0.74308878  -0.08742999  0.73275100  1
  O  O375  1  0.74308878  0.41257001  0.06608433  1
  O  O376  1  0.74308878  0.41257001  0.39941767  1
  O  O377  1  0.74308878  0.41257001  0.73275100  1
  O  O378  1  0.24308878  0.16257001  0.06608433  1
  O  O379  1  0.24308878  0.16257001  0.39941767  1
  O  O380  1  0.24308878  0.16257001  0.73275100  1
  O  O381  1  0.24308878  0.66257001  0.06608433  1
  O  O382  1  0.24308878  0.66257001  0.39941767  1
  O  O383  1  0.24308878  0.66257001  0.73275100  1
  O  O384  1  0.57642211  0.16257001  0.06608433  1
  O  O385  1  0.57642211  0.16257001  0.39941767  1
  O  O386  1  0.57642211  0.16257001  0.73275100  1
  O  O387  1  0.57642211  0.66257001  0.06608433  1
  O  O388  1  0.57642211  0.66257001  0.39941767  1
  O  O389  1  0.57642211  0.66257001  0.73275100  1
  O  O390  1  0.90975544  0.16257001  0.06608433  1
  O  O391  1  0.90975544  0.16257001  0.39941767  1
  O  O392  1  0.90975544  0.16257001  0.73275100  1
  O  O393  1  0.90975544  0.66257001  0.06608433  1
  O  O394  1  0.90975544  0.66257001  0.39941767  1
  O  O395  1  0.90975544  0.66257001  0.73275100  1
