# generated using pymatgen
data_Cs12Sn2As6O
_symmetry_space_group_name_H-M   'P 1'
_cell_length_a   23.98379217
_cell_length_b   23.98379217
_cell_length_c   25.28024158
_cell_angle_alpha   90.00000000
_cell_angle_beta   90.00000000
_cell_angle_gamma   120.00000000
_symmetry_Int_Tables_number   1
_chemical_formula_structural   Cs12Sn2As6O
_chemical_formula_sum   'Cs192 Sn32 As96 O16'
_cell_volume   12593.53216649
_cell_formula_units_Z   16
loop_
 _symmetry_equiv_pos_site_id
 _symmetry_equiv_pos_as_xyz
  1  'x, y, z'
loop_
 _atom_site_type_symbol
 _atom_site_label
 _atom_site_symmetry_multiplicity
 _atom_site_fract_x
 _atom_site_fract_y
 _atom_site_fract_z
 _atom_site_occupancy
  Cs  Cs0  1  0.11710760  0.05855380  0.06741218  1
  Cs  Cs1  1  0.11710760  0.05855380  0.31741218  1
  Cs  Cs2  1  0.11710760  0.05855380  0.56741218  1
  Cs  Cs3  1  0.11710760  0.05855380  0.81741218  1
  Cs  Cs4  1  0.11710760  0.55855380  0.06741218  1
  Cs  Cs5  1  0.11710760  0.55855380  0.31741218  1
  Cs  Cs6  1  0.11710760  0.55855380  0.56741218  1
  Cs  Cs7  1  0.11710760  0.55855380  0.81741218  1
  Cs  Cs8  1  0.61710760  0.05855380  0.06741218  1
  Cs  Cs9  1  0.61710760  0.05855380  0.31741218  1
  Cs  Cs10  1  0.61710760  0.05855380  0.56741218  1
  Cs  Cs11  1  0.61710760  0.05855380  0.81741218  1
  Cs  Cs12  1  0.61710760  0.55855380  0.06741218  1
  Cs  Cs13  1  0.61710760  0.55855380  0.31741218  1
  Cs  Cs14  1  0.61710760  0.55855380  0.56741218  1
  Cs  Cs15  1  0.61710760  0.55855380  0.81741218  1
  Cs  Cs16  1  0.44144620  0.05855380  0.06741218  1
  Cs  Cs17  1  0.44144620  0.05855380  0.31741218  1
  Cs  Cs18  1  0.44144620  0.05855380  0.56741218  1
  Cs  Cs19  1  0.44144620  0.05855380  0.81741218  1
  Cs  Cs20  1  0.44144620  0.55855380  0.06741218  1
  Cs  Cs21  1  0.44144620  0.55855380  0.31741218  1
  Cs  Cs22  1  0.44144620  0.55855380  0.56741218  1
  Cs  Cs23  1  0.44144620  0.55855380  0.81741218  1
  Cs  Cs24  1  0.94144620  0.05855380  0.06741218  1
  Cs  Cs25  1  0.94144620  0.05855380  0.31741218  1
  Cs  Cs26  1  0.94144620  0.05855380  0.56741218  1
  Cs  Cs27  1  0.94144620  0.05855380  0.81741218  1
  Cs  Cs28  1  0.94144620  0.55855380  0.06741218  1
  Cs  Cs29  1  0.94144620  0.55855380  0.31741218  1
  Cs  Cs30  1  0.94144620  0.55855380  0.56741218  1
  Cs  Cs31  1  0.94144620  0.55855380  0.81741218  1
  Cs  Cs32  1  0.44144620  0.38289240  0.06741218  1
  Cs  Cs33  1  0.44144620  0.38289240  0.31741218  1
  Cs  Cs34  1  0.44144620  0.38289240  0.56741218  1
  Cs  Cs35  1  0.44144620  0.38289240  0.81741218  1
  Cs  Cs36  1  0.44144620  0.88289240  0.06741218  1
  Cs  Cs37  1  0.44144620  0.88289240  0.31741218  1
  Cs  Cs38  1  0.44144620  0.88289240  0.56741218  1
  Cs  Cs39  1  0.44144620  0.88289240  0.81741218  1
  Cs  Cs40  1  0.94144620  0.38289240  0.06741218  1
  Cs  Cs41  1  0.94144620  0.38289240  0.31741218  1
  Cs  Cs42  1  0.94144620  0.38289240  0.56741218  1
  Cs  Cs43  1  0.94144620  0.38289240  0.81741218  1
  Cs  Cs44  1  0.94144620  0.88289240  0.06741218  1
  Cs  Cs45  1  0.94144620  0.88289240  0.31741218  1
  Cs  Cs46  1  0.94144620  0.88289240  0.56741218  1
  Cs  Cs47  1  0.94144620  0.88289240  0.81741218  1
  Cs  Cs48  1  0.38289240  0.44144620  0.18258782  1
  Cs  Cs49  1  0.38289240  0.44144620  0.43258782  1
  Cs  Cs50  1  0.38289240  0.44144620  0.68258782  1
  Cs  Cs51  1  0.38289240  0.44144620  0.93258782  1
  Cs  Cs52  1  0.38289240  0.94144620  0.18258782  1
  Cs  Cs53  1  0.38289240  0.94144620  0.43258782  1
  Cs  Cs54  1  0.38289240  0.94144620  0.68258782  1
  Cs  Cs55  1  0.38289240  0.94144620  0.93258782  1
  Cs  Cs56  1  0.88289240  0.44144620  0.18258782  1
  Cs  Cs57  1  0.88289240  0.44144620  0.43258782  1
  Cs  Cs58  1  0.88289240  0.44144620  0.68258782  1
  Cs  Cs59  1  0.88289240  0.44144620  0.93258782  1
  Cs  Cs60  1  0.88289240  0.94144620  0.18258782  1
  Cs  Cs61  1  0.88289240  0.94144620  0.43258782  1
  Cs  Cs62  1  0.88289240  0.94144620  0.68258782  1
  Cs  Cs63  1  0.88289240  0.94144620  0.93258782  1
  Cs  Cs64  1  0.05855380  0.44144620  0.18258782  1
  Cs  Cs65  1  0.05855380  0.44144620  0.43258782  1
  Cs  Cs66  1  0.05855380  0.44144620  0.68258782  1
  Cs  Cs67  1  0.05855380  0.44144620  0.93258782  1
  Cs  Cs68  1  0.05855380  0.94144620  0.18258782  1
  Cs  Cs69  1  0.05855380  0.94144620  0.43258782  1
  Cs  Cs70  1  0.05855380  0.94144620  0.68258782  1
  Cs  Cs71  1  0.05855380  0.94144620  0.93258782  1
  Cs  Cs72  1  0.55855380  0.44144620  0.18258782  1
  Cs  Cs73  1  0.55855380  0.44144620  0.43258782  1
  Cs  Cs74  1  0.55855380  0.44144620  0.68258782  1
  Cs  Cs75  1  0.55855380  0.44144620  0.93258782  1
  Cs  Cs76  1  0.55855380  0.94144620  0.18258782  1
  Cs  Cs77  1  0.55855380  0.94144620  0.43258782  1
  Cs  Cs78  1  0.55855380  0.94144620  0.68258782  1
  Cs  Cs79  1  0.55855380  0.94144620  0.93258782  1
  Cs  Cs80  1  0.05855380  0.11710760  0.18258782  1
  Cs  Cs81  1  0.05855380  0.11710760  0.43258782  1
  Cs  Cs82  1  0.05855380  0.11710760  0.68258782  1
  Cs  Cs83  1  0.05855380  0.11710760  0.93258782  1
  Cs  Cs84  1  0.05855380  0.61710760  0.18258782  1
  Cs  Cs85  1  0.05855380  0.61710760  0.43258782  1
  Cs  Cs86  1  0.05855380  0.61710760  0.68258782  1
  Cs  Cs87  1  0.05855380  0.61710760  0.93258782  1
  Cs  Cs88  1  0.55855380  0.11710760  0.18258782  1
  Cs  Cs89  1  0.55855380  0.11710760  0.43258782  1
  Cs  Cs90  1  0.55855380  0.11710760  0.68258782  1
  Cs  Cs91  1  0.55855380  0.11710760  0.93258782  1
  Cs  Cs92  1  0.55855380  0.61710760  0.18258782  1
  Cs  Cs93  1  0.55855380  0.61710760  0.43258782  1
  Cs  Cs94  1  0.55855380  0.61710760  0.68258782  1
  Cs  Cs95  1  0.55855380  0.61710760  0.93258782  1
  Cs  Cs96  1  0.45483255  0.22741627  0.06206984  1
  Cs  Cs97  1  0.45483255  0.22741627  0.31206984  1
  Cs  Cs98  1  0.45483255  0.22741627  0.56206984  1
  Cs  Cs99  1  0.45483255  0.22741627  0.81206984  1
  Cs  Cs100  1  0.45483255  0.72741627  0.06206984  1
  Cs  Cs101  1  0.45483255  0.72741627  0.31206984  1
  Cs  Cs102  1  0.45483255  0.72741627  0.56206984  1
  Cs  Cs103  1  0.45483255  0.72741627  0.81206984  1
  Cs  Cs104  1  0.95483255  0.22741627  0.06206984  1
  Cs  Cs105  1  0.95483255  0.22741627  0.31206984  1
  Cs  Cs106  1  0.95483255  0.22741627  0.56206984  1
  Cs  Cs107  1  0.95483255  0.22741627  0.81206984  1
  Cs  Cs108  1  0.95483255  0.72741627  0.06206984  1
  Cs  Cs109  1  0.95483255  0.72741627  0.31206984  1
  Cs  Cs110  1  0.95483255  0.72741627  0.56206984  1
  Cs  Cs111  1  0.95483255  0.72741627  0.81206984  1
  Cs  Cs112  1  0.27258373  0.22741627  0.06206984  1
  Cs  Cs113  1  0.27258373  0.22741627  0.31206984  1
  Cs  Cs114  1  0.27258373  0.22741627  0.56206984  1
  Cs  Cs115  1  0.27258373  0.22741627  0.81206984  1
  Cs  Cs116  1  0.27258373  0.72741627  0.06206984  1
  Cs  Cs117  1  0.27258373  0.72741627  0.31206984  1
  Cs  Cs118  1  0.27258373  0.72741627  0.56206984  1
  Cs  Cs119  1  0.27258373  0.72741627  0.81206984  1
  Cs  Cs120  1  0.77258373  0.22741627  0.06206984  1
  Cs  Cs121  1  0.77258373  0.22741627  0.31206984  1
  Cs  Cs122  1  0.77258373  0.22741627  0.56206984  1
  Cs  Cs123  1  0.77258373  0.22741627  0.81206984  1
  Cs  Cs124  1  0.77258373  0.72741627  0.06206984  1
  Cs  Cs125  1  0.77258373  0.72741627  0.31206984  1
  Cs  Cs126  1  0.77258373  0.72741627  0.56206984  1
  Cs  Cs127  1  0.77258373  0.72741627  0.81206984  1
  Cs  Cs128  1  0.27258373  0.04516745  0.06206984  1
  Cs  Cs129  1  0.27258373  0.04516745  0.31206984  1
  Cs  Cs130  1  0.27258373  0.04516745  0.56206984  1
  Cs  Cs131  1  0.27258373  0.04516745  0.81206984  1
  Cs  Cs132  1  0.27258373  0.54516745  0.06206984  1
  Cs  Cs133  1  0.27258373  0.54516745  0.31206984  1
  Cs  Cs134  1  0.27258373  0.54516745  0.56206984  1
  Cs  Cs135  1  0.27258373  0.54516745  0.81206984  1
  Cs  Cs136  1  0.77258373  0.04516745  0.06206984  1
  Cs  Cs137  1  0.77258373  0.04516745  0.31206984  1
  Cs  Cs138  1  0.77258373  0.04516745  0.56206984  1
  Cs  Cs139  1  0.77258373  0.04516745  0.81206984  1
  Cs  Cs140  1  0.77258373  0.54516745  0.06206984  1
  Cs  Cs141  1  0.77258373  0.54516745  0.31206984  1
  Cs  Cs142  1  0.77258373  0.54516745  0.56206984  1
  Cs  Cs143  1  0.77258373  0.54516745  0.81206984  1
  Cs  Cs144  1  0.04516745  0.27258373  0.18793016  1
  Cs  Cs145  1  0.04516745  0.27258373  0.43793016  1
  Cs  Cs146  1  0.04516745  0.27258373  0.68793016  1
  Cs  Cs147  1  0.04516745  0.27258373  0.93793016  1
  Cs  Cs148  1  0.04516745  0.77258373  0.18793016  1
  Cs  Cs149  1  0.04516745  0.77258373  0.43793016  1
  Cs  Cs150  1  0.04516745  0.77258373  0.68793016  1
  Cs  Cs151  1  0.04516745  0.77258373  0.93793016  1
  Cs  Cs152  1  0.54516745  0.27258373  0.18793016  1
  Cs  Cs153  1  0.54516745  0.27258373  0.43793016  1
  Cs  Cs154  1  0.54516745  0.27258373  0.68793016  1
  Cs  Cs155  1  0.54516745  0.27258373  0.93793016  1
  Cs  Cs156  1  0.54516745  0.77258373  0.18793016  1
  Cs  Cs157  1  0.54516745  0.77258373  0.43793016  1
  Cs  Cs158  1  0.54516745  0.77258373  0.68793016  1
  Cs  Cs159  1  0.54516745  0.77258373  0.93793016  1
  Cs  Cs160  1  0.22741627  0.27258373  0.18793016  1
  Cs  Cs161  1  0.22741627  0.27258373  0.43793016  1
  Cs  Cs162  1  0.22741627  0.27258373  0.68793016  1
  Cs  Cs163  1  0.22741627  0.27258373  0.93793016  1
  Cs  Cs164  1  0.22741627  0.77258373  0.18793016  1
  Cs  Cs165  1  0.22741627  0.77258373  0.43793016  1
  Cs  Cs166  1  0.22741627  0.77258373  0.68793016  1
  Cs  Cs167  1  0.22741627  0.77258373  0.93793016  1
  Cs  Cs168  1  0.72741627  0.27258373  0.18793016  1
  Cs  Cs169  1  0.72741627  0.27258373  0.43793016  1
  Cs  Cs170  1  0.72741627  0.27258373  0.68793016  1
  Cs  Cs171  1  0.72741627  0.27258373  0.93793016  1
  Cs  Cs172  1  0.72741627  0.77258373  0.18793016  1
  Cs  Cs173  1  0.72741627  0.77258373  0.43793016  1
  Cs  Cs174  1  0.72741627  0.77258373  0.68793016  1
  Cs  Cs175  1  0.72741627  0.77258373  0.93793016  1
  Cs  Cs176  1  0.22741627  0.45483255  0.18793016  1
  Cs  Cs177  1  0.22741627  0.45483255  0.43793016  1
  Cs  Cs178  1  0.22741627  0.45483255  0.68793016  1
  Cs  Cs179  1  0.22741627  0.45483255  0.93793016  1
  Cs  Cs180  1  0.22741627  0.95483255  0.18793016  1
  Cs  Cs181  1  0.22741627  0.95483255  0.43793016  1
  Cs  Cs182  1  0.22741627  0.95483255  0.68793016  1
  Cs  Cs183  1  0.22741627  0.95483255  0.93793016  1
  Cs  Cs184  1  0.72741627  0.45483255  0.18793016  1
  Cs  Cs185  1  0.72741627  0.45483255  0.43793016  1
  Cs  Cs186  1  0.72741627  0.45483255  0.68793016  1
  Cs  Cs187  1  0.72741627  0.45483255  0.93793016  1
  Cs  Cs188  1  0.72741627  0.95483255  0.18793016  1
  Cs  Cs189  1  0.72741627  0.95483255  0.43793016  1
  Cs  Cs190  1  0.72741627  0.95483255  0.68793016  1
  Cs  Cs191  1  0.72741627  0.95483255  0.93793016  1
  Sn  Sn192  1  0.33333333  0.16666667  0.18688616  1
  Sn  Sn193  1  0.33333333  0.16666667  0.43688616  1
  Sn  Sn194  1  0.33333333  0.16666667  0.68688616  1
  Sn  Sn195  1  0.33333333  0.16666667  0.93688616  1
  Sn  Sn196  1  0.33333333  0.66666667  0.18688616  1
  Sn  Sn197  1  0.33333333  0.66666667  0.43688616  1
  Sn  Sn198  1  0.33333333  0.66666667  0.68688616  1
  Sn  Sn199  1  0.33333333  0.66666667  0.93688616  1
  Sn  Sn200  1  0.83333333  0.16666667  0.18688616  1
  Sn  Sn201  1  0.83333333  0.16666667  0.43688616  1
  Sn  Sn202  1  0.83333333  0.16666667  0.68688616  1
  Sn  Sn203  1  0.83333333  0.16666667  0.93688616  1
  Sn  Sn204  1  0.83333333  0.66666667  0.18688616  1
  Sn  Sn205  1  0.83333333  0.66666667  0.43688616  1
  Sn  Sn206  1  0.83333333  0.66666667  0.68688616  1
  Sn  Sn207  1  0.83333333  0.66666667  0.93688616  1
  Sn  Sn208  1  0.16666667  0.33333333  0.06311384  1
  Sn  Sn209  1  0.16666667  0.33333333  0.31311384  1
  Sn  Sn210  1  0.16666667  0.33333333  0.56311384  1
  Sn  Sn211  1  0.16666667  0.33333333  0.81311384  1
  Sn  Sn212  1  0.16666667  0.83333333  0.06311384  1
  Sn  Sn213  1  0.16666667  0.83333333  0.31311384  1
  Sn  Sn214  1  0.16666667  0.83333333  0.56311384  1
  Sn  Sn215  1  0.16666667  0.83333333  0.81311384  1
  Sn  Sn216  1  0.66666667  0.33333333  0.06311384  1
  Sn  Sn217  1  0.66666667  0.33333333  0.31311384  1
  Sn  Sn218  1  0.66666667  0.33333333  0.56311384  1
  Sn  Sn219  1  0.66666667  0.33333333  0.81311384  1
  Sn  Sn220  1  0.66666667  0.83333333  0.06311384  1
  Sn  Sn221  1  0.66666667  0.83333333  0.31311384  1
  Sn  Sn222  1  0.66666667  0.83333333  0.56311384  1
  Sn  Sn223  1  0.66666667  0.83333333  0.81311384  1
  As  As224  1  0.28931957  0.39465978  0.06260511  1
  As  As225  1  0.28931957  0.39465978  0.31260511  1
  As  As226  1  0.28931957  0.39465978  0.56260511  1
  As  As227  1  0.28931957  0.39465978  0.81260511  1
  As  As228  1  0.28931957  0.89465978  0.06260511  1
  As  As229  1  0.28931957  0.89465978  0.31260511  1
  As  As230  1  0.28931957  0.89465978  0.56260511  1
  As  As231  1  0.28931957  0.89465978  0.81260511  1
  As  As232  1  0.78931957  0.39465978  0.06260511  1
  As  As233  1  0.78931957  0.39465978  0.31260511  1
  As  As234  1  0.78931957  0.39465978  0.56260511  1
  As  As235  1  0.78931957  0.39465978  0.81260511  1
  As  As236  1  0.78931957  0.89465978  0.06260511  1
  As  As237  1  0.78931957  0.89465978  0.31260511  1
  As  As238  1  0.78931957  0.89465978  0.56260511  1
  As  As239  1  0.78931957  0.89465978  0.81260511  1
  As  As240  1  0.10534022  0.39465978  0.06260511  1
  As  As241  1  0.10534022  0.39465978  0.31260511  1
  As  As242  1  0.10534022  0.39465978  0.56260511  1
  As  As243  1  0.10534022  0.39465978  0.81260511  1
  As  As244  1  0.10534022  0.89465978  0.06260511  1
  As  As245  1  0.10534022  0.89465978  0.31260511  1
  As  As246  1  0.10534022  0.89465978  0.56260511  1
  As  As247  1  0.10534022  0.89465978  0.81260511  1
  As  As248  1  0.60534022  0.39465978  0.06260511  1
  As  As249  1  0.60534022  0.39465978  0.31260511  1
  As  As250  1  0.60534022  0.39465978  0.56260511  1
  As  As251  1  0.60534022  0.39465978  0.81260511  1
  As  As252  1  0.60534022  0.89465978  0.06260511  1
  As  As253  1  0.60534022  0.89465978  0.31260511  1
  As  As254  1  0.60534022  0.89465978  0.56260511  1
  As  As255  1  0.60534022  0.89465978  0.81260511  1
  As  As256  1  0.10534022  0.21068043  0.06260511  1
  As  As257  1  0.10534022  0.21068043  0.31260511  1
  As  As258  1  0.10534022  0.21068043  0.56260511  1
  As  As259  1  0.10534022  0.21068043  0.81260511  1
  As  As260  1  0.10534022  0.71068043  0.06260511  1
  As  As261  1  0.10534022  0.71068043  0.31260511  1
  As  As262  1  0.10534022  0.71068043  0.56260511  1
  As  As263  1  0.10534022  0.71068043  0.81260511  1
  As  As264  1  0.60534022  0.21068043  0.06260511  1
  As  As265  1  0.60534022  0.21068043  0.31260511  1
  As  As266  1  0.60534022  0.21068043  0.56260511  1
  As  As267  1  0.60534022  0.21068043  0.81260511  1
  As  As268  1  0.60534022  0.71068043  0.06260511  1
  As  As269  1  0.60534022  0.71068043  0.31260511  1
  As  As270  1  0.60534022  0.71068043  0.56260511  1
  As  As271  1  0.60534022  0.71068043  0.81260511  1
  As  As272  1  0.21068043  0.10534022  0.18739489  1
  As  As273  1  0.21068043  0.10534022  0.43739489  1
  As  As274  1  0.21068043  0.10534022  0.68739489  1
  As  As275  1  0.21068043  0.10534022  0.93739489  1
  As  As276  1  0.21068043  0.60534022  0.18739489  1
  As  As277  1  0.21068043  0.60534022  0.43739489  1
  As  As278  1  0.21068043  0.60534022  0.68739489  1
  As  As279  1  0.21068043  0.60534022  0.93739489  1
  As  As280  1  0.71068043  0.10534022  0.18739489  1
  As  As281  1  0.71068043  0.10534022  0.43739489  1
  As  As282  1  0.71068043  0.10534022  0.68739489  1
  As  As283  1  0.71068043  0.10534022  0.93739489  1
  As  As284  1  0.71068043  0.60534022  0.18739489  1
  As  As285  1  0.71068043  0.60534022  0.43739489  1
  As  As286  1  0.71068043  0.60534022  0.68739489  1
  As  As287  1  0.71068043  0.60534022  0.93739489  1
  As  As288  1  0.39465978  0.10534022  0.18739489  1
  As  As289  1  0.39465978  0.10534022  0.43739489  1
  As  As290  1  0.39465978  0.10534022  0.68739489  1
  As  As291  1  0.39465978  0.10534022  0.93739489  1
  As  As292  1  0.39465978  0.60534022  0.18739489  1
  As  As293  1  0.39465978  0.60534022  0.43739489  1
  As  As294  1  0.39465978  0.60534022  0.68739489  1
  As  As295  1  0.39465978  0.60534022  0.93739489  1
  As  As296  1  0.89465978  0.10534022  0.18739489  1
  As  As297  1  0.89465978  0.10534022  0.43739489  1
  As  As298  1  0.89465978  0.10534022  0.68739489  1
  As  As299  1  0.89465978  0.10534022  0.93739489  1
  As  As300  1  0.89465978  0.60534022  0.18739489  1
  As  As301  1  0.89465978  0.60534022  0.43739489  1
  As  As302  1  0.89465978  0.60534022  0.68739489  1
  As  As303  1  0.89465978  0.60534022  0.93739489  1
  As  As304  1  0.39465978  0.28931957  0.18739489  1
  As  As305  1  0.39465978  0.28931957  0.43739489  1
  As  As306  1  0.39465978  0.28931957  0.68739489  1
  As  As307  1  0.39465978  0.28931957  0.93739489  1
  As  As308  1  0.39465978  0.78931957  0.18739489  1
  As  As309  1  0.39465978  0.78931957  0.43739489  1
  As  As310  1  0.39465978  0.78931957  0.68739489  1
  As  As311  1  0.39465978  0.78931957  0.93739489  1
  As  As312  1  0.89465978  0.28931957  0.18739489  1
  As  As313  1  0.89465978  0.28931957  0.43739489  1
  As  As314  1  0.89465978  0.28931957  0.68739489  1
  As  As315  1  0.89465978  0.28931957  0.93739489  1
  As  As316  1  0.89465978  0.78931957  0.18739489  1
  As  As317  1  0.89465978  0.78931957  0.43739489  1
  As  As318  1  0.89465978  0.78931957  0.68739489  1
  As  As319  1  0.89465978  0.78931957  0.93739489  1
  O  O320  1  0.00000000  0.00000000  0.12500000  1
  O  O321  1  0.00000000  0.00000000  0.37500000  1
  O  O322  1  0.00000000  0.00000000  0.62500000  1
  O  O323  1  0.00000000  0.00000000  0.87500000  1
  O  O324  1  0.00000000  0.50000000  0.12500000  1
  O  O325  1  0.00000000  0.50000000  0.37500000  1
  O  O326  1  0.00000000  0.50000000  0.62500000  1
  O  O327  1  0.00000000  0.50000000  0.87500000  1
  O  O328  1  0.50000000  0.00000000  0.12500000  1
  O  O329  1  0.50000000  0.00000000  0.37500000  1
  O  O330  1  0.50000000  0.00000000  0.62500000  1
  O  O331  1  0.50000000  0.00000000  0.87500000  1
  O  O332  1  0.50000000  0.50000000  0.12500000  1
  O  O333  1  0.50000000  0.50000000  0.37500000  1
  O  O334  1  0.50000000  0.50000000  0.62500000  1
  O  O335  1  0.50000000  0.50000000  0.87500000  1
