# generated using pymatgen
data_LiYSiO4
_symmetry_space_group_name_H-M   'P 1'
_cell_length_a   10.79121676
_cell_length_b   12.34239618
_cell_length_c   10.80619595
_cell_angle_alpha   90.00000000
_cell_angle_beta   113.59193202
_cell_angle_gamma   90.00000000
_symmetry_Int_Tables_number   1
_chemical_formula_structural   LiYSiO4
_chemical_formula_sum   'Li16 Y16 Si16 O64'
_cell_volume   1318.97592090
_cell_formula_units_Z   16
loop_
 _symmetry_equiv_pos_site_id
 _symmetry_equiv_pos_as_xyz
  1  'x, y, z'
loop_
 _atom_site_type_symbol
 _atom_site_label
 _atom_site_symmetry_multiplicity
 _atom_site_fract_x
 _atom_site_fract_y
 _atom_site_fract_z
 _atom_site_occupancy
  Li  Li0  1  0.04083291  0.31690851  0.93105166  1
  Li  Li1  1  0.04083291  0.81690851  0.93105166  1
  Li  Li2  1  0.54083291  0.31690851  0.93105166  1
  Li  Li3  1  0.54083291  0.81690851  0.93105166  1
  Li  Li4  1  0.45916709  0.06690851  0.56894834  1
  Li  Li5  1  0.45916709  0.56690851  0.56894834  1
  Li  Li6  1  0.95916709  0.06690851  0.56894834  1
  Li  Li7  1  0.95916709  0.56690851  0.56894834  1
  Li  Li8  1  0.45916709  0.18309149  0.06894834  1
  Li  Li9  1  0.45916709  0.68309149  0.06894834  1
  Li  Li10  1  0.95916709  0.18309149  0.06894834  1
  Li  Li11  1  0.95916709  0.68309149  0.06894834  1
  Li  Li12  1  0.04083291  0.43309149  0.43105166  1
  Li  Li13  1  0.04083291  0.93309149  0.43105166  1
  Li  Li14  1  0.54083291  0.43309149  0.43105166  1
  Li  Li15  1  0.54083291  0.93309149  0.43105166  1
  Y  Y16  1  0.27670214  0.30870184  0.34767928  1
  Y  Y17  1  0.27670214  0.80870184  0.34767928  1
  Y  Y18  1  0.77670214  0.30870184  0.34767928  1
  Y  Y19  1  0.77670214  0.80870184  0.34767928  1
  Y  Y20  1  0.22329786  0.19129816  0.65232072  1
  Y  Y21  1  0.22329786  0.69129816  0.65232072  1
  Y  Y22  1  0.72329786  0.19129816  0.65232072  1
  Y  Y23  1  0.72329786  0.69129816  0.65232072  1
  Y  Y24  1  0.22329786  0.05870184  0.15232072  1
  Y  Y25  1  0.22329786  0.55870184  0.15232072  1
  Y  Y26  1  0.72329786  0.05870184  0.15232072  1
  Y  Y27  1  0.72329786  0.55870184  0.15232072  1
  Y  Y28  1  0.27670214  0.44129816  0.84767928  1
  Y  Y29  1  0.27670214  0.94129816  0.84767928  1
  Y  Y30  1  0.77670214  0.44129816  0.84767928  1
  Y  Y31  1  0.77670214  0.94129816  0.84767928  1
  Si  Si32  1  0.04752265  0.07540802  0.85888215  1
  Si  Si33  1  0.04752265  0.57540802  0.85888215  1
  Si  Si34  1  0.54752265  0.07540802  0.85888215  1
  Si  Si35  1  0.54752265  0.57540802  0.85888215  1
  Si  Si36  1  0.45247735  0.42459198  0.14111785  1
  Si  Si37  1  0.45247735  0.92459198  0.14111785  1
  Si  Si38  1  0.95247735  0.42459198  0.14111785  1
  Si  Si39  1  0.95247735  0.92459198  0.14111785  1
  Si  Si40  1  0.45247735  0.32540802  0.64111785  1
  Si  Si41  1  0.45247735  0.82540802  0.64111785  1
  Si  Si42  1  0.95247735  0.32540802  0.64111785  1
  Si  Si43  1  0.95247735  0.82540802  0.64111785  1
  Si  Si44  1  0.04752265  0.17459198  0.35888215  1
  Si  Si45  1  0.04752265  0.67459198  0.35888215  1
  Si  Si46  1  0.54752265  0.17459198  0.35888215  1
  Si  Si47  1  0.54752265  0.67459198  0.35888215  1
  O  O48  1  0.38327378  0.18020402  0.27538814  1
  O  O49  1  0.38327378  0.68020402  0.27538814  1
  O  O50  1  0.88327378  0.18020402  0.27538814  1
  O  O51  1  0.88327378  0.68020402  0.27538814  1
  O  O52  1  0.38327378  0.06979598  0.77538814  1
  O  O53  1  0.38327378  0.56979598  0.77538814  1
  O  O54  1  0.88327378  0.06979598  0.77538814  1
  O  O55  1  0.88327378  0.56979598  0.77538814  1
  O  O56  1  0.40709296  0.33158888  0.02363743  1
  O  O57  1  0.40709296  0.83158888  0.02363743  1
  O  O58  1  0.90709296  0.33158888  0.02363743  1
  O  O59  1  0.90709296  0.83158888  0.02363743  1
  O  O60  1  0.12056653  0.16950702  0.25115171  1
  O  O61  1  0.12056653  0.66950702  0.25115171  1
  O  O62  1  0.62056653  0.16950702  0.25115171  1
  O  O63  1  0.62056653  0.66950702  0.25115171  1
  O  O64  1  0.11672622  0.31979598  0.72461186  1
  O  O65  1  0.11672622  0.81979598  0.72461186  1
  O  O66  1  0.61672622  0.31979598  0.72461186  1
  O  O67  1  0.61672622  0.81979598  0.72461186  1
  O  O68  1  0.38597417  0.03648616  0.05435196  1
  O  O69  1  0.38597417  0.53648616  0.05435196  1
  O  O70  1  0.88597417  0.03648616  0.05435196  1
  O  O71  1  0.88597417  0.53648616  0.05435196  1
  O  O72  1  0.12056653  0.08049298  0.75115171  1
  O  O73  1  0.12056653  0.58049298  0.75115171  1
  O  O74  1  0.62056653  0.08049298  0.75115171  1
  O  O75  1  0.62056653  0.58049298  0.75115171  1
  O  O76  1  0.11402583  0.46351384  0.94564804  1
  O  O77  1  0.11402583  0.96351384  0.94564804  1
  O  O78  1  0.61402583  0.46351384  0.94564804  1
  O  O79  1  0.61402583  0.96351384  0.94564804  1
  O  O80  1  0.11402583  0.28648616  0.44564804  1
  O  O81  1  0.11402583  0.78648616  0.44564804  1
  O  O82  1  0.61402583  0.28648616  0.44564804  1
  O  O83  1  0.61402583  0.78648616  0.44564804  1
  O  O84  1  0.09290704  0.08158888  0.47636257  1
  O  O85  1  0.09290704  0.58158888  0.47636257  1
  O  O86  1  0.59290704  0.08158888  0.47636257  1
  O  O87  1  0.59290704  0.58158888  0.47636257  1
  O  O88  1  0.37943347  0.33049298  0.74884829  1
  O  O89  1  0.37943347  0.83049298  0.74884829  1
  O  O90  1  0.87943347  0.33049298  0.74884829  1
  O  O91  1  0.87943347  0.83049298  0.74884829  1
  O  O92  1  0.38597417  0.21351384  0.55435196  1
  O  O93  1  0.38597417  0.71351384  0.55435196  1
  O  O94  1  0.88597417  0.21351384  0.55435196  1
  O  O95  1  0.88597417  0.71351384  0.55435196  1
  O  O96  1  0.40709296  0.41841112  0.52363743  1
  O  O97  1  0.40709296  0.91841112  0.52363743  1
  O  O98  1  0.90709296  0.41841112  0.52363743  1
  O  O99  1  0.90709296  0.91841112  0.52363743  1
  O  O100  1  0.37943347  0.41950702  0.24884829  1
  O  O101  1  0.37943347  0.91950702  0.24884829  1
  O  O102  1  0.87943347  0.41950702  0.24884829  1
  O  O103  1  0.87943347  0.91950702  0.24884829  1
  O  O104  1  0.11672622  0.43020402  0.22461186  1
  O  O105  1  0.11672622  0.93020402  0.22461186  1
  O  O106  1  0.61672622  0.43020402  0.22461186  1
  O  O107  1  0.61672622  0.93020402  0.22461186  1
  O  O108  1  0.09290704  0.16841112  0.97636257  1
  O  O109  1  0.09290704  0.66841112  0.97636257  1
  O  O110  1  0.59290704  0.16841112  0.97636257  1
  O  O111  1  0.59290704  0.66841112  0.97636257  1
