# generated using pymatgen
data_Cs3SbO3
_symmetry_space_group_name_H-M   'P 1'
_cell_length_a   18.23003361
_cell_length_b   18.23003361
_cell_length_c   18.23003361
_cell_angle_alpha   90.00000000
_cell_angle_beta   90.00000000
_cell_angle_gamma   90.00000000
_symmetry_Int_Tables_number   1
_chemical_formula_structural   Cs3SbO3
_chemical_formula_sum   'Cs96 Sb32 O96'
_cell_volume   6058.46227824
_cell_formula_units_Z   32
loop_
 _symmetry_equiv_pos_site_id
 _symmetry_equiv_pos_as_xyz
  1  'x, y, z'
loop_
 _atom_site_type_symbol
 _atom_site_label
 _atom_site_symmetry_multiplicity
 _atom_site_fract_x
 _atom_site_fract_y
 _atom_site_fract_z
 _atom_site_occupancy
  Cs  Cs0  1  0.13862162  0.36137838  0.11137838  1
  Cs  Cs1  1  0.13862162  0.36137838  0.61137838  1
  Cs  Cs2  1  0.13862162  0.86137838  0.11137838  1
  Cs  Cs3  1  0.13862162  0.86137838  0.61137838  1
  Cs  Cs4  1  0.63862162  0.36137838  0.11137838  1
  Cs  Cs5  1  0.63862162  0.36137838  0.61137838  1
  Cs  Cs6  1  0.63862162  0.86137838  0.11137838  1
  Cs  Cs7  1  0.63862162  0.86137838  0.61137838  1
  Cs  Cs8  1  0.24177975  0.49177975  0.25822025  1
  Cs  Cs9  1  0.24177975  0.49177975  0.75822025  1
  Cs  Cs10  1  0.24177975  0.99177975  0.25822025  1
  Cs  Cs11  1  0.24177975  0.99177975  0.75822025  1
  Cs  Cs12  1  0.74177975  0.49177975  0.25822025  1
  Cs  Cs13  1  0.74177975  0.49177975  0.75822025  1
  Cs  Cs14  1  0.74177975  0.99177975  0.25822025  1
  Cs  Cs15  1  0.74177975  0.99177975  0.75822025  1
  Cs  Cs16  1  0.11137838  0.13862162  0.36137838  1
  Cs  Cs17  1  0.11137838  0.13862162  0.86137838  1
  Cs  Cs18  1  0.11137838  0.63862162  0.36137838  1
  Cs  Cs19  1  0.11137838  0.63862162  0.86137838  1
  Cs  Cs20  1  0.61137838  0.13862162  0.36137838  1
  Cs  Cs21  1  0.61137838  0.13862162  0.86137838  1
  Cs  Cs22  1  0.61137838  0.63862162  0.36137838  1
  Cs  Cs23  1  0.61137838  0.63862162  0.86137838  1
  Cs  Cs24  1  0.00822025  0.00822025  0.00822025  1
  Cs  Cs25  1  0.00822025  0.00822025  0.50822025  1
  Cs  Cs26  1  0.00822025  0.50822025  0.00822025  1
  Cs  Cs27  1  0.00822025  0.50822025  0.50822025  1
  Cs  Cs28  1  0.50822025  0.00822025  0.00822025  1
  Cs  Cs29  1  0.50822025  0.00822025  0.50822025  1
  Cs  Cs30  1  0.50822025  0.50822025  0.00822025  1
  Cs  Cs31  1  0.50822025  0.50822025  0.50822025  1
  Cs  Cs32  1  0.38659266  0.11340734  0.36340734  1
  Cs  Cs33  1  0.38659266  0.11340734  0.86340734  1
  Cs  Cs34  1  0.38659266  0.61340734  0.36340734  1
  Cs  Cs35  1  0.38659266  0.61340734  0.86340734  1
  Cs  Cs36  1  0.88659266  0.11340734  0.36340734  1
  Cs  Cs37  1  0.88659266  0.11340734  0.86340734  1
  Cs  Cs38  1  0.88659266  0.61340734  0.36340734  1
  Cs  Cs39  1  0.88659266  0.61340734  0.86340734  1
  Cs  Cs40  1  0.36340734  0.38659266  0.11340734  1
  Cs  Cs41  1  0.36340734  0.38659266  0.61340734  1
  Cs  Cs42  1  0.36340734  0.88659266  0.11340734  1
  Cs  Cs43  1  0.36340734  0.88659266  0.61340734  1
  Cs  Cs44  1  0.86340734  0.38659266  0.11340734  1
  Cs  Cs45  1  0.86340734  0.38659266  0.61340734  1
  Cs  Cs46  1  0.86340734  0.88659266  0.11340734  1
  Cs  Cs47  1  0.86340734  0.88659266  0.61340734  1
  Cs  Cs48  1  0.25822025  0.24177975  0.49177975  1
  Cs  Cs49  1  0.25822025  0.24177975  0.99177975  1
  Cs  Cs50  1  0.25822025  0.74177975  0.49177975  1
  Cs  Cs51  1  0.25822025  0.74177975  0.99177975  1
  Cs  Cs52  1  0.75822025  0.24177975  0.49177975  1
  Cs  Cs53  1  0.75822025  0.24177975  0.99177975  1
  Cs  Cs54  1  0.75822025  0.74177975  0.49177975  1
  Cs  Cs55  1  0.75822025  0.74177975  0.99177975  1
  Cs  Cs56  1  0.49177975  0.25822025  0.24177975  1
  Cs  Cs57  1  0.49177975  0.25822025  0.74177975  1
  Cs  Cs58  1  0.49177975  0.75822025  0.24177975  1
  Cs  Cs59  1  0.49177975  0.75822025  0.74177975  1
  Cs  Cs60  1  0.99177975  0.25822025  0.24177975  1
  Cs  Cs61  1  0.99177975  0.25822025  0.74177975  1
  Cs  Cs62  1  0.99177975  0.75822025  0.24177975  1
  Cs  Cs63  1  0.99177975  0.75822025  0.74177975  1
  Cs  Cs64  1  0.11340734  0.36340734  0.38659266  1
  Cs  Cs65  1  0.11340734  0.36340734  0.88659266  1
  Cs  Cs66  1  0.11340734  0.86340734  0.38659266  1
  Cs  Cs67  1  0.11340734  0.86340734  0.88659266  1
  Cs  Cs68  1  0.61340734  0.36340734  0.38659266  1
  Cs  Cs69  1  0.61340734  0.36340734  0.88659266  1
  Cs  Cs70  1  0.61340734  0.86340734  0.38659266  1
  Cs  Cs71  1  0.61340734  0.86340734  0.88659266  1
  Cs  Cs72  1  0.36137838  0.11137838  0.13862162  1
  Cs  Cs73  1  0.36137838  0.11137838  0.63862162  1
  Cs  Cs74  1  0.36137838  0.61137838  0.13862162  1
  Cs  Cs75  1  0.36137838  0.61137838  0.63862162  1
  Cs  Cs76  1  0.86137838  0.11137838  0.13862162  1
  Cs  Cs77  1  0.86137838  0.11137838  0.63862162  1
  Cs  Cs78  1  0.86137838  0.61137838  0.13862162  1
  Cs  Cs79  1  0.86137838  0.61137838  0.63862162  1
  Cs  Cs80  1  0.38862162  0.38862162  0.38862162  1
  Cs  Cs81  1  0.38862162  0.38862162  0.88862162  1
  Cs  Cs82  1  0.38862162  0.88862162  0.38862162  1
  Cs  Cs83  1  0.38862162  0.88862162  0.88862162  1
  Cs  Cs84  1  0.88862162  0.38862162  0.38862162  1
  Cs  Cs85  1  0.88862162  0.38862162  0.88862162  1
  Cs  Cs86  1  0.88862162  0.88862162  0.38862162  1
  Cs  Cs87  1  0.88862162  0.88862162  0.88862162  1
  Cs  Cs88  1  0.13659266  0.13659266  0.13659266  1
  Cs  Cs89  1  0.13659266  0.13659266  0.63659266  1
  Cs  Cs90  1  0.13659266  0.63659266  0.13659266  1
  Cs  Cs91  1  0.13659266  0.63659266  0.63659266  1
  Cs  Cs92  1  0.63659266  0.13659266  0.13659266  1
  Cs  Cs93  1  0.63659266  0.13659266  0.63659266  1
  Cs  Cs94  1  0.63659266  0.63659266  0.13659266  1
  Cs  Cs95  1  0.63659266  0.63659266  0.63659266  1
  Sb  Sb96  1  0.25141684  0.25141684  0.25141684  1
  Sb  Sb97  1  0.25141684  0.25141684  0.75141684  1
  Sb  Sb98  1  0.25141684  0.75141684  0.25141684  1
  Sb  Sb99  1  0.25141684  0.75141684  0.75141684  1
  Sb  Sb100  1  0.75141684  0.25141684  0.25141684  1
  Sb  Sb101  1  0.75141684  0.25141684  0.75141684  1
  Sb  Sb102  1  0.75141684  0.75141684  0.25141684  1
  Sb  Sb103  1  0.75141684  0.75141684  0.75141684  1
  Sb  Sb104  1  0.49858316  0.24858316  0.00141684  1
  Sb  Sb105  1  0.49858316  0.24858316  0.50141684  1
  Sb  Sb106  1  0.49858316  0.74858316  0.00141684  1
  Sb  Sb107  1  0.49858316  0.74858316  0.50141684  1
  Sb  Sb108  1  0.99858316  0.24858316  0.00141684  1
  Sb  Sb109  1  0.99858316  0.24858316  0.50141684  1
  Sb  Sb110  1  0.99858316  0.74858316  0.00141684  1
  Sb  Sb111  1  0.99858316  0.74858316  0.50141684  1
  Sb  Sb112  1  0.24858316  0.00141684  0.49858316  1
  Sb  Sb113  1  0.24858316  0.00141684  0.99858316  1
  Sb  Sb114  1  0.24858316  0.50141684  0.49858316  1
  Sb  Sb115  1  0.24858316  0.50141684  0.99858316  1
  Sb  Sb116  1  0.74858316  0.00141684  0.49858316  1
  Sb  Sb117  1  0.74858316  0.00141684  0.99858316  1
  Sb  Sb118  1  0.74858316  0.50141684  0.49858316  1
  Sb  Sb119  1  0.74858316  0.50141684  0.99858316  1
  Sb  Sb120  1  0.00141684  0.49858316  0.24858316  1
  Sb  Sb121  1  0.00141684  0.49858316  0.74858316  1
  Sb  Sb122  1  0.00141684  0.99858316  0.24858316  1
  Sb  Sb123  1  0.00141684  0.99858316  0.74858316  1
  Sb  Sb124  1  0.50141684  0.49858316  0.24858316  1
  Sb  Sb125  1  0.50141684  0.49858316  0.74858316  1
  Sb  Sb126  1  0.50141684  0.99858316  0.24858316  1
  Sb  Sb127  1  0.50141684  0.99858316  0.74858316  1
  O  O128  1  0.23065372  0.00257088  0.10447636  1
  O  O129  1  0.23065372  0.00257088  0.60447636  1
  O  O130  1  0.23065372  0.50257088  0.10447636  1
  O  O131  1  0.23065372  0.50257088  0.60447636  1
  O  O132  1  0.73065372  0.00257088  0.10447636  1
  O  O133  1  0.73065372  0.00257088  0.60447636  1
  O  O134  1  0.73065372  0.50257088  0.10447636  1
  O  O135  1  0.73065372  0.50257088  0.60447636  1
  O  O136  1  0.35447636  0.01934628  0.49742912  1
  O  O137  1  0.35447636  0.01934628  0.99742912  1
  O  O138  1  0.35447636  0.51934628  0.49742912  1
  O  O139  1  0.35447636  0.51934628  0.99742912  1
  O  O140  1  0.85447636  0.01934628  0.49742912  1
  O  O141  1  0.85447636  0.01934628  0.99742912  1
  O  O142  1  0.85447636  0.51934628  0.49742912  1
  O  O143  1  0.85447636  0.51934628  0.99742912  1
  O  O144  1  0.00257088  0.10447636  0.23065372  1
  O  O145  1  0.00257088  0.10447636  0.73065372  1
  O  O146  1  0.00257088  0.60447636  0.23065372  1
  O  O147  1  0.00257088  0.60447636  0.73065372  1
  O  O148  1  0.50257088  0.10447636  0.23065372  1
  O  O149  1  0.50257088  0.10447636  0.73065372  1
  O  O150  1  0.50257088  0.60447636  0.23065372  1
  O  O151  1  0.50257088  0.60447636  0.73065372  1
  O  O152  1  0.48065372  0.24742912  0.39552364  1
  O  O153  1  0.48065372  0.24742912  0.89552364  1
  O  O154  1  0.48065372  0.74742912  0.39552364  1
  O  O155  1  0.48065372  0.74742912  0.89552364  1
  O  O156  1  0.98065372  0.24742912  0.39552364  1
  O  O157  1  0.98065372  0.24742912  0.89552364  1
  O  O158  1  0.98065372  0.74742912  0.39552364  1
  O  O159  1  0.98065372  0.74742912  0.89552364  1
  O  O160  1  0.01934628  0.49742912  0.35447636  1
  O  O161  1  0.01934628  0.49742912  0.85447636  1
  O  O162  1  0.01934628  0.99742912  0.35447636  1
  O  O163  1  0.01934628  0.99742912  0.85447636  1
  O  O164  1  0.51934628  0.49742912  0.35447636  1
  O  O165  1  0.51934628  0.49742912  0.85447636  1
  O  O166  1  0.51934628  0.99742912  0.35447636  1
  O  O167  1  0.51934628  0.99742912  0.85447636  1
  O  O168  1  0.24742912  0.39552364  0.48065372  1
  O  O169  1  0.24742912  0.39552364  0.98065372  1
  O  O170  1  0.24742912  0.89552364  0.48065372  1
  O  O171  1  0.24742912  0.89552364  0.98065372  1
  O  O172  1  0.74742912  0.39552364  0.48065372  1
  O  O173  1  0.74742912  0.39552364  0.98065372  1
  O  O174  1  0.74742912  0.89552364  0.48065372  1
  O  O175  1  0.74742912  0.89552364  0.98065372  1
  O  O176  1  0.39552364  0.48065372  0.24742912  1
  O  O177  1  0.39552364  0.48065372  0.74742912  1
  O  O178  1  0.39552364  0.98065372  0.24742912  1
  O  O179  1  0.39552364  0.98065372  0.74742912  1
  O  O180  1  0.89552364  0.48065372  0.24742912  1
  O  O181  1  0.89552364  0.48065372  0.74742912  1
  O  O182  1  0.89552364  0.98065372  0.24742912  1
  O  O183  1  0.89552364  0.98065372  0.74742912  1
  O  O184  1  0.10447636  0.23065372  0.00257088  1
  O  O185  1  0.10447636  0.23065372  0.50257088  1
  O  O186  1  0.10447636  0.73065372  0.00257088  1
  O  O187  1  0.10447636  0.73065372  0.50257088  1
  O  O188  1  0.60447636  0.23065372  0.00257088  1
  O  O189  1  0.60447636  0.23065372  0.50257088  1
  O  O190  1  0.60447636  0.73065372  0.00257088  1
  O  O191  1  0.60447636  0.73065372  0.50257088  1
  O  O192  1  0.49742912  0.35447636  0.01934628  1
  O  O193  1  0.49742912  0.35447636  0.51934628  1
  O  O194  1  0.49742912  0.85447636  0.01934628  1
  O  O195  1  0.49742912  0.85447636  0.51934628  1
  O  O196  1  0.99742912  0.35447636  0.01934628  1
  O  O197  1  0.99742912  0.35447636  0.51934628  1
  O  O198  1  0.99742912  0.85447636  0.01934628  1
  O  O199  1  0.99742912  0.85447636  0.51934628  1
  O  O200  1  0.26934628  0.25257088  0.14552364  1
  O  O201  1  0.26934628  0.25257088  0.64552364  1
  O  O202  1  0.26934628  0.75257088  0.14552364  1
  O  O203  1  0.26934628  0.75257088  0.64552364  1
  O  O204  1  0.76934628  0.25257088  0.14552364  1
  O  O205  1  0.76934628  0.25257088  0.64552364  1
  O  O206  1  0.76934628  0.75257088  0.14552364  1
  O  O207  1  0.76934628  0.75257088  0.64552364  1
  O  O208  1  0.14552364  0.26934628  0.25257088  1
  O  O209  1  0.14552364  0.26934628  0.75257088  1
  O  O210  1  0.14552364  0.76934628  0.25257088  1
  O  O211  1  0.14552364  0.76934628  0.75257088  1
  O  O212  1  0.64552364  0.26934628  0.25257088  1
  O  O213  1  0.64552364  0.26934628  0.75257088  1
  O  O214  1  0.64552364  0.76934628  0.25257088  1
  O  O215  1  0.64552364  0.76934628  0.75257088  1
  O  O216  1  0.25257088  0.14552364  0.26934628  1
  O  O217  1  0.25257088  0.14552364  0.76934628  1
  O  O218  1  0.25257088  0.64552364  0.26934628  1
  O  O219  1  0.25257088  0.64552364  0.76934628  1
  O  O220  1  0.75257088  0.14552364  0.26934628  1
  O  O221  1  0.75257088  0.14552364  0.76934628  1
  O  O222  1  0.75257088  0.64552364  0.26934628  1
  O  O223  1  0.75257088  0.64552364  0.76934628  1
