# generated using pymatgen
data_Na4SnO3
_symmetry_space_group_name_H-M   'P 1'
_cell_length_a   17.30349737
_cell_length_b   16.51753901
_cell_length_c   17.50985209
_cell_angle_alpha   90.00000000
_cell_angle_beta   109.97472586
_cell_angle_gamma   90.00000000
_symmetry_Int_Tables_number   1
_chemical_formula_structural   Na4SnO3
_chemical_formula_sum   'Na144 Sn36 O108'
_cell_volume   4703.45730380
_cell_formula_units_Z   36
loop_
 _symmetry_equiv_pos_site_id
 _symmetry_equiv_pos_as_xyz
  1  'x, y, z'
loop_
 _atom_site_type_symbol
 _atom_site_label
 _atom_site_symmetry_multiplicity
 _atom_site_fract_x
 _atom_site_fract_y
 _atom_site_fract_z
 _atom_site_occupancy
  Na  Na0  1  0.16997671  0.03368383  0.08400179  1
  Na  Na1  1  0.16997671  0.03368383  0.41733513  1
  Na  Na2  1  0.16997671  0.03368383  0.75066846  1
  Na  Na3  1  0.50331004  0.03368383  0.08400179  1
  Na  Na4  1  0.50331004  0.03368383  0.41733513  1
  Na  Na5  1  0.50331004  0.03368383  0.75066846  1
  Na  Na6  1  0.83664338  0.03368383  0.08400179  1
  Na  Na7  1  0.83664338  0.03368383  0.41733513  1
  Na  Na8  1  0.83664338  0.03368383  0.75066846  1
  Na  Na9  1  0.33664338  0.53368383  0.08400179  1
  Na  Na10  1  0.33664338  0.53368383  0.41733513  1
  Na  Na11  1  0.33664338  0.53368383  0.75066846  1
  Na  Na12  1  0.66997671  0.53368383  0.08400179  1
  Na  Na13  1  0.66997671  0.53368383  0.41733513  1
  Na  Na14  1  0.66997671  0.53368383  0.75066846  1
  Na  Na15  1  1.00331004  0.53368383  0.08400179  1
  Na  Na16  1  1.00331004  0.53368383  0.41733513  1
  Na  Na17  1  1.00331004  0.53368383  0.75066846  1
  Na  Na18  1  0.16443623  0.45700631  0.07254502  1
  Na  Na19  1  0.16443623  0.45700631  0.40587836  1
  Na  Na20  1  0.16443623  0.45700631  0.73921169  1
  Na  Na21  1  0.49776957  0.45700631  0.07254502  1
  Na  Na22  1  0.49776957  0.45700631  0.40587836  1
  Na  Na23  1  0.49776957  0.45700631  0.73921169  1
  Na  Na24  1  0.83110290  0.45700631  0.07254502  1
  Na  Na25  1  0.83110290  0.45700631  0.40587836  1
  Na  Na26  1  0.83110290  0.45700631  0.73921169  1
  Na  Na27  1  0.33110290  0.95700631  0.07254502  1
  Na  Na28  1  0.33110290  0.95700631  0.40587836  1
  Na  Na29  1  0.33110290  0.95700631  0.73921169  1
  Na  Na30  1  0.66443623  0.95700631  0.07254502  1
  Na  Na31  1  0.66443623  0.95700631  0.40587836  1
  Na  Na32  1  0.66443623  0.95700631  0.73921169  1
  Na  Na33  1  0.99776957  0.95700631  0.07254502  1
  Na  Na34  1  0.99776957  0.95700631  0.40587836  1
  Na  Na35  1  0.99776957  0.95700631  0.73921169  1
  Na  Na36  1  0.18075501  0.14041600  0.23103992  1
  Na  Na37  1  0.18075501  0.14041600  0.56437326  1
  Na  Na38  1  0.18075501  0.14041600  0.89770659  1
  Na  Na39  1  0.51408834  0.14041600  0.23103992  1
  Na  Na40  1  0.51408834  0.14041600  0.56437326  1
  Na  Na41  1  0.51408834  0.14041600  0.89770659  1
  Na  Na42  1  0.84742168  0.14041600  0.23103992  1
  Na  Na43  1  0.84742168  0.14041600  0.56437326  1
  Na  Na44  1  0.84742168  0.14041600  0.89770659  1
  Na  Na45  1  0.34742168  0.64041600  0.23103992  1
  Na  Na46  1  0.34742168  0.64041600  0.56437326  1
  Na  Na47  1  0.34742168  0.64041600  0.89770659  1
  Na  Na48  1  0.68075501  0.64041600  0.23103992  1
  Na  Na49  1  0.68075501  0.64041600  0.56437326  1
  Na  Na50  1  0.68075501  0.64041600  0.89770659  1
  Na  Na51  1  1.01408834  0.64041600  0.23103992  1
  Na  Na52  1  1.01408834  0.64041600  0.56437326  1
  Na  Na53  1  1.01408834  0.64041600  0.89770659  1
  Na  Na54  1  0.18075501  -0.14041600  0.06437326  1
  Na  Na55  1  0.18075501  -0.14041600  0.39770659  1
  Na  Na56  1  0.18075501  -0.14041600  0.73103992  1
  Na  Na57  1  0.51408834  -0.14041600  0.06437326  1
  Na  Na58  1  0.51408834  -0.14041600  0.39770659  1
  Na  Na59  1  0.51408834  -0.14041600  0.73103992  1
  Na  Na60  1  0.84742168  -0.14041600  0.06437326  1
  Na  Na61  1  0.84742168  -0.14041600  0.39770659  1
  Na  Na62  1  0.84742168  -0.14041600  0.73103992  1
  Na  Na63  1  0.34742168  0.35958400  0.06437326  1
  Na  Na64  1  0.34742168  0.35958400  0.39770659  1
  Na  Na65  1  0.34742168  0.35958400  0.73103992  1
  Na  Na66  1  0.68075501  0.35958400  0.06437326  1
  Na  Na67  1  0.68075501  0.35958400  0.39770659  1
  Na  Na68  1  0.68075501  0.35958400  0.73103992  1
  Na  Na69  1  1.01408834  0.35958400  0.06437326  1
  Na  Na70  1  1.01408834  0.35958400  0.39770659  1
  Na  Na71  1  1.01408834  0.35958400  0.73103992  1
  Na  Na72  1  0.16458367  0.24656739  0.08295049  1
  Na  Na73  1  0.16458367  0.24656739  0.41628382  1
  Na  Na74  1  0.16458367  0.24656739  0.74961715  1
  Na  Na75  1  0.49791700  0.24656739  0.08295049  1
  Na  Na76  1  0.49791700  0.24656739  0.41628382  1
  Na  Na77  1  0.49791700  0.24656739  0.74961715  1
  Na  Na78  1  0.83125034  0.24656739  0.08295049  1
  Na  Na79  1  0.83125034  0.24656739  0.41628382  1
  Na  Na80  1  0.83125034  0.24656739  0.74961715  1
  Na  Na81  1  0.33125034  0.74656739  0.08295049  1
  Na  Na82  1  0.33125034  0.74656739  0.41628382  1
  Na  Na83  1  0.33125034  0.74656739  0.74961715  1
  Na  Na84  1  0.66458367  0.74656739  0.08295049  1
  Na  Na85  1  0.66458367  0.74656739  0.41628382  1
  Na  Na86  1  0.66458367  0.74656739  0.74961715  1
  Na  Na87  1  0.99791700  0.74656739  0.08295049  1
  Na  Na88  1  0.99791700  0.74656739  0.41628382  1
  Na  Na89  1  0.99791700  0.74656739  0.74961715  1
  Na  Na90  1  0.16458367  -0.24656739  0.24961715  1
  Na  Na91  1  0.16458367  -0.24656739  0.58295049  1
  Na  Na92  1  0.16458367  -0.24656739  0.91628382  1
  Na  Na93  1  0.49791700  -0.24656739  0.24961715  1
  Na  Na94  1  0.49791700  -0.24656739  0.58295049  1
  Na  Na95  1  0.49791700  -0.24656739  0.91628382  1
  Na  Na96  1  0.83125034  -0.24656739  0.24961715  1
  Na  Na97  1  0.83125034  -0.24656739  0.58295049  1
  Na  Na98  1  0.83125034  -0.24656739  0.91628382  1
  Na  Na99  1  0.33125034  0.25343261  0.24961715  1
  Na  Na100  1  0.33125034  0.25343261  0.58295049  1
  Na  Na101  1  0.33125034  0.25343261  0.91628382  1
  Na  Na102  1  0.66458367  0.25343261  0.24961715  1
  Na  Na103  1  0.66458367  0.25343261  0.58295049  1
  Na  Na104  1  0.66458367  0.25343261  0.91628382  1
  Na  Na105  1  0.99791700  0.25343261  0.24961715  1
  Na  Na106  1  0.99791700  0.25343261  0.58295049  1
  Na  Na107  1  0.99791700  0.25343261  0.91628382  1
  Na  Na108  1  0.16443623  -0.45700631  0.23921169  1
  Na  Na109  1  0.16443623  -0.45700631  0.57254502  1
  Na  Na110  1  0.16443623  -0.45700631  0.90587836  1
  Na  Na111  1  0.49776957  -0.45700631  0.23921169  1
  Na  Na112  1  0.49776957  -0.45700631  0.57254502  1
  Na  Na113  1  0.49776957  -0.45700631  0.90587836  1
  Na  Na114  1  0.83110290  -0.45700631  0.23921169  1
  Na  Na115  1  0.83110290  -0.45700631  0.57254502  1
  Na  Na116  1  0.83110290  -0.45700631  0.90587836  1
  Na  Na117  1  0.33110290  0.04299369  0.23921169  1
  Na  Na118  1  0.33110290  0.04299369  0.57254502  1
  Na  Na119  1  0.33110290  0.04299369  0.90587836  1
  Na  Na120  1  0.66443623  0.04299369  0.23921169  1
  Na  Na121  1  0.66443623  0.04299369  0.57254502  1
  Na  Na122  1  0.66443623  0.04299369  0.90587836  1
  Na  Na123  1  0.99776957  0.04299369  0.23921169  1
  Na  Na124  1  0.99776957  0.04299369  0.57254502  1
  Na  Na125  1  0.99776957  0.04299369  0.90587836  1
  Na  Na126  1  0.16997671  -0.03368383  0.25066846  1
  Na  Na127  1  0.16997671  -0.03368383  0.58400179  1
  Na  Na128  1  0.16997671  -0.03368383  0.91733513  1
  Na  Na129  1  0.50331004  -0.03368383  0.25066846  1
  Na  Na130  1  0.50331004  -0.03368383  0.58400179  1
  Na  Na131  1  0.50331004  -0.03368383  0.91733513  1
  Na  Na132  1  0.83664338  -0.03368383  0.25066846  1
  Na  Na133  1  0.83664338  -0.03368383  0.58400179  1
  Na  Na134  1  0.83664338  -0.03368383  0.91733513  1
  Na  Na135  1  0.33664338  0.46631617  0.25066846  1
  Na  Na136  1  0.33664338  0.46631617  0.58400179  1
  Na  Na137  1  0.33664338  0.46631617  0.91733513  1
  Na  Na138  1  0.66997671  0.46631617  0.25066846  1
  Na  Na139  1  0.66997671  0.46631617  0.58400179  1
  Na  Na140  1  0.66997671  0.46631617  0.91733513  1
  Na  Na141  1  1.00331004  0.46631617  0.25066846  1
  Na  Na142  1  1.00331004  0.46631617  0.58400179  1
  Na  Na143  1  1.00331004  0.46631617  0.91733513  1
  Sn  Sn144  1  0.16311636  0.35672600  0.24971332  1
  Sn  Sn145  1  0.16311636  0.35672600  0.58304666  1
  Sn  Sn146  1  0.16311636  0.35672600  0.91637999  1
  Sn  Sn147  1  0.49644969  0.35672600  0.24971332  1
  Sn  Sn148  1  0.49644969  0.35672600  0.58304666  1
  Sn  Sn149  1  0.49644969  0.35672600  0.91637999  1
  Sn  Sn150  1  0.82978302  0.35672600  0.24971332  1
  Sn  Sn151  1  0.82978302  0.35672600  0.58304666  1
  Sn  Sn152  1  0.82978302  0.35672600  0.91637999  1
  Sn  Sn153  1  0.32978302  0.85672600  0.24971332  1
  Sn  Sn154  1  0.32978302  0.85672600  0.58304666  1
  Sn  Sn155  1  0.32978302  0.85672600  0.91637999  1
  Sn  Sn156  1  0.66311636  0.85672600  0.24971332  1
  Sn  Sn157  1  0.66311636  0.85672600  0.58304666  1
  Sn  Sn158  1  0.66311636  0.85672600  0.91637999  1
  Sn  Sn159  1  0.99644969  0.85672600  0.24971332  1
  Sn  Sn160  1  0.99644969  0.85672600  0.58304666  1
  Sn  Sn161  1  0.99644969  0.85672600  0.91637999  1
  Sn  Sn162  1  0.16311636  -0.35672600  0.08304666  1
  Sn  Sn163  1  0.16311636  -0.35672600  0.41637999  1
  Sn  Sn164  1  0.16311636  -0.35672600  0.74971332  1
  Sn  Sn165  1  0.49644969  -0.35672600  0.08304666  1
  Sn  Sn166  1  0.49644969  -0.35672600  0.41637999  1
  Sn  Sn167  1  0.49644969  -0.35672600  0.74971332  1
  Sn  Sn168  1  0.82978302  -0.35672600  0.08304666  1
  Sn  Sn169  1  0.82978302  -0.35672600  0.41637999  1
  Sn  Sn170  1  0.82978302  -0.35672600  0.74971332  1
  Sn  Sn171  1  0.32978302  0.14327400  0.08304666  1
  Sn  Sn172  1  0.32978302  0.14327400  0.41637999  1
  Sn  Sn173  1  0.32978302  0.14327400  0.74971332  1
  Sn  Sn174  1  0.66311636  0.14327400  0.08304666  1
  Sn  Sn175  1  0.66311636  0.14327400  0.41637999  1
  Sn  Sn176  1  0.66311636  0.14327400  0.74971332  1
  Sn  Sn177  1  0.99644969  0.14327400  0.08304666  1
  Sn  Sn178  1  0.99644969  0.14327400  0.41637999  1
  Sn  Sn179  1  0.99644969  0.14327400  0.74971332  1
  O  O180  1  0.26268670  -0.16150709  0.32447215  1
  O  O181  1  0.26268670  -0.16150709  0.65780548  1
  O  O182  1  0.26268670  -0.16150709  0.99113882  1
  O  O183  1  0.59602003  -0.16150709  0.32447215  1
  O  O184  1  0.59602003  -0.16150709  0.65780548  1
  O  O185  1  0.59602003  -0.16150709  0.99113882  1
  O  O186  1  0.92935336  -0.16150709  0.32447215  1
  O  O187  1  0.92935336  -0.16150709  0.65780548  1
  O  O188  1  0.92935336  -0.16150709  0.99113882  1
  O  O189  1  0.42935336  0.33849291  0.32447215  1
  O  O190  1  0.42935336  0.33849291  0.65780548  1
  O  O191  1  0.42935336  0.33849291  0.99113882  1
  O  O192  1  0.76268670  0.33849291  0.32447215  1
  O  O193  1  0.76268670  0.33849291  0.65780548  1
  O  O194  1  0.76268670  0.33849291  0.99113882  1
  O  O195  1  1.09602003  0.33849291  0.32447215  1
  O  O196  1  1.09602003  0.33849291  0.65780548  1
  O  O197  1  1.09602003  0.33849291  0.99113882  1
  O  O198  1  0.26268670  0.16150709  0.15780548  1
  O  O199  1  0.26268670  0.16150709  0.49113882  1
  O  O200  1  0.26268670  0.16150709  0.82447215  1
  O  O201  1  0.59602003  0.16150709  0.15780548  1
  O  O202  1  0.59602003  0.16150709  0.49113882  1
  O  O203  1  0.59602003  0.16150709  0.82447215  1
  O  O204  1  0.92935336  0.16150709  0.15780548  1
  O  O205  1  0.92935336  0.16150709  0.49113882  1
  O  O206  1  0.92935336  0.16150709  0.82447215  1
  O  O207  1  0.42935336  0.66150709  0.15780548  1
  O  O208  1  0.42935336  0.66150709  0.49113882  1
  O  O209  1  0.42935336  0.66150709  0.82447215  1
  O  O210  1  0.76268670  0.66150709  0.15780548  1
  O  O211  1  0.76268670  0.66150709  0.49113882  1
  O  O212  1  0.76268670  0.66150709  0.82447215  1
  O  O213  1  1.09602003  0.66150709  0.15780548  1
  O  O214  1  1.09602003  0.66150709  0.49113882  1
  O  O215  1  1.09602003  0.66150709  0.82447215  1
  O  O216  1  0.25134203  -0.06544933  0.17026798  1
  O  O217  1  0.25134203  -0.06544933  0.50360131  1
  O  O218  1  0.25134203  -0.06544933  0.83693464  1
  O  O219  1  0.58467537  -0.06544933  0.17026798  1
  O  O220  1  0.58467537  -0.06544933  0.50360131  1
  O  O221  1  0.58467537  -0.06544933  0.83693464  1
  O  O222  1  0.91800870  -0.06544933  0.17026798  1
  O  O223  1  0.91800870  -0.06544933  0.50360131  1
  O  O224  1  0.91800870  -0.06544933  0.83693464  1
  O  O225  1  0.41800870  0.43455067  0.17026798  1
  O  O226  1  0.41800870  0.43455067  0.50360131  1
  O  O227  1  0.41800870  0.43455067  0.83693464  1
  O  O228  1  0.75134203  0.43455067  0.17026798  1
  O  O229  1  0.75134203  0.43455067  0.50360131  1
  O  O230  1  0.75134203  0.43455067  0.83693464  1
  O  O231  1  1.08467537  0.43455067  0.17026798  1
  O  O232  1  1.08467537  0.43455067  0.50360131  1
  O  O233  1  1.08467537  0.43455067  0.83693464  1
  O  O234  1  0.25134203  0.06544933  0.00360131  1
  O  O235  1  0.25134203  0.06544933  0.33693464  1
  O  O236  1  0.25134203  0.06544933  0.67026798  1
  O  O237  1  0.58467537  0.06544933  0.00360131  1
  O  O238  1  0.58467537  0.06544933  0.33693464  1
  O  O239  1  0.58467537  0.06544933  0.67026798  1
  O  O240  1  0.91800870  0.06544933  0.00360131  1
  O  O241  1  0.91800870  0.06544933  0.33693464  1
  O  O242  1  0.91800870  0.06544933  0.67026798  1
  O  O243  1  0.41800870  0.56544933  0.00360131  1
  O  O244  1  0.41800870  0.56544933  0.33693464  1
  O  O245  1  0.41800870  0.56544933  0.67026798  1
  O  O246  1  0.75134203  0.56544933  0.00360131  1
  O  O247  1  0.75134203  0.56544933  0.33693464  1
  O  O248  1  0.75134203  0.56544933  0.67026798  1
  O  O249  1  1.08467537  0.56544933  0.00360131  1
  O  O250  1  1.08467537  0.56544933  0.33693464  1
  O  O251  1  1.08467537  0.56544933  0.67026798  1
  O  O252  1  0.07843679  -0.06177332  0.32084299  1
  O  O253  1  0.07843679  -0.06177332  0.65417633  1
  O  O254  1  0.07843679  -0.06177332  0.98750966  1
  O  O255  1  0.41177012  -0.06177332  0.32084299  1
  O  O256  1  0.41177012  -0.06177332  0.65417633  1
  O  O257  1  0.41177012  -0.06177332  0.98750966  1
  O  O258  1  0.74510345  -0.06177332  0.32084299  1
  O  O259  1  0.74510345  -0.06177332  0.65417633  1
  O  O260  1  0.74510345  -0.06177332  0.98750966  1
  O  O261  1  0.24510345  0.43822668  0.32084299  1
  O  O262  1  0.24510345  0.43822668  0.65417633  1
  O  O263  1  0.24510345  0.43822668  0.98750966  1
  O  O264  1  0.57843679  0.43822668  0.32084299  1
  O  O265  1  0.57843679  0.43822668  0.65417633  1
  O  O266  1  0.57843679  0.43822668  0.98750966  1
  O  O267  1  0.91177012  0.43822668  0.32084299  1
  O  O268  1  0.91177012  0.43822668  0.65417633  1
  O  O269  1  0.91177012  0.43822668  0.98750966  1
  O  O270  1  0.07843679  0.06177332  0.15417633  1
  O  O271  1  0.07843679  0.06177332  0.48750966  1
  O  O272  1  0.07843679  0.06177332  0.82084299  1
  O  O273  1  0.41177012  0.06177332  0.15417633  1
  O  O274  1  0.41177012  0.06177332  0.48750966  1
  O  O275  1  0.41177012  0.06177332  0.82084299  1
  O  O276  1  0.74510345  0.06177332  0.15417633  1
  O  O277  1  0.74510345  0.06177332  0.48750966  1
  O  O278  1  0.74510345  0.06177332  0.82084299  1
  O  O279  1  0.24510345  0.56177332  0.15417633  1
  O  O280  1  0.24510345  0.56177332  0.48750966  1
  O  O281  1  0.24510345  0.56177332  0.82084299  1
  O  O282  1  0.57843679  0.56177332  0.15417633  1
  O  O283  1  0.57843679  0.56177332  0.48750966  1
  O  O284  1  0.57843679  0.56177332  0.82084299  1
  O  O285  1  0.91177012  0.56177332  0.15417633  1
  O  O286  1  0.91177012  0.56177332  0.48750966  1
  O  O287  1  0.91177012  0.56177332  0.82084299  1
