# generated using pymatgen
data_KBO2
_symmetry_space_group_name_H-M   'P 1'
_cell_length_a   12.80451056
_cell_length_b   12.80451056
_cell_length_c   14.68656625
_cell_angle_alpha   90.00000000
_cell_angle_beta   90.00000000
_cell_angle_gamma   120.00000000
_symmetry_Int_Tables_number   1
_chemical_formula_structural   KBO2
_chemical_formula_sum   'K36 B36 O72'
_cell_volume   2085.33996309
_cell_formula_units_Z   36
loop_
 _symmetry_equiv_pos_site_id
 _symmetry_equiv_pos_as_xyz
  1  'x, y, z'
loop_
 _atom_site_type_symbol
 _atom_site_label
 _atom_site_symmetry_multiplicity
 _atom_site_fract_x
 _atom_site_fract_y
 _atom_site_fract_z
 _atom_site_occupancy
  K  K0  1  0.33333333  0.10630031  0.20833333  1
  K  K1  1  0.33333333  0.10630031  0.70833333  1
  K  K2  1  1.00000000  0.43963364  0.37500000  1
  K  K3  1  1.00000000  0.43963364  0.87500000  1
  K  K4  1  0.66666667  0.77296697  0.54166667  1
  K  K5  1  0.66666667  0.77296697  1.04166667  1
  K  K6  1  -0.10630031  0.22703303  0.20833333  1
  K  K7  1  -0.10630031  0.22703303  0.70833333  1
  K  K8  1  0.56036636  0.56036636  0.37500000  1
  K  K9  1  0.56036636  0.56036636  0.87500000  1
  K  K10  1  0.22703303  0.89369969  0.54166667  1
  K  K11  1  0.22703303  0.89369969  1.04166667  1
  K  K12  1  -0.22703303  -0.33333333  0.20833333  1
  K  K13  1  -0.22703303  -0.33333333  0.70833333  1
  K  K14  1  0.43963364  -0.00000000  0.37500000  1
  K  K15  1  0.43963364  -0.00000000  0.87500000  1
  K  K16  1  0.10630031  0.33333333  0.54166667  1
  K  K17  1  0.10630031  0.33333333  1.04166667  1
  K  K18  1  -0.33333333  -0.10630031  0.29166667  1
  K  K19  1  -0.33333333  -0.10630031  0.79166667  1
  K  K20  1  0.33333333  0.22703303  0.45833333  1
  K  K21  1  0.33333333  0.22703303  0.95833333  1
  K  K22  1  0.00000000  0.56036636  0.62500000  1
  K  K23  1  0.00000000  0.56036636  1.12500000  1
  K  K24  1  0.10630031  -0.22703303  0.29166667  1
  K  K25  1  0.10630031  -0.22703303  0.79166667  1
  K  K26  1  0.77296697  0.10630031  0.45833333  1
  K  K27  1  0.77296697  0.10630031  0.95833333  1
  K  K28  1  0.43963364  0.43963364  0.62500000  1
  K  K29  1  0.43963364  0.43963364  1.12500000  1
  K  K30  1  0.22703303  0.33333333  0.29166667  1
  K  K31  1  0.22703303  0.33333333  0.79166667  1
  K  K32  1  0.89369969  0.66666667  0.45833333  1
  K  K33  1  0.89369969  0.66666667  0.95833333  1
  K  K34  1  0.56036636  1.00000000  0.62500000  1
  K  K35  1  0.56036636  1.00000000  1.12500000  1
  B  B36  1  0.00000000  -0.11318461  0.12500000  1
  B  B37  1  0.00000000  -0.11318461  0.62500000  1
  B  B38  1  0.66666667  0.22014873  0.29166667  1
  B  B39  1  0.66666667  0.22014873  0.79166667  1
  B  B40  1  0.33333333  0.55348206  0.45833333  1
  B  B41  1  0.33333333  0.55348206  0.95833333  1
  B  B42  1  0.00000000  0.11318461  0.37500000  1
  B  B43  1  0.00000000  0.11318461  0.87500000  1
  B  B44  1  0.66666667  0.44651794  0.54166667  1
  B  B45  1  0.66666667  0.44651794  1.04166667  1
  B  B46  1  0.33333333  0.77985127  0.70833333  1
  B  B47  1  0.33333333  0.77985127  1.20833333  1
  B  B48  1  -0.11318461  -0.11318461  0.37500000  1
  B  B49  1  -0.11318461  -0.11318461  0.87500000  1
  B  B50  1  0.55348206  0.22014873  0.54166667  1
  B  B51  1  0.55348206  0.22014873  1.04166667  1
  B  B52  1  0.22014873  0.55348206  0.70833333  1
  B  B53  1  0.22014873  0.55348206  1.20833333  1
  B  B54  1  0.11318461  -0.00000000  0.37500000  1
  B  B55  1  0.11318461  -0.00000000  0.87500000  1
  B  B56  1  0.77985127  0.33333333  0.54166667  1
  B  B57  1  0.77985127  0.33333333  1.04166667  1
  B  B58  1  0.44651794  0.66666667  0.70833333  1
  B  B59  1  0.44651794  0.66666667  1.20833333  1
  B  B60  1  0.11318461  0.11318461  0.12500000  1
  B  B61  1  0.11318461  0.11318461  0.62500000  1
  B  B62  1  0.77985127  0.44651794  0.29166667  1
  B  B63  1  0.77985127  0.44651794  0.79166667  1
  B  B64  1  0.44651794  0.77985127  0.45833333  1
  B  B65  1  0.44651794  0.77985127  0.95833333  1
  B  B66  1  -0.11318461  -0.00000000  0.12500000  1
  B  B67  1  -0.11318461  -0.00000000  0.62500000  1
  B  B68  1  0.55348206  0.33333333  0.29166667  1
  B  B69  1  0.55348206  0.33333333  0.79166667  1
  B  B70  1  0.22014873  0.66666667  0.45833333  1
  B  B71  1  0.22014873  0.66666667  0.95833333  1
  O  O72  1  0.10836549  -0.00000000  0.12500000  1
  O  O73  1  0.10836549  -0.00000000  0.62500000  1
  O  O74  1  0.77503216  0.33333333  0.29166667  1
  O  O75  1  0.77503216  0.33333333  0.79166667  1
  O  O76  1  0.44169882  0.66666667  0.45833333  1
  O  O77  1  0.44169882  0.66666667  0.95833333  1
  O  O78  1  -0.10836549  -0.10836549  0.12500000  1
  O  O79  1  -0.10836549  -0.10836549  0.62500000  1
  O  O80  1  0.55830118  0.22496784  0.29166667  1
  O  O81  1  0.55830118  0.22496784  0.79166667  1
  O  O82  1  0.22496784  0.55830118  0.45833333  1
  O  O83  1  0.22496784  0.55830118  0.95833333  1
  O  O84  1  0.00000000  -0.10836549  0.37500000  1
  O  O85  1  0.00000000  -0.10836549  0.87500000  1
  O  O86  1  0.66666667  0.22496784  0.54166667  1
  O  O87  1  0.66666667  0.22496784  1.04166667  1
  O  O88  1  0.33333333  0.55830118  0.70833333  1
  O  O89  1  0.33333333  0.55830118  1.20833333  1
  O  O90  1  -0.00000000  0.10836549  0.12500000  1
  O  O91  1  -0.00000000  0.10836549  0.62500000  1
  O  O92  1  0.66666667  0.44169882  0.29166667  1
  O  O93  1  0.66666667  0.44169882  0.79166667  1
  O  O94  1  0.33333333  0.77503216  0.45833333  1
  O  O95  1  0.33333333  0.77503216  0.95833333  1
  O  O96  1  -0.10836549  0.00000000  0.37500000  1
  O  O97  1  -0.10836549  0.00000000  0.87500000  1
  O  O98  1  0.55830118  0.33333333  0.54166667  1
  O  O99  1  0.55830118  0.33333333  1.04166667  1
  O  O100  1  0.22496784  0.66666667  0.70833333  1
  O  O101  1  0.22496784  0.66666667  1.20833333  1
  O  O102  1  0.10836549  0.10836549  0.37500000  1
  O  O103  1  0.10836549  0.10836549  0.87500000  1
  O  O104  1  0.77503216  0.44169882  0.54166667  1
  O  O105  1  0.77503216  0.44169882  1.04166667  1
  O  O106  1  0.44169882  0.77503216  0.70833333  1
  O  O107  1  0.44169882  0.77503216  1.20833333  1
  O  O108  1  -0.21644833  -0.00000000  0.12500000  1
  O  O109  1  -0.21644833  -0.00000000  0.62500000  1
  O  O110  1  0.45021834  0.33333333  0.29166667  1
  O  O111  1  0.45021834  0.33333333  0.79166667  1
  O  O112  1  0.11688501  0.66666667  0.45833333  1
  O  O113  1  0.11688501  0.66666667  0.95833333  1
  O  O114  1  0.21644833  0.21644833  0.12500000  1
  O  O115  1  0.21644833  0.21644833  0.62500000  1
  O  O116  1  0.88311499  0.54978166  0.29166667  1
  O  O117  1  0.88311499  0.54978166  0.79166667  1
  O  O118  1  0.54978166  0.88311499  0.45833333  1
  O  O119  1  0.54978166  0.88311499  0.95833333  1
  O  O120  1  -0.00000000  -0.21644833  0.12500000  1
  O  O121  1  -0.00000000  -0.21644833  0.62500000  1
  O  O122  1  0.66666667  0.11688501  0.29166667  1
  O  O123  1  0.66666667  0.11688501  0.79166667  1
  O  O124  1  0.33333333  0.45021834  0.45833333  1
  O  O125  1  0.33333333  0.45021834  0.95833333  1
  O  O126  1  0.21644833  0.00000000  0.37500000  1
  O  O127  1  0.21644833  0.00000000  0.87500000  1
  O  O128  1  0.88311499  0.33333333  0.54166667  1
  O  O129  1  0.88311499  0.33333333  1.04166667  1
  O  O130  1  0.54978166  0.66666667  0.70833333  1
  O  O131  1  0.54978166  0.66666667  1.20833333  1
  O  O132  1  -0.21644833  -0.21644833  0.37500000  1
  O  O133  1  -0.21644833  -0.21644833  0.87500000  1
  O  O134  1  0.45021834  0.11688501  0.54166667  1
  O  O135  1  0.45021834  0.11688501  1.04166667  1
  O  O136  1  0.11688501  0.45021834  0.70833333  1
  O  O137  1  0.11688501  0.45021834  1.20833333  1
  O  O138  1  -0.00000000  0.21644833  0.37500000  1
  O  O139  1  -0.00000000  0.21644833  0.87500000  1
  O  O140  1  0.66666667  0.54978166  0.54166667  1
  O  O141  1  0.66666667  0.54978166  1.04166667  1
  O  O142  1  0.33333333  0.88311499  0.70833333  1
  O  O143  1  0.33333333  0.88311499  1.20833333  1
