# generated using pymatgen
data_K6CdO4
_symmetry_space_group_name_H-M   'P 1'
_cell_length_a   17.43890426
_cell_length_b   17.43890426
_cell_length_c   19.99970468
_cell_angle_alpha   90.00000000
_cell_angle_beta   90.00000000
_cell_angle_gamma   120.00000000
_symmetry_Int_Tables_number   1
_chemical_formula_structural   K6CdO4
_chemical_formula_sum   'K144 Cd24 O96'
_cell_volume   5267.35514953
_cell_formula_units_Z   24
loop_
 _symmetry_equiv_pos_site_id
 _symmetry_equiv_pos_as_xyz
  1  'x, y, z'
loop_
 _atom_site_type_symbol
 _atom_site_label
 _atom_site_symmetry_multiplicity
 _atom_site_fract_x
 _atom_site_fract_y
 _atom_site_fract_z
 _atom_site_occupancy
  K  K0  1  0.03709117  0.26854558  0.21338428  1
  K  K1  1  0.03709117  0.26854558  0.54671761  1
  K  K2  1  0.03709117  0.26854558  0.88005095  1
  K  K3  1  0.03709117  0.76854558  0.21338428  1
  K  K4  1  0.03709117  0.76854558  0.54671761  1
  K  K5  1  0.03709117  0.76854558  0.88005095  1
  K  K6  1  0.53709117  0.26854558  0.21338428  1
  K  K7  1  0.53709117  0.26854558  0.54671761  1
  K  K8  1  0.53709117  0.26854558  0.88005095  1
  K  K9  1  0.53709117  0.76854558  0.21338428  1
  K  K10  1  0.53709117  0.76854558  0.54671761  1
  K  K11  1  0.53709117  0.76854558  0.88005095  1
  K  K12  1  0.26854558  0.03709117  0.04671761  1
  K  K13  1  0.26854558  0.03709117  0.38005095  1
  K  K14  1  0.26854558  0.03709117  0.71338428  1
  K  K15  1  0.26854558  0.53709117  0.04671761  1
  K  K16  1  0.26854558  0.53709117  0.38005095  1
  K  K17  1  0.26854558  0.53709117  0.71338428  1
  K  K18  1  0.76854558  0.03709117  0.04671761  1
  K  K19  1  0.76854558  0.03709117  0.38005095  1
  K  K20  1  0.76854558  0.03709117  0.71338428  1
  K  K21  1  0.76854558  0.53709117  0.04671761  1
  K  K22  1  0.76854558  0.53709117  0.38005095  1
  K  K23  1  0.76854558  0.53709117  0.71338428  1
  K  K24  1  0.23145442  0.26854558  0.21338428  1
  K  K25  1  0.23145442  0.26854558  0.54671761  1
  K  K26  1  0.23145442  0.26854558  0.88005095  1
  K  K27  1  0.23145442  0.76854558  0.21338428  1
  K  K28  1  0.23145442  0.76854558  0.54671761  1
  K  K29  1  0.23145442  0.76854558  0.88005095  1
  K  K30  1  0.73145442  0.26854558  0.21338428  1
  K  K31  1  0.73145442  0.26854558  0.54671761  1
  K  K32  1  0.73145442  0.26854558  0.88005095  1
  K  K33  1  0.73145442  0.76854558  0.21338428  1
  K  K34  1  0.73145442  0.76854558  0.54671761  1
  K  K35  1  0.73145442  0.76854558  0.88005095  1
  K  K36  1  0.23145442  0.46290883  0.21338428  1
  K  K37  1  0.23145442  0.46290883  0.54671761  1
  K  K38  1  0.23145442  0.46290883  0.88005095  1
  K  K39  1  0.23145442  0.96290883  0.21338428  1
  K  K40  1  0.23145442  0.96290883  0.54671761  1
  K  K41  1  0.23145442  0.96290883  0.88005095  1
  K  K42  1  0.73145442  0.46290883  0.21338428  1
  K  K43  1  0.73145442  0.46290883  0.54671761  1
  K  K44  1  0.73145442  0.46290883  0.88005095  1
  K  K45  1  0.73145442  0.96290883  0.21338428  1
  K  K46  1  0.73145442  0.96290883  0.54671761  1
  K  K47  1  0.73145442  0.96290883  0.88005095  1
  K  K48  1  0.42803837  0.35607674  0.15780471  1
  K  K49  1  0.42803837  0.35607674  0.49113805  1
  K  K50  1  0.42803837  0.35607674  0.82447138  1
  K  K51  1  0.42803837  0.85607674  0.15780471  1
  K  K52  1  0.42803837  0.85607674  0.49113805  1
  K  K53  1  0.42803837  0.85607674  0.82447138  1
  K  K54  1  0.92803837  0.35607674  0.15780471  1
  K  K55  1  0.92803837  0.35607674  0.49113805  1
  K  K56  1  0.92803837  0.35607674  0.82447138  1
  K  K57  1  0.92803837  0.85607674  0.15780471  1
  K  K58  1  0.92803837  0.85607674  0.49113805  1
  K  K59  1  0.92803837  0.85607674  0.82447138  1
  K  K60  1  0.07196163  0.42803837  0.32447138  1
  K  K61  1  0.07196163  0.42803837  0.65780471  1
  K  K62  1  0.07196163  0.42803837  0.99113805  1
  K  K63  1  0.07196163  0.92803837  0.32447138  1
  K  K64  1  0.07196163  0.92803837  0.65780471  1
  K  K65  1  0.07196163  0.92803837  0.99113805  1
  K  K66  1  0.57196163  0.42803837  0.32447138  1
  K  K67  1  0.57196163  0.42803837  0.65780471  1
  K  K68  1  0.57196163  0.42803837  0.99113805  1
  K  K69  1  0.57196163  0.92803837  0.32447138  1
  K  K70  1  0.57196163  0.92803837  0.65780471  1
  K  K71  1  0.57196163  0.92803837  0.99113805  1
  K  K72  1  0.26854558  0.23145442  0.04671761  1
  K  K73  1  0.26854558  0.23145442  0.38005095  1
  K  K74  1  0.26854558  0.23145442  0.71338428  1
  K  K75  1  0.26854558  0.73145442  0.04671761  1
  K  K76  1  0.26854558  0.73145442  0.38005095  1
  K  K77  1  0.26854558  0.73145442  0.71338428  1
  K  K78  1  0.76854558  0.23145442  0.04671761  1
  K  K79  1  0.76854558  0.23145442  0.38005095  1
  K  K80  1  0.76854558  0.23145442  0.71338428  1
  K  K81  1  0.76854558  0.73145442  0.04671761  1
  K  K82  1  0.76854558  0.73145442  0.38005095  1
  K  K83  1  0.76854558  0.73145442  0.71338428  1
  K  K84  1  0.35607674  0.42803837  0.32447138  1
  K  K85  1  0.35607674  0.42803837  0.65780471  1
  K  K86  1  0.35607674  0.42803837  0.99113805  1
  K  K87  1  0.35607674  0.92803837  0.32447138  1
  K  K88  1  0.35607674  0.92803837  0.65780471  1
  K  K89  1  0.35607674  0.92803837  0.99113805  1
  K  K90  1  0.85607674  0.42803837  0.32447138  1
  K  K91  1  0.85607674  0.42803837  0.65780471  1
  K  K92  1  0.85607674  0.42803837  0.99113805  1
  K  K93  1  0.85607674  0.92803837  0.32447138  1
  K  K94  1  0.85607674  0.92803837  0.65780471  1
  K  K95  1  0.85607674  0.92803837  0.99113805  1
  K  K96  1  0.07196163  0.14392326  0.32447138  1
  K  K97  1  0.07196163  0.14392326  0.65780471  1
  K  K98  1  0.07196163  0.14392326  0.99113805  1
  K  K99  1  0.07196163  0.64392326  0.32447138  1
  K  K100  1  0.07196163  0.64392326  0.65780471  1
  K  K101  1  0.07196163  0.64392326  0.99113805  1
  K  K102  1  0.57196163  0.14392326  0.32447138  1
  K  K103  1  0.57196163  0.14392326  0.65780471  1
  K  K104  1  0.57196163  0.14392326  0.99113805  1
  K  K105  1  0.57196163  0.64392326  0.32447138  1
  K  K106  1  0.57196163  0.64392326  0.65780471  1
  K  K107  1  0.57196163  0.64392326  0.99113805  1
  K  K108  1  0.42803837  0.07196163  0.15780471  1
  K  K109  1  0.42803837  0.07196163  0.49113805  1
  K  K110  1  0.42803837  0.07196163  0.82447138  1
  K  K111  1  0.42803837  0.57196163  0.15780471  1
  K  K112  1  0.42803837  0.57196163  0.49113805  1
  K  K113  1  0.42803837  0.57196163  0.82447138  1
  K  K114  1  0.92803837  0.07196163  0.15780471  1
  K  K115  1  0.92803837  0.07196163  0.49113805  1
  K  K116  1  0.92803837  0.07196163  0.82447138  1
  K  K117  1  0.92803837  0.57196163  0.15780471  1
  K  K118  1  0.92803837  0.57196163  0.49113805  1
  K  K119  1  0.92803837  0.57196163  0.82447138  1
  K  K120  1  0.14392326  0.07196163  0.15780471  1
  K  K121  1  0.14392326  0.07196163  0.49113805  1
  K  K122  1  0.14392326  0.07196163  0.82447138  1
  K  K123  1  0.14392326  0.57196163  0.15780471  1
  K  K124  1  0.14392326  0.57196163  0.49113805  1
  K  K125  1  0.14392326  0.57196163  0.82447138  1
  K  K126  1  0.64392326  0.07196163  0.15780471  1
  K  K127  1  0.64392326  0.07196163  0.49113805  1
  K  K128  1  0.64392326  0.07196163  0.82447138  1
  K  K129  1  0.64392326  0.57196163  0.15780471  1
  K  K130  1  0.64392326  0.57196163  0.49113805  1
  K  K131  1  0.64392326  0.57196163  0.82447138  1
  K  K132  1  0.46290883  0.23145442  0.04671761  1
  K  K133  1  0.46290883  0.23145442  0.38005095  1
  K  K134  1  0.46290883  0.23145442  0.71338428  1
  K  K135  1  0.46290883  0.73145442  0.04671761  1
  K  K136  1  0.46290883  0.73145442  0.38005095  1
  K  K137  1  0.46290883  0.73145442  0.71338428  1
  K  K138  1  0.96290883  0.23145442  0.04671761  1
  K  K139  1  0.96290883  0.23145442  0.38005095  1
  K  K140  1  0.96290883  0.23145442  0.71338428  1
  K  K141  1  0.96290883  0.73145442  0.04671761  1
  K  K142  1  0.96290883  0.73145442  0.38005095  1
  K  K143  1  0.96290883  0.73145442  0.71338428  1
  Cd  Cd144  1  0.16666667  0.33333333  0.08326936  1
  Cd  Cd145  1  0.16666667  0.33333333  0.41660269  1
  Cd  Cd146  1  0.16666667  0.33333333  0.74993602  1
  Cd  Cd147  1  0.16666667  0.83333333  0.08326936  1
  Cd  Cd148  1  0.16666667  0.83333333  0.41660269  1
  Cd  Cd149  1  0.16666667  0.83333333  0.74993602  1
  Cd  Cd150  1  0.66666667  0.33333333  0.08326936  1
  Cd  Cd151  1  0.66666667  0.33333333  0.41660269  1
  Cd  Cd152  1  0.66666667  0.33333333  0.74993602  1
  Cd  Cd153  1  0.66666667  0.83333333  0.08326936  1
  Cd  Cd154  1  0.66666667  0.83333333  0.41660269  1
  Cd  Cd155  1  0.66666667  0.83333333  0.74993602  1
  Cd  Cd156  1  0.33333333  0.16666667  0.24993602  1
  Cd  Cd157  1  0.33333333  0.16666667  0.58326936  1
  Cd  Cd158  1  0.33333333  0.16666667  0.91660269  1
  Cd  Cd159  1  0.33333333  0.66666667  0.24993602  1
  Cd  Cd160  1  0.33333333  0.66666667  0.58326936  1
  Cd  Cd161  1  0.33333333  0.66666667  0.91660269  1
  Cd  Cd162  1  0.83333333  0.16666667  0.24993602  1
  Cd  Cd163  1  0.83333333  0.16666667  0.58326936  1
  Cd  Cd164  1  0.83333333  0.16666667  0.91660269  1
  Cd  Cd165  1  0.83333333  0.66666667  0.24993602  1
  Cd  Cd166  1  0.83333333  0.66666667  0.58326936  1
  Cd  Cd167  1  0.83333333  0.66666667  0.91660269  1
  O  O168  1  0.40378818  0.30757636  0.28707320  1
  O  O169  1  0.40378818  0.30757636  0.62040653  1
  O  O170  1  0.40378818  0.30757636  0.95373987  1
  O  O171  1  0.40378818  0.80757636  0.28707320  1
  O  O172  1  0.40378818  0.80757636  0.62040653  1
  O  O173  1  0.40378818  0.80757636  0.95373987  1
  O  O174  1  0.90378818  0.30757636  0.28707320  1
  O  O175  1  0.90378818  0.30757636  0.62040653  1
  O  O176  1  0.90378818  0.30757636  0.95373987  1
  O  O177  1  0.90378818  0.80757636  0.28707320  1
  O  O178  1  0.90378818  0.80757636  0.62040653  1
  O  O179  1  0.90378818  0.80757636  0.95373987  1
  O  O180  1  0.09621182  0.40378818  0.12040653  1
  O  O181  1  0.09621182  0.40378818  0.45373987  1
  O  O182  1  0.09621182  0.40378818  0.78707320  1
  O  O183  1  0.09621182  0.90378818  0.12040653  1
  O  O184  1  0.09621182  0.90378818  0.45373987  1
  O  O185  1  0.09621182  0.90378818  0.78707320  1
  O  O186  1  0.59621182  0.40378818  0.12040653  1
  O  O187  1  0.59621182  0.40378818  0.45373987  1
  O  O188  1  0.59621182  0.40378818  0.78707320  1
  O  O189  1  0.59621182  0.90378818  0.12040653  1
  O  O190  1  0.59621182  0.90378818  0.45373987  1
  O  O191  1  0.59621182  0.90378818  0.78707320  1
  O  O192  1  0.30757636  0.40378818  0.12040653  1
  O  O193  1  0.30757636  0.40378818  0.45373987  1
  O  O194  1  0.30757636  0.40378818  0.78707320  1
  O  O195  1  0.30757636  0.90378818  0.12040653  1
  O  O196  1  0.30757636  0.90378818  0.45373987  1
  O  O197  1  0.30757636  0.90378818  0.78707320  1
  O  O198  1  0.80757636  0.40378818  0.12040653  1
  O  O199  1  0.80757636  0.40378818  0.45373987  1
  O  O200  1  0.80757636  0.40378818  0.78707320  1
  O  O201  1  0.80757636  0.90378818  0.12040653  1
  O  O202  1  0.80757636  0.90378818  0.45373987  1
  O  O203  1  0.80757636  0.90378818  0.78707320  1
  O  O204  1  0.19242364  0.09621182  0.28707320  1
  O  O205  1  0.19242364  0.09621182  0.62040653  1
  O  O206  1  0.19242364  0.09621182  0.95373987  1
  O  O207  1  0.19242364  0.59621182  0.28707320  1
  O  O208  1  0.19242364  0.59621182  0.62040653  1
  O  O209  1  0.19242364  0.59621182  0.95373987  1
  O  O210  1  0.69242364  0.09621182  0.28707320  1
  O  O211  1  0.69242364  0.09621182  0.62040653  1
  O  O212  1  0.69242364  0.09621182  0.95373987  1
  O  O213  1  0.69242364  0.59621182  0.28707320  1
  O  O214  1  0.69242364  0.59621182  0.62040653  1
  O  O215  1  0.69242364  0.59621182  0.95373987  1
  O  O216  1  0.40378818  0.09621182  0.28707320  1
  O  O217  1  0.40378818  0.09621182  0.62040653  1
  O  O218  1  0.40378818  0.09621182  0.95373987  1
  O  O219  1  0.40378818  0.59621182  0.28707320  1
  O  O220  1  0.40378818  0.59621182  0.62040653  1
  O  O221  1  0.40378818  0.59621182  0.95373987  1
  O  O222  1  0.90378818  0.09621182  0.28707320  1
  O  O223  1  0.90378818  0.09621182  0.62040653  1
  O  O224  1  0.90378818  0.09621182  0.95373987  1
  O  O225  1  0.90378818  0.59621182  0.28707320  1
  O  O226  1  0.90378818  0.59621182  0.62040653  1
  O  O227  1  0.90378818  0.59621182  0.95373987  1
  O  O228  1  0.09621182  0.19242364  0.12040653  1
  O  O229  1  0.09621182  0.19242364  0.45373987  1
  O  O230  1  0.09621182  0.19242364  0.78707320  1
  O  O231  1  0.09621182  0.69242364  0.12040653  1
  O  O232  1  0.09621182  0.69242364  0.45373987  1
  O  O233  1  0.09621182  0.69242364  0.78707320  1
  O  O234  1  0.59621182  0.19242364  0.12040653  1
  O  O235  1  0.59621182  0.19242364  0.45373987  1
  O  O236  1  0.59621182  0.19242364  0.78707320  1
  O  O237  1  0.59621182  0.69242364  0.12040653  1
  O  O238  1  0.59621182  0.69242364  0.45373987  1
  O  O239  1  0.59621182  0.69242364  0.78707320  1
  O  O240  1  0.16666667  0.33333333  0.30607706  1
  O  O241  1  0.16666667  0.33333333  0.63941040  1
  O  O242  1  0.16666667  0.33333333  0.97274373  1
  O  O243  1  0.16666667  0.83333333  0.30607706  1
  O  O244  1  0.16666667  0.83333333  0.63941040  1
  O  O245  1  0.16666667  0.83333333  0.97274373  1
  O  O246  1  0.66666667  0.33333333  0.30607706  1
  O  O247  1  0.66666667  0.33333333  0.63941040  1
  O  O248  1  0.66666667  0.33333333  0.97274373  1
  O  O249  1  0.66666667  0.83333333  0.30607706  1
  O  O250  1  0.66666667  0.83333333  0.63941040  1
  O  O251  1  0.66666667  0.83333333  0.97274373  1
  O  O252  1  0.33333333  0.16666667  0.13941040  1
  O  O253  1  0.33333333  0.16666667  0.47274373  1
  O  O254  1  0.33333333  0.16666667  0.80607706  1
  O  O255  1  0.33333333  0.66666667  0.13941040  1
  O  O256  1  0.33333333  0.66666667  0.47274373  1
  O  O257  1  0.33333333  0.66666667  0.80607706  1
  O  O258  1  0.83333333  0.16666667  0.13941040  1
  O  O259  1  0.83333333  0.16666667  0.47274373  1
  O  O260  1  0.83333333  0.16666667  0.80607706  1
  O  O261  1  0.83333333  0.66666667  0.13941040  1
  O  O262  1  0.83333333  0.66666667  0.47274373  1
  O  O263  1  0.83333333  0.66666667  0.80607706  1
