# generated using pymatgen
data_Rb2LiVO4
_symmetry_space_group_name_H-M   'P 1'
_cell_length_a   11.70548733
_cell_length_b   11.67622024
_cell_length_c   15.66923149
_cell_angle_alpha   90.00000000
_cell_angle_beta   90.00000000
_cell_angle_gamma   90.00000000
_symmetry_Int_Tables_number   1
_chemical_formula_structural   Rb2LiVO4
_chemical_formula_sum   'Rb32 Li16 V16 O64'
_cell_volume   2141.60550341
_cell_formula_units_Z   16
loop_
 _symmetry_equiv_pos_site_id
 _symmetry_equiv_pos_as_xyz
  1  'x, y, z'
loop_
 _atom_site_type_symbol
 _atom_site_label
 _atom_site_symmetry_multiplicity
 _atom_site_fract_x
 _atom_site_fract_y
 _atom_site_fract_z
 _atom_site_occupancy
  Rb  Rb0  1  0.25000000  0.10382138  0.27418552  1
  Rb  Rb1  1  0.25000000  0.10382138  0.77418552  1
  Rb  Rb2  1  0.75000000  0.10382138  0.27418552  1
  Rb  Rb3  1  0.75000000  0.10382138  0.77418552  1
  Rb  Rb4  1  0.50000000  0.60382138  0.27418552  1
  Rb  Rb5  1  0.50000000  0.60382138  0.77418552  1
  Rb  Rb6  1  1.00000000  0.60382138  0.27418552  1
  Rb  Rb7  1  1.00000000  0.60382138  0.77418552  1
  Rb  Rb8  1  0.25000000  -0.10382138  0.02418552  1
  Rb  Rb9  1  0.25000000  -0.10382138  0.52418552  1
  Rb  Rb10  1  0.75000000  -0.10382138  0.02418552  1
  Rb  Rb11  1  0.75000000  -0.10382138  0.52418552  1
  Rb  Rb12  1  0.50000000  0.39617862  0.02418552  1
  Rb  Rb13  1  0.50000000  0.39617862  0.52418552  1
  Rb  Rb14  1  1.00000000  0.39617862  0.02418552  1
  Rb  Rb15  1  1.00000000  0.39617862  0.52418552  1
  Rb  Rb16  1  0.25000000  0.43779735  0.20543636  1
  Rb  Rb17  1  0.25000000  0.43779735  0.70543636  1
  Rb  Rb18  1  0.75000000  0.43779735  0.20543636  1
  Rb  Rb19  1  0.75000000  0.43779735  0.70543636  1
  Rb  Rb20  1  0.50000000  0.93779735  0.20543636  1
  Rb  Rb21  1  0.50000000  0.93779735  0.70543636  1
  Rb  Rb22  1  1.00000000  0.93779735  0.20543636  1
  Rb  Rb23  1  1.00000000  0.93779735  0.70543636  1
  Rb  Rb24  1  0.25000000  -0.43779735  0.45543636  1
  Rb  Rb25  1  0.25000000  -0.43779735  0.95543636  1
  Rb  Rb26  1  0.75000000  -0.43779735  0.45543636  1
  Rb  Rb27  1  0.75000000  -0.43779735  0.95543636  1
  Rb  Rb28  1  0.50000000  0.06220265  0.45543636  1
  Rb  Rb29  1  0.50000000  0.06220265  0.95543636  1
  Rb  Rb30  1  1.00000000  0.06220265  0.45543636  1
  Rb  Rb31  1  1.00000000  0.06220265  0.95543636  1
  Li  Li32  1  0.25000000  0.29918613  0.41468960  1
  Li  Li33  1  0.25000000  0.29918613  0.91468960  1
  Li  Li34  1  0.75000000  0.29918613  0.41468960  1
  Li  Li35  1  0.75000000  0.29918613  0.91468960  1
  Li  Li36  1  0.50000000  0.79918613  0.41468960  1
  Li  Li37  1  0.50000000  0.79918613  0.91468960  1
  Li  Li38  1  1.00000000  0.79918613  0.41468960  1
  Li  Li39  1  1.00000000  0.79918613  0.91468960  1
  Li  Li40  1  0.25000000  -0.29918613  0.16468960  1
  Li  Li41  1  0.25000000  -0.29918613  0.66468960  1
  Li  Li42  1  0.75000000  -0.29918613  0.16468960  1
  Li  Li43  1  0.75000000  -0.29918613  0.66468960  1
  Li  Li44  1  0.50000000  0.20081387  0.16468960  1
  Li  Li45  1  0.50000000  0.20081387  0.66468960  1
  Li  Li46  1  1.00000000  0.20081387  0.16468960  1
  Li  Li47  1  1.00000000  0.20081387  0.66468960  1
  V  V48  1  0.25000000  -0.18949499  0.30541258  1
  V  V49  1  0.25000000  -0.18949499  0.80541258  1
  V  V50  1  0.75000000  -0.18949499  0.30541258  1
  V  V51  1  0.75000000  -0.18949499  0.80541258  1
  V  V52  1  0.50000000  0.31050501  0.30541258  1
  V  V53  1  0.50000000  0.31050501  0.80541258  1
  V  V54  1  1.00000000  0.31050501  0.30541258  1
  V  V55  1  1.00000000  0.31050501  0.80541258  1
  V  V56  1  0.25000000  0.18949499  0.05541258  1
  V  V57  1  0.25000000  0.18949499  0.55541258  1
  V  V58  1  0.75000000  0.18949499  0.05541258  1
  V  V59  1  0.75000000  0.18949499  0.55541258  1
  V  V60  1  0.50000000  0.68949499  0.05541258  1
  V  V61  1  0.50000000  0.68949499  0.55541258  1
  V  V62  1  1.00000000  0.68949499  0.05541258  1
  V  V63  1  1.00000000  0.68949499  0.55541258  1
  O  O64  1  0.13009677  0.14330558  0.10891890  1
  O  O65  1  0.13009677  0.14330558  0.60891890  1
  O  O66  1  0.63009677  0.14330558  0.10891890  1
  O  O67  1  0.63009677  0.14330558  0.60891890  1
  O  O68  1  0.38009677  0.64330558  0.10891890  1
  O  O69  1  0.38009677  0.64330558  0.60891890  1
  O  O70  1  0.88009677  0.64330558  0.10891890  1
  O  O71  1  0.88009677  0.64330558  0.60891890  1
  O  O72  1  0.36990323  -0.14330558  0.35891890  1
  O  O73  1  0.36990323  -0.14330558  0.85891890  1
  O  O74  1  0.86990323  -0.14330558  0.35891890  1
  O  O75  1  0.86990323  -0.14330558  0.85891890  1
  O  O76  1  0.61990323  0.35669442  0.35891890  1
  O  O77  1  0.61990323  0.35669442  0.85891890  1
  O  O78  1  1.11990323  0.35669442  0.35891890  1
  O  O79  1  1.11990323  0.35669442  0.85891890  1
  O  O80  1  0.25000000  0.13384288  0.45336970  1
  O  O81  1  0.25000000  0.13384288  0.95336970  1
  O  O82  1  0.75000000  0.13384288  0.45336970  1
  O  O83  1  0.75000000  0.13384288  0.95336970  1
  O  O84  1  0.50000000  0.63384288  0.45336970  1
  O  O85  1  0.50000000  0.63384288  0.95336970  1
  O  O86  1  1.00000000  0.63384288  0.45336970  1
  O  O87  1  1.00000000  0.63384288  0.95336970  1
  O  O88  1  0.25000000  -0.13384288  0.20336970  1
  O  O89  1  0.25000000  -0.13384288  0.70336970  1
  O  O90  1  0.75000000  -0.13384288  0.20336970  1
  O  O91  1  0.75000000  -0.13384288  0.70336970  1
  O  O92  1  0.50000000  0.36615712  0.20336970  1
  O  O93  1  0.50000000  0.36615712  0.70336970  1
  O  O94  1  1.00000000  0.36615712  0.20336970  1
  O  O95  1  1.00000000  0.36615712  0.70336970  1
  O  O96  1  0.36990323  0.14330558  0.10891890  1
  O  O97  1  0.36990323  0.14330558  0.60891890  1
  O  O98  1  0.86990323  0.14330558  0.10891890  1
  O  O99  1  0.86990323  0.14330558  0.60891890  1
  O  O100  1  0.61990323  0.64330558  0.10891890  1
  O  O101  1  0.61990323  0.64330558  0.60891890  1
  O  O102  1  1.11990323  0.64330558  0.10891890  1
  O  O103  1  1.11990323  0.64330558  0.60891890  1
  O  O104  1  0.13009677  -0.14330558  0.35891890  1
  O  O105  1  0.13009677  -0.14330558  0.85891890  1
  O  O106  1  0.63009677  -0.14330558  0.35891890  1
  O  O107  1  0.63009677  -0.14330558  0.85891890  1
  O  O108  1  0.38009677  0.35669442  0.35891890  1
  O  O109  1  0.38009677  0.35669442  0.85891890  1
  O  O110  1  0.88009677  0.35669442  0.35891890  1
  O  O111  1  0.88009677  0.35669442  0.85891890  1
  O  O112  1  0.25000000  -0.33626587  0.28971792  1
  O  O113  1  0.25000000  -0.33626587  0.78971792  1
  O  O114  1  0.75000000  -0.33626587  0.28971792  1
  O  O115  1  0.75000000  -0.33626587  0.78971792  1
  O  O116  1  0.50000000  0.16373413  0.28971792  1
  O  O117  1  0.50000000  0.16373413  0.78971792  1
  O  O118  1  1.00000000  0.16373413  0.28971792  1
  O  O119  1  1.00000000  0.16373413  0.78971792  1
  O  O120  1  0.25000000  0.33626587  0.03971792  1
  O  O121  1  0.25000000  0.33626587  0.53971792  1
  O  O122  1  0.75000000  0.33626587  0.03971792  1
  O  O123  1  0.75000000  0.33626587  0.53971792  1
  O  O124  1  0.50000000  0.83626587  0.03971792  1
  O  O125  1  0.50000000  0.83626587  0.53971792  1
  O  O126  1  1.00000000  0.83626587  0.03971792  1
  O  O127  1  1.00000000  0.83626587  0.53971792  1
