# generated using pymatgen
data_Cs2Pb2O3
_symmetry_space_group_name_H-M   'P 1'
_cell_length_a   18.10589894
_cell_length_b   18.10589894
_cell_length_c   18.10589894
_cell_angle_alpha   90.00000000
_cell_angle_beta   90.00000000
_cell_angle_gamma   90.00000000
_symmetry_Int_Tables_number   1
_chemical_formula_structural   Cs2Pb2O3
_chemical_formula_sum   'Cs64 Pb64 O96'
_cell_volume   5935.54054116
_cell_formula_units_Z   32
loop_
 _symmetry_equiv_pos_site_id
 _symmetry_equiv_pos_as_xyz
  1  'x, y, z'
loop_
 _atom_site_type_symbol
 _atom_site_label
 _atom_site_symmetry_multiplicity
 _atom_site_fract_x
 _atom_site_fract_y
 _atom_site_fract_z
 _atom_site_occupancy
  Cs  Cs0  1  0.12031572  0.12031572  0.12031572  1
  Cs  Cs1  1  0.12031572  0.12031572  0.62031572  1
  Cs  Cs2  1  0.12031572  0.62031572  0.12031572  1
  Cs  Cs3  1  0.12031572  0.62031572  0.62031572  1
  Cs  Cs4  1  0.62031572  0.12031572  0.12031572  1
  Cs  Cs5  1  0.62031572  0.12031572  0.62031572  1
  Cs  Cs6  1  0.62031572  0.62031572  0.12031572  1
  Cs  Cs7  1  0.62031572  0.62031572  0.62031572  1
  Cs  Cs8  1  0.37031572  0.37031572  0.37031572  1
  Cs  Cs9  1  0.37031572  0.37031572  0.87031572  1
  Cs  Cs10  1  0.37031572  0.87031572  0.37031572  1
  Cs  Cs11  1  0.37031572  0.87031572  0.87031572  1
  Cs  Cs12  1  0.87031572  0.37031572  0.37031572  1
  Cs  Cs13  1  0.87031572  0.37031572  0.87031572  1
  Cs  Cs14  1  0.87031572  0.87031572  0.37031572  1
  Cs  Cs15  1  0.87031572  0.87031572  0.87031572  1
  Cs  Cs16  1  0.12031572  -0.12031572  0.12968428  1
  Cs  Cs17  1  0.12031572  -0.12031572  0.62968428  1
  Cs  Cs18  1  0.12031572  0.37968428  0.12968428  1
  Cs  Cs19  1  0.12031572  0.37968428  0.62968428  1
  Cs  Cs20  1  0.62031572  -0.12031572  0.12968428  1
  Cs  Cs21  1  0.62031572  -0.12031572  0.62968428  1
  Cs  Cs22  1  0.62031572  0.37968428  0.12968428  1
  Cs  Cs23  1  0.62031572  0.37968428  0.62968428  1
  Cs  Cs24  1  0.37031572  0.12968428  0.37968428  1
  Cs  Cs25  1  0.37031572  0.12968428  0.87968428  1
  Cs  Cs26  1  0.37031572  0.62968428  0.37968428  1
  Cs  Cs27  1  0.37031572  0.62968428  0.87968428  1
  Cs  Cs28  1  0.87031572  0.12968428  0.37968428  1
  Cs  Cs29  1  0.87031572  0.12968428  0.87968428  1
  Cs  Cs30  1  0.87031572  0.62968428  0.37968428  1
  Cs  Cs31  1  0.87031572  0.62968428  0.87968428  1
  Cs  Cs32  1  0.12968428  0.12031572  -0.12031572  1
  Cs  Cs33  1  0.12968428  0.12031572  0.37968428  1
  Cs  Cs34  1  0.12968428  0.62031572  -0.12031572  1
  Cs  Cs35  1  0.12968428  0.62031572  0.37968428  1
  Cs  Cs36  1  0.62968428  0.12031572  -0.12031572  1
  Cs  Cs37  1  0.62968428  0.12031572  0.37968428  1
  Cs  Cs38  1  0.62968428  0.62031572  -0.12031572  1
  Cs  Cs39  1  0.62968428  0.62031572  0.37968428  1
  Cs  Cs40  1  0.37968428  0.37031572  0.12968428  1
  Cs  Cs41  1  0.37968428  0.37031572  0.62968428  1
  Cs  Cs42  1  0.37968428  0.87031572  0.12968428  1
  Cs  Cs43  1  0.37968428  0.87031572  0.62968428  1
  Cs  Cs44  1  0.87968428  0.37031572  0.12968428  1
  Cs  Cs45  1  0.87968428  0.37031572  0.62968428  1
  Cs  Cs46  1  0.87968428  0.87031572  0.12968428  1
  Cs  Cs47  1  0.87968428  0.87031572  0.62968428  1
  Cs  Cs48  1  -0.12031572  0.12968428  0.12031572  1
  Cs  Cs49  1  -0.12031572  0.12968428  0.62031572  1
  Cs  Cs50  1  -0.12031572  0.62968428  0.12031572  1
  Cs  Cs51  1  -0.12031572  0.62968428  0.62031572  1
  Cs  Cs52  1  0.37968428  0.12968428  0.12031572  1
  Cs  Cs53  1  0.37968428  0.12968428  0.62031572  1
  Cs  Cs54  1  0.37968428  0.62968428  0.12031572  1
  Cs  Cs55  1  0.37968428  0.62968428  0.62031572  1
  Cs  Cs56  1  0.12968428  0.37968428  0.37031572  1
  Cs  Cs57  1  0.12968428  0.37968428  0.87031572  1
  Cs  Cs58  1  0.12968428  0.87968428  0.37031572  1
  Cs  Cs59  1  0.12968428  0.87968428  0.87031572  1
  Cs  Cs60  1  0.62968428  0.37968428  0.37031572  1
  Cs  Cs61  1  0.62968428  0.37968428  0.87031572  1
  Cs  Cs62  1  0.62968428  0.87968428  0.37031572  1
  Cs  Cs63  1  0.62968428  0.87968428  0.87031572  1
  Pb  Pb64  1  0.00445992  0.00445992  0.00445992  1
  Pb  Pb65  1  0.00445992  0.00445992  0.50445992  1
  Pb  Pb66  1  0.00445992  0.50445992  0.00445992  1
  Pb  Pb67  1  0.00445992  0.50445992  0.50445992  1
  Pb  Pb68  1  0.50445992  0.00445992  0.00445992  1
  Pb  Pb69  1  0.50445992  0.00445992  0.50445992  1
  Pb  Pb70  1  0.50445992  0.50445992  0.00445992  1
  Pb  Pb71  1  0.50445992  0.50445992  0.50445992  1
  Pb  Pb72  1  0.25445992  0.25445992  0.25445992  1
  Pb  Pb73  1  0.25445992  0.25445992  0.75445992  1
  Pb  Pb74  1  0.25445992  0.75445992  0.25445992  1
  Pb  Pb75  1  0.25445992  0.75445992  0.75445992  1
  Pb  Pb76  1  0.75445992  0.25445992  0.25445992  1
  Pb  Pb77  1  0.75445992  0.25445992  0.75445992  1
  Pb  Pb78  1  0.75445992  0.75445992  0.25445992  1
  Pb  Pb79  1  0.75445992  0.75445992  0.75445992  1
  Pb  Pb80  1  0.00445992  -0.00445992  0.24554008  1
  Pb  Pb81  1  0.00445992  -0.00445992  0.74554008  1
  Pb  Pb82  1  0.00445992  0.49554008  0.24554008  1
  Pb  Pb83  1  0.00445992  0.49554008  0.74554008  1
  Pb  Pb84  1  0.50445992  -0.00445992  0.24554008  1
  Pb  Pb85  1  0.50445992  -0.00445992  0.74554008  1
  Pb  Pb86  1  0.50445992  0.49554008  0.24554008  1
  Pb  Pb87  1  0.50445992  0.49554008  0.74554008  1
  Pb  Pb88  1  0.25445992  0.24554008  0.49554008  1
  Pb  Pb89  1  0.25445992  0.24554008  0.99554008  1
  Pb  Pb90  1  0.25445992  0.74554008  0.49554008  1
  Pb  Pb91  1  0.25445992  0.74554008  0.99554008  1
  Pb  Pb92  1  0.75445992  0.24554008  0.49554008  1
  Pb  Pb93  1  0.75445992  0.24554008  0.99554008  1
  Pb  Pb94  1  0.75445992  0.74554008  0.49554008  1
  Pb  Pb95  1  0.75445992  0.74554008  0.99554008  1
  Pb  Pb96  1  0.24554008  0.00445992  -0.00445992  1
  Pb  Pb97  1  0.24554008  0.00445992  0.49554008  1
  Pb  Pb98  1  0.24554008  0.50445992  -0.00445992  1
  Pb  Pb99  1  0.24554008  0.50445992  0.49554008  1
  Pb  Pb100  1  0.74554008  0.00445992  -0.00445992  1
  Pb  Pb101  1  0.74554008  0.00445992  0.49554008  1
  Pb  Pb102  1  0.74554008  0.50445992  -0.00445992  1
  Pb  Pb103  1  0.74554008  0.50445992  0.49554008  1
  Pb  Pb104  1  0.49554008  0.25445992  0.24554008  1
  Pb  Pb105  1  0.49554008  0.25445992  0.74554008  1
  Pb  Pb106  1  0.49554008  0.75445992  0.24554008  1
  Pb  Pb107  1  0.49554008  0.75445992  0.74554008  1
  Pb  Pb108  1  0.99554008  0.25445992  0.24554008  1
  Pb  Pb109  1  0.99554008  0.25445992  0.74554008  1
  Pb  Pb110  1  0.99554008  0.75445992  0.24554008  1
  Pb  Pb111  1  0.99554008  0.75445992  0.74554008  1
  Pb  Pb112  1  -0.00445992  0.24554008  0.00445992  1
  Pb  Pb113  1  -0.00445992  0.24554008  0.50445992  1
  Pb  Pb114  1  -0.00445992  0.74554008  0.00445992  1
  Pb  Pb115  1  -0.00445992  0.74554008  0.50445992  1
  Pb  Pb116  1  0.49554008  0.24554008  0.00445992  1
  Pb  Pb117  1  0.49554008  0.24554008  0.50445992  1
  Pb  Pb118  1  0.49554008  0.74554008  0.00445992  1
  Pb  Pb119  1  0.49554008  0.74554008  0.50445992  1
  Pb  Pb120  1  0.24554008  0.49554008  0.25445992  1
  Pb  Pb121  1  0.24554008  0.49554008  0.75445992  1
  Pb  Pb122  1  0.24554008  0.99554008  0.25445992  1
  Pb  Pb123  1  0.24554008  0.99554008  0.75445992  1
  Pb  Pb124  1  0.74554008  0.49554008  0.25445992  1
  Pb  Pb125  1  0.74554008  0.49554008  0.75445992  1
  Pb  Pb126  1  0.74554008  0.99554008  0.25445992  1
  Pb  Pb127  1  0.74554008  0.99554008  0.75445992  1
  O  O128  1  0.25000000  -0.12500000  0.24260872  1
  O  O129  1  0.25000000  -0.12500000  0.74260872  1
  O  O130  1  0.25000000  0.37500000  0.24260872  1
  O  O131  1  0.25000000  0.37500000  0.74260872  1
  O  O132  1  0.75000000  -0.12500000  0.24260872  1
  O  O133  1  0.75000000  -0.12500000  0.74260872  1
  O  O134  1  0.75000000  0.37500000  0.24260872  1
  O  O135  1  0.75000000  0.37500000  0.74260872  1
  O  O136  1  0.50000000  0.12500000  0.49260872  1
  O  O137  1  0.50000000  0.12500000  0.99260872  1
  O  O138  1  0.50000000  0.62500000  0.49260872  1
  O  O139  1  0.50000000  0.62500000  0.99260872  1
  O  O140  1  1.00000000  0.12500000  0.49260872  1
  O  O141  1  1.00000000  0.12500000  0.99260872  1
  O  O142  1  1.00000000  0.62500000  0.49260872  1
  O  O143  1  1.00000000  0.62500000  0.99260872  1
  O  O144  1  0.25000000  0.12500000  0.00739128  1
  O  O145  1  0.25000000  0.12500000  0.50739128  1
  O  O146  1  0.25000000  0.62500000  0.00739128  1
  O  O147  1  0.25000000  0.62500000  0.50739128  1
  O  O148  1  0.75000000  0.12500000  0.00739128  1
  O  O149  1  0.75000000  0.12500000  0.50739128  1
  O  O150  1  0.75000000  0.62500000  0.00739128  1
  O  O151  1  0.75000000  0.62500000  0.50739128  1
  O  O152  1  0.50000000  0.37500000  0.25739128  1
  O  O153  1  0.50000000  0.37500000  0.75739128  1
  O  O154  1  0.50000000  0.87500000  0.25739128  1
  O  O155  1  0.50000000  0.87500000  0.75739128  1
  O  O156  1  1.00000000  0.37500000  0.25739128  1
  O  O157  1  1.00000000  0.37500000  0.75739128  1
  O  O158  1  1.00000000  0.87500000  0.25739128  1
  O  O159  1  1.00000000  0.87500000  0.75739128  1
  O  O160  1  -0.12500000  0.24260872  0.25000000  1
  O  O161  1  -0.12500000  0.24260872  0.75000000  1
  O  O162  1  -0.12500000  0.74260872  0.25000000  1
  O  O163  1  -0.12500000  0.74260872  0.75000000  1
  O  O164  1  0.37500000  0.24260872  0.25000000  1
  O  O165  1  0.37500000  0.24260872  0.75000000  1
  O  O166  1  0.37500000  0.74260872  0.25000000  1
  O  O167  1  0.37500000  0.74260872  0.75000000  1
  O  O168  1  0.12500000  0.49260872  0.50000000  1
  O  O169  1  0.12500000  0.49260872  1.00000000  1
  O  O170  1  0.12500000  0.99260872  0.50000000  1
  O  O171  1  0.12500000  0.99260872  1.00000000  1
  O  O172  1  0.62500000  0.49260872  0.50000000  1
  O  O173  1  0.62500000  0.49260872  1.00000000  1
  O  O174  1  0.62500000  0.99260872  0.50000000  1
  O  O175  1  0.62500000  0.99260872  1.00000000  1
  O  O176  1  0.12500000  0.00739128  0.25000000  1
  O  O177  1  0.12500000  0.00739128  0.75000000  1
  O  O178  1  0.12500000  0.50739128  0.25000000  1
  O  O179  1  0.12500000  0.50739128  0.75000000  1
  O  O180  1  0.62500000  0.00739128  0.25000000  1
  O  O181  1  0.62500000  0.00739128  0.75000000  1
  O  O182  1  0.62500000  0.50739128  0.25000000  1
  O  O183  1  0.62500000  0.50739128  0.75000000  1
  O  O184  1  0.37500000  0.25739128  0.50000000  1
  O  O185  1  0.37500000  0.25739128  1.00000000  1
  O  O186  1  0.37500000  0.75739128  0.50000000  1
  O  O187  1  0.37500000  0.75739128  1.00000000  1
  O  O188  1  0.87500000  0.25739128  0.50000000  1
  O  O189  1  0.87500000  0.25739128  1.00000000  1
  O  O190  1  0.87500000  0.75739128  0.50000000  1
  O  O191  1  0.87500000  0.75739128  1.00000000  1
  O  O192  1  0.24260872  0.25000000  -0.12500000  1
  O  O193  1  0.24260872  0.25000000  0.37500000  1
  O  O194  1  0.24260872  0.75000000  -0.12500000  1
  O  O195  1  0.24260872  0.75000000  0.37500000  1
  O  O196  1  0.74260872  0.25000000  -0.12500000  1
  O  O197  1  0.74260872  0.25000000  0.37500000  1
  O  O198  1  0.74260872  0.75000000  -0.12500000  1
  O  O199  1  0.74260872  0.75000000  0.37500000  1
  O  O200  1  0.49260872  0.50000000  0.12500000  1
  O  O201  1  0.49260872  0.50000000  0.62500000  1
  O  O202  1  0.49260872  1.00000000  0.12500000  1
  O  O203  1  0.49260872  1.00000000  0.62500000  1
  O  O204  1  0.99260872  0.50000000  0.12500000  1
  O  O205  1  0.99260872  0.50000000  0.62500000  1
  O  O206  1  0.99260872  1.00000000  0.12500000  1
  O  O207  1  0.99260872  1.00000000  0.62500000  1
  O  O208  1  0.00739128  0.25000000  0.12500000  1
  O  O209  1  0.00739128  0.25000000  0.62500000  1
  O  O210  1  0.00739128  0.75000000  0.12500000  1
  O  O211  1  0.00739128  0.75000000  0.62500000  1
  O  O212  1  0.50739128  0.25000000  0.12500000  1
  O  O213  1  0.50739128  0.25000000  0.62500000  1
  O  O214  1  0.50739128  0.75000000  0.12500000  1
  O  O215  1  0.50739128  0.75000000  0.62500000  1
  O  O216  1  0.25739128  0.50000000  0.37500000  1
  O  O217  1  0.25739128  0.50000000  0.87500000  1
  O  O218  1  0.25739128  1.00000000  0.37500000  1
  O  O219  1  0.25739128  1.00000000  0.87500000  1
  O  O220  1  0.75739128  0.50000000  0.37500000  1
  O  O221  1  0.75739128  0.50000000  0.87500000  1
  O  O222  1  0.75739128  1.00000000  0.37500000  1
  O  O223  1  0.75739128  1.00000000  0.87500000  1
