# generated using pymatgen
data_Ba2ZnSi2O7
_symmetry_space_group_name_H-M   'P 1'
_cell_length_a   16.78878358
_cell_length_b   21.45915272
_cell_length_c   16.78053307
_cell_angle_alpha   90.00000000
_cell_angle_beta   110.93437066
_cell_angle_gamma   90.00000000
_symmetry_Int_Tables_number   1
_chemical_formula_structural   Ba2ZnSi2O7
_chemical_formula_sum   'Ba64 Zn32 Si64 O224'
_cell_volume   5646.50767731
_cell_formula_units_Z   32
loop_
 _symmetry_equiv_pos_site_id
 _symmetry_equiv_pos_as_xyz
  1  'x, y, z'
loop_
 _atom_site_type_symbol
 _atom_site_label
 _atom_site_symmetry_multiplicity
 _atom_site_fract_x
 _atom_site_fract_y
 _atom_site_fract_z
 _atom_site_occupancy
  Ba  Ba0  1  0.38641885  0.02141338  0.26298921  1
  Ba  Ba1  1  0.38641885  0.02141338  0.76298921  1
  Ba  Ba2  1  0.38641885  0.52141338  0.26298921  1
  Ba  Ba3  1  0.38641885  0.52141338  0.76298921  1
  Ba  Ba4  1  0.88641885  0.02141338  0.26298921  1
  Ba  Ba5  1  0.88641885  0.02141338  0.76298921  1
  Ba  Ba6  1  0.88641885  0.52141338  0.26298921  1
  Ba  Ba7  1  0.88641885  0.52141338  0.76298921  1
  Ba  Ba8  1  0.63641885  0.27141338  0.26298921  1
  Ba  Ba9  1  0.63641885  0.27141338  0.76298921  1
  Ba  Ba10  1  0.63641885  0.77141338  0.26298921  1
  Ba  Ba11  1  0.63641885  0.77141338  0.76298921  1
  Ba  Ba12  1  1.13641885  0.27141338  0.26298921  1
  Ba  Ba13  1  1.13641885  0.27141338  0.76298921  1
  Ba  Ba14  1  1.13641885  0.77141338  0.26298921  1
  Ba  Ba15  1  1.13641885  0.77141338  0.76298921  1
  Ba  Ba16  1  0.38641885  -0.02141338  0.01298921  1
  Ba  Ba17  1  0.38641885  -0.02141338  0.51298921  1
  Ba  Ba18  1  0.38641885  0.47858662  0.01298921  1
  Ba  Ba19  1  0.38641885  0.47858662  0.51298921  1
  Ba  Ba20  1  0.88641885  -0.02141338  0.01298921  1
  Ba  Ba21  1  0.88641885  -0.02141338  0.51298921  1
  Ba  Ba22  1  0.88641885  0.47858662  0.01298921  1
  Ba  Ba23  1  0.88641885  0.47858662  0.51298921  1
  Ba  Ba24  1  0.63641885  0.22858662  0.01298921  1
  Ba  Ba25  1  0.63641885  0.22858662  0.51298921  1
  Ba  Ba26  1  0.63641885  0.72858662  0.01298921  1
  Ba  Ba27  1  0.63641885  0.72858662  0.51298921  1
  Ba  Ba28  1  1.13641885  0.22858662  0.01298921  1
  Ba  Ba29  1  1.13641885  0.22858662  0.51298921  1
  Ba  Ba30  1  1.13641885  0.72858662  0.01298921  1
  Ba  Ba31  1  1.13641885  0.72858662  0.51298921  1
  Ba  Ba32  1  0.11358115  0.02141338  0.48701079  1
  Ba  Ba33  1  0.11358115  0.02141338  0.98701079  1
  Ba  Ba34  1  0.11358115  0.52141338  0.48701079  1
  Ba  Ba35  1  0.11358115  0.52141338  0.98701079  1
  Ba  Ba36  1  0.61358115  0.02141338  0.48701079  1
  Ba  Ba37  1  0.61358115  0.02141338  0.98701079  1
  Ba  Ba38  1  0.61358115  0.52141338  0.48701079  1
  Ba  Ba39  1  0.61358115  0.52141338  0.98701079  1
  Ba  Ba40  1  0.36358115  0.27141338  0.48701079  1
  Ba  Ba41  1  0.36358115  0.27141338  0.98701079  1
  Ba  Ba42  1  0.36358115  0.77141338  0.48701079  1
  Ba  Ba43  1  0.36358115  0.77141338  0.98701079  1
  Ba  Ba44  1  0.86358115  0.27141338  0.48701079  1
  Ba  Ba45  1  0.86358115  0.27141338  0.98701079  1
  Ba  Ba46  1  0.86358115  0.77141338  0.48701079  1
  Ba  Ba47  1  0.86358115  0.77141338  0.98701079  1
  Ba  Ba48  1  0.11358115  -0.02141338  0.23701079  1
  Ba  Ba49  1  0.11358115  -0.02141338  0.73701079  1
  Ba  Ba50  1  0.11358115  0.47858662  0.23701079  1
  Ba  Ba51  1  0.11358115  0.47858662  0.73701079  1
  Ba  Ba52  1  0.61358115  -0.02141338  0.23701079  1
  Ba  Ba53  1  0.61358115  -0.02141338  0.73701079  1
  Ba  Ba54  1  0.61358115  0.47858662  0.23701079  1
  Ba  Ba55  1  0.61358115  0.47858662  0.73701079  1
  Ba  Ba56  1  0.36358115  0.22858662  0.23701079  1
  Ba  Ba57  1  0.36358115  0.22858662  0.73701079  1
  Ba  Ba58  1  0.36358115  0.72858662  0.23701079  1
  Ba  Ba59  1  0.36358115  0.72858662  0.73701079  1
  Ba  Ba60  1  0.86358115  0.22858662  0.23701079  1
  Ba  Ba61  1  0.86358115  0.22858662  0.73701079  1
  Ba  Ba62  1  0.86358115  0.72858662  0.23701079  1
  Ba  Ba63  1  0.86358115  0.72858662  0.73701079  1
  Zn  Zn64  1  0.25000000  0.12113718  0.37500000  1
  Zn  Zn65  1  0.25000000  0.12113718  0.87500000  1
  Zn  Zn66  1  0.25000000  0.62113718  0.37500000  1
  Zn  Zn67  1  0.25000000  0.62113718  0.87500000  1
  Zn  Zn68  1  0.75000000  0.12113718  0.37500000  1
  Zn  Zn69  1  0.75000000  0.12113718  0.87500000  1
  Zn  Zn70  1  0.75000000  0.62113718  0.37500000  1
  Zn  Zn71  1  0.75000000  0.62113718  0.87500000  1
  Zn  Zn72  1  0.50000000  0.37113718  0.37500000  1
  Zn  Zn73  1  0.50000000  0.37113718  0.87500000  1
  Zn  Zn74  1  0.50000000  0.87113718  0.37500000  1
  Zn  Zn75  1  0.50000000  0.87113718  0.87500000  1
  Zn  Zn76  1  1.00000000  0.37113718  0.37500000  1
  Zn  Zn77  1  1.00000000  0.37113718  0.87500000  1
  Zn  Zn78  1  1.00000000  0.87113718  0.37500000  1
  Zn  Zn79  1  1.00000000  0.87113718  0.87500000  1
  Zn  Zn80  1  0.25000000  -0.12113718  0.12500000  1
  Zn  Zn81  1  0.25000000  -0.12113718  0.62500000  1
  Zn  Zn82  1  0.25000000  0.37886282  0.12500000  1
  Zn  Zn83  1  0.25000000  0.37886282  0.62500000  1
  Zn  Zn84  1  0.75000000  -0.12113718  0.12500000  1
  Zn  Zn85  1  0.75000000  -0.12113718  0.62500000  1
  Zn  Zn86  1  0.75000000  0.37886282  0.12500000  1
  Zn  Zn87  1  0.75000000  0.37886282  0.62500000  1
  Zn  Zn88  1  0.50000000  0.12886282  0.12500000  1
  Zn  Zn89  1  0.50000000  0.12886282  0.62500000  1
  Zn  Zn90  1  0.50000000  0.62886282  0.12500000  1
  Zn  Zn91  1  0.50000000  0.62886282  0.62500000  1
  Zn  Zn92  1  1.00000000  0.12886282  0.12500000  1
  Zn  Zn93  1  1.00000000  0.12886282  0.62500000  1
  Zn  Zn94  1  1.00000000  0.62886282  0.12500000  1
  Zn  Zn95  1  1.00000000  0.62886282  0.62500000  1
  Si  Si96  1  0.19250483  -0.10965193  0.43193226  1
  Si  Si97  1  0.19250483  -0.10965193  0.93193226  1
  Si  Si98  1  0.19250483  0.39034807  0.43193226  1
  Si  Si99  1  0.19250483  0.39034807  0.93193226  1
  Si  Si100  1  0.69250483  -0.10965193  0.43193226  1
  Si  Si101  1  0.69250483  -0.10965193  0.93193226  1
  Si  Si102  1  0.69250483  0.39034807  0.43193226  1
  Si  Si103  1  0.69250483  0.39034807  0.93193226  1
  Si  Si104  1  0.44250483  0.14034807  0.43193226  1
  Si  Si105  1  0.44250483  0.14034807  0.93193226  1
  Si  Si106  1  0.44250483  0.64034807  0.43193226  1
  Si  Si107  1  0.44250483  0.64034807  0.93193226  1
  Si  Si108  1  0.94250483  0.14034807  0.43193226  1
  Si  Si109  1  0.94250483  0.14034807  0.93193226  1
  Si  Si110  1  0.94250483  0.64034807  0.43193226  1
  Si  Si111  1  0.94250483  0.64034807  0.93193226  1
  Si  Si112  1  0.30749517  -0.10965193  0.31806774  1
  Si  Si113  1  0.30749517  -0.10965193  0.81806774  1
  Si  Si114  1  0.30749517  0.39034807  0.31806774  1
  Si  Si115  1  0.30749517  0.39034807  0.81806774  1
  Si  Si116  1  0.80749517  -0.10965193  0.31806774  1
  Si  Si117  1  0.80749517  -0.10965193  0.81806774  1
  Si  Si118  1  0.80749517  0.39034807  0.31806774  1
  Si  Si119  1  0.80749517  0.39034807  0.81806774  1
  Si  Si120  1  0.55749517  0.14034807  0.31806774  1
  Si  Si121  1  0.55749517  0.14034807  0.81806774  1
  Si  Si122  1  0.55749517  0.64034807  0.31806774  1
  Si  Si123  1  0.55749517  0.64034807  0.81806774  1
  Si  Si124  1  1.05749517  0.14034807  0.31806774  1
  Si  Si125  1  1.05749517  0.14034807  0.81806774  1
  Si  Si126  1  1.05749517  0.64034807  0.31806774  1
  Si  Si127  1  1.05749517  0.64034807  0.81806774  1
  Si  Si128  1  0.30749517  0.10965193  0.06806774  1
  Si  Si129  1  0.30749517  0.10965193  0.56806774  1
  Si  Si130  1  0.30749517  0.60965193  0.06806774  1
  Si  Si131  1  0.30749517  0.60965193  0.56806774  1
  Si  Si132  1  0.80749517  0.10965193  0.06806774  1
  Si  Si133  1  0.80749517  0.10965193  0.56806774  1
  Si  Si134  1  0.80749517  0.60965193  0.06806774  1
  Si  Si135  1  0.80749517  0.60965193  0.56806774  1
  Si  Si136  1  0.55749517  0.35965193  0.06806774  1
  Si  Si137  1  0.55749517  0.35965193  0.56806774  1
  Si  Si138  1  0.55749517  0.85965193  0.06806774  1
  Si  Si139  1  0.55749517  0.85965193  0.56806774  1
  Si  Si140  1  1.05749517  0.35965193  0.06806774  1
  Si  Si141  1  1.05749517  0.35965193  0.56806774  1
  Si  Si142  1  1.05749517  0.85965193  0.06806774  1
  Si  Si143  1  1.05749517  0.85965193  0.56806774  1
  Si  Si144  1  0.19250483  0.10965193  0.18193226  1
  Si  Si145  1  0.19250483  0.10965193  0.68193226  1
  Si  Si146  1  0.19250483  0.60965193  0.18193226  1
  Si  Si147  1  0.19250483  0.60965193  0.68193226  1
  Si  Si148  1  0.69250483  0.10965193  0.18193226  1
  Si  Si149  1  0.69250483  0.10965193  0.68193226  1
  Si  Si150  1  0.69250483  0.60965193  0.18193226  1
  Si  Si151  1  0.69250483  0.60965193  0.68193226  1
  Si  Si152  1  0.44250483  0.35965193  0.18193226  1
  Si  Si153  1  0.44250483  0.35965193  0.68193226  1
  Si  Si154  1  0.44250483  0.85965193  0.18193226  1
  Si  Si155  1  0.44250483  0.85965193  0.68193226  1
  Si  Si156  1  0.94250483  0.35965193  0.18193226  1
  Si  Si157  1  0.94250483  0.35965193  0.68193226  1
  Si  Si158  1  0.94250483  0.85965193  0.18193226  1
  Si  Si159  1  0.94250483  0.85965193  0.68193226  1
  O  O160  1  0.26445650  -0.07408099  0.22604274  1
  O  O161  1  0.26445650  -0.07408099  0.72604274  1
  O  O162  1  0.26445650  0.42591901  0.22604274  1
  O  O163  1  0.26445650  0.42591901  0.72604274  1
  O  O164  1  0.76445650  -0.07408099  0.22604274  1
  O  O165  1  0.76445650  -0.07408099  0.72604274  1
  O  O166  1  0.76445650  0.42591901  0.22604274  1
  O  O167  1  0.76445650  0.42591901  0.72604274  1
  O  O168  1  0.51445650  0.17591901  0.22604274  1
  O  O169  1  0.51445650  0.17591901  0.72604274  1
  O  O170  1  0.51445650  0.67591901  0.22604274  1
  O  O171  1  0.51445650  0.67591901  0.72604274  1
  O  O172  1  1.01445650  0.17591901  0.22604274  1
  O  O173  1  1.01445650  0.17591901  0.72604274  1
  O  O174  1  1.01445650  0.67591901  0.22604274  1
  O  O175  1  1.01445650  0.67591901  0.72604274  1
  O  O176  1  0.09797309  0.07900814  0.13248793  1
  O  O177  1  0.09797309  0.07900814  0.63248793  1
  O  O178  1  0.09797309  0.57900814  0.13248793  1
  O  O179  1  0.09797309  0.57900814  0.63248793  1
  O  O180  1  0.59797309  0.07900814  0.13248793  1
  O  O181  1  0.59797309  0.07900814  0.63248793  1
  O  O182  1  0.59797309  0.57900814  0.13248793  1
  O  O183  1  0.59797309  0.57900814  0.63248793  1
  O  O184  1  0.34797309  0.32900814  0.13248793  1
  O  O185  1  0.34797309  0.32900814  0.63248793  1
  O  O186  1  0.34797309  0.82900814  0.13248793  1
  O  O187  1  0.34797309  0.82900814  0.63248793  1
  O  O188  1  0.84797309  0.32900814  0.13248793  1
  O  O189  1  0.84797309  0.32900814  0.63248793  1
  O  O190  1  0.84797309  0.82900814  0.13248793  1
  O  O191  1  0.84797309  0.82900814  0.63248793  1
  O  O192  1  0.19574569  -0.18489329  0.43348418  1
  O  O193  1  0.19574569  -0.18489329  0.93348418  1
  O  O194  1  0.19574569  0.31510671  0.43348418  1
  O  O195  1  0.19574569  0.31510671  0.93348418  1
  O  O196  1  0.69574569  -0.18489329  0.43348418  1
  O  O197  1  0.69574569  -0.18489329  0.93348418  1
  O  O198  1  0.69574569  0.31510671  0.43348418  1
  O  O199  1  0.69574569  0.31510671  0.93348418  1
  O  O200  1  0.44574569  0.06510671  0.43348418  1
  O  O201  1  0.44574569  0.06510671  0.93348418  1
  O  O202  1  0.44574569  0.56510671  0.43348418  1
  O  O203  1  0.44574569  0.56510671  0.93348418  1
  O  O204  1  0.94574569  0.06510671  0.43348418  1
  O  O205  1  0.94574569  0.06510671  0.93348418  1
  O  O206  1  0.94574569  0.56510671  0.43348418  1
  O  O207  1  0.94574569  0.56510671  0.93348418  1
  O  O208  1  0.30425431  -0.18489329  0.31651582  1
  O  O209  1  0.30425431  -0.18489329  0.81651582  1
  O  O210  1  0.30425431  0.31510671  0.31651582  1
  O  O211  1  0.30425431  0.31510671  0.81651582  1
  O  O212  1  0.80425431  -0.18489329  0.31651582  1
  O  O213  1  0.80425431  -0.18489329  0.81651582  1
  O  O214  1  0.80425431  0.31510671  0.31651582  1
  O  O215  1  0.80425431  0.31510671  0.81651582  1
  O  O216  1  0.55425431  0.06510671  0.31651582  1
  O  O217  1  0.55425431  0.06510671  0.81651582  1
  O  O218  1  0.55425431  0.56510671  0.31651582  1
  O  O219  1  0.55425431  0.56510671  0.81651582  1
  O  O220  1  1.05425431  0.06510671  0.31651582  1
  O  O221  1  1.05425431  0.06510671  0.81651582  1
  O  O222  1  1.05425431  0.56510671  0.31651582  1
  O  O223  1  1.05425431  0.56510671  0.81651582  1
  O  O224  1  0.25000000  -0.08246333  0.37500000  1
  O  O225  1  0.25000000  -0.08246333  0.87500000  1
  O  O226  1  0.25000000  0.41753667  0.37500000  1
  O  O227  1  0.25000000  0.41753667  0.87500000  1
  O  O228  1  0.75000000  -0.08246333  0.37500000  1
  O  O229  1  0.75000000  -0.08246333  0.87500000  1
  O  O230  1  0.75000000  0.41753667  0.37500000  1
  O  O231  1  0.75000000  0.41753667  0.87500000  1
  O  O232  1  0.50000000  0.16753667  0.37500000  1
  O  O233  1  0.50000000  0.16753667  0.87500000  1
  O  O234  1  0.50000000  0.66753667  0.37500000  1
  O  O235  1  0.50000000  0.66753667  0.87500000  1
  O  O236  1  1.00000000  0.16753667  0.37500000  1
  O  O237  1  1.00000000  0.16753667  0.87500000  1
  O  O238  1  1.00000000  0.66753667  0.37500000  1
  O  O239  1  1.00000000  0.66753667  0.87500000  1
  O  O240  1  0.40202691  -0.07900814  0.36751207  1
  O  O241  1  0.40202691  -0.07900814  0.86751207  1
  O  O242  1  0.40202691  0.42099186  0.36751207  1
  O  O243  1  0.40202691  0.42099186  0.86751207  1
  O  O244  1  0.90202691  -0.07900814  0.36751207  1
  O  O245  1  0.90202691  -0.07900814  0.86751207  1
  O  O246  1  0.90202691  0.42099186  0.36751207  1
  O  O247  1  0.90202691  0.42099186  0.86751207  1
  O  O248  1  0.65202691  0.17099186  0.36751207  1
  O  O249  1  0.65202691  0.17099186  0.86751207  1
  O  O250  1  0.65202691  0.67099186  0.36751207  1
  O  O251  1  0.65202691  0.67099186  0.86751207  1
  O  O252  1  1.15202691  0.17099186  0.36751207  1
  O  O253  1  1.15202691  0.17099186  0.86751207  1
  O  O254  1  1.15202691  0.67099186  0.36751207  1
  O  O255  1  1.15202691  0.67099186  0.86751207  1
  O  O256  1  0.25000000  0.08246333  0.12500000  1
  O  O257  1  0.25000000  0.08246333  0.62500000  1
  O  O258  1  0.25000000  0.58246333  0.12500000  1
  O  O259  1  0.25000000  0.58246333  0.62500000  1
  O  O260  1  0.75000000  0.08246333  0.12500000  1
  O  O261  1  0.75000000  0.08246333  0.62500000  1
  O  O262  1  0.75000000  0.58246333  0.12500000  1
  O  O263  1  0.75000000  0.58246333  0.62500000  1
  O  O264  1  0.50000000  0.33246333  0.12500000  1
  O  O265  1  0.50000000  0.33246333  0.62500000  1
  O  O266  1  0.50000000  0.83246333  0.12500000  1
  O  O267  1  0.50000000  0.83246333  0.62500000  1
  O  O268  1  1.00000000  0.33246333  0.12500000  1
  O  O269  1  1.00000000  0.33246333  0.62500000  1
  O  O270  1  1.00000000  0.83246333  0.12500000  1
  O  O271  1  1.00000000  0.83246333  0.62500000  1
  O  O272  1  0.09797309  -0.07900814  0.38248793  1
  O  O273  1  0.09797309  -0.07900814  0.88248793  1
  O  O274  1  0.09797309  0.42099186  0.38248793  1
  O  O275  1  0.09797309  0.42099186  0.88248793  1
  O  O276  1  0.59797309  -0.07900814  0.38248793  1
  O  O277  1  0.59797309  -0.07900814  0.88248793  1
  O  O278  1  0.59797309  0.42099186  0.38248793  1
  O  O279  1  0.59797309  0.42099186  0.88248793  1
  O  O280  1  0.34797309  0.17099186  0.38248793  1
  O  O281  1  0.34797309  0.17099186  0.88248793  1
  O  O282  1  0.34797309  0.67099186  0.38248793  1
  O  O283  1  0.34797309  0.67099186  0.88248793  1
  O  O284  1  0.84797309  0.17099186  0.38248793  1
  O  O285  1  0.84797309  0.17099186  0.88248793  1
  O  O286  1  0.84797309  0.67099186  0.38248793  1
  O  O287  1  0.84797309  0.67099186  0.88248793  1
  O  O288  1  0.26445650  0.07408099  0.47604274  1
  O  O289  1  0.26445650  0.07408099  0.97604274  1
  O  O290  1  0.26445650  0.57408099  0.47604274  1
  O  O291  1  0.26445650  0.57408099  0.97604274  1
  O  O292  1  0.76445650  0.07408099  0.47604274  1
  O  O293  1  0.76445650  0.07408099  0.97604274  1
  O  O294  1  0.76445650  0.57408099  0.47604274  1
  O  O295  1  0.76445650  0.57408099  0.97604274  1
  O  O296  1  0.51445650  0.32408099  0.47604274  1
  O  O297  1  0.51445650  0.32408099  0.97604274  1
  O  O298  1  0.51445650  0.82408099  0.47604274  1
  O  O299  1  0.51445650  0.82408099  0.97604274  1
  O  O300  1  1.01445650  0.32408099  0.47604274  1
  O  O301  1  1.01445650  0.32408099  0.97604274  1
  O  O302  1  1.01445650  0.82408099  0.47604274  1
  O  O303  1  1.01445650  0.82408099  0.97604274  1
  O  O304  1  0.30425431  0.18489329  0.06651582  1
  O  O305  1  0.30425431  0.18489329  0.56651582  1
  O  O306  1  0.30425431  0.68489329  0.06651582  1
  O  O307  1  0.30425431  0.68489329  0.56651582  1
  O  O308  1  0.80425431  0.18489329  0.06651582  1
  O  O309  1  0.80425431  0.18489329  0.56651582  1
  O  O310  1  0.80425431  0.68489329  0.06651582  1
  O  O311  1  0.80425431  0.68489329  0.56651582  1
  O  O312  1  0.55425431  0.43489329  0.06651582  1
  O  O313  1  0.55425431  0.43489329  0.56651582  1
  O  O314  1  0.55425431  0.93489329  0.06651582  1
  O  O315  1  0.55425431  0.93489329  0.56651582  1
  O  O316  1  1.05425431  0.43489329  0.06651582  1
  O  O317  1  1.05425431  0.43489329  0.56651582  1
  O  O318  1  1.05425431  0.93489329  0.06651582  1
  O  O319  1  1.05425431  0.93489329  0.56651582  1
  O  O320  1  0.23554350  0.07408099  0.27395726  1
  O  O321  1  0.23554350  0.07408099  0.77395726  1
  O  O322  1  0.23554350  0.57408099  0.27395726  1
  O  O323  1  0.23554350  0.57408099  0.77395726  1
  O  O324  1  0.73554350  0.07408099  0.27395726  1
  O  O325  1  0.73554350  0.07408099  0.77395726  1
  O  O326  1  0.73554350  0.57408099  0.27395726  1
  O  O327  1  0.73554350  0.57408099  0.77395726  1
  O  O328  1  0.48554350  0.32408099  0.27395726  1
  O  O329  1  0.48554350  0.32408099  0.77395726  1
  O  O330  1  0.48554350  0.82408099  0.27395726  1
  O  O331  1  0.48554350  0.82408099  0.77395726  1
  O  O332  1  0.98554350  0.32408099  0.27395726  1
  O  O333  1  0.98554350  0.32408099  0.77395726  1
  O  O334  1  0.98554350  0.82408099  0.27395726  1
  O  O335  1  0.98554350  0.82408099  0.77395726  1
  O  O336  1  0.19574569  0.18489329  0.18348418  1
  O  O337  1  0.19574569  0.18489329  0.68348418  1
  O  O338  1  0.19574569  0.68489329  0.18348418  1
  O  O339  1  0.19574569  0.68489329  0.68348418  1
  O  O340  1  0.69574569  0.18489329  0.18348418  1
  O  O341  1  0.69574569  0.18489329  0.68348418  1
  O  O342  1  0.69574569  0.68489329  0.18348418  1
  O  O343  1  0.69574569  0.68489329  0.68348418  1
  O  O344  1  0.44574569  0.43489329  0.18348418  1
  O  O345  1  0.44574569  0.43489329  0.68348418  1
  O  O346  1  0.44574569  0.93489329  0.18348418  1
  O  O347  1  0.44574569  0.93489329  0.68348418  1
  O  O348  1  0.94574569  0.43489329  0.18348418  1
  O  O349  1  0.94574569  0.43489329  0.68348418  1
  O  O350  1  0.94574569  0.93489329  0.18348418  1
  O  O351  1  0.94574569  0.93489329  0.68348418  1
  O  O352  1  0.40202691  0.07900814  0.11751207  1
  O  O353  1  0.40202691  0.07900814  0.61751207  1
  O  O354  1  0.40202691  0.57900814  0.11751207  1
  O  O355  1  0.40202691  0.57900814  0.61751207  1
  O  O356  1  0.90202691  0.07900814  0.11751207  1
  O  O357  1  0.90202691  0.07900814  0.61751207  1
  O  O358  1  0.90202691  0.57900814  0.11751207  1
  O  O359  1  0.90202691  0.57900814  0.61751207  1
  O  O360  1  0.65202691  0.32900814  0.11751207  1
  O  O361  1  0.65202691  0.32900814  0.61751207  1
  O  O362  1  0.65202691  0.82900814  0.11751207  1
  O  O363  1  0.65202691  0.82900814  0.61751207  1
  O  O364  1  1.15202691  0.32900814  0.11751207  1
  O  O365  1  1.15202691  0.32900814  0.61751207  1
  O  O366  1  1.15202691  0.82900814  0.11751207  1
  O  O367  1  1.15202691  0.82900814  0.61751207  1
  O  O368  1  0.23554350  -0.07408099  0.02395726  1
  O  O369  1  0.23554350  -0.07408099  0.52395726  1
  O  O370  1  0.23554350  0.42591901  0.02395726  1
  O  O371  1  0.23554350  0.42591901  0.52395726  1
  O  O372  1  0.73554350  -0.07408099  0.02395726  1
  O  O373  1  0.73554350  -0.07408099  0.52395726  1
  O  O374  1  0.73554350  0.42591901  0.02395726  1
  O  O375  1  0.73554350  0.42591901  0.52395726  1
  O  O376  1  0.48554350  0.17591901  0.02395726  1
  O  O377  1  0.48554350  0.17591901  0.52395726  1
  O  O378  1  0.48554350  0.67591901  0.02395726  1
  O  O379  1  0.48554350  0.67591901  0.52395726  1
  O  O380  1  0.98554350  0.17591901  0.02395726  1
  O  O381  1  0.98554350  0.17591901  0.52395726  1
  O  O382  1  0.98554350  0.67591901  0.02395726  1
  O  O383  1  0.98554350  0.67591901  0.52395726  1
