# generated using pymatgen
data_LiLa4AuO8
_symmetry_space_group_name_H-M   'P 1'
_cell_length_a   11.41437536
_cell_length_b   12.35138191
_cell_length_c   11.41521986
_cell_angle_alpha   90.00000000
_cell_angle_beta   90.00000000
_cell_angle_gamma   90.00000000
_symmetry_Int_Tables_number   1
_chemical_formula_structural   LiLa4AuO8
_chemical_formula_sum   'Li8 La32 Au8 O64'
_cell_volume   1609.35547263
_cell_formula_units_Z   8
loop_
 _symmetry_equiv_pos_site_id
 _symmetry_equiv_pos_as_xyz
  1  'x, y, z'
loop_
 _atom_site_type_symbol
 _atom_site_label
 _atom_site_symmetry_multiplicity
 _atom_site_fract_x
 _atom_site_fract_y
 _atom_site_fract_z
 _atom_site_occupancy
  Li  Li0  1  0.25000000  0.00000000  0.00000000  1
  Li  Li1  1  0.25000000  0.00000000  0.50000000  1
  Li  Li2  1  0.75000000  0.00000000  0.00000000  1
  Li  Li3  1  0.75000000  0.00000000  0.50000000  1
  Li  Li4  1  0.50000000  0.50000000  0.00000000  1
  Li  Li5  1  0.50000000  0.50000000  0.50000000  1
  Li  Li6  1  1.00000000  0.50000000  0.00000000  1
  Li  Li7  1  1.00000000  0.50000000  0.50000000  1
  La  La8  1  0.25000000  -0.14944821  0.25000000  1
  La  La9  1  0.25000000  -0.14944821  0.75000000  1
  La  La10  1  0.75000000  -0.14944821  0.25000000  1
  La  La11  1  0.75000000  -0.14944821  0.75000000  1
  La  La12  1  0.50000000  0.35055179  0.25000000  1
  La  La13  1  0.50000000  0.35055179  0.75000000  1
  La  La14  1  1.00000000  0.35055179  0.25000000  1
  La  La15  1  1.00000000  0.35055179  0.75000000  1
  La  La16  1  0.25000000  0.35119639  0.00000000  1
  La  La17  1  0.25000000  0.35119639  0.50000000  1
  La  La18  1  0.75000000  0.35119639  0.00000000  1
  La  La19  1  0.75000000  0.35119639  0.50000000  1
  La  La20  1  0.50000000  0.85119639  0.00000000  1
  La  La21  1  0.50000000  0.85119639  0.50000000  1
  La  La22  1  1.00000000  0.85119639  0.00000000  1
  La  La23  1  1.00000000  0.85119639  0.50000000  1
  La  La24  1  0.25000000  -0.35119639  0.00000000  1
  La  La25  1  0.25000000  -0.35119639  0.50000000  1
  La  La26  1  0.75000000  -0.35119639  0.00000000  1
  La  La27  1  0.75000000  -0.35119639  0.50000000  1
  La  La28  1  0.50000000  0.14880361  0.00000000  1
  La  La29  1  0.50000000  0.14880361  0.50000000  1
  La  La30  1  1.00000000  0.14880361  0.00000000  1
  La  La31  1  1.00000000  0.14880361  0.50000000  1
  La  La32  1  0.25000000  0.14944821  0.25000000  1
  La  La33  1  0.25000000  0.14944821  0.75000000  1
  La  La34  1  0.75000000  0.14944821  0.25000000  1
  La  La35  1  0.75000000  0.14944821  0.75000000  1
  La  La36  1  0.50000000  0.64944821  0.25000000  1
  La  La37  1  0.50000000  0.64944821  0.75000000  1
  La  La38  1  1.00000000  0.64944821  0.25000000  1
  La  La39  1  1.00000000  0.64944821  0.75000000  1
  Au  Au40  1  0.00000000  -0.00000000  0.25000000  1
  Au  Au41  1  0.00000000  -0.00000000  0.75000000  1
  Au  Au42  1  0.50000000  -0.00000000  0.25000000  1
  Au  Au43  1  0.50000000  -0.00000000  0.75000000  1
  Au  Au44  1  0.25000000  0.50000000  0.25000000  1
  Au  Au45  1  0.25000000  0.50000000  0.75000000  1
  Au  Au46  1  0.75000000  0.50000000  0.25000000  1
  Au  Au47  1  0.75000000  0.50000000  0.75000000  1
  O  O48  1  0.12500000  0.25000000  0.12464061  1
  O  O49  1  0.12500000  0.25000000  0.62464061  1
  O  O50  1  0.62500000  0.25000000  0.12464061  1
  O  O51  1  0.62500000  0.25000000  0.62464061  1
  O  O52  1  0.37500000  0.75000000  0.12464061  1
  O  O53  1  0.37500000  0.75000000  0.62464061  1
  O  O54  1  0.87500000  0.75000000  0.12464061  1
  O  O55  1  0.87500000  0.75000000  0.62464061  1
  O  O56  1  0.12500000  -0.25000000  0.37535939  1
  O  O57  1  0.12500000  -0.25000000  0.87535939  1
  O  O58  1  0.62500000  -0.25000000  0.37535939  1
  O  O59  1  0.62500000  -0.25000000  0.87535939  1
  O  O60  1  0.37500000  0.25000000  0.37535939  1
  O  O61  1  0.37500000  0.25000000  0.87535939  1
  O  O62  1  0.87500000  0.25000000  0.37535939  1
  O  O63  1  0.87500000  0.25000000  0.87535939  1
  O  O64  1  0.12500000  0.25000000  0.37535939  1
  O  O65  1  0.12500000  0.25000000  0.87535939  1
  O  O66  1  0.62500000  0.25000000  0.37535939  1
  O  O67  1  0.62500000  0.25000000  0.87535939  1
  O  O68  1  0.37500000  0.75000000  0.37535939  1
  O  O69  1  0.37500000  0.75000000  0.87535939  1
  O  O70  1  0.87500000  0.75000000  0.37535939  1
  O  O71  1  0.87500000  0.75000000  0.87535939  1
  O  O72  1  0.12419713  -0.00000000  0.37414734  1
  O  O73  1  0.12419713  -0.00000000  0.87414734  1
  O  O74  1  0.62419713  -0.00000000  0.37414734  1
  O  O75  1  0.62419713  -0.00000000  0.87414734  1
  O  O76  1  0.37419713  0.50000000  0.37414734  1
  O  O77  1  0.37419713  0.50000000  0.87414734  1
  O  O78  1  0.87419713  0.50000000  0.37414734  1
  O  O79  1  0.87419713  0.50000000  0.87414734  1
  O  O80  1  0.12500000  -0.25000000  0.12464061  1
  O  O81  1  0.12500000  -0.25000000  0.62464061  1
  O  O82  1  0.62500000  -0.25000000  0.12464061  1
  O  O83  1  0.62500000  -0.25000000  0.62464061  1
  O  O84  1  0.37500000  0.25000000  0.12464061  1
  O  O85  1  0.37500000  0.25000000  0.62464061  1
  O  O86  1  0.87500000  0.25000000  0.12464061  1
  O  O87  1  0.87500000  0.25000000  0.62464061  1
  O  O88  1  0.12419713  -0.00000000  0.12585266  1
  O  O89  1  0.12419713  -0.00000000  0.62585266  1
  O  O90  1  0.62419713  -0.00000000  0.12585266  1
  O  O91  1  0.62419713  -0.00000000  0.62585266  1
  O  O92  1  0.37419713  0.50000000  0.12585266  1
  O  O93  1  0.37419713  0.50000000  0.62585266  1
  O  O94  1  0.87419713  0.50000000  0.12585266  1
  O  O95  1  0.87419713  0.50000000  0.62585266  1
  O  O96  1  0.37580287  -0.00000000  0.12585266  1
  O  O97  1  0.37580287  -0.00000000  0.62585266  1
  O  O98  1  0.87580287  -0.00000000  0.12585266  1
  O  O99  1  0.87580287  -0.00000000  0.62585266  1
  O  O100  1  0.62580287  0.50000000  0.12585266  1
  O  O101  1  0.62580287  0.50000000  0.62585266  1
  O  O102  1  1.12580287  0.50000000  0.12585266  1
  O  O103  1  1.12580287  0.50000000  0.62585266  1
  O  O104  1  0.37580287  -0.00000000  0.37414734  1
  O  O105  1  0.37580287  -0.00000000  0.87414734  1
  O  O106  1  0.87580287  -0.00000000  0.37414734  1
  O  O107  1  0.87580287  -0.00000000  0.87414734  1
  O  O108  1  0.62580287  0.50000000  0.37414734  1
  O  O109  1  0.62580287  0.50000000  0.87414734  1
  O  O110  1  1.12580287  0.50000000  0.37414734  1
  O  O111  1  1.12580287  0.50000000  0.87414734  1
