# generated using pymatgen
data_KLa(MoO4)2
_symmetry_space_group_name_H-M   'P 1'
_cell_length_a   21.77082346
_cell_length_b   21.18008057
_cell_length_c   15.83409277
_cell_angle_alpha   90.00000000
_cell_angle_beta   131.44709941
_cell_angle_gamma   90.00000000
_symmetry_Int_Tables_number   1
_chemical_formula_structural   KLa(MoO4)2
_chemical_formula_sum   'K32 La32 Mo64 O256'
_cell_volume   5472.75767050
_cell_formula_units_Z   32
loop_
 _symmetry_equiv_pos_site_id
 _symmetry_equiv_pos_as_xyz
  1  'x, y, z'
loop_
 _atom_site_type_symbol
 _atom_site_label
 _atom_site_symmetry_multiplicity
 _atom_site_fract_x
 _atom_site_fract_y
 _atom_site_fract_z
 _atom_site_occupancy
  K  K0  1  0.25000000  -0.15235317  0.37500000  1
  K  K1  1  0.25000000  -0.15235317  0.87500000  1
  K  K2  1  0.25000000  0.34764683  0.37500000  1
  K  K3  1  0.25000000  0.34764683  0.87500000  1
  K  K4  1  0.75000000  -0.15235317  0.37500000  1
  K  K5  1  0.75000000  -0.15235317  0.87500000  1
  K  K6  1  0.75000000  0.34764683  0.37500000  1
  K  K7  1  0.75000000  0.34764683  0.87500000  1
  K  K8  1  0.50000000  0.09764683  0.37500000  1
  K  K9  1  0.50000000  0.09764683  0.87500000  1
  K  K10  1  0.50000000  0.59764683  0.37500000  1
  K  K11  1  0.50000000  0.59764683  0.87500000  1
  K  K12  1  1.00000000  0.09764683  0.37500000  1
  K  K13  1  1.00000000  0.09764683  0.87500000  1
  K  K14  1  1.00000000  0.59764683  0.37500000  1
  K  K15  1  1.00000000  0.59764683  0.87500000  1
  K  K16  1  0.25000000  0.15235317  0.12500000  1
  K  K17  1  0.25000000  0.15235317  0.62500000  1
  K  K18  1  0.25000000  0.65235317  0.12500000  1
  K  K19  1  0.25000000  0.65235317  0.62500000  1
  K  K20  1  0.75000000  0.15235317  0.12500000  1
  K  K21  1  0.75000000  0.15235317  0.62500000  1
  K  K22  1  0.75000000  0.65235317  0.12500000  1
  K  K23  1  0.75000000  0.65235317  0.62500000  1
  K  K24  1  0.50000000  0.40235317  0.12500000  1
  K  K25  1  0.50000000  0.40235317  0.62500000  1
  K  K26  1  0.50000000  0.90235317  0.12500000  1
  K  K27  1  0.50000000  0.90235317  0.62500000  1
  K  K28  1  1.00000000  0.40235317  0.12500000  1
  K  K29  1  1.00000000  0.40235317  0.62500000  1
  K  K30  1  1.00000000  0.90235317  0.12500000  1
  K  K31  1  1.00000000  0.90235317  0.62500000  1
  La  La32  1  0.25000000  0.13593814  0.37500000  1
  La  La33  1  0.25000000  0.13593814  0.87500000  1
  La  La34  1  0.25000000  0.63593814  0.37500000  1
  La  La35  1  0.25000000  0.63593814  0.87500000  1
  La  La36  1  0.75000000  0.13593814  0.37500000  1
  La  La37  1  0.75000000  0.13593814  0.87500000  1
  La  La38  1  0.75000000  0.63593814  0.37500000  1
  La  La39  1  0.75000000  0.63593814  0.87500000  1
  La  La40  1  0.50000000  0.38593814  0.37500000  1
  La  La41  1  0.50000000  0.38593814  0.87500000  1
  La  La42  1  0.50000000  0.88593814  0.37500000  1
  La  La43  1  0.50000000  0.88593814  0.87500000  1
  La  La44  1  1.00000000  0.38593814  0.37500000  1
  La  La45  1  1.00000000  0.38593814  0.87500000  1
  La  La46  1  1.00000000  0.88593814  0.37500000  1
  La  La47  1  1.00000000  0.88593814  0.87500000  1
  La  La48  1  0.25000000  -0.13593814  0.12500000  1
  La  La49  1  0.25000000  -0.13593814  0.62500000  1
  La  La50  1  0.25000000  0.36406186  0.12500000  1
  La  La51  1  0.25000000  0.36406186  0.62500000  1
  La  La52  1  0.75000000  -0.13593814  0.12500000  1
  La  La53  1  0.75000000  -0.13593814  0.62500000  1
  La  La54  1  0.75000000  0.36406186  0.12500000  1
  La  La55  1  0.75000000  0.36406186  0.62500000  1
  La  La56  1  0.50000000  0.11406186  0.12500000  1
  La  La57  1  0.50000000  0.11406186  0.62500000  1
  La  La58  1  0.50000000  0.61406186  0.12500000  1
  La  La59  1  0.50000000  0.61406186  0.62500000  1
  La  La60  1  1.00000000  0.11406186  0.12500000  1
  La  La61  1  1.00000000  0.11406186  0.62500000  1
  La  La62  1  1.00000000  0.61406186  0.12500000  1
  La  La63  1  1.00000000  0.61406186  0.62500000  1
  Mo  Mo64  1  0.15457941  -0.00144127  0.37977137  1
  Mo  Mo65  1  0.15457941  -0.00144127  0.87977137  1
  Mo  Mo66  1  0.15457941  0.49855873  0.37977137  1
  Mo  Mo67  1  0.15457941  0.49855873  0.87977137  1
  Mo  Mo68  1  0.65457941  -0.00144127  0.37977137  1
  Mo  Mo69  1  0.65457941  -0.00144127  0.87977137  1
  Mo  Mo70  1  0.65457941  0.49855873  0.37977137  1
  Mo  Mo71  1  0.65457941  0.49855873  0.87977137  1
  Mo  Mo72  1  0.40457941  0.24855873  0.37977137  1
  Mo  Mo73  1  0.40457941  0.24855873  0.87977137  1
  Mo  Mo74  1  0.40457941  0.74855873  0.37977137  1
  Mo  Mo75  1  0.40457941  0.74855873  0.87977137  1
  Mo  Mo76  1  0.90457941  0.24855873  0.37977137  1
  Mo  Mo77  1  0.90457941  0.24855873  0.87977137  1
  Mo  Mo78  1  0.90457941  0.74855873  0.37977137  1
  Mo  Mo79  1  0.90457941  0.74855873  0.87977137  1
  Mo  Mo80  1  0.34542059  0.00144127  0.12022863  1
  Mo  Mo81  1  0.34542059  0.00144127  0.62022863  1
  Mo  Mo82  1  0.34542059  0.50144127  0.12022863  1
  Mo  Mo83  1  0.34542059  0.50144127  0.62022863  1
  Mo  Mo84  1  0.84542059  0.00144127  0.12022863  1
  Mo  Mo85  1  0.84542059  0.00144127  0.62022863  1
  Mo  Mo86  1  0.84542059  0.50144127  0.12022863  1
  Mo  Mo87  1  0.84542059  0.50144127  0.62022863  1
  Mo  Mo88  1  0.59542059  0.25144127  0.12022863  1
  Mo  Mo89  1  0.59542059  0.25144127  0.62022863  1
  Mo  Mo90  1  0.59542059  0.75144127  0.12022863  1
  Mo  Mo91  1  0.59542059  0.75144127  0.62022863  1
  Mo  Mo92  1  1.09542059  0.25144127  0.12022863  1
  Mo  Mo93  1  1.09542059  0.25144127  0.62022863  1
  Mo  Mo94  1  1.09542059  0.75144127  0.12022863  1
  Mo  Mo95  1  1.09542059  0.75144127  0.62022863  1
  Mo  Mo96  1  0.34542059  -0.00144127  0.37022863  1
  Mo  Mo97  1  0.34542059  -0.00144127  0.87022863  1
  Mo  Mo98  1  0.34542059  0.49855873  0.37022863  1
  Mo  Mo99  1  0.34542059  0.49855873  0.87022863  1
  Mo  Mo100  1  0.84542059  -0.00144127  0.37022863  1
  Mo  Mo101  1  0.84542059  -0.00144127  0.87022863  1
  Mo  Mo102  1  0.84542059  0.49855873  0.37022863  1
  Mo  Mo103  1  0.84542059  0.49855873  0.87022863  1
  Mo  Mo104  1  0.59542059  0.24855873  0.37022863  1
  Mo  Mo105  1  0.59542059  0.24855873  0.87022863  1
  Mo  Mo106  1  0.59542059  0.74855873  0.37022863  1
  Mo  Mo107  1  0.59542059  0.74855873  0.87022863  1
  Mo  Mo108  1  1.09542059  0.24855873  0.37022863  1
  Mo  Mo109  1  1.09542059  0.24855873  0.87022863  1
  Mo  Mo110  1  1.09542059  0.74855873  0.37022863  1
  Mo  Mo111  1  1.09542059  0.74855873  0.87022863  1
  Mo  Mo112  1  0.15457941  0.00144127  0.12977137  1
  Mo  Mo113  1  0.15457941  0.00144127  0.62977137  1
  Mo  Mo114  1  0.15457941  0.50144127  0.12977137  1
  Mo  Mo115  1  0.15457941  0.50144127  0.62977137  1
  Mo  Mo116  1  0.65457941  0.00144127  0.12977137  1
  Mo  Mo117  1  0.65457941  0.00144127  0.62977137  1
  Mo  Mo118  1  0.65457941  0.50144127  0.12977137  1
  Mo  Mo119  1  0.65457941  0.50144127  0.62977137  1
  Mo  Mo120  1  0.40457941  0.25144127  0.12977137  1
  Mo  Mo121  1  0.40457941  0.25144127  0.62977137  1
  Mo  Mo122  1  0.40457941  0.75144127  0.12977137  1
  Mo  Mo123  1  0.40457941  0.75144127  0.62977137  1
  Mo  Mo124  1  0.90457941  0.25144127  0.12977137  1
  Mo  Mo125  1  0.90457941  0.25144127  0.62977137  1
  Mo  Mo126  1  0.90457941  0.75144127  0.12977137  1
  Mo  Mo127  1  0.90457941  0.75144127  0.62977137  1
  O  O128  1  0.15591354  -0.04030490  0.28221338  1
  O  O129  1  0.15591354  -0.04030490  0.78221338  1
  O  O130  1  0.15591354  0.45969510  0.28221338  1
  O  O131  1  0.15591354  0.45969510  0.78221338  1
  O  O132  1  0.65591354  -0.04030490  0.28221338  1
  O  O133  1  0.65591354  -0.04030490  0.78221338  1
  O  O134  1  0.65591354  0.45969510  0.28221338  1
  O  O135  1  0.65591354  0.45969510  0.78221338  1
  O  O136  1  0.40591354  0.20969510  0.28221338  1
  O  O137  1  0.40591354  0.20969510  0.78221338  1
  O  O138  1  0.40591354  0.70969510  0.28221338  1
  O  O139  1  0.40591354  0.70969510  0.78221338  1
  O  O140  1  0.90591354  0.20969510  0.28221338  1
  O  O141  1  0.90591354  0.20969510  0.78221338  1
  O  O142  1  0.90591354  0.70969510  0.28221338  1
  O  O143  1  0.90591354  0.70969510  0.78221338  1
  O  O144  1  0.34408646  0.04030490  0.21778662  1
  O  O145  1  0.34408646  0.04030490  0.71778662  1
  O  O146  1  0.34408646  0.54030490  0.21778662  1
  O  O147  1  0.34408646  0.54030490  0.71778662  1
  O  O148  1  0.84408646  0.04030490  0.21778662  1
  O  O149  1  0.84408646  0.04030490  0.71778662  1
  O  O150  1  0.84408646  0.54030490  0.21778662  1
  O  O151  1  0.84408646  0.54030490  0.71778662  1
  O  O152  1  0.59408646  0.29030490  0.21778662  1
  O  O153  1  0.59408646  0.29030490  0.71778662  1
  O  O154  1  0.59408646  0.79030490  0.21778662  1
  O  O155  1  0.59408646  0.79030490  0.71778662  1
  O  O156  1  1.09408646  0.29030490  0.21778662  1
  O  O157  1  1.09408646  0.29030490  0.71778662  1
  O  O158  1  1.09408646  0.79030490  0.21778662  1
  O  O159  1  1.09408646  0.79030490  0.71778662  1
  O  O160  1  0.34408646  -0.04030490  0.46778662  1
  O  O161  1  0.34408646  -0.04030490  0.96778662  1
  O  O162  1  0.34408646  0.45969510  0.46778662  1
  O  O163  1  0.34408646  0.45969510  0.96778662  1
  O  O164  1  0.84408646  -0.04030490  0.46778662  1
  O  O165  1  0.84408646  -0.04030490  0.96778662  1
  O  O166  1  0.84408646  0.45969510  0.46778662  1
  O  O167  1  0.84408646  0.45969510  0.96778662  1
  O  O168  1  0.59408646  0.20969510  0.46778662  1
  O  O169  1  0.59408646  0.20969510  0.96778662  1
  O  O170  1  0.59408646  0.70969510  0.46778662  1
  O  O171  1  0.59408646  0.70969510  0.96778662  1
  O  O172  1  1.09408646  0.20969510  0.46778662  1
  O  O173  1  1.09408646  0.20969510  0.96778662  1
  O  O174  1  1.09408646  0.70969510  0.46778662  1
  O  O175  1  1.09408646  0.70969510  0.96778662  1
  O  O176  1  0.15591354  0.04030490  0.03221338  1
  O  O177  1  0.15591354  0.04030490  0.53221338  1
  O  O178  1  0.15591354  0.54030490  0.03221338  1
  O  O179  1  0.15591354  0.54030490  0.53221338  1
  O  O180  1  0.65591354  0.04030490  0.03221338  1
  O  O181  1  0.65591354  0.04030490  0.53221338  1
  O  O182  1  0.65591354  0.54030490  0.03221338  1
  O  O183  1  0.65591354  0.54030490  0.53221338  1
  O  O184  1  0.40591354  0.29030490  0.03221338  1
  O  O185  1  0.40591354  0.29030490  0.53221338  1
  O  O186  1  0.40591354  0.79030490  0.03221338  1
  O  O187  1  0.40591354  0.79030490  0.53221338  1
  O  O188  1  0.90591354  0.29030490  0.03221338  1
  O  O189  1  0.90591354  0.29030490  0.53221338  1
  O  O190  1  0.90591354  0.79030490  0.03221338  1
  O  O191  1  0.90591354  0.79030490  0.53221338  1
  O  O192  1  0.38158817  0.07778658  0.43422098  1
  O  O193  1  0.38158817  0.07778658  0.93422098  1
  O  O194  1  0.38158817  0.57778658  0.43422098  1
  O  O195  1  0.38158817  0.57778658  0.93422098  1
  O  O196  1  0.88158817  0.07778658  0.43422098  1
  O  O197  1  0.88158817  0.07778658  0.93422098  1
  O  O198  1  0.88158817  0.57778658  0.43422098  1
  O  O199  1  0.88158817  0.57778658  0.93422098  1
  O  O200  1  0.63158817  0.32778658  0.43422098  1
  O  O201  1  0.63158817  0.32778658  0.93422098  1
  O  O202  1  0.63158817  0.82778658  0.43422098  1
  O  O203  1  0.63158817  0.82778658  0.93422098  1
  O  O204  1  1.13158817  0.32778658  0.43422098  1
  O  O205  1  1.13158817  0.32778658  0.93422098  1
  O  O206  1  1.13158817  0.82778658  0.43422098  1
  O  O207  1  1.13158817  0.82778658  0.93422098  1
  O  O208  1  0.11841183  -0.07778658  0.06577902  1
  O  O209  1  0.11841183  -0.07778658  0.56577902  1
  O  O210  1  0.11841183  0.42221342  0.06577902  1
  O  O211  1  0.11841183  0.42221342  0.56577902  1
  O  O212  1  0.61841183  -0.07778658  0.06577902  1
  O  O213  1  0.61841183  -0.07778658  0.56577902  1
  O  O214  1  0.61841183  0.42221342  0.06577902  1
  O  O215  1  0.61841183  0.42221342  0.56577902  1
  O  O216  1  0.36841183  0.17221342  0.06577902  1
  O  O217  1  0.36841183  0.17221342  0.56577902  1
  O  O218  1  0.36841183  0.67221342  0.06577902  1
  O  O219  1  0.36841183  0.67221342  0.56577902  1
  O  O220  1  0.86841183  0.17221342  0.06577902  1
  O  O221  1  0.86841183  0.17221342  0.56577902  1
  O  O222  1  0.86841183  0.67221342  0.06577902  1
  O  O223  1  0.86841183  0.67221342  0.56577902  1
  O  O224  1  0.11841183  0.07778658  0.31577902  1
  O  O225  1  0.11841183  0.07778658  0.81577902  1
  O  O226  1  0.11841183  0.57778658  0.31577902  1
  O  O227  1  0.11841183  0.57778658  0.81577902  1
  O  O228  1  0.61841183  0.07778658  0.31577902  1
  O  O229  1  0.61841183  0.07778658  0.81577902  1
  O  O230  1  0.61841183  0.57778658  0.31577902  1
  O  O231  1  0.61841183  0.57778658  0.81577902  1
  O  O232  1  0.36841183  0.32778658  0.31577902  1
  O  O233  1  0.36841183  0.32778658  0.81577902  1
  O  O234  1  0.36841183  0.82778658  0.31577902  1
  O  O235  1  0.36841183  0.82778658  0.81577902  1
  O  O236  1  0.86841183  0.32778658  0.31577902  1
  O  O237  1  0.86841183  0.32778658  0.81577902  1
  O  O238  1  0.86841183  0.82778658  0.31577902  1
  O  O239  1  0.86841183  0.82778658  0.81577902  1
  O  O240  1  0.38158817  -0.07778658  0.18422098  1
  O  O241  1  0.38158817  -0.07778658  0.68422098  1
  O  O242  1  0.38158817  0.42221342  0.18422098  1
  O  O243  1  0.38158817  0.42221342  0.68422098  1
  O  O244  1  0.88158817  -0.07778658  0.18422098  1
  O  O245  1  0.88158817  -0.07778658  0.68422098  1
  O  O246  1  0.88158817  0.42221342  0.18422098  1
  O  O247  1  0.88158817  0.42221342  0.68422098  1
  O  O248  1  0.63158817  0.17221342  0.18422098  1
  O  O249  1  0.63158817  0.17221342  0.68422098  1
  O  O250  1  0.63158817  0.67221342  0.18422098  1
  O  O251  1  0.63158817  0.67221342  0.68422098  1
  O  O252  1  1.13158817  0.17221342  0.18422098  1
  O  O253  1  1.13158817  0.17221342  0.68422098  1
  O  O254  1  1.13158817  0.67221342  0.18422098  1
  O  O255  1  1.13158817  0.67221342  0.68422098  1
  O  O256  1  0.26237267  0.05255208  0.48792686  1
  O  O257  1  0.26237267  0.05255208  0.98792686  1
  O  O258  1  0.26237267  0.55255208  0.48792686  1
  O  O259  1  0.26237267  0.55255208  0.98792686  1
  O  O260  1  0.76237267  0.05255208  0.48792686  1
  O  O261  1  0.76237267  0.05255208  0.98792686  1
  O  O262  1  0.76237267  0.55255208  0.48792686  1
  O  O263  1  0.76237267  0.55255208  0.98792686  1
  O  O264  1  0.51237267  0.30255208  0.48792686  1
  O  O265  1  0.51237267  0.30255208  0.98792686  1
  O  O266  1  0.51237267  0.80255208  0.48792686  1
  O  O267  1  0.51237267  0.80255208  0.98792686  1
  O  O268  1  1.01237267  0.30255208  0.48792686  1
  O  O269  1  1.01237267  0.30255208  0.98792686  1
  O  O270  1  1.01237267  0.80255208  0.48792686  1
  O  O271  1  1.01237267  0.80255208  0.98792686  1
  O  O272  1  0.23762733  -0.05255208  0.01207314  1
  O  O273  1  0.23762733  -0.05255208  0.51207314  1
  O  O274  1  0.23762733  0.44744792  0.01207314  1
  O  O275  1  0.23762733  0.44744792  0.51207314  1
  O  O276  1  0.73762733  -0.05255208  0.01207314  1
  O  O277  1  0.73762733  -0.05255208  0.51207314  1
  O  O278  1  0.73762733  0.44744792  0.01207314  1
  O  O279  1  0.73762733  0.44744792  0.51207314  1
  O  O280  1  0.48762733  0.19744792  0.01207314  1
  O  O281  1  0.48762733  0.19744792  0.51207314  1
  O  O282  1  0.48762733  0.69744792  0.01207314  1
  O  O283  1  0.48762733  0.69744792  0.51207314  1
  O  O284  1  0.98762733  0.19744792  0.01207314  1
  O  O285  1  0.98762733  0.19744792  0.51207314  1
  O  O286  1  0.98762733  0.69744792  0.01207314  1
  O  O287  1  0.98762733  0.69744792  0.51207314  1
  O  O288  1  0.23762733  0.05255208  0.26207314  1
  O  O289  1  0.23762733  0.05255208  0.76207314  1
  O  O290  1  0.23762733  0.55255208  0.26207314  1
  O  O291  1  0.23762733  0.55255208  0.76207314  1
  O  O292  1  0.73762733  0.05255208  0.26207314  1
  O  O293  1  0.73762733  0.05255208  0.76207314  1
  O  O294  1  0.73762733  0.55255208  0.26207314  1
  O  O295  1  0.73762733  0.55255208  0.76207314  1
  O  O296  1  0.48762733  0.30255208  0.26207314  1
  O  O297  1  0.48762733  0.30255208  0.76207314  1
  O  O298  1  0.48762733  0.80255208  0.26207314  1
  O  O299  1  0.48762733  0.80255208  0.76207314  1
  O  O300  1  0.98762733  0.30255208  0.26207314  1
  O  O301  1  0.98762733  0.30255208  0.76207314  1
  O  O302  1  0.98762733  0.80255208  0.26207314  1
  O  O303  1  0.98762733  0.80255208  0.76207314  1
  O  O304  1  0.26237267  -0.05255208  0.23792686  1
  O  O305  1  0.26237267  -0.05255208  0.73792686  1
  O  O306  1  0.26237267  0.44744792  0.23792686  1
  O  O307  1  0.26237267  0.44744792  0.73792686  1
  O  O308  1  0.76237267  -0.05255208  0.23792686  1
  O  O309  1  0.76237267  -0.05255208  0.73792686  1
  O  O310  1  0.76237267  0.44744792  0.23792686  1
  O  O311  1  0.76237267  0.44744792  0.73792686  1
  O  O312  1  0.51237267  0.19744792  0.23792686  1
  O  O313  1  0.51237267  0.19744792  0.73792686  1
  O  O314  1  0.51237267  0.69744792  0.23792686  1
  O  O315  1  0.51237267  0.69744792  0.73792686  1
  O  O316  1  1.01237267  0.19744792  0.23792686  1
  O  O317  1  1.01237267  0.19744792  0.73792686  1
  O  O318  1  1.01237267  0.69744792  0.23792686  1
  O  O319  1  1.01237267  0.69744792  0.73792686  1
  O  O320  1  0.06545400  -0.03511549  0.34686112  1
  O  O321  1  0.06545400  -0.03511549  0.84686112  1
  O  O322  1  0.06545400  0.46488451  0.34686112  1
  O  O323  1  0.06545400  0.46488451  0.84686112  1
  O  O324  1  0.56545400  -0.03511549  0.34686112  1
  O  O325  1  0.56545400  -0.03511549  0.84686112  1
  O  O326  1  0.56545400  0.46488451  0.34686112  1
  O  O327  1  0.56545400  0.46488451  0.84686112  1
  O  O328  1  0.31545400  0.21488451  0.34686112  1
  O  O329  1  0.31545400  0.21488451  0.84686112  1
  O  O330  1  0.31545400  0.71488451  0.34686112  1
  O  O331  1  0.31545400  0.71488451  0.84686112  1
  O  O332  1  0.81545400  0.21488451  0.34686112  1
  O  O333  1  0.81545400  0.21488451  0.84686112  1
  O  O334  1  0.81545400  0.71488451  0.34686112  1
  O  O335  1  0.81545400  0.71488451  0.84686112  1
  O  O336  1  0.43454600  0.03511549  0.15313888  1
  O  O337  1  0.43454600  0.03511549  0.65313888  1
  O  O338  1  0.43454600  0.53511549  0.15313888  1
  O  O339  1  0.43454600  0.53511549  0.65313888  1
  O  O340  1  0.93454600  0.03511549  0.15313888  1
  O  O341  1  0.93454600  0.03511549  0.65313888  1
  O  O342  1  0.93454600  0.53511549  0.15313888  1
  O  O343  1  0.93454600  0.53511549  0.65313888  1
  O  O344  1  0.68454600  0.28511549  0.15313888  1
  O  O345  1  0.68454600  0.28511549  0.65313888  1
  O  O346  1  0.68454600  0.78511549  0.15313888  1
  O  O347  1  0.68454600  0.78511549  0.65313888  1
  O  O348  1  1.18454600  0.28511549  0.15313888  1
  O  O349  1  1.18454600  0.28511549  0.65313888  1
  O  O350  1  1.18454600  0.78511549  0.15313888  1
  O  O351  1  1.18454600  0.78511549  0.65313888  1
  O  O352  1  0.43454600  -0.03511549  0.40313888  1
  O  O353  1  0.43454600  -0.03511549  0.90313888  1
  O  O354  1  0.43454600  0.46488451  0.40313888  1
  O  O355  1  0.43454600  0.46488451  0.90313888  1
  O  O356  1  0.93454600  -0.03511549  0.40313888  1
  O  O357  1  0.93454600  -0.03511549  0.90313888  1
  O  O358  1  0.93454600  0.46488451  0.40313888  1
  O  O359  1  0.93454600  0.46488451  0.90313888  1
  O  O360  1  0.68454600  0.21488451  0.40313888  1
  O  O361  1  0.68454600  0.21488451  0.90313888  1
  O  O362  1  0.68454600  0.71488451  0.40313888  1
  O  O363  1  0.68454600  0.71488451  0.90313888  1
  O  O364  1  1.18454600  0.21488451  0.40313888  1
  O  O365  1  1.18454600  0.21488451  0.90313888  1
  O  O366  1  1.18454600  0.71488451  0.40313888  1
  O  O367  1  1.18454600  0.71488451  0.90313888  1
  O  O368  1  0.06545400  0.03511549  0.09686112  1
  O  O369  1  0.06545400  0.03511549  0.59686112  1
  O  O370  1  0.06545400  0.53511549  0.09686112  1
  O  O371  1  0.06545400  0.53511549  0.59686112  1
  O  O372  1  0.56545400  0.03511549  0.09686112  1
  O  O373  1  0.56545400  0.03511549  0.59686112  1
  O  O374  1  0.56545400  0.53511549  0.09686112  1
  O  O375  1  0.56545400  0.53511549  0.59686112  1
  O  O376  1  0.31545400  0.28511549  0.09686112  1
  O  O377  1  0.31545400  0.28511549  0.59686112  1
  O  O378  1  0.31545400  0.78511549  0.09686112  1
  O  O379  1  0.31545400  0.78511549  0.59686112  1
  O  O380  1  0.81545400  0.28511549  0.09686112  1
  O  O381  1  0.81545400  0.28511549  0.59686112  1
  O  O382  1  0.81545400  0.78511549  0.09686112  1
  O  O383  1  0.81545400  0.78511549  0.59686112  1
