# generated using pymatgen
data_NaIn(WO4)2
_symmetry_space_group_name_H-M   'P 1'
_cell_length_a   10.08158470
_cell_length_b   11.65814954
_cell_length_c   10.09615474
_cell_angle_alpha   90.00000000
_cell_angle_beta   91.10608818
_cell_angle_gamma   90.00000000
_symmetry_Int_Tables_number   1
_chemical_formula_structural   NaIn(WO4)2
_chemical_formula_sum   'Na8 In8 W16 O64'
_cell_volume   1186.40643080
_cell_formula_units_Z   8
loop_
 _symmetry_equiv_pos_site_id
 _symmetry_equiv_pos_as_xyz
  1  'x, y, z'
loop_
 _atom_site_type_symbol
 _atom_site_label
 _atom_site_symmetry_multiplicity
 _atom_site_fract_x
 _atom_site_fract_y
 _atom_site_fract_z
 _atom_site_occupancy
  Na  Na0  1  -0.00000000  0.16068515  0.12500000  1
  Na  Na1  1  -0.00000000  0.16068515  0.62500000  1
  Na  Na2  1  -0.00000000  0.66068515  0.12500000  1
  Na  Na3  1  -0.00000000  0.66068515  0.62500000  1
  Na  Na4  1  0.00000000  0.33931485  0.37500000  1
  Na  Na5  1  0.00000000  0.33931485  0.87500000  1
  Na  Na6  1  0.00000000  0.83931485  0.37500000  1
  Na  Na7  1  0.00000000  0.83931485  0.87500000  1
  In  In8  1  0.50000000  0.34383032  0.37500000  1
  In  In9  1  0.50000000  0.34383032  0.87500000  1
  In  In10  1  0.50000000  0.84383032  0.37500000  1
  In  In11  1  0.50000000  0.84383032  0.87500000  1
  In  In12  1  0.50000000  0.15616968  0.12500000  1
  In  In13  1  0.50000000  0.15616968  0.62500000  1
  In  In14  1  0.50000000  0.65616968  0.12500000  1
  In  In15  1  0.50000000  0.65616968  0.62500000  1
  W  W16  1  0.74685799  0.08821508  0.37204043  1
  W  W17  1  0.74685799  0.08821508  0.87204043  1
  W  W18  1  0.74685799  0.58821508  0.37204043  1
  W  W19  1  0.74685799  0.58821508  0.87204043  1
  W  W20  1  0.74685799  0.41178492  0.12204043  1
  W  W21  1  0.74685799  0.41178492  0.62204043  1
  W  W22  1  0.74685799  0.91178492  0.12204043  1
  W  W23  1  0.74685799  0.91178492  0.62204043  1
  W  W24  1  0.25314201  0.41178492  0.12795957  1
  W  W25  1  0.25314201  0.41178492  0.62795957  1
  W  W26  1  0.25314201  0.91178492  0.12795957  1
  W  W27  1  0.25314201  0.91178492  0.62795957  1
  W  W28  1  0.25314201  0.08821508  0.37795957  1
  W  W29  1  0.25314201  0.08821508  0.87795957  1
  W  W30  1  0.25314201  0.58821508  0.37795957  1
  W  W31  1  0.25314201  0.58821508  0.87795957  1
  O  O32  1  0.83625087  0.04821132  0.21716971  1
  O  O33  1  0.83625087  0.04821132  0.71716971  1
  O  O34  1  0.83625087  0.54821132  0.21716971  1
  O  O35  1  0.83625087  0.54821132  0.71716971  1
  O  O36  1  0.86244581  0.31590462  0.18953502  1
  O  O37  1  0.86244581  0.31590462  0.68953502  1
  O  O38  1  0.86244581  0.81590462  0.18953502  1
  O  O39  1  0.86244581  0.81590462  0.68953502  1
  O  O40  1  0.36495976  0.04937236  0.22669912  1
  O  O41  1  0.36495976  0.04937236  0.72669912  1
  O  O42  1  0.36495976  0.54937236  0.22669912  1
  O  O43  1  0.36495976  0.54937236  0.72669912  1
  O  O44  1  0.16374913  0.04821132  0.03283029  1
  O  O45  1  0.16374913  0.04821132  0.53283029  1
  O  O46  1  0.16374913  0.54821132  0.03283029  1
  O  O47  1  0.16374913  0.54821132  0.53283029  1
  O  O48  1  0.36495976  0.45062764  0.47669912  1
  O  O49  1  0.36495976  0.45062764  0.97669912  1
  O  O50  1  0.36495976  0.95062764  0.47669912  1
  O  O51  1  0.36495976  0.95062764  0.97669912  1
  O  O52  1  0.83625087  0.45178868  0.46716971  1
  O  O53  1  0.83625087  0.45178868  0.96716971  1
  O  O54  1  0.83625087  0.95178868  0.46716971  1
  O  O55  1  0.83625087  0.95178868  0.96716971  1
  O  O56  1  0.38138998  0.18971869  0.44614289  1
  O  O57  1  0.38138998  0.18971869  0.94614289  1
  O  O58  1  0.38138998  0.68971869  0.44614289  1
  O  O59  1  0.38138998  0.68971869  0.94614289  1
  O  O60  1  0.61861002  0.18971869  0.30385711  1
  O  O61  1  0.61861002  0.18971869  0.80385711  1
  O  O62  1  0.61861002  0.68971869  0.30385711  1
  O  O63  1  0.61861002  0.68971869  0.80385711  1
  O  O64  1  0.13755419  0.18409538  0.31046498  1
  O  O65  1  0.13755419  0.18409538  0.81046498  1
  O  O66  1  0.13755419  0.68409538  0.31046498  1
  O  O67  1  0.13755419  0.68409538  0.81046498  1
  O  O68  1  0.61861002  0.31028131  0.05385711  1
  O  O69  1  0.61861002  0.31028131  0.55385711  1
  O  O70  1  0.61861002  0.81028131  0.05385711  1
  O  O71  1  0.61861002  0.81028131  0.55385711  1
  O  O72  1  0.13755419  0.31590462  0.06046498  1
  O  O73  1  0.13755419  0.31590462  0.56046498  1
  O  O74  1  0.13755419  0.81590462  0.06046498  1
  O  O75  1  0.13755419  0.81590462  0.56046498  1
  O  O76  1  0.16374913  0.45178868  0.28283029  1
  O  O77  1  0.16374913  0.45178868  0.78283029  1
  O  O78  1  0.16374913  0.95178868  0.28283029  1
  O  O79  1  0.16374913  0.95178868  0.78283029  1
  O  O80  1  0.63504024  0.04937236  0.02330088  1
  O  O81  1  0.63504024  0.04937236  0.52330088  1
  O  O82  1  0.63504024  0.54937236  0.02330088  1
  O  O83  1  0.63504024  0.54937236  0.52330088  1
  O  O84  1  0.86244581  0.18409538  0.43953502  1
  O  O85  1  0.86244581  0.18409538  0.93953502  1
  O  O86  1  0.86244581  0.68409538  0.43953502  1
  O  O87  1  0.86244581  0.68409538  0.93953502  1
  O  O88  1  0.38138998  0.31028131  0.19614289  1
  O  O89  1  0.38138998  0.31028131  0.69614289  1
  O  O90  1  0.38138998  0.81028131  0.19614289  1
  O  O91  1  0.38138998  0.81028131  0.69614289  1
  O  O92  1  0.63504024  0.45062764  0.27330088  1
  O  O93  1  0.63504024  0.45062764  0.77330088  1
  O  O94  1  0.63504024  0.95062764  0.27330088  1
  O  O95  1  0.63504024  0.95062764  0.77330088  1
