# generated using pymatgen
data_GaAgO2
_symmetry_space_group_name_H-M   'P 1'
_cell_length_a   11.95165600
_cell_length_b   11.95165600
_cell_length_c   12.34267888
_cell_angle_alpha   90.00000000
_cell_angle_beta   90.00000000
_cell_angle_gamma   120.00000000
_symmetry_Int_Tables_number   1
_chemical_formula_structural   GaAgO2
_chemical_formula_sum   'Ga32 Ag32 O64'
_cell_volume   1526.84949992
_cell_formula_units_Z   32
loop_
 _symmetry_equiv_pos_site_id
 _symmetry_equiv_pos_as_xyz
  1  'x, y, z'
loop_
 _atom_site_type_symbol
 _atom_site_label
 _atom_site_symmetry_multiplicity
 _atom_site_fract_x
 _atom_site_fract_y
 _atom_site_fract_z
 _atom_site_occupancy
  Ga  Ga0  1  0.00000000  0.00000000  0.50000000  1
  Ga  Ga1  1  -0.00000000  0.25000000  0.50000000  1
  Ga  Ga2  1  -0.00000000  0.50000000  0.50000000  1
  Ga  Ga3  1  -0.00000000  0.75000000  0.50000000  1
  Ga  Ga4  1  0.25000000  0.00000000  0.50000000  1
  Ga  Ga5  1  0.25000000  0.25000000  0.50000000  1
  Ga  Ga6  1  0.25000000  0.50000000  0.50000000  1
  Ga  Ga7  1  0.25000000  0.75000000  0.50000000  1
  Ga  Ga8  1  0.50000000  0.00000000  0.50000000  1
  Ga  Ga9  1  0.50000000  0.25000000  0.50000000  1
  Ga  Ga10  1  0.50000000  0.50000000  0.50000000  1
  Ga  Ga11  1  0.50000000  0.75000000  0.50000000  1
  Ga  Ga12  1  0.75000000  0.00000000  0.50000000  1
  Ga  Ga13  1  0.75000000  0.25000000  0.50000000  1
  Ga  Ga14  1  0.75000000  0.50000000  0.50000000  1
  Ga  Ga15  1  0.75000000  0.75000000  0.50000000  1
  Ga  Ga16  1  0.00000000  0.00000000  0.00000000  1
  Ga  Ga17  1  -0.00000000  0.25000000  0.00000000  1
  Ga  Ga18  1  -0.00000000  0.50000000  0.00000000  1
  Ga  Ga19  1  -0.00000000  0.75000000  0.00000000  1
  Ga  Ga20  1  0.25000000  0.00000000  0.00000000  1
  Ga  Ga21  1  0.25000000  0.25000000  0.00000000  1
  Ga  Ga22  1  0.25000000  0.50000000  0.00000000  1
  Ga  Ga23  1  0.25000000  0.75000000  0.00000000  1
  Ga  Ga24  1  0.50000000  0.00000000  0.00000000  1
  Ga  Ga25  1  0.50000000  0.25000000  0.00000000  1
  Ga  Ga26  1  0.50000000  0.50000000  0.00000000  1
  Ga  Ga27  1  0.50000000  0.75000000  0.00000000  1
  Ga  Ga28  1  0.75000000  0.00000000  0.00000000  1
  Ga  Ga29  1  0.75000000  0.25000000  0.00000000  1
  Ga  Ga30  1  0.75000000  0.50000000  0.00000000  1
  Ga  Ga31  1  0.75000000  0.75000000  0.00000000  1
  Ag  Ag32  1  0.08333333  0.16666667  0.25000000  1
  Ag  Ag33  1  0.08333333  0.41666667  0.25000000  1
  Ag  Ag34  1  0.08333333  0.66666667  0.25000000  1
  Ag  Ag35  1  0.08333333  0.91666667  0.25000000  1
  Ag  Ag36  1  0.33333333  0.16666667  0.25000000  1
  Ag  Ag37  1  0.33333333  0.41666667  0.25000000  1
  Ag  Ag38  1  0.33333333  0.66666667  0.25000000  1
  Ag  Ag39  1  0.33333333  0.91666667  0.25000000  1
  Ag  Ag40  1  0.58333333  0.16666667  0.25000000  1
  Ag  Ag41  1  0.58333333  0.41666667  0.25000000  1
  Ag  Ag42  1  0.58333333  0.66666667  0.25000000  1
  Ag  Ag43  1  0.58333333  0.91666667  0.25000000  1
  Ag  Ag44  1  0.83333333  0.16666667  0.25000000  1
  Ag  Ag45  1  0.83333333  0.41666667  0.25000000  1
  Ag  Ag46  1  0.83333333  0.66666667  0.25000000  1
  Ag  Ag47  1  0.83333333  0.91666667  0.25000000  1
  Ag  Ag48  1  0.16666667  0.08333333  0.75000000  1
  Ag  Ag49  1  0.16666667  0.33333333  0.75000000  1
  Ag  Ag50  1  0.16666667  0.58333333  0.75000000  1
  Ag  Ag51  1  0.16666667  0.83333333  0.75000000  1
  Ag  Ag52  1  0.41666667  0.08333333  0.75000000  1
  Ag  Ag53  1  0.41666667  0.33333333  0.75000000  1
  Ag  Ag54  1  0.41666667  0.58333333  0.75000000  1
  Ag  Ag55  1  0.41666667  0.83333333  0.75000000  1
  Ag  Ag56  1  0.66666667  0.08333333  0.75000000  1
  Ag  Ag57  1  0.66666667  0.33333333  0.75000000  1
  Ag  Ag58  1  0.66666667  0.58333333  0.75000000  1
  Ag  Ag59  1  0.66666667  0.83333333  0.75000000  1
  Ag  Ag60  1  0.91666667  0.08333333  0.75000000  1
  Ag  Ag61  1  0.91666667  0.33333333  0.75000000  1
  Ag  Ag62  1  0.91666667  0.58333333  0.75000000  1
  Ag  Ag63  1  0.91666667  0.83333333  0.75000000  1
  O  O64  1  0.16666667  0.08333333  0.91836958  1
  O  O65  1  0.16666667  0.33333333  0.91836958  1
  O  O66  1  0.16666667  0.58333333  0.91836958  1
  O  O67  1  0.16666667  0.83333333  0.91836958  1
  O  O68  1  0.41666667  0.08333333  0.91836958  1
  O  O69  1  0.41666667  0.33333333  0.91836958  1
  O  O70  1  0.41666667  0.58333333  0.91836958  1
  O  O71  1  0.41666667  0.83333333  0.91836958  1
  O  O72  1  0.66666667  0.08333333  0.91836958  1
  O  O73  1  0.66666667  0.33333333  0.91836958  1
  O  O74  1  0.66666667  0.58333333  0.91836958  1
  O  O75  1  0.66666667  0.83333333  0.91836958  1
  O  O76  1  0.91666667  0.08333333  0.91836958  1
  O  O77  1  0.91666667  0.33333333  0.91836958  1
  O  O78  1  0.91666667  0.58333333  0.91836958  1
  O  O79  1  0.91666667  0.83333333  0.91836958  1
  O  O80  1  0.08333333  0.16666667  0.41836958  1
  O  O81  1  0.08333333  0.41666667  0.41836958  1
  O  O82  1  0.08333333  0.66666667  0.41836958  1
  O  O83  1  0.08333333  0.91666667  0.41836958  1
  O  O84  1  0.33333333  0.16666667  0.41836958  1
  O  O85  1  0.33333333  0.41666667  0.41836958  1
  O  O86  1  0.33333333  0.66666667  0.41836958  1
  O  O87  1  0.33333333  0.91666667  0.41836958  1
  O  O88  1  0.58333333  0.16666667  0.41836958  1
  O  O89  1  0.58333333  0.41666667  0.41836958  1
  O  O90  1  0.58333333  0.66666667  0.41836958  1
  O  O91  1  0.58333333  0.91666667  0.41836958  1
  O  O92  1  0.83333333  0.16666667  0.41836958  1
  O  O93  1  0.83333333  0.41666667  0.41836958  1
  O  O94  1  0.83333333  0.66666667  0.41836958  1
  O  O95  1  0.83333333  0.91666667  0.41836958  1
  O  O96  1  0.16666667  0.08333333  0.58163042  1
  O  O97  1  0.16666667  0.33333333  0.58163042  1
  O  O98  1  0.16666667  0.58333333  0.58163042  1
  O  O99  1  0.16666667  0.83333333  0.58163042  1
  O  O100  1  0.41666667  0.08333333  0.58163042  1
  O  O101  1  0.41666667  0.33333333  0.58163042  1
  O  O102  1  0.41666667  0.58333333  0.58163042  1
  O  O103  1  0.41666667  0.83333333  0.58163042  1
  O  O104  1  0.66666667  0.08333333  0.58163042  1
  O  O105  1  0.66666667  0.33333333  0.58163042  1
  O  O106  1  0.66666667  0.58333333  0.58163042  1
  O  O107  1  0.66666667  0.83333333  0.58163042  1
  O  O108  1  0.91666667  0.08333333  0.58163042  1
  O  O109  1  0.91666667  0.33333333  0.58163042  1
  O  O110  1  0.91666667  0.58333333  0.58163042  1
  O  O111  1  0.91666667  0.83333333  0.58163042  1
  O  O112  1  0.08333333  0.16666667  0.08163042  1
  O  O113  1  0.08333333  0.41666667  0.08163042  1
  O  O114  1  0.08333333  0.66666667  0.08163042  1
  O  O115  1  0.08333333  0.91666667  0.08163042  1
  O  O116  1  0.33333333  0.16666667  0.08163042  1
  O  O117  1  0.33333333  0.41666667  0.08163042  1
  O  O118  1  0.33333333  0.66666667  0.08163042  1
  O  O119  1  0.33333333  0.91666667  0.08163042  1
  O  O120  1  0.58333333  0.16666667  0.08163042  1
  O  O121  1  0.58333333  0.41666667  0.08163042  1
  O  O122  1  0.58333333  0.66666667  0.08163042  1
  O  O123  1  0.58333333  0.91666667  0.08163042  1
  O  O124  1  0.83333333  0.16666667  0.08163042  1
  O  O125  1  0.83333333  0.41666667  0.08163042  1
  O  O126  1  0.83333333  0.66666667  0.08163042  1
  O  O127  1  0.83333333  0.91666667  0.08163042  1
