# generated using pymatgen
data_NaScAs2O7
_symmetry_space_group_name_H-M   'P 1'
_cell_length_a   13.86415478
_cell_length_b   17.48628288
_cell_length_c   14.50722585
_cell_angle_alpha   90.00000000
_cell_angle_beta   102.11007878
_cell_angle_gamma   90.00000000
_symmetry_Int_Tables_number   1
_chemical_formula_structural   NaScAs2O7
_chemical_formula_sum   'Na24 Sc24 As48 O168'
_cell_volume   3438.75688451
_cell_formula_units_Z   24
loop_
 _symmetry_equiv_pos_site_id
 _symmetry_equiv_pos_as_xyz
  1  'x, y, z'
loop_
 _atom_site_type_symbol
 _atom_site_label
 _atom_site_symmetry_multiplicity
 _atom_site_fract_x
 _atom_site_fract_y
 _atom_site_fract_z
 _atom_site_occupancy
  Na  Na0  1  0.25000000  -0.12642264  0.16666667  1
  Na  Na1  1  0.25000000  -0.12642264  0.50000000  1
  Na  Na2  1  0.25000000  -0.12642264  0.83333333  1
  Na  Na3  1  0.25000000  0.37357736  0.16666667  1
  Na  Na4  1  0.25000000  0.37357736  0.50000000  1
  Na  Na5  1  0.25000000  0.37357736  0.83333333  1
  Na  Na6  1  0.75000000  -0.12642264  0.16666667  1
  Na  Na7  1  0.75000000  -0.12642264  0.50000000  1
  Na  Na8  1  0.75000000  -0.12642264  0.83333333  1
  Na  Na9  1  0.75000000  0.37357736  0.16666667  1
  Na  Na10  1  0.75000000  0.37357736  0.50000000  1
  Na  Na11  1  0.75000000  0.37357736  0.83333333  1
  Na  Na12  1  0.50000000  0.12357736  0.16666667  1
  Na  Na13  1  0.50000000  0.12357736  0.50000000  1
  Na  Na14  1  0.50000000  0.12357736  0.83333333  1
  Na  Na15  1  0.50000000  0.62357736  0.16666667  1
  Na  Na16  1  0.50000000  0.62357736  0.50000000  1
  Na  Na17  1  0.50000000  0.62357736  0.83333333  1
  Na  Na18  1  1.00000000  0.12357736  0.16666667  1
  Na  Na19  1  1.00000000  0.12357736  0.50000000  1
  Na  Na20  1  1.00000000  0.12357736  0.83333333  1
  Na  Na21  1  1.00000000  0.62357736  0.16666667  1
  Na  Na22  1  1.00000000  0.62357736  0.50000000  1
  Na  Na23  1  1.00000000  0.62357736  0.83333333  1
  Sc  Sc24  1  0.25000000  0.06584173  0.16666667  1
  Sc  Sc25  1  0.25000000  0.06584173  0.50000000  1
  Sc  Sc26  1  0.25000000  0.06584173  0.83333333  1
  Sc  Sc27  1  0.25000000  0.56584173  0.16666667  1
  Sc  Sc28  1  0.25000000  0.56584173  0.50000000  1
  Sc  Sc29  1  0.25000000  0.56584173  0.83333333  1
  Sc  Sc30  1  0.75000000  0.06584173  0.16666667  1
  Sc  Sc31  1  0.75000000  0.06584173  0.50000000  1
  Sc  Sc32  1  0.75000000  0.06584173  0.83333333  1
  Sc  Sc33  1  0.75000000  0.56584173  0.16666667  1
  Sc  Sc34  1  0.75000000  0.56584173  0.50000000  1
  Sc  Sc35  1  0.75000000  0.56584173  0.83333333  1
  Sc  Sc36  1  0.50000000  0.31584173  0.16666667  1
  Sc  Sc37  1  0.50000000  0.31584173  0.50000000  1
  Sc  Sc38  1  0.50000000  0.31584173  0.83333333  1
  Sc  Sc39  1  0.50000000  0.81584173  0.16666667  1
  Sc  Sc40  1  0.50000000  0.81584173  0.50000000  1
  Sc  Sc41  1  0.50000000  0.81584173  0.83333333  1
  Sc  Sc42  1  1.00000000  0.31584173  0.16666667  1
  Sc  Sc43  1  1.00000000  0.31584173  0.50000000  1
  Sc  Sc44  1  1.00000000  0.31584173  0.83333333  1
  Sc  Sc45  1  1.00000000  0.81584173  0.16666667  1
  Sc  Sc46  1  1.00000000  0.81584173  0.50000000  1
  Sc  Sc47  1  1.00000000  0.81584173  0.83333333  1
  As  As48  1  0.10847158  -0.01881919  0.30430161  1
  As  As49  1  0.10847158  -0.01881919  0.63763494  1
  As  As50  1  0.10847158  -0.01881919  0.97096827  1
  As  As51  1  0.10847158  0.48118081  0.30430161  1
  As  As52  1  0.10847158  0.48118081  0.63763494  1
  As  As53  1  0.10847158  0.48118081  0.97096827  1
  As  As54  1  0.60847158  -0.01881919  0.30430161  1
  As  As55  1  0.60847158  -0.01881919  0.63763494  1
  As  As56  1  0.60847158  -0.01881919  0.97096827  1
  As  As57  1  0.60847158  0.48118081  0.30430161  1
  As  As58  1  0.60847158  0.48118081  0.63763494  1
  As  As59  1  0.60847158  0.48118081  0.97096827  1
  As  As60  1  0.35847158  0.23118081  0.30430161  1
  As  As61  1  0.35847158  0.23118081  0.63763494  1
  As  As62  1  0.35847158  0.23118081  0.97096827  1
  As  As63  1  0.35847158  0.73118081  0.30430161  1
  As  As64  1  0.35847158  0.73118081  0.63763494  1
  As  As65  1  0.35847158  0.73118081  0.97096827  1
  As  As66  1  0.85847158  0.23118081  0.30430161  1
  As  As67  1  0.85847158  0.23118081  0.63763494  1
  As  As68  1  0.85847158  0.23118081  0.97096827  1
  As  As69  1  0.85847158  0.73118081  0.30430161  1
  As  As70  1  0.85847158  0.73118081  0.63763494  1
  As  As71  1  0.85847158  0.73118081  0.97096827  1
  As  As72  1  0.39152842  -0.01881919  0.02903173  1
  As  As73  1  0.39152842  -0.01881919  0.36236506  1
  As  As74  1  0.39152842  -0.01881919  0.69569839  1
  As  As75  1  0.39152842  0.48118081  0.02903173  1
  As  As76  1  0.39152842  0.48118081  0.36236506  1
  As  As77  1  0.39152842  0.48118081  0.69569839  1
  As  As78  1  0.89152842  -0.01881919  0.02903173  1
  As  As79  1  0.89152842  -0.01881919  0.36236506  1
  As  As80  1  0.89152842  -0.01881919  0.69569839  1
  As  As81  1  0.89152842  0.48118081  0.02903173  1
  As  As82  1  0.89152842  0.48118081  0.36236506  1
  As  As83  1  0.89152842  0.48118081  0.69569839  1
  As  As84  1  0.64152842  0.23118081  0.02903173  1
  As  As85  1  0.64152842  0.23118081  0.36236506  1
  As  As86  1  0.64152842  0.23118081  0.69569839  1
  As  As87  1  0.64152842  0.73118081  0.02903173  1
  As  As88  1  0.64152842  0.73118081  0.36236506  1
  As  As89  1  0.64152842  0.73118081  0.69569839  1
  As  As90  1  1.14152842  0.23118081  0.02903173  1
  As  As91  1  1.14152842  0.23118081  0.36236506  1
  As  As92  1  1.14152842  0.23118081  0.69569839  1
  As  As93  1  1.14152842  0.73118081  0.02903173  1
  As  As94  1  1.14152842  0.73118081  0.36236506  1
  As  As95  1  1.14152842  0.73118081  0.69569839  1
  O  O96  1  0.33594684  0.14565127  0.25031367  1
  O  O97  1  0.33594684  0.14565127  0.58364700  1
  O  O98  1  0.33594684  0.14565127  0.91698034  1
  O  O99  1  0.33594684  0.64565127  0.25031367  1
  O  O100  1  0.33594684  0.64565127  0.58364700  1
  O  O101  1  0.33594684  0.64565127  0.91698034  1
  O  O102  1  0.83594684  0.14565127  0.25031367  1
  O  O103  1  0.83594684  0.14565127  0.58364700  1
  O  O104  1  0.83594684  0.14565127  0.91698034  1
  O  O105  1  0.83594684  0.64565127  0.25031367  1
  O  O106  1  0.83594684  0.64565127  0.58364700  1
  O  O107  1  0.83594684  0.64565127  0.91698034  1
  O  O108  1  0.58594684  0.39565127  0.25031367  1
  O  O109  1  0.58594684  0.39565127  0.58364700  1
  O  O110  1  0.58594684  0.39565127  0.91698034  1
  O  O111  1  0.58594684  0.89565127  0.25031367  1
  O  O112  1  0.58594684  0.89565127  0.58364700  1
  O  O113  1  0.58594684  0.89565127  0.91698034  1
  O  O114  1  1.08594684  0.39565127  0.25031367  1
  O  O115  1  1.08594684  0.39565127  0.58364700  1
  O  O116  1  1.08594684  0.39565127  0.91698034  1
  O  O117  1  1.08594684  0.89565127  0.25031367  1
  O  O118  1  1.08594684  0.89565127  0.58364700  1
  O  O119  1  1.08594684  0.89565127  0.91698034  1
  O  O120  1  0.19154678  -0.02445542  0.07412857  1
  O  O121  1  0.19154678  -0.02445542  0.40746190  1
  O  O122  1  0.19154678  -0.02445542  0.74079524  1
  O  O123  1  0.19154678  0.47554458  0.07412857  1
  O  O124  1  0.19154678  0.47554458  0.40746190  1
  O  O125  1  0.19154678  0.47554458  0.74079524  1
  O  O126  1  0.69154678  -0.02445542  0.07412857  1
  O  O127  1  0.69154678  -0.02445542  0.40746190  1
  O  O128  1  0.69154678  -0.02445542  0.74079524  1
  O  O129  1  0.69154678  0.47554458  0.07412857  1
  O  O130  1  0.69154678  0.47554458  0.40746190  1
  O  O131  1  0.69154678  0.47554458  0.74079524  1
  O  O132  1  0.44154678  0.22554458  0.07412857  1
  O  O133  1  0.44154678  0.22554458  0.40746190  1
  O  O134  1  0.44154678  0.22554458  0.74079524  1
  O  O135  1  0.44154678  0.72554458  0.07412857  1
  O  O136  1  0.44154678  0.72554458  0.40746190  1
  O  O137  1  0.44154678  0.72554458  0.74079524  1
  O  O138  1  0.94154678  0.22554458  0.07412857  1
  O  O139  1  0.94154678  0.22554458  0.40746190  1
  O  O140  1  0.94154678  0.22554458  0.74079524  1
  O  O141  1  0.94154678  0.72554458  0.07412857  1
  O  O142  1  0.94154678  0.72554458  0.40746190  1
  O  O143  1  0.94154678  0.72554458  0.74079524  1
  O  O144  1  0.13040524  0.05117167  0.23062564  1
  O  O145  1  0.13040524  0.05117167  0.56395897  1
  O  O146  1  0.13040524  0.05117167  0.89729230  1
  O  O147  1  0.13040524  0.55117167  0.23062564  1
  O  O148  1  0.13040524  0.55117167  0.56395897  1
  O  O149  1  0.13040524  0.55117167  0.89729230  1
  O  O150  1  0.63040524  0.05117167  0.23062564  1
  O  O151  1  0.63040524  0.05117167  0.56395897  1
  O  O152  1  0.63040524  0.05117167  0.89729230  1
  O  O153  1  0.63040524  0.55117167  0.23062564  1
  O  O154  1  0.63040524  0.55117167  0.56395897  1
  O  O155  1  0.63040524  0.55117167  0.89729230  1
  O  O156  1  0.38040524  0.30117167  0.23062564  1
  O  O157  1  0.38040524  0.30117167  0.56395897  1
  O  O158  1  0.38040524  0.30117167  0.89729230  1
  O  O159  1  0.38040524  0.80117167  0.23062564  1
  O  O160  1  0.38040524  0.80117167  0.56395897  1
  O  O161  1  0.38040524  0.80117167  0.89729230  1
  O  O162  1  0.88040524  0.30117167  0.23062564  1
  O  O163  1  0.88040524  0.30117167  0.56395897  1
  O  O164  1  0.88040524  0.30117167  0.89729230  1
  O  O165  1  0.88040524  0.80117167  0.23062564  1
  O  O166  1  0.88040524  0.80117167  0.56395897  1
  O  O167  1  0.88040524  0.80117167  0.89729230  1
  O  O168  1  0.16405316  0.14565127  0.08301966  1
  O  O169  1  0.16405316  0.14565127  0.41635300  1
  O  O170  1  0.16405316  0.14565127  0.74968633  1
  O  O171  1  0.16405316  0.64565127  0.08301966  1
  O  O172  1  0.16405316  0.64565127  0.41635300  1
  O  O173  1  0.16405316  0.64565127  0.74968633  1
  O  O174  1  0.66405316  0.14565127  0.08301966  1
  O  O175  1  0.66405316  0.14565127  0.41635300  1
  O  O176  1  0.66405316  0.14565127  0.74968633  1
  O  O177  1  0.66405316  0.64565127  0.08301966  1
  O  O178  1  0.66405316  0.64565127  0.41635300  1
  O  O179  1  0.66405316  0.64565127  0.74968633  1
  O  O180  1  0.41405316  0.39565127  0.08301966  1
  O  O181  1  0.41405316  0.39565127  0.41635300  1
  O  O182  1  0.41405316  0.39565127  0.74968633  1
  O  O183  1  0.41405316  0.89565127  0.08301966  1
  O  O184  1  0.41405316  0.89565127  0.41635300  1
  O  O185  1  0.41405316  0.89565127  0.74968633  1
  O  O186  1  0.91405316  0.39565127  0.08301966  1
  O  O187  1  0.91405316  0.39565127  0.41635300  1
  O  O188  1  0.91405316  0.39565127  0.74968633  1
  O  O189  1  0.91405316  0.89565127  0.08301966  1
  O  O190  1  0.91405316  0.89565127  0.41635300  1
  O  O191  1  0.91405316  0.89565127  0.74968633  1
  O  O192  1  0.25000000  -0.22992775  0.00000000  1
  O  O193  1  0.25000000  -0.22992775  0.33333333  1
  O  O194  1  0.25000000  -0.22992775  0.66666667  1
  O  O195  1  0.25000000  0.27007225  0.00000000  1
  O  O196  1  0.25000000  0.27007225  0.33333333  1
  O  O197  1  0.25000000  0.27007225  0.66666667  1
  O  O198  1  0.75000000  -0.22992775  0.00000000  1
  O  O199  1  0.75000000  -0.22992775  0.33333333  1
  O  O200  1  0.75000000  -0.22992775  0.66666667  1
  O  O201  1  0.75000000  0.27007225  0.00000000  1
  O  O202  1  0.75000000  0.27007225  0.33333333  1
  O  O203  1  0.75000000  0.27007225  0.66666667  1
  O  O204  1  0.50000000  0.02007225  0.00000000  1
  O  O205  1  0.50000000  0.02007225  0.33333333  1
  O  O206  1  0.50000000  0.02007225  0.66666667  1
  O  O207  1  0.50000000  0.52007225  0.00000000  1
  O  O208  1  0.50000000  0.52007225  0.33333333  1
  O  O209  1  0.50000000  0.52007225  0.66666667  1
  O  O210  1  1.00000000  0.02007225  0.00000000  1
  O  O211  1  1.00000000  0.02007225  0.33333333  1
  O  O212  1  1.00000000  0.02007225  0.66666667  1
  O  O213  1  1.00000000  0.52007225  0.00000000  1
  O  O214  1  1.00000000  0.52007225  0.33333333  1
  O  O215  1  1.00000000  0.52007225  0.66666667  1
  O  O216  1  0.36959476  0.05117167  0.10270770  1
  O  O217  1  0.36959476  0.05117167  0.43604103  1
  O  O218  1  0.36959476  0.05117167  0.76937436  1
  O  O219  1  0.36959476  0.55117167  0.10270770  1
  O  O220  1  0.36959476  0.55117167  0.43604103  1
  O  O221  1  0.36959476  0.55117167  0.76937436  1
  O  O222  1  0.86959476  0.05117167  0.10270770  1
  O  O223  1  0.86959476  0.05117167  0.43604103  1
  O  O224  1  0.86959476  0.05117167  0.76937436  1
  O  O225  1  0.86959476  0.55117167  0.10270770  1
  O  O226  1  0.86959476  0.55117167  0.43604103  1
  O  O227  1  0.86959476  0.55117167  0.76937436  1
  O  O228  1  0.61959476  0.30117167  0.10270770  1
  O  O229  1  0.61959476  0.30117167  0.43604103  1
  O  O230  1  0.61959476  0.30117167  0.76937436  1
  O  O231  1  0.61959476  0.80117167  0.10270770  1
  O  O232  1  0.61959476  0.80117167  0.43604103  1
  O  O233  1  0.61959476  0.80117167  0.76937436  1
  O  O234  1  1.11959476  0.30117167  0.10270770  1
  O  O235  1  1.11959476  0.30117167  0.43604103  1
  O  O236  1  1.11959476  0.30117167  0.76937436  1
  O  O237  1  1.11959476  0.80117167  0.10270770  1
  O  O238  1  1.11959476  0.80117167  0.43604103  1
  O  O239  1  1.11959476  0.80117167  0.76937436  1
  O  O240  1  0.30845322  -0.02445542  0.25920476  1
  O  O241  1  0.30845322  -0.02445542  0.59253810  1
  O  O242  1  0.30845322  -0.02445542  0.92587143  1
  O  O243  1  0.30845322  0.47554458  0.25920476  1
  O  O244  1  0.30845322  0.47554458  0.59253810  1
  O  O245  1  0.30845322  0.47554458  0.92587143  1
  O  O246  1  0.80845322  -0.02445542  0.25920476  1
  O  O247  1  0.80845322  -0.02445542  0.59253810  1
  O  O248  1  0.80845322  -0.02445542  0.92587143  1
  O  O249  1  0.80845322  0.47554458  0.25920476  1
  O  O250  1  0.80845322  0.47554458  0.59253810  1
  O  O251  1  0.80845322  0.47554458  0.92587143  1
  O  O252  1  0.55845322  0.22554458  0.25920476  1
  O  O253  1  0.55845322  0.22554458  0.59253810  1
  O  O254  1  0.55845322  0.22554458  0.92587143  1
  O  O255  1  0.55845322  0.72554458  0.25920476  1
  O  O256  1  0.55845322  0.72554458  0.59253810  1
  O  O257  1  0.55845322  0.72554458  0.92587143  1
  O  O258  1  1.05845322  0.22554458  0.25920476  1
  O  O259  1  1.05845322  0.22554458  0.59253810  1
  O  O260  1  1.05845322  0.22554458  0.92587143  1
  O  O261  1  1.05845322  0.72554458  0.25920476  1
  O  O262  1  1.05845322  0.72554458  0.59253810  1
  O  O263  1  1.05845322  0.72554458  0.92587143  1
