# generated using pymatgen
data_Sr4PdO6
_symmetry_space_group_name_H-M   'P 1'
_cell_length_a   9.66816439
_cell_length_b   9.66816439
_cell_length_c   11.84677412
_cell_angle_alpha   90.00000000
_cell_angle_beta   90.00000000
_cell_angle_gamma   120.00000000
_symmetry_Int_Tables_number   1
_chemical_formula_structural   Sr4PdO6
_chemical_formula_sum   'Sr24 Pd6 O36'
_cell_volume   959.00040822
_cell_formula_units_Z   6
loop_
 _symmetry_equiv_pos_site_id
 _symmetry_equiv_pos_as_xyz
  1  'x, y, z'
loop_
 _atom_site_type_symbol
 _atom_site_label
 _atom_site_symmetry_multiplicity
 _atom_site_fract_x
 _atom_site_fract_y
 _atom_site_fract_z
 _atom_site_occupancy
  Sr  Sr0  1  0.00000000  0.00000000  0.75000000  1
  Sr  Sr1  1  0.66666667  0.33333333  1.08333333  1
  Sr  Sr2  1  0.33333333  0.66666667  1.41666667  1
  Sr  Sr3  1  -0.00000000  -0.00000000  0.25000000  1
  Sr  Sr4  1  0.66666667  0.33333333  0.58333333  1
  Sr  Sr5  1  0.33333333  0.66666667  0.91666667  1
  Sr  Sr6  1  0.03592969  0.33333333  0.58333333  1
  Sr  Sr7  1  0.70259636  0.66666667  0.91666667  1
  Sr  Sr8  1  0.36926303  1.00000000  1.25000000  1
  Sr  Sr9  1  -0.33333333  -0.29740364  0.58333333  1
  Sr  Sr10  1  0.33333333  0.03592969  0.91666667  1
  Sr  Sr11  1  -0.00000000  0.36926303  1.25000000  1
  Sr  Sr12  1  0.29740364  -0.03592969  0.58333333  1
  Sr  Sr13  1  0.96407031  0.29740364  0.91666667  1
  Sr  Sr14  1  0.63073697  0.63073697  1.25000000  1
  Sr  Sr15  1  -0.03592969  -0.33333333  0.41666667  1
  Sr  Sr16  1  0.63073697  -0.00000000  0.75000000  1
  Sr  Sr17  1  0.29740364  0.33333333  1.08333333  1
  Sr  Sr18  1  0.33333333  0.29740364  0.41666667  1
  Sr  Sr19  1  1.00000000  0.63073697  0.75000000  1
  Sr  Sr20  1  0.66666667  0.96407031  1.08333333  1
  Sr  Sr21  1  -0.29740364  0.03592969  0.41666667  1
  Sr  Sr22  1  0.36926303  0.36926303  0.75000000  1
  Sr  Sr23  1  0.03592969  0.70259636  1.08333333  1
  Pd  Pd24  1  0.00000000  0.00000000  0.50000000  1
  Pd  Pd25  1  0.66666667  0.33333333  0.83333333  1
  Pd  Pd26  1  0.33333333  0.66666667  1.16666667  1
  Pd  Pd27  1  -0.00000000  -0.00000000  -0.00000000  1
  Pd  Pd28  1  0.66666667  0.33333333  0.33333333  1
  Pd  Pd29  1  0.33333333  0.66666667  0.66666667  1
  O  O30  1  -0.14841797  0.35989207  0.43286577  1
  O  O31  1  0.51824870  0.69322540  0.76619910  1
  O  O32  1  0.18491537  1.02655874  1.09953244  1
  O  O33  1  -0.35989207  -0.50831004  0.43286577  1
  O  O34  1  0.30677460  -0.17497670  0.76619910  1
  O  O35  1  -0.02655874  0.15835663  1.09953244  1
  O  O36  1  0.50831004  0.14841797  0.43286577  1
  O  O37  1  1.17497670  0.48175130  0.76619910  1
  O  O38  1  0.84164337  0.81508463  1.09953244  1
  O  O39  1  0.15835663  -0.02655874  0.40046756  1
  O  O40  1  0.82502330  0.30677460  0.73380090  1
  O  O41  1  0.49168996  0.64010793  1.06713423  1
  O  O42  1  0.02655874  0.18491537  0.40046756  1
  O  O43  1  0.69322540  0.51824870  0.73380090  1
  O  O44  1  0.35989207  0.85158203  1.06713423  1
  O  O45  1  -0.18491537  -0.15835663  0.40046756  1
  O  O46  1  0.48175130  0.17497670  0.73380090  1
  O  O47  1  0.14841797  0.50831004  1.06713423  1
  O  O48  1  0.14841797  -0.35989207  0.56713423  1
  O  O49  1  0.81508463  -0.02655874  0.90046756  1
  O  O50  1  0.48175130  0.30677460  1.23380090  1
  O  O51  1  0.35989207  0.50831004  0.56713423  1
  O  O52  1  1.02655874  0.84164337  0.90046756  1
  O  O53  1  0.69322540  1.17497670  1.23380090  1
  O  O54  1  -0.50831004  -0.14841797  0.56713423  1
  O  O55  1  0.15835663  0.18491537  0.90046756  1
  O  O56  1  -0.17497670  0.51824870  1.23380090  1
  O  O57  1  -0.15835663  0.02655874  0.59953244  1
  O  O58  1  0.50831004  0.35989207  0.93286577  1
  O  O59  1  0.17497670  0.69322540  1.26619910  1
  O  O60  1  0.18491537  0.15835663  0.59953244  1
  O  O61  1  0.85158203  0.49168996  0.93286577  1
  O  O62  1  0.51824870  0.82502330  1.26619910  1
  O  O63  1  -0.02655874  -0.18491537  0.59953244  1
  O  O64  1  0.64010793  0.14841797  0.93286577  1
  O  O65  1  0.30677460  0.48175130  1.26619910  1
