# generated using pymatgen
data_Rb2W2O7
_symmetry_space_group_name_H-M   'P 1'
_cell_length_a   11.73601689
_cell_length_b   14.20455780
_cell_length_c   12.16629309
_cell_angle_alpha   90.00000000
_cell_angle_beta   90.40740383
_cell_angle_gamma   90.00000000
_symmetry_Int_Tables_number   1
_chemical_formula_structural   Rb2W2O7
_chemical_formula_sum   'Rb24 W24 O84'
_cell_volume   2028.12977029
_cell_formula_units_Z   12
loop_
 _symmetry_equiv_pos_site_id
 _symmetry_equiv_pos_as_xyz
  1  'x, y, z'
loop_
 _atom_site_type_symbol
 _atom_site_label
 _atom_site_symmetry_multiplicity
 _atom_site_fract_x
 _atom_site_fract_y
 _atom_site_fract_z
 _atom_site_occupancy
  Rb  Rb0  1  0.00351163  0.82943001  0.41604449  1
  Rb  Rb1  1  0.00351163  0.82943001  0.91604449  1
  Rb  Rb2  1  0.33684496  0.82943001  0.41604449  1
  Rb  Rb3  1  0.33684496  0.82943001  0.91604449  1
  Rb  Rb4  1  0.67017830  0.82943001  0.41604449  1
  Rb  Rb5  1  0.67017830  0.82943001  0.91604449  1
  Rb  Rb6  1  0.32982170  0.32943001  0.33395551  1
  Rb  Rb7  1  0.32982170  0.32943001  0.83395551  1
  Rb  Rb8  1  0.66315504  0.32943001  0.33395551  1
  Rb  Rb9  1  0.66315504  0.32943001  0.83395551  1
  Rb  Rb10  1  0.99648837  0.32943001  0.33395551  1
  Rb  Rb11  1  0.99648837  0.32943001  0.83395551  1
  Rb  Rb12  1  0.32982170  0.17056999  0.08395551  1
  Rb  Rb13  1  0.32982170  0.17056999  0.58395551  1
  Rb  Rb14  1  0.66315504  0.17056999  0.08395551  1
  Rb  Rb15  1  0.66315504  0.17056999  0.58395551  1
  Rb  Rb16  1  0.99648837  0.17056999  0.08395551  1
  Rb  Rb17  1  0.99648837  0.17056999  0.58395551  1
  Rb  Rb18  1  0.00351163  0.67056999  0.16604449  1
  Rb  Rb19  1  0.00351163  0.67056999  0.66604449  1
  Rb  Rb20  1  0.33684496  0.67056999  0.16604449  1
  Rb  Rb21  1  0.33684496  0.67056999  0.66604449  1
  Rb  Rb22  1  0.67017830  0.67056999  0.16604449  1
  Rb  Rb23  1  0.67017830  0.67056999  0.66604449  1
  W  W24  1  0.15062795  0.43810908  0.10781445  1
  W  W25  1  0.15062795  0.43810908  0.60781445  1
  W  W26  1  0.48396128  0.43810908  0.10781445  1
  W  W27  1  0.48396128  0.43810908  0.60781445  1
  W  W28  1  0.81729461  0.43810908  0.10781445  1
  W  W29  1  0.81729461  0.43810908  0.60781445  1
  W  W30  1  0.18270539  0.93810908  0.14218555  1
  W  W31  1  0.18270539  0.93810908  0.64218555  1
  W  W32  1  0.51603872  0.93810908  0.14218555  1
  W  W33  1  0.51603872  0.93810908  0.64218555  1
  W  W34  1  0.84937205  0.93810908  0.14218555  1
  W  W35  1  0.84937205  0.93810908  0.64218555  1
  W  W36  1  0.18270539  0.56189092  0.39218555  1
  W  W37  1  0.18270539  0.56189092  0.89218555  1
  W  W38  1  0.51603872  0.56189092  0.39218555  1
  W  W39  1  0.51603872  0.56189092  0.89218555  1
  W  W40  1  0.84937205  0.56189092  0.39218555  1
  W  W41  1  0.84937205  0.56189092  0.89218555  1
  W  W42  1  0.15062795  0.06189092  0.35781445  1
  W  W43  1  0.15062795  0.06189092  0.85781445  1
  W  W44  1  0.48396128  0.06189092  0.35781445  1
  W  W45  1  0.48396128  0.06189092  0.85781445  1
  W  W46  1  0.81729461  0.06189092  0.35781445  1
  W  W47  1  0.81729461  0.06189092  0.85781445  1
  O  O48  1  0.16567986  0.18083446  0.40180382  1
  O  O49  1  0.16567986  0.18083446  0.90180382  1
  O  O50  1  0.49901319  0.18083446  0.40180382  1
  O  O51  1  0.49901319  0.18083446  0.90180382  1
  O  O52  1  0.83234653  0.18083446  0.40180382  1
  O  O53  1  0.83234653  0.18083446  0.90180382  1
  O  O54  1  0.16765347  0.68083446  0.34819618  1
  O  O55  1  0.16765347  0.68083446  0.84819618  1
  O  O56  1  0.50098681  0.68083446  0.34819618  1
  O  O57  1  0.50098681  0.68083446  0.84819618  1
  O  O58  1  0.83432014  0.68083446  0.34819618  1
  O  O59  1  0.83432014  0.68083446  0.84819618  1
  O  O60  1  0.16765347  0.81916554  0.09819618  1
  O  O61  1  0.16765347  0.81916554  0.59819618  1
  O  O62  1  0.50098681  0.81916554  0.09819618  1
  O  O63  1  0.50098681  0.81916554  0.59819618  1
  O  O64  1  0.83432014  0.81916554  0.09819618  1
  O  O65  1  0.83432014  0.81916554  0.59819618  1
  O  O66  1  0.16567986  0.31916554  0.15180382  1
  O  O67  1  0.16567986  0.31916554  0.65180382  1
  O  O68  1  0.49901319  0.31916554  0.15180382  1
  O  O69  1  0.49901319  0.31916554  0.65180382  1
  O  O70  1  0.83234653  0.31916554  0.15180382  1
  O  O71  1  0.83234653  0.31916554  0.65180382  1
  O  O72  1  0.16850661  0.92167885  0.29447426  1
  O  O73  1  0.16850661  0.92167885  0.79447426  1
  O  O74  1  0.50183994  0.92167885  0.29447426  1
  O  O75  1  0.50183994  0.92167885  0.79447426  1
  O  O76  1  0.83517328  0.92167885  0.29447426  1
  O  O77  1  0.83517328  0.92167885  0.79447426  1
  O  O78  1  0.16482672  0.42167885  0.45552574  1
  O  O79  1  0.16482672  0.42167885  0.95552574  1
  O  O80  1  0.49816006  0.42167885  0.45552574  1
  O  O81  1  0.49816006  0.42167885  0.95552574  1
  O  O82  1  0.83149339  0.42167885  0.45552574  1
  O  O83  1  0.83149339  0.42167885  0.95552574  1
  O  O84  1  0.16482672  0.07832115  0.20552574  1
  O  O85  1  0.16482672  0.07832115  0.70552574  1
  O  O86  1  0.49816006  0.07832115  0.20552574  1
  O  O87  1  0.49816006  0.07832115  0.70552574  1
  O  O88  1  0.83149339  0.07832115  0.20552574  1
  O  O89  1  0.83149339  0.07832115  0.70552574  1
  O  O90  1  0.16850661  0.57832115  0.04447426  1
  O  O91  1  0.16850661  0.57832115  0.54447426  1
  O  O92  1  0.50183994  0.57832115  0.04447426  1
  O  O93  1  0.50183994  0.57832115  0.54447426  1
  O  O94  1  0.83517328  0.57832115  0.04447426  1
  O  O95  1  0.83517328  0.57832115  0.54447426  1
  O  O96  1  0.16666667  0.50000000  0.25000000  1
  O  O97  1  0.16666667  0.50000000  0.75000000  1
  O  O98  1  0.50000000  0.50000000  0.25000000  1
  O  O99  1  0.50000000  0.50000000  0.75000000  1
  O  O100  1  0.83333333  0.50000000  0.25000000  1
  O  O101  1  0.83333333  0.50000000  0.75000000  1
  O  O102  1  0.16666667  0.00000000  0.00000000  1
  O  O103  1  0.16666667  0.00000000  0.50000000  1
  O  O104  1  0.50000000  0.00000000  0.00000000  1
  O  O105  1  0.50000000  0.00000000  0.50000000  1
  O  O106  1  0.83333333  0.00000000  0.00000000  1
  O  O107  1  0.83333333  0.00000000  0.50000000  1
  O  O108  1  0.32936976  0.44756650  0.11153127  1
  O  O109  1  0.32936976  0.44756650  0.61153127  1
  O  O110  1  0.66270309  0.44756650  0.11153127  1
  O  O111  1  0.66270309  0.44756650  0.61153127  1
  O  O112  1  0.99603642  0.44756650  0.11153127  1
  O  O113  1  0.99603642  0.44756650  0.61153127  1
  O  O114  1  0.32936976  0.05243350  0.36153127  1
  O  O115  1  0.32936976  0.05243350  0.86153127  1
  O  O116  1  0.66270309  0.05243350  0.36153127  1
  O  O117  1  0.66270309  0.05243350  0.86153127  1
  O  O118  1  0.99603642  0.05243350  0.36153127  1
  O  O119  1  0.99603642  0.05243350  0.86153127  1
  O  O120  1  0.00396358  0.55243350  0.38846873  1
  O  O121  1  0.00396358  0.55243350  0.88846873  1
  O  O122  1  0.33729691  0.55243350  0.38846873  1
  O  O123  1  0.33729691  0.55243350  0.88846873  1
  O  O124  1  0.67063024  0.55243350  0.38846873  1
  O  O125  1  0.67063024  0.55243350  0.88846873  1
  O  O126  1  0.00396358  0.94756650  0.13846873  1
  O  O127  1  0.00396358  0.94756650  0.63846873  1
  O  O128  1  0.33729691  0.94756650  0.13846873  1
  O  O129  1  0.33729691  0.94756650  0.63846873  1
  O  O130  1  0.67063024  0.94756650  0.13846873  1
  O  O131  1  0.67063024  0.94756650  0.63846873  1
