# generated using pymatgen
data_CsTlO
_symmetry_space_group_name_H-M   'P 1'
_cell_length_a   14.02507183
_cell_length_b   14.99604471
_cell_length_c   13.05844856
_cell_angle_alpha   90.00000000
_cell_angle_beta   106.25841547
_cell_angle_gamma   90.00000000
_symmetry_Int_Tables_number   1
_chemical_formula_structural   CsTlO
_chemical_formula_sum   'Cs32 Tl32 O32'
_cell_volume   2636.62637239
_cell_formula_units_Z   32
loop_
 _symmetry_equiv_pos_site_id
 _symmetry_equiv_pos_as_xyz
  1  'x, y, z'
loop_
 _atom_site_type_symbol
 _atom_site_label
 _atom_site_symmetry_multiplicity
 _atom_site_fract_x
 _atom_site_fract_y
 _atom_site_fract_z
 _atom_site_occupancy
  Cs  Cs0  1  0.12069656  0.00000000  0.17067903  1
  Cs  Cs1  1  0.12069656  0.00000000  0.67067903  1
  Cs  Cs2  1  0.12069656  0.25000000  0.17067903  1
  Cs  Cs3  1  0.12069656  0.25000000  0.67067903  1
  Cs  Cs4  1  0.12069656  0.50000000  0.17067903  1
  Cs  Cs5  1  0.12069656  0.50000000  0.67067903  1
  Cs  Cs6  1  0.12069656  0.75000000  0.17067903  1
  Cs  Cs7  1  0.12069656  0.75000000  0.67067903  1
  Cs  Cs8  1  0.62069656  0.12500000  0.17067903  1
  Cs  Cs9  1  0.62069656  0.12500000  0.67067903  1
  Cs  Cs10  1  0.62069656  0.37500000  0.17067903  1
  Cs  Cs11  1  0.62069656  0.37500000  0.67067903  1
  Cs  Cs12  1  0.62069656  0.62500000  0.17067903  1
  Cs  Cs13  1  0.62069656  0.62500000  0.67067903  1
  Cs  Cs14  1  0.62069656  0.87500000  0.17067903  1
  Cs  Cs15  1  0.62069656  0.87500000  0.67067903  1
  Cs  Cs16  1  0.87930344  0.00000000  0.32932097  1
  Cs  Cs17  1  0.87930344  0.00000000  0.82932097  1
  Cs  Cs18  1  0.87930344  0.25000000  0.32932097  1
  Cs  Cs19  1  0.87930344  0.25000000  0.82932097  1
  Cs  Cs20  1  0.87930344  0.50000000  0.32932097  1
  Cs  Cs21  1  0.87930344  0.50000000  0.82932097  1
  Cs  Cs22  1  0.87930344  0.75000000  0.32932097  1
  Cs  Cs23  1  0.87930344  0.75000000  0.82932097  1
  Cs  Cs24  1  1.37930344  0.12500000  0.32932097  1
  Cs  Cs25  1  1.37930344  0.12500000  0.82932097  1
  Cs  Cs26  1  1.37930344  0.37500000  0.32932097  1
  Cs  Cs27  1  1.37930344  0.37500000  0.82932097  1
  Cs  Cs28  1  1.37930344  0.62500000  0.32932097  1
  Cs  Cs29  1  1.37930344  0.62500000  0.82932097  1
  Cs  Cs30  1  1.37930344  0.87500000  0.32932097  1
  Cs  Cs31  1  1.37930344  0.87500000  0.82932097  1
  Tl  Tl32  1  0.35126912  0.00000000  0.07150533  1
  Tl  Tl33  1  0.35126912  0.00000000  0.57150533  1
  Tl  Tl34  1  0.35126912  0.25000000  0.07150533  1
  Tl  Tl35  1  0.35126912  0.25000000  0.57150533  1
  Tl  Tl36  1  0.35126912  0.50000000  0.07150533  1
  Tl  Tl37  1  0.35126912  0.50000000  0.57150533  1
  Tl  Tl38  1  0.35126912  0.75000000  0.07150533  1
  Tl  Tl39  1  0.35126912  0.75000000  0.57150533  1
  Tl  Tl40  1  0.85126912  0.12500000  0.07150533  1
  Tl  Tl41  1  0.85126912  0.12500000  0.57150533  1
  Tl  Tl42  1  0.85126912  0.37500000  0.07150533  1
  Tl  Tl43  1  0.85126912  0.37500000  0.57150533  1
  Tl  Tl44  1  0.85126912  0.62500000  0.07150533  1
  Tl  Tl45  1  0.85126912  0.62500000  0.57150533  1
  Tl  Tl46  1  0.85126912  0.87500000  0.07150533  1
  Tl  Tl47  1  0.85126912  0.87500000  0.57150533  1
  Tl  Tl48  1  0.64873088  0.00000000  0.42849467  1
  Tl  Tl49  1  0.64873088  0.00000000  0.92849467  1
  Tl  Tl50  1  0.64873088  0.25000000  0.42849467  1
  Tl  Tl51  1  0.64873088  0.25000000  0.92849467  1
  Tl  Tl52  1  0.64873088  0.50000000  0.42849467  1
  Tl  Tl53  1  0.64873088  0.50000000  0.92849467  1
  Tl  Tl54  1  0.64873088  0.75000000  0.42849467  1
  Tl  Tl55  1  0.64873088  0.75000000  0.92849467  1
  Tl  Tl56  1  1.14873088  0.12500000  0.42849467  1
  Tl  Tl57  1  1.14873088  0.12500000  0.92849467  1
  Tl  Tl58  1  1.14873088  0.37500000  0.42849467  1
  Tl  Tl59  1  1.14873088  0.37500000  0.92849467  1
  Tl  Tl60  1  1.14873088  0.62500000  0.42849467  1
  Tl  Tl61  1  1.14873088  0.62500000  0.92849467  1
  Tl  Tl62  1  1.14873088  0.87500000  0.42849467  1
  Tl  Tl63  1  1.14873088  0.87500000  0.92849467  1
  O  O64  1  0.75156429  0.00000000  0.10389535  1
  O  O65  1  0.75156429  0.00000000  0.60389535  1
  O  O66  1  0.75156429  0.25000000  0.10389535  1
  O  O67  1  0.75156429  0.25000000  0.60389535  1
  O  O68  1  0.75156429  0.50000000  0.10389535  1
  O  O69  1  0.75156429  0.50000000  0.60389535  1
  O  O70  1  0.75156429  0.75000000  0.10389535  1
  O  O71  1  0.75156429  0.75000000  0.60389535  1
  O  O72  1  1.25156429  0.12500000  0.10389535  1
  O  O73  1  1.25156429  0.12500000  0.60389535  1
  O  O74  1  1.25156429  0.37500000  0.10389535  1
  O  O75  1  1.25156429  0.37500000  0.60389535  1
  O  O76  1  1.25156429  0.62500000  0.10389535  1
  O  O77  1  1.25156429  0.62500000  0.60389535  1
  O  O78  1  1.25156429  0.87500000  0.10389535  1
  O  O79  1  1.25156429  0.87500000  0.60389535  1
  O  O80  1  0.24843571  0.00000000  0.39610465  1
  O  O81  1  0.24843571  0.00000000  0.89610465  1
  O  O82  1  0.24843571  0.25000000  0.39610465  1
  O  O83  1  0.24843571  0.25000000  0.89610465  1
  O  O84  1  0.24843571  0.50000000  0.39610465  1
  O  O85  1  0.24843571  0.50000000  0.89610465  1
  O  O86  1  0.24843571  0.75000000  0.39610465  1
  O  O87  1  0.24843571  0.75000000  0.89610465  1
  O  O88  1  0.74843571  0.12500000  0.39610465  1
  O  O89  1  0.74843571  0.12500000  0.89610465  1
  O  O90  1  0.74843571  0.37500000  0.39610465  1
  O  O91  1  0.74843571  0.37500000  0.89610465  1
  O  O92  1  0.74843571  0.62500000  0.39610465  1
  O  O93  1  0.74843571  0.62500000  0.89610465  1
  O  O94  1  0.74843571  0.87500000  0.39610465  1
  O  O95  1  0.74843571  0.87500000  0.89610465  1
