# generated using pymatgen
data_BaHf(SiO3)3
_symmetry_space_group_name_H-M   'P 1'
_cell_length_a   13.51958138
_cell_length_b   13.51958138
_cell_length_c   10.04454504
_cell_angle_alpha   90.00000000
_cell_angle_beta   90.00000000
_cell_angle_gamma   120.00000000
_symmetry_Int_Tables_number   1
_chemical_formula_structural   BaHf(SiO3)3
_chemical_formula_sum   'Ba8 Hf8 Si24 O72'
_cell_volume   1589.96436541
_cell_formula_units_Z   8
loop_
 _symmetry_equiv_pos_site_id
 _symmetry_equiv_pos_as_xyz
  1  'x, y, z'
loop_
 _atom_site_type_symbol
 _atom_site_label
 _atom_site_symmetry_multiplicity
 _atom_site_fract_x
 _atom_site_fract_y
 _atom_site_fract_z
 _atom_site_occupancy
  Ba  Ba0  1  0.00000000  0.00000000  0.00000000  1
  Ba  Ba1  1  0.00000000  0.50000000  0.00000000  1
  Ba  Ba2  1  0.50000000  0.00000000  0.00000000  1
  Ba  Ba3  1  0.50000000  0.50000000  0.00000000  1
  Ba  Ba4  1  0.00000000  0.00000000  0.50000000  1
  Ba  Ba5  1  0.00000000  0.50000000  0.50000000  1
  Ba  Ba6  1  0.50000000  0.00000000  0.50000000  1
  Ba  Ba7  1  0.50000000  0.50000000  0.50000000  1
  Hf  Hf8  1  0.16666667  0.33333333  0.00000000  1
  Hf  Hf9  1  0.16666667  0.83333333  0.00000000  1
  Hf  Hf10  1  0.66666667  0.33333333  0.00000000  1
  Hf  Hf11  1  0.66666667  0.83333333  0.00000000  1
  Hf  Hf12  1  0.16666667  0.33333333  0.50000000  1
  Hf  Hf13  1  0.16666667  0.83333333  0.50000000  1
  Hf  Hf14  1  0.66666667  0.33333333  0.50000000  1
  Hf  Hf15  1  0.66666667  0.83333333  0.50000000  1
  Si  Si16  1  0.47436239  0.19592951  0.75000000  1
  Si  Si17  1  0.47436239  0.69592951  0.75000000  1
  Si  Si18  1  0.97436239  0.19592951  0.75000000  1
  Si  Si19  1  0.97436239  0.69592951  0.75000000  1
  Si  Si20  1  0.30407049  0.27843288  0.75000000  1
  Si  Si21  1  0.30407049  0.77843288  0.75000000  1
  Si  Si22  1  0.80407049  0.27843288  0.75000000  1
  Si  Si23  1  0.80407049  0.77843288  0.75000000  1
  Si  Si24  1  0.22156712  0.02563761  0.75000000  1
  Si  Si25  1  0.22156712  0.52563761  0.75000000  1
  Si  Si26  1  0.72156712  0.02563761  0.75000000  1
  Si  Si27  1  0.72156712  0.52563761  0.75000000  1
  Si  Si28  1  0.47436239  0.27843288  0.25000000  1
  Si  Si29  1  0.47436239  0.77843288  0.25000000  1
  Si  Si30  1  0.97436239  0.27843288  0.25000000  1
  Si  Si31  1  0.97436239  0.77843288  0.25000000  1
  Si  Si32  1  0.30407049  0.02563761  0.25000000  1
  Si  Si33  1  0.30407049  0.52563761  0.25000000  1
  Si  Si34  1  0.80407049  0.02563761  0.25000000  1
  Si  Si35  1  0.80407049  0.52563761  0.25000000  1
  Si  Si36  1  0.22156712  0.19592951  0.25000000  1
  Si  Si37  1  0.22156712  0.69592951  0.25000000  1
  Si  Si38  1  0.72156712  0.19592951  0.25000000  1
  Si  Si39  1  0.72156712  0.69592951  0.25000000  1
  O  O40  1  0.43211695  0.29106220  0.75000000  1
  O  O41  1  0.43211695  0.79106220  0.75000000  1
  O  O42  1  0.93211695  0.29106220  0.75000000  1
  O  O43  1  0.93211695  0.79106220  0.75000000  1
  O  O44  1  0.20893780  0.14105475  0.75000000  1
  O  O45  1  0.20893780  0.64105475  0.75000000  1
  O  O46  1  0.70893780  0.14105475  0.75000000  1
  O  O47  1  0.70893780  0.64105475  0.75000000  1
  O  O48  1  0.35894525  0.06788305  0.75000000  1
  O  O49  1  0.35894525  0.56788305  0.75000000  1
  O  O50  1  0.85894525  0.06788305  0.75000000  1
  O  O51  1  0.85894525  0.56788305  0.75000000  1
  O  O52  1  0.43211695  0.14105475  0.25000000  1
  O  O53  1  0.43211695  0.64105475  0.25000000  1
  O  O54  1  0.93211695  0.14105475  0.25000000  1
  O  O55  1  0.93211695  0.64105475  0.25000000  1
  O  O56  1  0.20893780  0.06788305  0.25000000  1
  O  O57  1  0.20893780  0.56788305  0.25000000  1
  O  O58  1  0.70893780  0.06788305  0.25000000  1
  O  O59  1  0.70893780  0.56788305  0.25000000  1
  O  O60  1  0.35894525  0.29106220  0.25000000  1
  O  O61  1  0.35894525  0.79106220  0.25000000  1
  O  O62  1  0.85894525  0.29106220  0.25000000  1
  O  O63  1  0.85894525  0.79106220  0.25000000  1
  O  O64  1  0.04444758  0.20385010  0.88422736  1
  O  O65  1  0.04444758  0.70385010  0.88422736  1
  O  O66  1  0.54444758  0.20385010  0.88422736  1
  O  O67  1  0.54444758  0.70385010  0.88422736  1
  O  O68  1  0.29614990  0.34059748  0.88422736  1
  O  O69  1  0.29614990  0.84059748  0.88422736  1
  O  O70  1  0.79614990  0.34059748  0.88422736  1
  O  O71  1  0.79614990  0.84059748  0.88422736  1
  O  O72  1  0.15940252  0.45555242  0.88422736  1
  O  O73  1  0.15940252  0.95555242  0.88422736  1
  O  O74  1  0.65940252  0.45555242  0.88422736  1
  O  O75  1  0.65940252  0.95555242  0.88422736  1
  O  O76  1  0.04444758  0.20385010  0.61577264  1
  O  O77  1  0.04444758  0.70385010  0.61577264  1
  O  O78  1  0.54444758  0.20385010  0.61577264  1
  O  O79  1  0.54444758  0.70385010  0.61577264  1
  O  O80  1  0.29614990  0.34059748  0.61577264  1
  O  O81  1  0.29614990  0.84059748  0.61577264  1
  O  O82  1  0.79614990  0.34059748  0.61577264  1
  O  O83  1  0.79614990  0.84059748  0.61577264  1
  O  O84  1  0.15940252  0.45555242  0.61577264  1
  O  O85  1  0.15940252  0.95555242  0.61577264  1
  O  O86  1  0.65940252  0.45555242  0.61577264  1
  O  O87  1  0.65940252  0.95555242  0.61577264  1
  O  O88  1  0.04444758  0.34059748  0.38422736  1
  O  O89  1  0.04444758  0.84059748  0.38422736  1
  O  O90  1  0.54444758  0.34059748  0.38422736  1
  O  O91  1  0.54444758  0.84059748  0.38422736  1
  O  O92  1  0.29614990  0.45555242  0.38422736  1
  O  O93  1  0.29614990  0.95555242  0.38422736  1
  O  O94  1  0.79614990  0.45555242  0.38422736  1
  O  O95  1  0.79614990  0.95555242  0.38422736  1
  O  O96  1  0.15940252  0.20385010  0.38422736  1
  O  O97  1  0.15940252  0.70385010  0.38422736  1
  O  O98  1  0.65940252  0.20385010  0.38422736  1
  O  O99  1  0.65940252  0.70385010  0.38422736  1
  O  O100  1  0.04444758  0.34059748  0.11577264  1
  O  O101  1  0.04444758  0.84059748  0.11577264  1
  O  O102  1  0.54444758  0.34059748  0.11577264  1
  O  O103  1  0.54444758  0.84059748  0.11577264  1
  O  O104  1  0.29614990  0.45555242  0.11577264  1
  O  O105  1  0.29614990  0.95555242  0.11577264  1
  O  O106  1  0.79614990  0.45555242  0.11577264  1
  O  O107  1  0.79614990  0.95555242  0.11577264  1
  O  O108  1  0.15940252  0.20385010  0.11577264  1
  O  O109  1  0.15940252  0.70385010  0.11577264  1
  O  O110  1  0.65940252  0.20385010  0.11577264  1
  O  O111  1  0.65940252  0.70385010  0.11577264  1
