# generated using pymatgen
data_RbSbO2
_symmetry_space_group_name_H-M   'P 1'
_cell_length_a   15.93752753
_cell_length_b   17.81688852
_cell_length_c   16.80853339
_cell_angle_alpha   90.00000000
_cell_angle_beta   123.58039596
_cell_angle_gamma   90.00000000
_symmetry_Int_Tables_number   1
_chemical_formula_structural   RbSbO2
_chemical_formula_sum   'Rb48 Sb48 O96'
_cell_volume   3976.35600073
_cell_formula_units_Z   48
loop_
 _symmetry_equiv_pos_site_id
 _symmetry_equiv_pos_as_xyz
  1  'x, y, z'
loop_
 _atom_site_type_symbol
 _atom_site_label
 _atom_site_symmetry_multiplicity
 _atom_site_fract_x
 _atom_site_fract_y
 _atom_site_fract_z
 _atom_site_occupancy
  Rb  Rb0  1  0.25000000  0.07096677  0.08333333  1
  Rb  Rb1  1  0.25000000  0.07096677  0.41666667  1
  Rb  Rb2  1  0.25000000  0.07096677  0.75000000  1
  Rb  Rb3  1  0.25000000  0.57096677  0.08333333  1
  Rb  Rb4  1  0.25000000  0.57096677  0.41666667  1
  Rb  Rb5  1  0.25000000  0.57096677  0.75000000  1
  Rb  Rb6  1  0.75000000  0.07096677  0.08333333  1
  Rb  Rb7  1  0.75000000  0.07096677  0.41666667  1
  Rb  Rb8  1  0.75000000  0.07096677  0.75000000  1
  Rb  Rb9  1  0.75000000  0.57096677  0.08333333  1
  Rb  Rb10  1  0.75000000  0.57096677  0.41666667  1
  Rb  Rb11  1  0.75000000  0.57096677  0.75000000  1
  Rb  Rb12  1  0.50000000  0.32096677  0.08333333  1
  Rb  Rb13  1  0.50000000  0.32096677  0.41666667  1
  Rb  Rb14  1  0.50000000  0.32096677  0.75000000  1
  Rb  Rb15  1  0.50000000  0.82096677  0.08333333  1
  Rb  Rb16  1  0.50000000  0.82096677  0.41666667  1
  Rb  Rb17  1  0.50000000  0.82096677  0.75000000  1
  Rb  Rb18  1  1.00000000  0.32096677  0.08333333  1
  Rb  Rb19  1  1.00000000  0.32096677  0.41666667  1
  Rb  Rb20  1  1.00000000  0.32096677  0.75000000  1
  Rb  Rb21  1  1.00000000  0.82096677  0.08333333  1
  Rb  Rb22  1  1.00000000  0.82096677  0.41666667  1
  Rb  Rb23  1  1.00000000  0.82096677  0.75000000  1
  Rb  Rb24  1  0.25000000  -0.07096677  0.25000000  1
  Rb  Rb25  1  0.25000000  -0.07096677  0.58333333  1
  Rb  Rb26  1  0.25000000  -0.07096677  0.91666667  1
  Rb  Rb27  1  0.25000000  0.42903323  0.25000000  1
  Rb  Rb28  1  0.25000000  0.42903323  0.58333333  1
  Rb  Rb29  1  0.25000000  0.42903323  0.91666667  1
  Rb  Rb30  1  0.75000000  -0.07096677  0.25000000  1
  Rb  Rb31  1  0.75000000  -0.07096677  0.58333333  1
  Rb  Rb32  1  0.75000000  -0.07096677  0.91666667  1
  Rb  Rb33  1  0.75000000  0.42903323  0.25000000  1
  Rb  Rb34  1  0.75000000  0.42903323  0.58333333  1
  Rb  Rb35  1  0.75000000  0.42903323  0.91666667  1
  Rb  Rb36  1  0.50000000  0.17903323  0.25000000  1
  Rb  Rb37  1  0.50000000  0.17903323  0.58333333  1
  Rb  Rb38  1  0.50000000  0.17903323  0.91666667  1
  Rb  Rb39  1  0.50000000  0.67903323  0.25000000  1
  Rb  Rb40  1  0.50000000  0.67903323  0.58333333  1
  Rb  Rb41  1  0.50000000  0.67903323  0.91666667  1
  Rb  Rb42  1  1.00000000  0.17903323  0.25000000  1
  Rb  Rb43  1  1.00000000  0.17903323  0.58333333  1
  Rb  Rb44  1  1.00000000  0.17903323  0.91666667  1
  Rb  Rb45  1  1.00000000  0.67903323  0.25000000  1
  Rb  Rb46  1  1.00000000  0.67903323  0.58333333  1
  Rb  Rb47  1  1.00000000  0.67903323  0.91666667  1
  Sb  Sb48  1  0.25000000  0.20462578  0.25000000  1
  Sb  Sb49  1  0.25000000  0.20462578  0.58333333  1
  Sb  Sb50  1  0.25000000  0.20462578  0.91666667  1
  Sb  Sb51  1  0.25000000  0.70462578  0.25000000  1
  Sb  Sb52  1  0.25000000  0.70462578  0.58333333  1
  Sb  Sb53  1  0.25000000  0.70462578  0.91666667  1
  Sb  Sb54  1  0.75000000  0.20462578  0.25000000  1
  Sb  Sb55  1  0.75000000  0.20462578  0.58333333  1
  Sb  Sb56  1  0.75000000  0.20462578  0.91666667  1
  Sb  Sb57  1  0.75000000  0.70462578  0.25000000  1
  Sb  Sb58  1  0.75000000  0.70462578  0.58333333  1
  Sb  Sb59  1  0.75000000  0.70462578  0.91666667  1
  Sb  Sb60  1  0.50000000  0.45462578  0.25000000  1
  Sb  Sb61  1  0.50000000  0.45462578  0.58333333  1
  Sb  Sb62  1  0.50000000  0.45462578  0.91666667  1
  Sb  Sb63  1  0.50000000  0.95462578  0.25000000  1
  Sb  Sb64  1  0.50000000  0.95462578  0.58333333  1
  Sb  Sb65  1  0.50000000  0.95462578  0.91666667  1
  Sb  Sb66  1  1.00000000  0.45462578  0.25000000  1
  Sb  Sb67  1  1.00000000  0.45462578  0.58333333  1
  Sb  Sb68  1  1.00000000  0.45462578  0.91666667  1
  Sb  Sb69  1  1.00000000  0.95462578  0.25000000  1
  Sb  Sb70  1  1.00000000  0.95462578  0.58333333  1
  Sb  Sb71  1  1.00000000  0.95462578  0.91666667  1
  Sb  Sb72  1  0.25000000  -0.20462578  0.08333333  1
  Sb  Sb73  1  0.25000000  -0.20462578  0.41666667  1
  Sb  Sb74  1  0.25000000  -0.20462578  0.75000000  1
  Sb  Sb75  1  0.25000000  0.29537422  0.08333333  1
  Sb  Sb76  1  0.25000000  0.29537422  0.41666667  1
  Sb  Sb77  1  0.25000000  0.29537422  0.75000000  1
  Sb  Sb78  1  0.75000000  -0.20462578  0.08333333  1
  Sb  Sb79  1  0.75000000  -0.20462578  0.41666667  1
  Sb  Sb80  1  0.75000000  -0.20462578  0.75000000  1
  Sb  Sb81  1  0.75000000  0.29537422  0.08333333  1
  Sb  Sb82  1  0.75000000  0.29537422  0.41666667  1
  Sb  Sb83  1  0.75000000  0.29537422  0.75000000  1
  Sb  Sb84  1  0.50000000  0.04537422  0.08333333  1
  Sb  Sb85  1  0.50000000  0.04537422  0.41666667  1
  Sb  Sb86  1  0.50000000  0.04537422  0.75000000  1
  Sb  Sb87  1  0.50000000  0.54537422  0.08333333  1
  Sb  Sb88  1  0.50000000  0.54537422  0.41666667  1
  Sb  Sb89  1  0.50000000  0.54537422  0.75000000  1
  Sb  Sb90  1  1.00000000  0.04537422  0.08333333  1
  Sb  Sb91  1  1.00000000  0.04537422  0.41666667  1
  Sb  Sb92  1  1.00000000  0.04537422  0.75000000  1
  Sb  Sb93  1  1.00000000  0.54537422  0.08333333  1
  Sb  Sb94  1  1.00000000  0.54537422  0.41666667  1
  Sb  Sb95  1  1.00000000  0.54537422  0.75000000  1
  O  O96  1  0.41075874  -0.02414707  0.09642972  1
  O  O97  1  0.41075874  -0.02414707  0.42976305  1
  O  O98  1  0.41075874  -0.02414707  0.76309638  1
  O  O99  1  0.41075874  0.47585293  0.09642972  1
  O  O100  1  0.41075874  0.47585293  0.42976305  1
  O  O101  1  0.41075874  0.47585293  0.76309638  1
  O  O102  1  0.91075874  -0.02414707  0.09642972  1
  O  O103  1  0.91075874  -0.02414707  0.42976305  1
  O  O104  1  0.91075874  -0.02414707  0.76309638  1
  O  O105  1  0.91075874  0.47585293  0.09642972  1
  O  O106  1  0.91075874  0.47585293  0.42976305  1
  O  O107  1  0.91075874  0.47585293  0.76309638  1
  O  O108  1  0.66075874  0.22585293  0.09642972  1
  O  O109  1  0.66075874  0.22585293  0.42976305  1
  O  O110  1  0.66075874  0.22585293  0.76309638  1
  O  O111  1  0.66075874  0.72585293  0.09642972  1
  O  O112  1  0.66075874  0.72585293  0.42976305  1
  O  O113  1  0.66075874  0.72585293  0.76309638  1
  O  O114  1  1.16075874  0.22585293  0.09642972  1
  O  O115  1  1.16075874  0.22585293  0.42976305  1
  O  O116  1  1.16075874  0.22585293  0.76309638  1
  O  O117  1  1.16075874  0.72585293  0.09642972  1
  O  O118  1  1.16075874  0.72585293  0.42976305  1
  O  O119  1  1.16075874  0.72585293  0.76309638  1
  O  O120  1  0.08924126  -0.02414707  0.07023695  1
  O  O121  1  0.08924126  -0.02414707  0.40357028  1
  O  O122  1  0.08924126  -0.02414707  0.73690362  1
  O  O123  1  0.08924126  0.47585293  0.07023695  1
  O  O124  1  0.08924126  0.47585293  0.40357028  1
  O  O125  1  0.08924126  0.47585293  0.73690362  1
  O  O126  1  0.58924126  -0.02414707  0.07023695  1
  O  O127  1  0.58924126  -0.02414707  0.40357028  1
  O  O128  1  0.58924126  -0.02414707  0.73690362  1
  O  O129  1  0.58924126  0.47585293  0.07023695  1
  O  O130  1  0.58924126  0.47585293  0.40357028  1
  O  O131  1  0.58924126  0.47585293  0.73690362  1
  O  O132  1  0.33924126  0.22585293  0.07023695  1
  O  O133  1  0.33924126  0.22585293  0.40357028  1
  O  O134  1  0.33924126  0.22585293  0.73690362  1
  O  O135  1  0.33924126  0.72585293  0.07023695  1
  O  O136  1  0.33924126  0.72585293  0.40357028  1
  O  O137  1  0.33924126  0.72585293  0.73690362  1
  O  O138  1  0.83924126  0.22585293  0.07023695  1
  O  O139  1  0.83924126  0.22585293  0.40357028  1
  O  O140  1  0.83924126  0.22585293  0.73690362  1
  O  O141  1  0.83924126  0.72585293  0.07023695  1
  O  O142  1  0.83924126  0.72585293  0.40357028  1
  O  O143  1  0.83924126  0.72585293  0.73690362  1
  O  O144  1  0.41075874  0.02414707  0.26309638  1
  O  O145  1  0.41075874  0.02414707  0.59642972  1
  O  O146  1  0.41075874  0.02414707  0.92976305  1
  O  O147  1  0.41075874  0.52414707  0.26309638  1
  O  O148  1  0.41075874  0.52414707  0.59642972  1
  O  O149  1  0.41075874  0.52414707  0.92976305  1
  O  O150  1  0.91075874  0.02414707  0.26309638  1
  O  O151  1  0.91075874  0.02414707  0.59642972  1
  O  O152  1  0.91075874  0.02414707  0.92976305  1
  O  O153  1  0.91075874  0.52414707  0.26309638  1
  O  O154  1  0.91075874  0.52414707  0.59642972  1
  O  O155  1  0.91075874  0.52414707  0.92976305  1
  O  O156  1  0.66075874  0.27414707  0.26309638  1
  O  O157  1  0.66075874  0.27414707  0.59642972  1
  O  O158  1  0.66075874  0.27414707  0.92976305  1
  O  O159  1  0.66075874  0.77414707  0.26309638  1
  O  O160  1  0.66075874  0.77414707  0.59642972  1
  O  O161  1  0.66075874  0.77414707  0.92976305  1
  O  O162  1  1.16075874  0.27414707  0.26309638  1
  O  O163  1  1.16075874  0.27414707  0.59642972  1
  O  O164  1  1.16075874  0.27414707  0.92976305  1
  O  O165  1  1.16075874  0.77414707  0.26309638  1
  O  O166  1  1.16075874  0.77414707  0.59642972  1
  O  O167  1  1.16075874  0.77414707  0.92976305  1
  O  O168  1  0.08924126  0.02414707  0.23690362  1
  O  O169  1  0.08924126  0.02414707  0.57023695  1
  O  O170  1  0.08924126  0.02414707  0.90357028  1
  O  O171  1  0.08924126  0.52414707  0.23690362  1
  O  O172  1  0.08924126  0.52414707  0.57023695  1
  O  O173  1  0.08924126  0.52414707  0.90357028  1
  O  O174  1  0.58924126  0.02414707  0.23690362  1
  O  O175  1  0.58924126  0.02414707  0.57023695  1
  O  O176  1  0.58924126  0.02414707  0.90357028  1
  O  O177  1  0.58924126  0.52414707  0.23690362  1
  O  O178  1  0.58924126  0.52414707  0.57023695  1
  O  O179  1  0.58924126  0.52414707  0.90357028  1
  O  O180  1  0.33924126  0.27414707  0.23690362  1
  O  O181  1  0.33924126  0.27414707  0.57023695  1
  O  O182  1  0.33924126  0.27414707  0.90357028  1
  O  O183  1  0.33924126  0.77414707  0.23690362  1
  O  O184  1  0.33924126  0.77414707  0.57023695  1
  O  O185  1  0.33924126  0.77414707  0.90357028  1
  O  O186  1  0.83924126  0.27414707  0.23690362  1
  O  O187  1  0.83924126  0.27414707  0.57023695  1
  O  O188  1  0.83924126  0.27414707  0.90357028  1
  O  O189  1  0.83924126  0.77414707  0.23690362  1
  O  O190  1  0.83924126  0.77414707  0.57023695  1
  O  O191  1  0.83924126  0.77414707  0.90357028  1
