# generated using pymatgen
data_Sr2ZnGe2O7
_symmetry_space_group_name_H-M   'P 1'
_cell_length_a   16.23969638
_cell_length_b   16.23969638
_cell_length_c   16.03511861
_cell_angle_alpha   90.00000000
_cell_angle_beta   90.00000000
_cell_angle_gamma   90.00000000
_symmetry_Int_Tables_number   1
_chemical_formula_structural   Sr2ZnGe2O7
_chemical_formula_sum   'Sr48 Zn24 Ge48 O168'
_cell_volume   4228.90557018
_cell_formula_units_Z   24
loop_
 _symmetry_equiv_pos_site_id
 _symmetry_equiv_pos_as_xyz
  1  'x, y, z'
loop_
 _atom_site_type_symbol
 _atom_site_label
 _atom_site_symmetry_multiplicity
 _atom_site_fract_x
 _atom_site_fract_y
 _atom_site_fract_z
 _atom_site_occupancy
  Sr  Sr0  1  0.08234962  0.16765038  0.16942928  1
  Sr  Sr1  1  0.08234962  0.16765038  0.50276261  1
  Sr  Sr2  1  0.08234962  0.16765038  0.83609595  1
  Sr  Sr3  1  0.58234962  0.16765038  0.16942928  1
  Sr  Sr4  1  0.58234962  0.16765038  0.50276261  1
  Sr  Sr5  1  0.58234962  0.16765038  0.83609595  1
  Sr  Sr6  1  0.08234962  -0.33234962  0.16942928  1
  Sr  Sr7  1  0.08234962  -0.33234962  0.50276261  1
  Sr  Sr8  1  0.08234962  -0.33234962  0.83609595  1
  Sr  Sr9  1  0.58234962  -0.33234962  0.16942928  1
  Sr  Sr10  1  0.58234962  -0.33234962  0.50276261  1
  Sr  Sr11  1  0.58234962  -0.33234962  0.83609595  1
  Sr  Sr12  1  0.33234962  0.08234962  0.16390405  1
  Sr  Sr13  1  0.33234962  0.08234962  0.49723739  1
  Sr  Sr14  1  0.33234962  0.08234962  0.83057072  1
  Sr  Sr15  1  0.83234962  0.08234962  0.16390405  1
  Sr  Sr16  1  0.83234962  0.08234962  0.49723739  1
  Sr  Sr17  1  0.83234962  0.08234962  0.83057072  1
  Sr  Sr18  1  0.33234962  -0.41765038  0.16390405  1
  Sr  Sr19  1  0.33234962  -0.41765038  0.49723739  1
  Sr  Sr20  1  0.33234962  -0.41765038  0.83057072  1
  Sr  Sr21  1  0.83234962  -0.41765038  0.16390405  1
  Sr  Sr22  1  0.83234962  -0.41765038  0.49723739  1
  Sr  Sr23  1  0.83234962  -0.41765038  0.83057072  1
  Sr  Sr24  1  0.16765038  0.41765038  0.16390405  1
  Sr  Sr25  1  0.16765038  0.41765038  0.49723739  1
  Sr  Sr26  1  0.16765038  0.41765038  0.83057072  1
  Sr  Sr27  1  0.66765038  0.41765038  0.16390405  1
  Sr  Sr28  1  0.66765038  0.41765038  0.49723739  1
  Sr  Sr29  1  0.66765038  0.41765038  0.83057072  1
  Sr  Sr30  1  0.16765038  -0.08234962  0.16390405  1
  Sr  Sr31  1  0.16765038  -0.08234962  0.49723739  1
  Sr  Sr32  1  0.16765038  -0.08234962  0.83057072  1
  Sr  Sr33  1  0.66765038  -0.08234962  0.16390405  1
  Sr  Sr34  1  0.66765038  -0.08234962  0.49723739  1
  Sr  Sr35  1  0.66765038  -0.08234962  0.83057072  1
  Sr  Sr36  1  0.41765038  0.33234962  0.16942928  1
  Sr  Sr37  1  0.41765038  0.33234962  0.50276261  1
  Sr  Sr38  1  0.41765038  0.33234962  0.83609595  1
  Sr  Sr39  1  0.91765038  0.33234962  0.16942928  1
  Sr  Sr40  1  0.91765038  0.33234962  0.50276261  1
  Sr  Sr41  1  0.91765038  0.33234962  0.83609595  1
  Sr  Sr42  1  0.41765038  -0.16765038  0.16942928  1
  Sr  Sr43  1  0.41765038  -0.16765038  0.50276261  1
  Sr  Sr44  1  0.41765038  -0.16765038  0.83609595  1
  Sr  Sr45  1  0.91765038  -0.16765038  0.16942928  1
  Sr  Sr46  1  0.91765038  -0.16765038  0.50276261  1
  Sr  Sr47  1  0.91765038  -0.16765038  0.83609595  1
  Zn  Zn48  1  0.00000000  0.50000000  0.00000000  1
  Zn  Zn49  1  0.00000000  0.50000000  0.33333333  1
  Zn  Zn50  1  0.00000000  0.50000000  0.66666667  1
  Zn  Zn51  1  0.50000000  0.50000000  0.00000000  1
  Zn  Zn52  1  0.50000000  0.50000000  0.33333333  1
  Zn  Zn53  1  0.50000000  0.50000000  0.66666667  1
  Zn  Zn54  1  0.00000000  0.00000000  0.00000000  1
  Zn  Zn55  1  0.00000000  0.00000000  0.33333333  1
  Zn  Zn56  1  0.00000000  0.00000000  0.66666667  1
  Zn  Zn57  1  0.50000000  0.00000000  0.00000000  1
  Zn  Zn58  1  0.50000000  0.00000000  0.33333333  1
  Zn  Zn59  1  0.50000000  0.00000000  0.66666667  1
  Zn  Zn60  1  0.25000000  0.25000000  0.00000000  1
  Zn  Zn61  1  0.25000000  0.25000000  0.33333333  1
  Zn  Zn62  1  0.25000000  0.25000000  0.66666667  1
  Zn  Zn63  1  0.75000000  0.25000000  0.00000000  1
  Zn  Zn64  1  0.75000000  0.25000000  0.33333333  1
  Zn  Zn65  1  0.75000000  0.25000000  0.66666667  1
  Zn  Zn66  1  0.25000000  -0.25000000  0.00000000  1
  Zn  Zn67  1  0.25000000  -0.25000000  0.33333333  1
  Zn  Zn68  1  0.25000000  -0.25000000  0.66666667  1
  Zn  Zn69  1  0.75000000  -0.25000000  0.00000000  1
  Zn  Zn70  1  0.75000000  -0.25000000  0.33333333  1
  Zn  Zn71  1  0.75000000  -0.25000000  0.66666667  1
  Ge  Ge72  1  0.17764118  0.07235882  0.31884611  1
  Ge  Ge73  1  0.17764118  0.07235882  0.65217945  1
  Ge  Ge74  1  0.17764118  0.07235882  0.98551278  1
  Ge  Ge75  1  0.67764118  0.07235882  0.31884611  1
  Ge  Ge76  1  0.67764118  0.07235882  0.65217945  1
  Ge  Ge77  1  0.67764118  0.07235882  0.98551278  1
  Ge  Ge78  1  0.17764118  -0.42764118  0.31884611  1
  Ge  Ge79  1  0.17764118  -0.42764118  0.65217945  1
  Ge  Ge80  1  0.17764118  -0.42764118  0.98551278  1
  Ge  Ge81  1  0.67764118  -0.42764118  0.31884611  1
  Ge  Ge82  1  0.67764118  -0.42764118  0.65217945  1
  Ge  Ge83  1  0.67764118  -0.42764118  0.98551278  1
  Ge  Ge84  1  0.32235882  0.42764118  0.31884611  1
  Ge  Ge85  1  0.32235882  0.42764118  0.65217945  1
  Ge  Ge86  1  0.32235882  0.42764118  0.98551278  1
  Ge  Ge87  1  0.82235882  0.42764118  0.31884611  1
  Ge  Ge88  1  0.82235882  0.42764118  0.65217945  1
  Ge  Ge89  1  0.82235882  0.42764118  0.98551278  1
  Ge  Ge90  1  0.32235882  -0.07235882  0.31884611  1
  Ge  Ge91  1  0.32235882  -0.07235882  0.65217945  1
  Ge  Ge92  1  0.32235882  -0.07235882  0.98551278  1
  Ge  Ge93  1  0.82235882  -0.07235882  0.31884611  1
  Ge  Ge94  1  0.82235882  -0.07235882  0.65217945  1
  Ge  Ge95  1  0.82235882  -0.07235882  0.98551278  1
  Ge  Ge96  1  0.42764118  0.17764118  0.01448722  1
  Ge  Ge97  1  0.42764118  0.17764118  0.34782055  1
  Ge  Ge98  1  0.42764118  0.17764118  0.68115389  1
  Ge  Ge99  1  0.92764118  0.17764118  0.01448722  1
  Ge  Ge100  1  0.92764118  0.17764118  0.34782055  1
  Ge  Ge101  1  0.92764118  0.17764118  0.68115389  1
  Ge  Ge102  1  0.42764118  -0.32235882  0.01448722  1
  Ge  Ge103  1  0.42764118  -0.32235882  0.34782055  1
  Ge  Ge104  1  0.42764118  -0.32235882  0.68115389  1
  Ge  Ge105  1  0.92764118  -0.32235882  0.01448722  1
  Ge  Ge106  1  0.92764118  -0.32235882  0.34782055  1
  Ge  Ge107  1  0.92764118  -0.32235882  0.68115389  1
  Ge  Ge108  1  0.07235882  0.32235882  0.01448722  1
  Ge  Ge109  1  0.07235882  0.32235882  0.34782055  1
  Ge  Ge110  1  0.07235882  0.32235882  0.68115389  1
  Ge  Ge111  1  0.57235882  0.32235882  0.01448722  1
  Ge  Ge112  1  0.57235882  0.32235882  0.34782055  1
  Ge  Ge113  1  0.57235882  0.32235882  0.68115389  1
  Ge  Ge114  1  0.07235882  -0.17764118  0.01448722  1
  Ge  Ge115  1  0.07235882  -0.17764118  0.34782055  1
  Ge  Ge116  1  0.07235882  -0.17764118  0.68115389  1
  Ge  Ge117  1  0.57235882  -0.17764118  0.01448722  1
  Ge  Ge118  1  0.57235882  -0.17764118  0.34782055  1
  Ge  Ge119  1  0.57235882  -0.17764118  0.68115389  1
  O  O120  1  0.20840411  0.16338639  0.26461869  1
  O  O121  1  0.20840411  0.16338639  0.59795203  1
  O  O122  1  0.20840411  0.16338639  0.93128536  1
  O  O123  1  0.70840411  0.16338639  0.26461869  1
  O  O124  1  0.70840411  0.16338639  0.59795203  1
  O  O125  1  0.70840411  0.16338639  0.93128536  1
  O  O126  1  0.20840411  -0.33661361  0.26461869  1
  O  O127  1  0.20840411  -0.33661361  0.59795203  1
  O  O128  1  0.20840411  -0.33661361  0.93128536  1
  O  O129  1  0.70840411  -0.33661361  0.26461869  1
  O  O130  1  0.70840411  -0.33661361  0.59795203  1
  O  O131  1  0.70840411  -0.33661361  0.93128536  1
  O  O132  1  0.29159589  0.33661361  0.26461869  1
  O  O133  1  0.29159589  0.33661361  0.59795203  1
  O  O134  1  0.29159589  0.33661361  0.93128536  1
  O  O135  1  0.79159589  0.33661361  0.26461869  1
  O  O136  1  0.79159589  0.33661361  0.59795203  1
  O  O137  1  0.79159589  0.33661361  0.93128536  1
  O  O138  1  0.29159589  -0.16338639  0.26461869  1
  O  O139  1  0.29159589  -0.16338639  0.59795203  1
  O  O140  1  0.29159589  -0.16338639  0.93128536  1
  O  O141  1  0.79159589  -0.16338639  0.26461869  1
  O  O142  1  0.79159589  -0.16338639  0.59795203  1
  O  O143  1  0.79159589  -0.16338639  0.93128536  1
  O  O144  1  0.16338639  0.29159589  0.06871464  1
  O  O145  1  0.16338639  0.29159589  0.40204797  1
  O  O146  1  0.16338639  0.29159589  0.73538131  1
  O  O147  1  0.66338639  0.29159589  0.06871464  1
  O  O148  1  0.66338639  0.29159589  0.40204797  1
  O  O149  1  0.66338639  0.29159589  0.73538131  1
  O  O150  1  0.16338639  -0.20840411  0.06871464  1
  O  O151  1  0.16338639  -0.20840411  0.40204797  1
  O  O152  1  0.16338639  -0.20840411  0.73538131  1
  O  O153  1  0.66338639  -0.20840411  0.06871464  1
  O  O154  1  0.66338639  -0.20840411  0.40204797  1
  O  O155  1  0.66338639  -0.20840411  0.73538131  1
  O  O156  1  0.33661361  0.20840411  0.06871464  1
  O  O157  1  0.33661361  0.20840411  0.40204797  1
  O  O158  1  0.33661361  0.20840411  0.73538131  1
  O  O159  1  0.83661361  0.20840411  0.06871464  1
  O  O160  1  0.83661361  0.20840411  0.40204797  1
  O  O161  1  0.83661361  0.20840411  0.73538131  1
  O  O162  1  0.33661361  -0.29159589  0.06871464  1
  O  O163  1  0.33661361  -0.29159589  0.40204797  1
  O  O164  1  0.33661361  -0.29159589  0.73538131  1
  O  O165  1  0.83661361  -0.29159589  0.06871464  1
  O  O166  1  0.83661361  -0.29159589  0.40204797  1
  O  O167  1  0.83661361  -0.29159589  0.73538131  1
  O  O168  1  0.08661361  0.04159589  0.26461869  1
  O  O169  1  0.08661361  0.04159589  0.59795203  1
  O  O170  1  0.08661361  0.04159589  0.93128536  1
  O  O171  1  0.58661361  0.04159589  0.26461869  1
  O  O172  1  0.58661361  0.04159589  0.59795203  1
  O  O173  1  0.58661361  0.04159589  0.93128536  1
  O  O174  1  0.08661361  -0.45840411  0.26461869  1
  O  O175  1  0.08661361  -0.45840411  0.59795203  1
  O  O176  1  0.08661361  -0.45840411  0.93128536  1
  O  O177  1  0.58661361  -0.45840411  0.26461869  1
  O  O178  1  0.58661361  -0.45840411  0.59795203  1
  O  O179  1  0.58661361  -0.45840411  0.93128536  1
  O  O180  1  0.45840411  0.08661361  0.06871464  1
  O  O181  1  0.45840411  0.08661361  0.40204797  1
  O  O182  1  0.45840411  0.08661361  0.73538131  1
  O  O183  1  0.95840411  0.08661361  0.06871464  1
  O  O184  1  0.95840411  0.08661361  0.40204797  1
  O  O185  1  0.95840411  0.08661361  0.73538131  1
  O  O186  1  0.45840411  -0.41338639  0.06871464  1
  O  O187  1  0.45840411  -0.41338639  0.40204797  1
  O  O188  1  0.45840411  -0.41338639  0.73538131  1
  O  O189  1  0.95840411  -0.41338639  0.06871464  1
  O  O190  1  0.95840411  -0.41338639  0.40204797  1
  O  O191  1  0.95840411  -0.41338639  0.73538131  1
  O  O192  1  0.04159589  0.41338639  0.06871464  1
  O  O193  1  0.04159589  0.41338639  0.40204797  1
  O  O194  1  0.04159589  0.41338639  0.73538131  1
  O  O195  1  0.54159589  0.41338639  0.06871464  1
  O  O196  1  0.54159589  0.41338639  0.40204797  1
  O  O197  1  0.54159589  0.41338639  0.73538131  1
  O  O198  1  0.04159589  -0.08661361  0.06871464  1
  O  O199  1  0.04159589  -0.08661361  0.40204797  1
  O  O200  1  0.04159589  -0.08661361  0.73538131  1
  O  O201  1  0.54159589  -0.08661361  0.06871464  1
  O  O202  1  0.54159589  -0.08661361  0.40204797  1
  O  O203  1  0.54159589  -0.08661361  0.73538131  1
  O  O204  1  0.41338639  0.45840411  0.26461869  1
  O  O205  1  0.41338639  0.45840411  0.59795203  1
  O  O206  1  0.41338639  0.45840411  0.93128536  1
  O  O207  1  0.91338639  0.45840411  0.26461869  1
  O  O208  1  0.91338639  0.45840411  0.59795203  1
  O  O209  1  0.91338639  0.45840411  0.93128536  1
  O  O210  1  0.41338639  -0.04159589  0.26461869  1
  O  O211  1  0.41338639  -0.04159589  0.59795203  1
  O  O212  1  0.41338639  -0.04159589  0.93128536  1
  O  O213  1  0.91338639  -0.04159589  0.26461869  1
  O  O214  1  0.91338639  -0.04159589  0.59795203  1
  O  O215  1  0.91338639  -0.04159589  0.93128536  1
  O  O216  1  0.18111100  0.06888900  0.09483885  1
  O  O217  1  0.18111100  0.06888900  0.42817218  1
  O  O218  1  0.18111100  0.06888900  0.76150552  1
  O  O219  1  0.68111100  0.06888900  0.09483885  1
  O  O220  1  0.68111100  0.06888900  0.42817218  1
  O  O221  1  0.68111100  0.06888900  0.76150552  1
  O  O222  1  0.18111100  -0.43111100  0.09483885  1
  O  O223  1  0.18111100  -0.43111100  0.42817218  1
  O  O224  1  0.18111100  -0.43111100  0.76150552  1
  O  O225  1  0.68111100  -0.43111100  0.09483885  1
  O  O226  1  0.68111100  -0.43111100  0.42817218  1
  O  O227  1  0.68111100  -0.43111100  0.76150552  1
  O  O228  1  0.43111100  0.18111100  0.23849448  1
  O  O229  1  0.43111100  0.18111100  0.57182782  1
  O  O230  1  0.43111100  0.18111100  0.90516115  1
  O  O231  1  0.93111100  0.18111100  0.23849448  1
  O  O232  1  0.93111100  0.18111100  0.57182782  1
  O  O233  1  0.93111100  0.18111100  0.90516115  1
  O  O234  1  0.43111100  -0.31888900  0.23849448  1
  O  O235  1  0.43111100  -0.31888900  0.57182782  1
  O  O236  1  0.43111100  -0.31888900  0.90516115  1
  O  O237  1  0.93111100  -0.31888900  0.23849448  1
  O  O238  1  0.93111100  -0.31888900  0.57182782  1
  O  O239  1  0.93111100  -0.31888900  0.90516115  1
  O  O240  1  0.00000000  0.25000000  0.06158493  1
  O  O241  1  0.00000000  0.25000000  0.39491826  1
  O  O242  1  0.00000000  0.25000000  0.72825160  1
  O  O243  1  0.50000000  0.25000000  0.06158493  1
  O  O244  1  0.50000000  0.25000000  0.39491826  1
  O  O245  1  0.50000000  0.25000000  0.72825160  1
  O  O246  1  0.00000000  -0.25000000  0.06158493  1
  O  O247  1  0.00000000  -0.25000000  0.39491826  1
  O  O248  1  0.00000000  -0.25000000  0.72825160  1
  O  O249  1  0.50000000  -0.25000000  0.06158493  1
  O  O250  1  0.50000000  -0.25000000  0.39491826  1
  O  O251  1  0.50000000  -0.25000000  0.72825160  1
  O  O252  1  0.25000000  0.50000000  0.27174840  1
  O  O253  1  0.25000000  0.50000000  0.60508174  1
  O  O254  1  0.25000000  0.50000000  0.93841507  1
  O  O255  1  0.75000000  0.50000000  0.27174840  1
  O  O256  1  0.75000000  0.50000000  0.60508174  1
  O  O257  1  0.75000000  0.50000000  0.93841507  1
  O  O258  1  0.25000000  0.00000000  0.27174840  1
  O  O259  1  0.25000000  0.00000000  0.60508174  1
  O  O260  1  0.25000000  0.00000000  0.93841507  1
  O  O261  1  0.75000000  0.00000000  0.27174840  1
  O  O262  1  0.75000000  0.00000000  0.60508174  1
  O  O263  1  0.75000000  0.00000000  0.93841507  1
  O  O264  1  0.31888900  0.43111100  0.09483885  1
  O  O265  1  0.31888900  0.43111100  0.42817218  1
  O  O266  1  0.31888900  0.43111100  0.76150552  1
  O  O267  1  0.81888900  0.43111100  0.09483885  1
  O  O268  1  0.81888900  0.43111100  0.42817218  1
  O  O269  1  0.81888900  0.43111100  0.76150552  1
  O  O270  1  0.31888900  -0.06888900  0.09483885  1
  O  O271  1  0.31888900  -0.06888900  0.42817218  1
  O  O272  1  0.31888900  -0.06888900  0.76150552  1
  O  O273  1  0.81888900  -0.06888900  0.09483885  1
  O  O274  1  0.81888900  -0.06888900  0.42817218  1
  O  O275  1  0.81888900  -0.06888900  0.76150552  1
  O  O276  1  0.06888900  0.31888900  0.23849448  1
  O  O277  1  0.06888900  0.31888900  0.57182782  1
  O  O278  1  0.06888900  0.31888900  0.90516115  1
  O  O279  1  0.56888900  0.31888900  0.23849448  1
  O  O280  1  0.56888900  0.31888900  0.57182782  1
  O  O281  1  0.56888900  0.31888900  0.90516115  1
  O  O282  1  0.06888900  -0.18111100  0.23849448  1
  O  O283  1  0.06888900  -0.18111100  0.57182782  1
  O  O284  1  0.06888900  -0.18111100  0.90516115  1
  O  O285  1  0.56888900  -0.18111100  0.23849448  1
  O  O286  1  0.56888900  -0.18111100  0.57182782  1
  O  O287  1  0.56888900  -0.18111100  0.90516115  1
