# generated using pymatgen
data_BiBO3
_symmetry_space_group_name_H-M   'P 1'
_cell_length_a   19.69252152
_cell_length_b   20.12393026
_cell_length_c   16.67853431
_cell_angle_alpha   90.00000000
_cell_angle_beta   110.19597868
_cell_angle_gamma   90.00000000
_symmetry_Int_Tables_number   1
_chemical_formula_structural   BiBO3
_chemical_formula_sum   'Bi96 B96 O288'
_cell_volume   6203.17848034
_cell_formula_units_Z   96
loop_
 _symmetry_equiv_pos_site_id
 _symmetry_equiv_pos_as_xyz
  1  'x, y, z'
loop_
 _atom_site_type_symbol
 _atom_site_label
 _atom_site_symmetry_multiplicity
 _atom_site_fract_x
 _atom_site_fract_y
 _atom_site_fract_z
 _atom_site_occupancy
  Bi  Bi0  1  0.24667705  0.18652499  0.31111495  1
  Bi  Bi1  1  0.24667705  0.18652499  0.81111495  1
  Bi  Bi2  1  0.24667705  0.43652499  0.31111495  1
  Bi  Bi3  1  0.24667705  0.43652499  0.81111495  1
  Bi  Bi4  1  0.24667705  0.68652499  0.31111495  1
  Bi  Bi5  1  0.24667705  0.68652499  0.81111495  1
  Bi  Bi6  1  0.24667705  0.93652499  0.31111495  1
  Bi  Bi7  1  0.24667705  0.93652499  0.81111495  1
  Bi  Bi8  1  0.58001038  0.18652499  0.31111495  1
  Bi  Bi9  1  0.58001038  0.18652499  0.81111495  1
  Bi  Bi10  1  0.58001038  0.43652499  0.31111495  1
  Bi  Bi11  1  0.58001038  0.43652499  0.81111495  1
  Bi  Bi12  1  0.58001038  0.68652499  0.31111495  1
  Bi  Bi13  1  0.58001038  0.68652499  0.81111495  1
  Bi  Bi14  1  0.58001038  0.93652499  0.31111495  1
  Bi  Bi15  1  0.58001038  0.93652499  0.81111495  1
  Bi  Bi16  1  0.91334371  0.18652499  0.31111495  1
  Bi  Bi17  1  0.91334371  0.18652499  0.81111495  1
  Bi  Bi18  1  0.91334371  0.43652499  0.31111495  1
  Bi  Bi19  1  0.91334371  0.43652499  0.81111495  1
  Bi  Bi20  1  0.91334371  0.68652499  0.31111495  1
  Bi  Bi21  1  0.91334371  0.68652499  0.81111495  1
  Bi  Bi22  1  0.91334371  0.93652499  0.31111495  1
  Bi  Bi23  1  0.91334371  0.93652499  0.81111495  1
  Bi  Bi24  1  0.08665629  0.06152499  0.43888505  1
  Bi  Bi25  1  0.08665629  0.06152499  0.93888505  1
  Bi  Bi26  1  0.08665629  0.31152499  0.43888505  1
  Bi  Bi27  1  0.08665629  0.31152499  0.93888505  1
  Bi  Bi28  1  0.08665629  0.56152499  0.43888505  1
  Bi  Bi29  1  0.08665629  0.56152499  0.93888505  1
  Bi  Bi30  1  0.08665629  0.81152499  0.43888505  1
  Bi  Bi31  1  0.08665629  0.81152499  0.93888505  1
  Bi  Bi32  1  0.41998962  0.06152499  0.43888505  1
  Bi  Bi33  1  0.41998962  0.06152499  0.93888505  1
  Bi  Bi34  1  0.41998962  0.31152499  0.43888505  1
  Bi  Bi35  1  0.41998962  0.31152499  0.93888505  1
  Bi  Bi36  1  0.41998962  0.56152499  0.43888505  1
  Bi  Bi37  1  0.41998962  0.56152499  0.93888505  1
  Bi  Bi38  1  0.41998962  0.81152499  0.43888505  1
  Bi  Bi39  1  0.41998962  0.81152499  0.93888505  1
  Bi  Bi40  1  0.75332295  0.06152499  0.43888505  1
  Bi  Bi41  1  0.75332295  0.06152499  0.93888505  1
  Bi  Bi42  1  0.75332295  0.31152499  0.43888505  1
  Bi  Bi43  1  0.75332295  0.31152499  0.93888505  1
  Bi  Bi44  1  0.75332295  0.56152499  0.43888505  1
  Bi  Bi45  1  0.75332295  0.56152499  0.93888505  1
  Bi  Bi46  1  0.75332295  0.81152499  0.43888505  1
  Bi  Bi47  1  0.75332295  0.81152499  0.93888505  1
  Bi  Bi48  1  0.08665629  0.06347501  0.18888505  1
  Bi  Bi49  1  0.08665629  0.06347501  0.68888505  1
  Bi  Bi50  1  0.08665629  0.31347501  0.18888505  1
  Bi  Bi51  1  0.08665629  0.31347501  0.68888505  1
  Bi  Bi52  1  0.08665629  0.56347501  0.18888505  1
  Bi  Bi53  1  0.08665629  0.56347501  0.68888505  1
  Bi  Bi54  1  0.08665629  0.81347501  0.18888505  1
  Bi  Bi55  1  0.08665629  0.81347501  0.68888505  1
  Bi  Bi56  1  0.41998962  0.06347501  0.18888505  1
  Bi  Bi57  1  0.41998962  0.06347501  0.68888505  1
  Bi  Bi58  1  0.41998962  0.31347501  0.18888505  1
  Bi  Bi59  1  0.41998962  0.31347501  0.68888505  1
  Bi  Bi60  1  0.41998962  0.56347501  0.18888505  1
  Bi  Bi61  1  0.41998962  0.56347501  0.68888505  1
  Bi  Bi62  1  0.41998962  0.81347501  0.18888505  1
  Bi  Bi63  1  0.41998962  0.81347501  0.68888505  1
  Bi  Bi64  1  0.75332295  0.06347501  0.18888505  1
  Bi  Bi65  1  0.75332295  0.06347501  0.68888505  1
  Bi  Bi66  1  0.75332295  0.31347501  0.18888505  1
  Bi  Bi67  1  0.75332295  0.31347501  0.68888505  1
  Bi  Bi68  1  0.75332295  0.56347501  0.18888505  1
  Bi  Bi69  1  0.75332295  0.56347501  0.68888505  1
  Bi  Bi70  1  0.75332295  0.81347501  0.18888505  1
  Bi  Bi71  1  0.75332295  0.81347501  0.68888505  1
  Bi  Bi72  1  0.24667705  0.18847501  0.06111495  1
  Bi  Bi73  1  0.24667705  0.18847501  0.56111495  1
  Bi  Bi74  1  0.24667705  0.43847501  0.06111495  1
  Bi  Bi75  1  0.24667705  0.43847501  0.56111495  1
  Bi  Bi76  1  0.24667705  0.68847501  0.06111495  1
  Bi  Bi77  1  0.24667705  0.68847501  0.56111495  1
  Bi  Bi78  1  0.24667705  0.93847501  0.06111495  1
  Bi  Bi79  1  0.24667705  0.93847501  0.56111495  1
  Bi  Bi80  1  0.58001038  0.18847501  0.06111495  1
  Bi  Bi81  1  0.58001038  0.18847501  0.56111495  1
  Bi  Bi82  1  0.58001038  0.43847501  0.06111495  1
  Bi  Bi83  1  0.58001038  0.43847501  0.56111495  1
  Bi  Bi84  1  0.58001038  0.68847501  0.06111495  1
  Bi  Bi85  1  0.58001038  0.68847501  0.56111495  1
  Bi  Bi86  1  0.58001038  0.93847501  0.06111495  1
  Bi  Bi87  1  0.58001038  0.93847501  0.56111495  1
  Bi  Bi88  1  0.91334371  0.18847501  0.06111495  1
  Bi  Bi89  1  0.91334371  0.18847501  0.56111495  1
  Bi  Bi90  1  0.91334371  0.43847501  0.06111495  1
  Bi  Bi91  1  0.91334371  0.43847501  0.56111495  1
  Bi  Bi92  1  0.91334371  0.68847501  0.06111495  1
  Bi  Bi93  1  0.91334371  0.68847501  0.56111495  1
  Bi  Bi94  1  0.91334371  0.93847501  0.06111495  1
  Bi  Bi95  1  0.91334371  0.93847501  0.56111495  1
  B  B96  1  0.07127968  0.18901844  0.30585768  1
  B  B97  1  0.07127968  0.18901844  0.80585768  1
  B  B98  1  0.07127968  0.43901844  0.30585768  1
  B  B99  1  0.07127968  0.43901844  0.80585768  1
  B  B100  1  0.07127968  0.68901844  0.30585768  1
  B  B101  1  0.07127968  0.68901844  0.80585768  1
  B  B102  1  0.07127968  0.93901844  0.30585768  1
  B  B103  1  0.07127968  0.93901844  0.80585768  1
  B  B104  1  0.40461301  0.18901844  0.30585768  1
  B  B105  1  0.40461301  0.18901844  0.80585768  1
  B  B106  1  0.40461301  0.43901844  0.30585768  1
  B  B107  1  0.40461301  0.43901844  0.80585768  1
  B  B108  1  0.40461301  0.68901844  0.30585768  1
  B  B109  1  0.40461301  0.68901844  0.80585768  1
  B  B110  1  0.40461301  0.93901844  0.30585768  1
  B  B111  1  0.40461301  0.93901844  0.80585768  1
  B  B112  1  0.73794635  0.18901844  0.30585768  1
  B  B113  1  0.73794635  0.18901844  0.80585768  1
  B  B114  1  0.73794635  0.43901844  0.30585768  1
  B  B115  1  0.73794635  0.43901844  0.80585768  1
  B  B116  1  0.73794635  0.68901844  0.30585768  1
  B  B117  1  0.73794635  0.68901844  0.80585768  1
  B  B118  1  0.73794635  0.93901844  0.30585768  1
  B  B119  1  0.73794635  0.93901844  0.80585768  1
  B  B120  1  0.26205365  0.06401844  0.44414232  1
  B  B121  1  0.26205365  0.06401844  0.94414232  1
  B  B122  1  0.26205365  0.31401844  0.44414232  1
  B  B123  1  0.26205365  0.31401844  0.94414232  1
  B  B124  1  0.26205365  0.56401844  0.44414232  1
  B  B125  1  0.26205365  0.56401844  0.94414232  1
  B  B126  1  0.26205365  0.81401844  0.44414232  1
  B  B127  1  0.26205365  0.81401844  0.94414232  1
  B  B128  1  0.59538699  0.06401844  0.44414232  1
  B  B129  1  0.59538699  0.06401844  0.94414232  1
  B  B130  1  0.59538699  0.31401844  0.44414232  1
  B  B131  1  0.59538699  0.31401844  0.94414232  1
  B  B132  1  0.59538699  0.56401844  0.44414232  1
  B  B133  1  0.59538699  0.56401844  0.94414232  1
  B  B134  1  0.59538699  0.81401844  0.44414232  1
  B  B135  1  0.59538699  0.81401844  0.94414232  1
  B  B136  1  0.92872032  0.06401844  0.44414232  1
  B  B137  1  0.92872032  0.06401844  0.94414232  1
  B  B138  1  0.92872032  0.31401844  0.44414232  1
  B  B139  1  0.92872032  0.31401844  0.94414232  1
  B  B140  1  0.92872032  0.56401844  0.44414232  1
  B  B141  1  0.92872032  0.56401844  0.94414232  1
  B  B142  1  0.92872032  0.81401844  0.44414232  1
  B  B143  1  0.92872032  0.81401844  0.94414232  1
  B  B144  1  0.26205365  0.06098156  0.19414232  1
  B  B145  1  0.26205365  0.06098156  0.69414232  1
  B  B146  1  0.26205365  0.31098156  0.19414232  1
  B  B147  1  0.26205365  0.31098156  0.69414232  1
  B  B148  1  0.26205365  0.56098156  0.19414232  1
  B  B149  1  0.26205365  0.56098156  0.69414232  1
  B  B150  1  0.26205365  0.81098156  0.19414232  1
  B  B151  1  0.26205365  0.81098156  0.69414232  1
  B  B152  1  0.59538699  0.06098156  0.19414232  1
  B  B153  1  0.59538699  0.06098156  0.69414232  1
  B  B154  1  0.59538699  0.31098156  0.19414232  1
  B  B155  1  0.59538699  0.31098156  0.69414232  1
  B  B156  1  0.59538699  0.56098156  0.19414232  1
  B  B157  1  0.59538699  0.56098156  0.69414232  1
  B  B158  1  0.59538699  0.81098156  0.19414232  1
  B  B159  1  0.59538699  0.81098156  0.69414232  1
  B  B160  1  0.92872032  0.06098156  0.19414232  1
  B  B161  1  0.92872032  0.06098156  0.69414232  1
  B  B162  1  0.92872032  0.31098156  0.19414232  1
  B  B163  1  0.92872032  0.31098156  0.69414232  1
  B  B164  1  0.92872032  0.56098156  0.19414232  1
  B  B165  1  0.92872032  0.56098156  0.69414232  1
  B  B166  1  0.92872032  0.81098156  0.19414232  1
  B  B167  1  0.92872032  0.81098156  0.69414232  1
  B  B168  1  0.07127968  0.18598156  0.05585768  1
  B  B169  1  0.07127968  0.18598156  0.55585768  1
  B  B170  1  0.07127968  0.43598156  0.05585768  1
  B  B171  1  0.07127968  0.43598156  0.55585768  1
  B  B172  1  0.07127968  0.68598156  0.05585768  1
  B  B173  1  0.07127968  0.68598156  0.55585768  1
  B  B174  1  0.07127968  0.93598156  0.05585768  1
  B  B175  1  0.07127968  0.93598156  0.55585768  1
  B  B176  1  0.40461301  0.18598156  0.05585768  1
  B  B177  1  0.40461301  0.18598156  0.55585768  1
  B  B178  1  0.40461301  0.43598156  0.05585768  1
  B  B179  1  0.40461301  0.43598156  0.55585768  1
  B  B180  1  0.40461301  0.68598156  0.05585768  1
  B  B181  1  0.40461301  0.68598156  0.55585768  1
  B  B182  1  0.40461301  0.93598156  0.05585768  1
  B  B183  1  0.40461301  0.93598156  0.55585768  1
  B  B184  1  0.73794635  0.18598156  0.05585768  1
  B  B185  1  0.73794635  0.18598156  0.55585768  1
  B  B186  1  0.73794635  0.43598156  0.05585768  1
  B  B187  1  0.73794635  0.43598156  0.55585768  1
  B  B188  1  0.73794635  0.68598156  0.05585768  1
  B  B189  1  0.73794635  0.68598156  0.55585768  1
  B  B190  1  0.73794635  0.93598156  0.05585768  1
  B  B191  1  0.73794635  0.93598156  0.55585768  1
  O  O192  1  0.07927997  0.11771988  0.06675962  1
  O  O193  1  0.07927997  0.11771988  0.56675962  1
  O  O194  1  0.07927997  0.36771988  0.06675962  1
  O  O195  1  0.07927997  0.36771988  0.56675962  1
  O  O196  1  0.07927997  0.61771988  0.06675962  1
  O  O197  1  0.07927997  0.61771988  0.56675962  1
  O  O198  1  0.07927997  0.86771988  0.06675962  1
  O  O199  1  0.07927997  0.86771988  0.56675962  1
  O  O200  1  0.41261330  0.11771988  0.06675962  1
  O  O201  1  0.41261330  0.11771988  0.56675962  1
  O  O202  1  0.41261330  0.36771988  0.06675962  1
  O  O203  1  0.41261330  0.36771988  0.56675962  1
  O  O204  1  0.41261330  0.61771988  0.06675962  1
  O  O205  1  0.41261330  0.61771988  0.56675962  1
  O  O206  1  0.41261330  0.86771988  0.06675962  1
  O  O207  1  0.41261330  0.86771988  0.56675962  1
  O  O208  1  0.74594663  0.11771988  0.06675962  1
  O  O209  1  0.74594663  0.11771988  0.56675962  1
  O  O210  1  0.74594663  0.36771988  0.06675962  1
  O  O211  1  0.74594663  0.36771988  0.56675962  1
  O  O212  1  0.74594663  0.61771988  0.06675962  1
  O  O213  1  0.74594663  0.61771988  0.56675962  1
  O  O214  1  0.74594663  0.86771988  0.06675962  1
  O  O215  1  0.74594663  0.86771988  0.56675962  1
  O  O216  1  0.25405337  0.24271988  0.18324038  1
  O  O217  1  0.25405337  0.24271988  0.68324038  1
  O  O218  1  0.25405337  0.49271988  0.18324038  1
  O  O219  1  0.25405337  0.49271988  0.68324038  1
  O  O220  1  0.25405337  0.74271988  0.18324038  1
  O  O221  1  0.25405337  0.74271988  0.68324038  1
  O  O222  1  0.25405337  0.99271988  0.18324038  1
  O  O223  1  0.25405337  0.99271988  0.68324038  1
  O  O224  1  0.58738670  0.24271988  0.18324038  1
  O  O225  1  0.58738670  0.24271988  0.68324038  1
  O  O226  1  0.58738670  0.49271988  0.18324038  1
  O  O227  1  0.58738670  0.49271988  0.68324038  1
  O  O228  1  0.58738670  0.74271988  0.18324038  1
  O  O229  1  0.58738670  0.74271988  0.68324038  1
  O  O230  1  0.58738670  0.99271988  0.18324038  1
  O  O231  1  0.58738670  0.99271988  0.68324038  1
  O  O232  1  0.92072003  0.24271988  0.18324038  1
  O  O233  1  0.92072003  0.24271988  0.68324038  1
  O  O234  1  0.92072003  0.49271988  0.18324038  1
  O  O235  1  0.92072003  0.49271988  0.68324038  1
  O  O236  1  0.92072003  0.74271988  0.18324038  1
  O  O237  1  0.92072003  0.74271988  0.68324038  1
  O  O238  1  0.92072003  0.99271988  0.18324038  1
  O  O239  1  0.92072003  0.99271988  0.68324038  1
  O  O240  1  0.25405337  0.13228012  0.43324038  1
  O  O241  1  0.25405337  0.13228012  0.93324038  1
  O  O242  1  0.25405337  0.38228012  0.43324038  1
  O  O243  1  0.25405337  0.38228012  0.93324038  1
  O  O244  1  0.25405337  0.63228012  0.43324038  1
  O  O245  1  0.25405337  0.63228012  0.93324038  1
  O  O246  1  0.25405337  0.88228012  0.43324038  1
  O  O247  1  0.25405337  0.88228012  0.93324038  1
  O  O248  1  0.58738670  0.13228012  0.43324038  1
  O  O249  1  0.58738670  0.13228012  0.93324038  1
  O  O250  1  0.58738670  0.38228012  0.43324038  1
  O  O251  1  0.58738670  0.38228012  0.93324038  1
  O  O252  1  0.58738670  0.63228012  0.43324038  1
  O  O253  1  0.58738670  0.63228012  0.93324038  1
  O  O254  1  0.58738670  0.88228012  0.43324038  1
  O  O255  1  0.58738670  0.88228012  0.93324038  1
  O  O256  1  0.92072003  0.13228012  0.43324038  1
  O  O257  1  0.92072003  0.13228012  0.93324038  1
  O  O258  1  0.92072003  0.38228012  0.43324038  1
  O  O259  1  0.92072003  0.38228012  0.93324038  1
  O  O260  1  0.92072003  0.63228012  0.43324038  1
  O  O261  1  0.92072003  0.63228012  0.93324038  1
  O  O262  1  0.92072003  0.88228012  0.43324038  1
  O  O263  1  0.92072003  0.88228012  0.93324038  1
  O  O264  1  0.07927997  0.00728012  0.31675962  1
  O  O265  1  0.07927997  0.00728012  0.81675962  1
  O  O266  1  0.07927997  0.25728012  0.31675962  1
  O  O267  1  0.07927997  0.25728012  0.81675962  1
  O  O268  1  0.07927997  0.50728012  0.31675962  1
  O  O269  1  0.07927997  0.50728012  0.81675962  1
  O  O270  1  0.07927997  0.75728012  0.31675962  1
  O  O271  1  0.07927997  0.75728012  0.81675962  1
  O  O272  1  0.41261330  0.00728012  0.31675962  1
  O  O273  1  0.41261330  0.00728012  0.81675962  1
  O  O274  1  0.41261330  0.25728012  0.31675962  1
  O  O275  1  0.41261330  0.25728012  0.81675962  1
  O  O276  1  0.41261330  0.50728012  0.31675962  1
  O  O277  1  0.41261330  0.50728012  0.81675962  1
  O  O278  1  0.41261330  0.75728012  0.31675962  1
  O  O279  1  0.41261330  0.75728012  0.81675962  1
  O  O280  1  0.74594663  0.00728012  0.31675962  1
  O  O281  1  0.74594663  0.00728012  0.81675962  1
  O  O282  1  0.74594663  0.25728012  0.31675962  1
  O  O283  1  0.74594663  0.25728012  0.81675962  1
  O  O284  1  0.74594663  0.50728012  0.31675962  1
  O  O285  1  0.74594663  0.50728012  0.81675962  1
  O  O286  1  0.74594663  0.75728012  0.31675962  1
  O  O287  1  0.74594663  0.75728012  0.81675962  1
  O  O288  1  0.02577028  0.22149526  0.08716548  1
  O  O289  1  0.02577028  0.22149526  0.58716548  1
  O  O290  1  0.02577028  0.47149526  0.08716548  1
  O  O291  1  0.02577028  0.47149526  0.58716548  1
  O  O292  1  0.02577028  0.72149526  0.08716548  1
  O  O293  1  0.02577028  0.72149526  0.58716548  1
  O  O294  1  0.02577028  0.97149526  0.08716548  1
  O  O295  1  0.02577028  0.97149526  0.58716548  1
  O  O296  1  0.35910362  0.22149526  0.08716548  1
  O  O297  1  0.35910362  0.22149526  0.58716548  1
  O  O298  1  0.35910362  0.47149526  0.08716548  1
  O  O299  1  0.35910362  0.47149526  0.58716548  1
  O  O300  1  0.35910362  0.72149526  0.08716548  1
  O  O301  1  0.35910362  0.72149526  0.58716548  1
  O  O302  1  0.35910362  0.97149526  0.08716548  1
  O  O303  1  0.35910362  0.97149526  0.58716548  1
  O  O304  1  0.69243695  0.22149526  0.08716548  1
  O  O305  1  0.69243695  0.22149526  0.58716548  1
  O  O306  1  0.69243695  0.47149526  0.08716548  1
  O  O307  1  0.69243695  0.47149526  0.58716548  1
  O  O308  1  0.69243695  0.72149526  0.08716548  1
  O  O309  1  0.69243695  0.72149526  0.58716548  1
  O  O310  1  0.69243695  0.97149526  0.08716548  1
  O  O311  1  0.69243695  0.97149526  0.58716548  1
  O  O312  1  0.30756305  0.09649526  0.16283452  1
  O  O313  1  0.30756305  0.09649526  0.66283452  1
  O  O314  1  0.30756305  0.34649526  0.16283452  1
  O  O315  1  0.30756305  0.34649526  0.66283452  1
  O  O316  1  0.30756305  0.59649526  0.16283452  1
  O  O317  1  0.30756305  0.59649526  0.66283452  1
  O  O318  1  0.30756305  0.84649526  0.16283452  1
  O  O319  1  0.30756305  0.84649526  0.66283452  1
  O  O320  1  0.64089638  0.09649526  0.16283452  1
  O  O321  1  0.64089638  0.09649526  0.66283452  1
  O  O322  1  0.64089638  0.34649526  0.16283452  1
  O  O323  1  0.64089638  0.34649526  0.66283452  1
  O  O324  1  0.64089638  0.59649526  0.16283452  1
  O  O325  1  0.64089638  0.59649526  0.66283452  1
  O  O326  1  0.64089638  0.84649526  0.16283452  1
  O  O327  1  0.64089638  0.84649526  0.66283452  1
  O  O328  1  0.97422972  0.09649526  0.16283452  1
  O  O329  1  0.97422972  0.09649526  0.66283452  1
  O  O330  1  0.97422972  0.34649526  0.16283452  1
  O  O331  1  0.97422972  0.34649526  0.66283452  1
  O  O332  1  0.97422972  0.59649526  0.16283452  1
  O  O333  1  0.97422972  0.59649526  0.66283452  1
  O  O334  1  0.97422972  0.84649526  0.16283452  1
  O  O335  1  0.97422972  0.84649526  0.66283452  1
  O  O336  1  0.30756305  0.02850474  0.41283452  1
  O  O337  1  0.30756305  0.02850474  0.91283452  1
  O  O338  1  0.30756305  0.27850474  0.41283452  1
  O  O339  1  0.30756305  0.27850474  0.91283452  1
  O  O340  1  0.30756305  0.52850474  0.41283452  1
  O  O341  1  0.30756305  0.52850474  0.91283452  1
  O  O342  1  0.30756305  0.77850474  0.41283452  1
  O  O343  1  0.30756305  0.77850474  0.91283452  1
  O  O344  1  0.64089638  0.02850474  0.41283452  1
  O  O345  1  0.64089638  0.02850474  0.91283452  1
  O  O346  1  0.64089638  0.27850474  0.41283452  1
  O  O347  1  0.64089638  0.27850474  0.91283452  1
  O  O348  1  0.64089638  0.52850474  0.41283452  1
  O  O349  1  0.64089638  0.52850474  0.91283452  1
  O  O350  1  0.64089638  0.77850474  0.41283452  1
  O  O351  1  0.64089638  0.77850474  0.91283452  1
  O  O352  1  0.97422972  0.02850474  0.41283452  1
  O  O353  1  0.97422972  0.02850474  0.91283452  1
  O  O354  1  0.97422972  0.27850474  0.41283452  1
  O  O355  1  0.97422972  0.27850474  0.91283452  1
  O  O356  1  0.97422972  0.52850474  0.41283452  1
  O  O357  1  0.97422972  0.52850474  0.91283452  1
  O  O358  1  0.97422972  0.77850474  0.41283452  1
  O  O359  1  0.97422972  0.77850474  0.91283452  1
  O  O360  1  0.02577028  0.15350474  0.33716548  1
  O  O361  1  0.02577028  0.15350474  0.83716548  1
  O  O362  1  0.02577028  0.40350474  0.33716548  1
  O  O363  1  0.02577028  0.40350474  0.83716548  1
  O  O364  1  0.02577028  0.65350474  0.33716548  1
  O  O365  1  0.02577028  0.65350474  0.83716548  1
  O  O366  1  0.02577028  0.90350474  0.33716548  1
  O  O367  1  0.02577028  0.90350474  0.83716548  1
  O  O368  1  0.35910362  0.15350474  0.33716548  1
  O  O369  1  0.35910362  0.15350474  0.83716548  1
  O  O370  1  0.35910362  0.40350474  0.33716548  1
  O  O371  1  0.35910362  0.40350474  0.83716548  1
  O  O372  1  0.35910362  0.65350474  0.33716548  1
  O  O373  1  0.35910362  0.65350474  0.83716548  1
  O  O374  1  0.35910362  0.90350474  0.33716548  1
  O  O375  1  0.35910362  0.90350474  0.83716548  1
  O  O376  1  0.69243695  0.15350474  0.33716548  1
  O  O377  1  0.69243695  0.15350474  0.83716548  1
  O  O378  1  0.69243695  0.40350474  0.33716548  1
  O  O379  1  0.69243695  0.40350474  0.83716548  1
  O  O380  1  0.69243695  0.65350474  0.33716548  1
  O  O381  1  0.69243695  0.65350474  0.83716548  1
  O  O382  1  0.69243695  0.90350474  0.33716548  1
  O  O383  1  0.69243695  0.90350474  0.83716548  1
  O  O384  1  0.11330425  0.21785821  0.01642682  1
  O  O385  1  0.11330425  0.21785821  0.51642682  1
  O  O386  1  0.11330425  0.46785821  0.01642682  1
  O  O387  1  0.11330425  0.46785821  0.51642682  1
  O  O388  1  0.11330425  0.71785821  0.01642682  1
  O  O389  1  0.11330425  0.71785821  0.51642682  1
  O  O390  1  0.11330425  0.96785821  0.01642682  1
  O  O391  1  0.11330425  0.96785821  0.51642682  1
  O  O392  1  0.44663758  0.21785821  0.01642682  1
  O  O393  1  0.44663758  0.21785821  0.51642682  1
  O  O394  1  0.44663758  0.46785821  0.01642682  1
  O  O395  1  0.44663758  0.46785821  0.51642682  1
  O  O396  1  0.44663758  0.71785821  0.01642682  1
  O  O397  1  0.44663758  0.71785821  0.51642682  1
  O  O398  1  0.44663758  0.96785821  0.01642682  1
  O  O399  1  0.44663758  0.96785821  0.51642682  1
  O  O400  1  0.77997091  0.21785821  0.01642682  1
  O  O401  1  0.77997091  0.21785821  0.51642682  1
  O  O402  1  0.77997091  0.46785821  0.01642682  1
  O  O403  1  0.77997091  0.46785821  0.51642682  1
  O  O404  1  0.77997091  0.71785821  0.01642682  1
  O  O405  1  0.77997091  0.71785821  0.51642682  1
  O  O406  1  0.77997091  0.96785821  0.01642682  1
  O  O407  1  0.77997091  0.96785821  0.51642682  1
  O  O408  1  0.22002909  0.09285821  0.23357318  1
  O  O409  1  0.22002909  0.09285821  0.73357318  1
  O  O410  1  0.22002909  0.34285821  0.23357318  1
  O  O411  1  0.22002909  0.34285821  0.73357318  1
  O  O412  1  0.22002909  0.59285821  0.23357318  1
  O  O413  1  0.22002909  0.59285821  0.73357318  1
  O  O414  1  0.22002909  0.84285821  0.23357318  1
  O  O415  1  0.22002909  0.84285821  0.73357318  1
  O  O416  1  0.55336242  0.09285821  0.23357318  1
  O  O417  1  0.55336242  0.09285821  0.73357318  1
  O  O418  1  0.55336242  0.34285821  0.23357318  1
  O  O419  1  0.55336242  0.34285821  0.73357318  1
  O  O420  1  0.55336242  0.59285821  0.23357318  1
  O  O421  1  0.55336242  0.59285821  0.73357318  1
  O  O422  1  0.55336242  0.84285821  0.23357318  1
  O  O423  1  0.55336242  0.84285821  0.73357318  1
  O  O424  1  0.88669575  0.09285821  0.23357318  1
  O  O425  1  0.88669575  0.09285821  0.73357318  1
  O  O426  1  0.88669575  0.34285821  0.23357318  1
  O  O427  1  0.88669575  0.34285821  0.73357318  1
  O  O428  1  0.88669575  0.59285821  0.23357318  1
  O  O429  1  0.88669575  0.59285821  0.73357318  1
  O  O430  1  0.88669575  0.84285821  0.23357318  1
  O  O431  1  0.88669575  0.84285821  0.73357318  1
  O  O432  1  0.22002909  0.03214179  0.48357318  1
  O  O433  1  0.22002909  0.03214179  0.98357318  1
  O  O434  1  0.22002909  0.28214179  0.48357318  1
  O  O435  1  0.22002909  0.28214179  0.98357318  1
  O  O436  1  0.22002909  0.53214179  0.48357318  1
  O  O437  1  0.22002909  0.53214179  0.98357318  1
  O  O438  1  0.22002909  0.78214179  0.48357318  1
  O  O439  1  0.22002909  0.78214179  0.98357318  1
  O  O440  1  0.55336242  0.03214179  0.48357318  1
  O  O441  1  0.55336242  0.03214179  0.98357318  1
  O  O442  1  0.55336242  0.28214179  0.48357318  1
  O  O443  1  0.55336242  0.28214179  0.98357318  1
  O  O444  1  0.55336242  0.53214179  0.48357318  1
  O  O445  1  0.55336242  0.53214179  0.98357318  1
  O  O446  1  0.55336242  0.78214179  0.48357318  1
  O  O447  1  0.55336242  0.78214179  0.98357318  1
  O  O448  1  0.88669575  0.03214179  0.48357318  1
  O  O449  1  0.88669575  0.03214179  0.98357318  1
  O  O450  1  0.88669575  0.28214179  0.48357318  1
  O  O451  1  0.88669575  0.28214179  0.98357318  1
  O  O452  1  0.88669575  0.53214179  0.48357318  1
  O  O453  1  0.88669575  0.53214179  0.98357318  1
  O  O454  1  0.88669575  0.78214179  0.48357318  1
  O  O455  1  0.88669575  0.78214179  0.98357318  1
  O  O456  1  0.11330425  0.15714179  0.26642682  1
  O  O457  1  0.11330425  0.15714179  0.76642682  1
  O  O458  1  0.11330425  0.40714179  0.26642682  1
  O  O459  1  0.11330425  0.40714179  0.76642682  1
  O  O460  1  0.11330425  0.65714179  0.26642682  1
  O  O461  1  0.11330425  0.65714179  0.76642682  1
  O  O462  1  0.11330425  0.90714179  0.26642682  1
  O  O463  1  0.11330425  0.90714179  0.76642682  1
  O  O464  1  0.44663758  0.15714179  0.26642682  1
  O  O465  1  0.44663758  0.15714179  0.76642682  1
  O  O466  1  0.44663758  0.40714179  0.26642682  1
  O  O467  1  0.44663758  0.40714179  0.76642682  1
  O  O468  1  0.44663758  0.65714179  0.26642682  1
  O  O469  1  0.44663758  0.65714179  0.76642682  1
  O  O470  1  0.44663758  0.90714179  0.26642682  1
  O  O471  1  0.44663758  0.90714179  0.76642682  1
  O  O472  1  0.77997091  0.15714179  0.26642682  1
  O  O473  1  0.77997091  0.15714179  0.76642682  1
  O  O474  1  0.77997091  0.40714179  0.26642682  1
  O  O475  1  0.77997091  0.40714179  0.76642682  1
  O  O476  1  0.77997091  0.65714179  0.26642682  1
  O  O477  1  0.77997091  0.65714179  0.76642682  1
  O  O478  1  0.77997091  0.90714179  0.26642682  1
  O  O479  1  0.77997091  0.90714179  0.76642682  1
