# generated using pymatgen
data_Cs3GaO3
_symmetry_space_group_name_H-M   'P 1'
_cell_length_a   16.08884095
_cell_length_b   14.07127022
_cell_length_c   11.26304675
_cell_angle_alpha   90.00000000
_cell_angle_beta   96.49854847
_cell_angle_gamma   90.00000000
_symmetry_Int_Tables_number   1
_chemical_formula_structural   Cs3GaO3
_chemical_formula_sum   'Cs48 Ga16 O48'
_cell_volume   2533.46251418
_cell_formula_units_Z   16
loop_
 _symmetry_equiv_pos_site_id
 _symmetry_equiv_pos_as_xyz
  1  'x, y, z'
loop_
 _atom_site_type_symbol
 _atom_site_label
 _atom_site_symmetry_multiplicity
 _atom_site_fract_x
 _atom_site_fract_y
 _atom_site_fract_z
 _atom_site_occupancy
  Cs  Cs0  1  0.32837096  0.41635211  0.56893927  1
  Cs  Cs1  1  0.32837096  0.91635211  0.56893927  1
  Cs  Cs2  1  0.82837096  0.41635211  0.56893927  1
  Cs  Cs3  1  0.82837096  0.91635211  0.56893927  1
  Cs  Cs4  1  0.02047036  0.06155536  0.65504018  1
  Cs  Cs5  1  0.02047036  0.56155536  0.65504018  1
  Cs  Cs6  1  0.52047036  0.06155536  0.65504018  1
  Cs  Cs7  1  0.52047036  0.56155536  0.65504018  1
  Cs  Cs8  1  0.31394500  0.16248343  0.69813564  1
  Cs  Cs9  1  0.31394500  0.66248343  0.69813564  1
  Cs  Cs10  1  0.81394500  0.16248343  0.69813564  1
  Cs  Cs11  1  0.81394500  0.66248343  0.69813564  1
  Cs  Cs12  1  0.18605500  0.41248343  0.80186436  1
  Cs  Cs13  1  0.18605500  0.91248343  0.80186436  1
  Cs  Cs14  1  0.68605500  0.41248343  0.80186436  1
  Cs  Cs15  1  0.68605500  0.91248343  0.80186436  1
  Cs  Cs16  1  0.47952964  0.31155536  0.84495982  1
  Cs  Cs17  1  0.47952964  0.81155536  0.84495982  1
  Cs  Cs18  1  0.97952964  0.31155536  0.84495982  1
  Cs  Cs19  1  0.97952964  0.81155536  0.84495982  1
  Cs  Cs20  1  0.17162904  0.16635211  0.93106073  1
  Cs  Cs21  1  0.17162904  0.66635211  0.93106073  1
  Cs  Cs22  1  0.67162904  0.16635211  0.93106073  1
  Cs  Cs23  1  0.67162904  0.66635211  0.93106073  1
  Cs  Cs24  1  0.32837096  0.33364789  0.06893927  1
  Cs  Cs25  1  0.32837096  0.83364789  0.06893927  1
  Cs  Cs26  1  0.82837096  0.33364789  0.06893927  1
  Cs  Cs27  1  0.82837096  0.83364789  0.06893927  1
  Cs  Cs28  1  0.02047036  0.18844464  0.15504018  1
  Cs  Cs29  1  0.02047036  0.68844464  0.15504018  1
  Cs  Cs30  1  0.52047036  0.18844464  0.15504018  1
  Cs  Cs31  1  0.52047036  0.68844464  0.15504018  1
  Cs  Cs32  1  0.31394500  0.08751657  0.19813564  1
  Cs  Cs33  1  0.31394500  0.58751657  0.19813564  1
  Cs  Cs34  1  0.81394500  0.08751657  0.19813564  1
  Cs  Cs35  1  0.81394500  0.58751657  0.19813564  1
  Cs  Cs36  1  0.18605500  0.33751657  0.30186436  1
  Cs  Cs37  1  0.18605500  0.83751657  0.30186436  1
  Cs  Cs38  1  0.68605500  0.33751657  0.30186436  1
  Cs  Cs39  1  0.68605500  0.83751657  0.30186436  1
  Cs  Cs40  1  0.47952964  0.43844464  0.34495982  1
  Cs  Cs41  1  0.47952964  0.93844464  0.34495982  1
  Cs  Cs42  1  0.97952964  0.43844464  0.34495982  1
  Cs  Cs43  1  0.97952964  0.93844464  0.34495982  1
  Cs  Cs44  1  0.17162904  0.08364789  0.43106073  1
  Cs  Cs45  1  0.17162904  0.58364789  0.43106073  1
  Cs  Cs46  1  0.67162904  0.08364789  0.43106073  1
  Cs  Cs47  1  0.67162904  0.58364789  0.43106073  1
  Ga  Ga48  1  0.07460909  0.28750826  0.56301608  1
  Ga  Ga49  1  0.07460909  0.78750826  0.56301608  1
  Ga  Ga50  1  0.57460909  0.28750826  0.56301608  1
  Ga  Ga51  1  0.57460909  0.78750826  0.56301608  1
  Ga  Ga52  1  0.42539091  0.03750826  0.93698392  1
  Ga  Ga53  1  0.42539091  0.53750826  0.93698392  1
  Ga  Ga54  1  0.92539091  0.03750826  0.93698392  1
  Ga  Ga55  1  0.92539091  0.53750826  0.93698392  1
  Ga  Ga56  1  0.07460909  0.46249174  0.06301608  1
  Ga  Ga57  1  0.07460909  0.96249174  0.06301608  1
  Ga  Ga58  1  0.57460909  0.46249174  0.06301608  1
  Ga  Ga59  1  0.57460909  0.96249174  0.06301608  1
  Ga  Ga60  1  0.42539091  0.21249174  0.43698392  1
  Ga  Ga61  1  0.42539091  0.71249174  0.43698392  1
  Ga  Ga62  1  0.92539091  0.21249174  0.43698392  1
  Ga  Ga63  1  0.92539091  0.71249174  0.43698392  1
  O  O64  1  0.11883815  0.40603361  0.53708434  1
  O  O65  1  0.11883815  0.90603361  0.53708434  1
  O  O66  1  0.61883815  0.40603361  0.53708434  1
  O  O67  1  0.61883815  0.90603361  0.53708434  1
  O  O68  1  0.45586112  0.28079413  0.58524903  1
  O  O69  1  0.45586112  0.78079413  0.58524903  1
  O  O70  1  0.95586112  0.28079413  0.58524903  1
  O  O71  1  0.95586112  0.78079413  0.58524903  1
  O  O72  1  0.13926614  0.22135067  0.68102528  1
  O  O73  1  0.13926614  0.72135067  0.68102528  1
  O  O74  1  0.63926614  0.22135067  0.68102528  1
  O  O75  1  0.63926614  0.72135067  0.68102528  1
  O  O76  1  0.36073386  0.47135067  0.81897472  1
  O  O77  1  0.36073386  0.97135067  0.81897472  1
  O  O78  1  0.86073386  0.47135067  0.81897472  1
  O  O79  1  0.86073386  0.97135067  0.81897472  1
  O  O80  1  0.04413888  0.03079413  0.91475097  1
  O  O81  1  0.04413888  0.53079413  0.91475097  1
  O  O82  1  0.54413888  0.03079413  0.91475097  1
  O  O83  1  0.54413888  0.53079413  0.91475097  1
  O  O84  1  0.38116185  0.15603361  0.96291566  1
  O  O85  1  0.38116185  0.65603361  0.96291566  1
  O  O86  1  0.88116185  0.15603361  0.96291566  1
  O  O87  1  0.88116185  0.65603361  0.96291566  1
  O  O88  1  0.11883815  0.34396639  0.03708434  1
  O  O89  1  0.11883815  0.84396639  0.03708434  1
  O  O90  1  0.61883815  0.34396639  0.03708434  1
  O  O91  1  0.61883815  0.84396639  0.03708434  1
  O  O92  1  0.45586112  0.46920587  0.08524903  1
  O  O93  1  0.45586112  0.96920587  0.08524903  1
  O  O94  1  0.95586112  0.46920587  0.08524903  1
  O  O95  1  0.95586112  0.96920587  0.08524903  1
  O  O96  1  0.13926614  0.02864933  0.18102528  1
  O  O97  1  0.13926614  0.52864933  0.18102528  1
  O  O98  1  0.63926614  0.02864933  0.18102528  1
  O  O99  1  0.63926614  0.52864933  0.18102528  1
  O  O100  1  0.36073386  0.27864933  0.31897472  1
  O  O101  1  0.36073386  0.77864933  0.31897472  1
  O  O102  1  0.86073386  0.27864933  0.31897472  1
  O  O103  1  0.86073386  0.77864933  0.31897472  1
  O  O104  1  0.04413888  0.21920587  0.41475097  1
  O  O105  1  0.04413888  0.71920587  0.41475097  1
  O  O106  1  0.54413888  0.21920587  0.41475097  1
  O  O107  1  0.54413888  0.71920587  0.41475097  1
  O  O108  1  0.38116185  0.09396639  0.46291566  1
  O  O109  1  0.38116185  0.59396639  0.46291566  1
  O  O110  1  0.88116185  0.09396639  0.46291566  1
  O  O111  1  0.88116185  0.59396639  0.46291566  1
