# generated using pymatgen
data_Cu2PbO2
_symmetry_space_group_name_H-M   'P 1'
_cell_length_a   16.30903663
_cell_length_b   16.22685569
_cell_length_c   17.87385313
_cell_angle_alpha   90.00000000
_cell_angle_beta   132.70745690
_cell_angle_gamma   90.00000000
_symmetry_Int_Tables_number   1
_chemical_formula_structural   Cu2PbO2
_chemical_formula_sum   'Cu96 Pb48 O96'
_cell_volume   3475.88640964
_cell_formula_units_Z   48
loop_
 _symmetry_equiv_pos_site_id
 _symmetry_equiv_pos_as_xyz
  1  'x, y, z'
loop_
 _atom_site_type_symbol
 _atom_site_label
 _atom_site_symmetry_multiplicity
 _atom_site_fract_x
 _atom_site_fract_y
 _atom_site_fract_z
 _atom_site_occupancy
  Cu  Cu0  1  0.25000000  0.00000000  0.00000000  1
  Cu  Cu1  1  0.25000000  0.00000000  0.33333333  1
  Cu  Cu2  1  0.25000000  0.00000000  0.66666667  1
  Cu  Cu3  1  0.25000000  0.50000000  0.00000000  1
  Cu  Cu4  1  0.25000000  0.50000000  0.33333333  1
  Cu  Cu5  1  0.25000000  0.50000000  0.66666667  1
  Cu  Cu6  1  0.75000000  0.00000000  0.00000000  1
  Cu  Cu7  1  0.75000000  0.00000000  0.33333333  1
  Cu  Cu8  1  0.75000000  0.00000000  0.66666667  1
  Cu  Cu9  1  0.75000000  0.50000000  0.00000000  1
  Cu  Cu10  1  0.75000000  0.50000000  0.33333333  1
  Cu  Cu11  1  0.75000000  0.50000000  0.66666667  1
  Cu  Cu12  1  0.50000000  0.25000000  0.00000000  1
  Cu  Cu13  1  0.50000000  0.25000000  0.33333333  1
  Cu  Cu14  1  0.50000000  0.25000000  0.66666667  1
  Cu  Cu15  1  0.50000000  0.75000000  0.00000000  1
  Cu  Cu16  1  0.50000000  0.75000000  0.33333333  1
  Cu  Cu17  1  0.50000000  0.75000000  0.66666667  1
  Cu  Cu18  1  1.00000000  0.25000000  0.00000000  1
  Cu  Cu19  1  1.00000000  0.25000000  0.33333333  1
  Cu  Cu20  1  1.00000000  0.25000000  0.66666667  1
  Cu  Cu21  1  1.00000000  0.75000000  0.00000000  1
  Cu  Cu22  1  1.00000000  0.75000000  0.33333333  1
  Cu  Cu23  1  1.00000000  0.75000000  0.66666667  1
  Cu  Cu24  1  0.25000000  0.00000000  0.16666667  1
  Cu  Cu25  1  0.25000000  0.00000000  0.50000000  1
  Cu  Cu26  1  0.25000000  0.00000000  0.83333333  1
  Cu  Cu27  1  0.25000000  0.50000000  0.16666667  1
  Cu  Cu28  1  0.25000000  0.50000000  0.50000000  1
  Cu  Cu29  1  0.25000000  0.50000000  0.83333333  1
  Cu  Cu30  1  0.75000000  0.00000000  0.16666667  1
  Cu  Cu31  1  0.75000000  0.00000000  0.50000000  1
  Cu  Cu32  1  0.75000000  0.00000000  0.83333333  1
  Cu  Cu33  1  0.75000000  0.50000000  0.16666667  1
  Cu  Cu34  1  0.75000000  0.50000000  0.50000000  1
  Cu  Cu35  1  0.75000000  0.50000000  0.83333333  1
  Cu  Cu36  1  0.50000000  0.25000000  0.16666667  1
  Cu  Cu37  1  0.50000000  0.25000000  0.50000000  1
  Cu  Cu38  1  0.50000000  0.25000000  0.83333333  1
  Cu  Cu39  1  0.50000000  0.75000000  0.16666667  1
  Cu  Cu40  1  0.50000000  0.75000000  0.50000000  1
  Cu  Cu41  1  0.50000000  0.75000000  0.83333333  1
  Cu  Cu42  1  1.00000000  0.25000000  0.16666667  1
  Cu  Cu43  1  1.00000000  0.25000000  0.50000000  1
  Cu  Cu44  1  1.00000000  0.25000000  0.83333333  1
  Cu  Cu45  1  1.00000000  0.75000000  0.16666667  1
  Cu  Cu46  1  1.00000000  0.75000000  0.50000000  1
  Cu  Cu47  1  1.00000000  0.75000000  0.83333333  1
  Cu  Cu48  1  0.12500000  -0.12500000  0.16666667  1
  Cu  Cu49  1  0.12500000  -0.12500000  0.50000000  1
  Cu  Cu50  1  0.12500000  -0.12500000  0.83333333  1
  Cu  Cu51  1  0.12500000  0.37500000  0.16666667  1
  Cu  Cu52  1  0.12500000  0.37500000  0.50000000  1
  Cu  Cu53  1  0.12500000  0.37500000  0.83333333  1
  Cu  Cu54  1  0.62500000  -0.12500000  0.16666667  1
  Cu  Cu55  1  0.62500000  -0.12500000  0.50000000  1
  Cu  Cu56  1  0.62500000  -0.12500000  0.83333333  1
  Cu  Cu57  1  0.62500000  0.37500000  0.16666667  1
  Cu  Cu58  1  0.62500000  0.37500000  0.50000000  1
  Cu  Cu59  1  0.62500000  0.37500000  0.83333333  1
  Cu  Cu60  1  0.37500000  0.12500000  0.16666667  1
  Cu  Cu61  1  0.37500000  0.12500000  0.50000000  1
  Cu  Cu62  1  0.37500000  0.12500000  0.83333333  1
  Cu  Cu63  1  0.37500000  0.62500000  0.16666667  1
  Cu  Cu64  1  0.37500000  0.62500000  0.50000000  1
  Cu  Cu65  1  0.37500000  0.62500000  0.83333333  1
  Cu  Cu66  1  0.87500000  0.12500000  0.16666667  1
  Cu  Cu67  1  0.87500000  0.12500000  0.50000000  1
  Cu  Cu68  1  0.87500000  0.12500000  0.83333333  1
  Cu  Cu69  1  0.87500000  0.62500000  0.16666667  1
  Cu  Cu70  1  0.87500000  0.62500000  0.50000000  1
  Cu  Cu71  1  0.87500000  0.62500000  0.83333333  1
  Cu  Cu72  1  0.12500000  0.12500000  0.00000000  1
  Cu  Cu73  1  0.12500000  0.12500000  0.33333333  1
  Cu  Cu74  1  0.12500000  0.12500000  0.66666667  1
  Cu  Cu75  1  0.12500000  0.62500000  0.00000000  1
  Cu  Cu76  1  0.12500000  0.62500000  0.33333333  1
  Cu  Cu77  1  0.12500000  0.62500000  0.66666667  1
  Cu  Cu78  1  0.62500000  0.12500000  0.00000000  1
  Cu  Cu79  1  0.62500000  0.12500000  0.33333333  1
  Cu  Cu80  1  0.62500000  0.12500000  0.66666667  1
  Cu  Cu81  1  0.62500000  0.62500000  0.00000000  1
  Cu  Cu82  1  0.62500000  0.62500000  0.33333333  1
  Cu  Cu83  1  0.62500000  0.62500000  0.66666667  1
  Cu  Cu84  1  0.37500000  0.37500000  0.00000000  1
  Cu  Cu85  1  0.37500000  0.37500000  0.33333333  1
  Cu  Cu86  1  0.37500000  0.37500000  0.66666667  1
  Cu  Cu87  1  0.37500000  0.87500000  0.00000000  1
  Cu  Cu88  1  0.37500000  0.87500000  0.33333333  1
  Cu  Cu89  1  0.37500000  0.87500000  0.66666667  1
  Cu  Cu90  1  0.87500000  0.37500000  0.00000000  1
  Cu  Cu91  1  0.87500000  0.37500000  0.33333333  1
  Cu  Cu92  1  0.87500000  0.37500000  0.66666667  1
  Cu  Cu93  1  0.87500000  0.87500000  0.00000000  1
  Cu  Cu94  1  0.87500000  0.87500000  0.33333333  1
  Cu  Cu95  1  0.87500000  0.87500000  0.66666667  1
  Pb  Pb96  1  0.25000000  0.18403894  0.25000000  1
  Pb  Pb97  1  0.25000000  0.18403894  0.58333333  1
  Pb  Pb98  1  0.25000000  0.18403894  0.91666667  1
  Pb  Pb99  1  0.25000000  0.68403894  0.25000000  1
  Pb  Pb100  1  0.25000000  0.68403894  0.58333333  1
  Pb  Pb101  1  0.25000000  0.68403894  0.91666667  1
  Pb  Pb102  1  0.75000000  0.18403894  0.25000000  1
  Pb  Pb103  1  0.75000000  0.18403894  0.58333333  1
  Pb  Pb104  1  0.75000000  0.18403894  0.91666667  1
  Pb  Pb105  1  0.75000000  0.68403894  0.25000000  1
  Pb  Pb106  1  0.75000000  0.68403894  0.58333333  1
  Pb  Pb107  1  0.75000000  0.68403894  0.91666667  1
  Pb  Pb108  1  0.50000000  0.43403894  0.25000000  1
  Pb  Pb109  1  0.50000000  0.43403894  0.58333333  1
  Pb  Pb110  1  0.50000000  0.43403894  0.91666667  1
  Pb  Pb111  1  0.50000000  0.93403894  0.25000000  1
  Pb  Pb112  1  0.50000000  0.93403894  0.58333333  1
  Pb  Pb113  1  0.50000000  0.93403894  0.91666667  1
  Pb  Pb114  1  1.00000000  0.43403894  0.25000000  1
  Pb  Pb115  1  1.00000000  0.43403894  0.58333333  1
  Pb  Pb116  1  1.00000000  0.43403894  0.91666667  1
  Pb  Pb117  1  1.00000000  0.93403894  0.25000000  1
  Pb  Pb118  1  1.00000000  0.93403894  0.58333333  1
  Pb  Pb119  1  1.00000000  0.93403894  0.91666667  1
  Pb  Pb120  1  0.25000000  -0.18403894  0.08333333  1
  Pb  Pb121  1  0.25000000  -0.18403894  0.41666667  1
  Pb  Pb122  1  0.25000000  -0.18403894  0.75000000  1
  Pb  Pb123  1  0.25000000  0.31596106  0.08333333  1
  Pb  Pb124  1  0.25000000  0.31596106  0.41666667  1
  Pb  Pb125  1  0.25000000  0.31596106  0.75000000  1
  Pb  Pb126  1  0.75000000  -0.18403894  0.08333333  1
  Pb  Pb127  1  0.75000000  -0.18403894  0.41666667  1
  Pb  Pb128  1  0.75000000  -0.18403894  0.75000000  1
  Pb  Pb129  1  0.75000000  0.31596106  0.08333333  1
  Pb  Pb130  1  0.75000000  0.31596106  0.41666667  1
  Pb  Pb131  1  0.75000000  0.31596106  0.75000000  1
  Pb  Pb132  1  0.50000000  0.06596106  0.08333333  1
  Pb  Pb133  1  0.50000000  0.06596106  0.41666667  1
  Pb  Pb134  1  0.50000000  0.06596106  0.75000000  1
  Pb  Pb135  1  0.50000000  0.56596106  0.08333333  1
  Pb  Pb136  1  0.50000000  0.56596106  0.41666667  1
  Pb  Pb137  1  0.50000000  0.56596106  0.75000000  1
  Pb  Pb138  1  1.00000000  0.06596106  0.08333333  1
  Pb  Pb139  1  1.00000000  0.06596106  0.41666667  1
  Pb  Pb140  1  1.00000000  0.06596106  0.75000000  1
  Pb  Pb141  1  1.00000000  0.56596106  0.08333333  1
  Pb  Pb142  1  1.00000000  0.56596106  0.41666667  1
  Pb  Pb143  1  1.00000000  0.56596106  0.75000000  1
  O  O144  1  0.39310772  0.03399090  0.23726568  1
  O  O145  1  0.39310772  0.03399090  0.57059902  1
  O  O146  1  0.39310772  0.03399090  0.90393235  1
  O  O147  1  0.39310772  0.53399090  0.23726568  1
  O  O148  1  0.39310772  0.53399090  0.57059902  1
  O  O149  1  0.39310772  0.53399090  0.90393235  1
  O  O150  1  0.89310772  0.03399090  0.23726568  1
  O  O151  1  0.89310772  0.03399090  0.57059902  1
  O  O152  1  0.89310772  0.03399090  0.90393235  1
  O  O153  1  0.89310772  0.53399090  0.23726568  1
  O  O154  1  0.89310772  0.53399090  0.57059902  1
  O  O155  1  0.89310772  0.53399090  0.90393235  1
  O  O156  1  0.64310772  0.28399090  0.23726568  1
  O  O157  1  0.64310772  0.28399090  0.57059902  1
  O  O158  1  0.64310772  0.28399090  0.90393235  1
  O  O159  1  0.64310772  0.78399090  0.23726568  1
  O  O160  1  0.64310772  0.78399090  0.57059902  1
  O  O161  1  0.64310772  0.78399090  0.90393235  1
  O  O162  1  1.14310772  0.28399090  0.23726568  1
  O  O163  1  1.14310772  0.28399090  0.57059902  1
  O  O164  1  1.14310772  0.28399090  0.90393235  1
  O  O165  1  1.14310772  0.78399090  0.23726568  1
  O  O166  1  1.14310772  0.78399090  0.57059902  1
  O  O167  1  1.14310772  0.78399090  0.90393235  1
  O  O168  1  0.10689228  0.03399090  0.26273432  1
  O  O169  1  0.10689228  0.03399090  0.59606765  1
  O  O170  1  0.10689228  0.03399090  0.92940098  1
  O  O171  1  0.10689228  0.53399090  0.26273432  1
  O  O172  1  0.10689228  0.53399090  0.59606765  1
  O  O173  1  0.10689228  0.53399090  0.92940098  1
  O  O174  1  0.60689228  0.03399090  0.26273432  1
  O  O175  1  0.60689228  0.03399090  0.59606765  1
  O  O176  1  0.60689228  0.03399090  0.92940098  1
  O  O177  1  0.60689228  0.53399090  0.26273432  1
  O  O178  1  0.60689228  0.53399090  0.59606765  1
  O  O179  1  0.60689228  0.53399090  0.92940098  1
  O  O180  1  0.35689228  0.28399090  0.26273432  1
  O  O181  1  0.35689228  0.28399090  0.59606765  1
  O  O182  1  0.35689228  0.28399090  0.92940098  1
  O  O183  1  0.35689228  0.78399090  0.26273432  1
  O  O184  1  0.35689228  0.78399090  0.59606765  1
  O  O185  1  0.35689228  0.78399090  0.92940098  1
  O  O186  1  0.85689228  0.28399090  0.26273432  1
  O  O187  1  0.85689228  0.28399090  0.59606765  1
  O  O188  1  0.85689228  0.28399090  0.92940098  1
  O  O189  1  0.85689228  0.78399090  0.26273432  1
  O  O190  1  0.85689228  0.78399090  0.59606765  1
  O  O191  1  0.85689228  0.78399090  0.92940098  1
  O  O192  1  0.10689228  -0.03399090  0.09606765  1
  O  O193  1  0.10689228  -0.03399090  0.42940098  1
  O  O194  1  0.10689228  -0.03399090  0.76273432  1
  O  O195  1  0.10689228  0.46600910  0.09606765  1
  O  O196  1  0.10689228  0.46600910  0.42940098  1
  O  O197  1  0.10689228  0.46600910  0.76273432  1
  O  O198  1  0.60689228  -0.03399090  0.09606765  1
  O  O199  1  0.60689228  -0.03399090  0.42940098  1
  O  O200  1  0.60689228  -0.03399090  0.76273432  1
  O  O201  1  0.60689228  0.46600910  0.09606765  1
  O  O202  1  0.60689228  0.46600910  0.42940098  1
  O  O203  1  0.60689228  0.46600910  0.76273432  1
  O  O204  1  0.35689228  0.21600910  0.09606765  1
  O  O205  1  0.35689228  0.21600910  0.42940098  1
  O  O206  1  0.35689228  0.21600910  0.76273432  1
  O  O207  1  0.35689228  0.71600910  0.09606765  1
  O  O208  1  0.35689228  0.71600910  0.42940098  1
  O  O209  1  0.35689228  0.71600910  0.76273432  1
  O  O210  1  0.85689228  0.21600910  0.09606765  1
  O  O211  1  0.85689228  0.21600910  0.42940098  1
  O  O212  1  0.85689228  0.21600910  0.76273432  1
  O  O213  1  0.85689228  0.71600910  0.09606765  1
  O  O214  1  0.85689228  0.71600910  0.42940098  1
  O  O215  1  0.85689228  0.71600910  0.76273432  1
  O  O216  1  0.39310772  -0.03399090  0.07059902  1
  O  O217  1  0.39310772  -0.03399090  0.40393235  1
  O  O218  1  0.39310772  -0.03399090  0.73726568  1
  O  O219  1  0.39310772  0.46600910  0.07059902  1
  O  O220  1  0.39310772  0.46600910  0.40393235  1
  O  O221  1  0.39310772  0.46600910  0.73726568  1
  O  O222  1  0.89310772  -0.03399090  0.07059902  1
  O  O223  1  0.89310772  -0.03399090  0.40393235  1
  O  O224  1  0.89310772  -0.03399090  0.73726568  1
  O  O225  1  0.89310772  0.46600910  0.07059902  1
  O  O226  1  0.89310772  0.46600910  0.40393235  1
  O  O227  1  0.89310772  0.46600910  0.73726568  1
  O  O228  1  0.64310772  0.21600910  0.07059902  1
  O  O229  1  0.64310772  0.21600910  0.40393235  1
  O  O230  1  0.64310772  0.21600910  0.73726568  1
  O  O231  1  0.64310772  0.71600910  0.07059902  1
  O  O232  1  0.64310772  0.71600910  0.40393235  1
  O  O233  1  0.64310772  0.71600910  0.73726568  1
  O  O234  1  1.14310772  0.21600910  0.07059902  1
  O  O235  1  1.14310772  0.21600910  0.40393235  1
  O  O236  1  1.14310772  0.21600910  0.73726568  1
  O  O237  1  1.14310772  0.71600910  0.07059902  1
  O  O238  1  1.14310772  0.71600910  0.40393235  1
  O  O239  1  1.14310772  0.71600910  0.73726568  1
