# generated using pymatgen
data_BaGa4O7
_symmetry_space_group_name_H-M   'P 1'
_cell_length_a   13.69034223
_cell_length_b   18.80568110
_cell_length_c   17.37094883
_cell_angle_alpha   90.00000000
_cell_angle_beta   104.67275882
_cell_angle_gamma   90.00000000
_symmetry_Int_Tables_number   1
_chemical_formula_structural   BaGa4O7
_chemical_formula_sum   'Ba24 Ga96 O168'
_cell_volume   4326.41066014
_cell_formula_units_Z   24
loop_
 _symmetry_equiv_pos_site_id
 _symmetry_equiv_pos_as_xyz
  1  'x, y, z'
loop_
 _atom_site_type_symbol
 _atom_site_label
 _atom_site_symmetry_multiplicity
 _atom_site_fract_x
 _atom_site_fract_y
 _atom_site_fract_z
 _atom_site_occupancy
  Ba  Ba0  1  0.50000000  -0.09468408  0.08333333  1
  Ba  Ba1  1  0.50000000  -0.09468408  0.41666667  1
  Ba  Ba2  1  0.50000000  -0.09468408  0.75000000  1
  Ba  Ba3  1  0.50000000  0.40531592  0.08333333  1
  Ba  Ba4  1  0.50000000  0.40531592  0.41666667  1
  Ba  Ba5  1  0.50000000  0.40531592  0.75000000  1
  Ba  Ba6  1  1.00000000  0.15531592  0.08333333  1
  Ba  Ba7  1  1.00000000  0.15531592  0.41666667  1
  Ba  Ba8  1  1.00000000  0.15531592  0.75000000  1
  Ba  Ba9  1  1.00000000  0.65531592  0.08333333  1
  Ba  Ba10  1  1.00000000  0.65531592  0.41666667  1
  Ba  Ba11  1  1.00000000  0.65531592  0.75000000  1
  Ba  Ba12  1  0.50000000  0.09468408  0.25000000  1
  Ba  Ba13  1  0.50000000  0.09468408  0.58333333  1
  Ba  Ba14  1  0.50000000  0.09468408  0.91666667  1
  Ba  Ba15  1  0.50000000  0.59468408  0.25000000  1
  Ba  Ba16  1  0.50000000  0.59468408  0.58333333  1
  Ba  Ba17  1  0.50000000  0.59468408  0.91666667  1
  Ba  Ba18  1  1.00000000  0.34468408  0.25000000  1
  Ba  Ba19  1  1.00000000  0.34468408  0.58333333  1
  Ba  Ba20  1  1.00000000  0.34468408  0.91666667  1
  Ba  Ba21  1  1.00000000  0.84468408  0.25000000  1
  Ba  Ba22  1  1.00000000  0.84468408  0.58333333  1
  Ba  Ba23  1  1.00000000  0.84468408  0.91666667  1
  Ga  Ga24  1  0.12056267  -0.03186790  0.09240757  1
  Ga  Ga25  1  0.12056267  -0.03186790  0.42574090  1
  Ga  Ga26  1  0.12056267  -0.03186790  0.75907424  1
  Ga  Ga27  1  0.12056267  0.46813210  0.09240757  1
  Ga  Ga28  1  0.12056267  0.46813210  0.42574090  1
  Ga  Ga29  1  0.12056267  0.46813210  0.75907424  1
  Ga  Ga30  1  0.62056267  0.21813210  0.09240757  1
  Ga  Ga31  1  0.62056267  0.21813210  0.42574090  1
  Ga  Ga32  1  0.62056267  0.21813210  0.75907424  1
  Ga  Ga33  1  0.62056267  0.71813210  0.09240757  1
  Ga  Ga34  1  0.62056267  0.71813210  0.42574090  1
  Ga  Ga35  1  0.62056267  0.71813210  0.75907424  1
  Ga  Ga36  1  0.12056267  0.03186790  0.25907424  1
  Ga  Ga37  1  0.12056267  0.03186790  0.59240757  1
  Ga  Ga38  1  0.12056267  0.03186790  0.92574090  1
  Ga  Ga39  1  0.12056267  0.53186790  0.25907424  1
  Ga  Ga40  1  0.12056267  0.53186790  0.59240757  1
  Ga  Ga41  1  0.12056267  0.53186790  0.92574090  1
  Ga  Ga42  1  0.62056267  0.28186790  0.25907424  1
  Ga  Ga43  1  0.62056267  0.28186790  0.59240757  1
  Ga  Ga44  1  0.62056267  0.28186790  0.92574090  1
  Ga  Ga45  1  0.62056267  0.78186790  0.25907424  1
  Ga  Ga46  1  0.62056267  0.78186790  0.59240757  1
  Ga  Ga47  1  0.62056267  0.78186790  0.92574090  1
  Ga  Ga48  1  0.32628352  0.04367861  0.06838869  1
  Ga  Ga49  1  0.32628352  0.04367861  0.40172202  1
  Ga  Ga50  1  0.32628352  0.04367861  0.73505535  1
  Ga  Ga51  1  0.32628352  0.54367861  0.06838869  1
  Ga  Ga52  1  0.32628352  0.54367861  0.40172202  1
  Ga  Ga53  1  0.32628352  0.54367861  0.73505535  1
  Ga  Ga54  1  0.82628352  0.29367861  0.06838869  1
  Ga  Ga55  1  0.82628352  0.29367861  0.40172202  1
  Ga  Ga56  1  0.82628352  0.29367861  0.73505535  1
  Ga  Ga57  1  0.82628352  0.79367861  0.06838869  1
  Ga  Ga58  1  0.82628352  0.79367861  0.40172202  1
  Ga  Ga59  1  0.82628352  0.79367861  0.73505535  1
  Ga  Ga60  1  0.32628352  -0.04367861  0.23505535  1
  Ga  Ga61  1  0.32628352  -0.04367861  0.56838869  1
  Ga  Ga62  1  0.32628352  -0.04367861  0.90172202  1
  Ga  Ga63  1  0.32628352  0.45632139  0.23505535  1
  Ga  Ga64  1  0.32628352  0.45632139  0.56838869  1
  Ga  Ga65  1  0.32628352  0.45632139  0.90172202  1
  Ga  Ga66  1  0.82628352  0.20632139  0.23505535  1
  Ga  Ga67  1  0.82628352  0.20632139  0.56838869  1
  Ga  Ga68  1  0.82628352  0.20632139  0.90172202  1
  Ga  Ga69  1  0.82628352  0.70632139  0.23505535  1
  Ga  Ga70  1  0.82628352  0.70632139  0.56838869  1
  Ga  Ga71  1  0.82628352  0.70632139  0.90172202  1
  Ga  Ga72  1  0.67371648  0.04367861  0.09827798  1
  Ga  Ga73  1  0.67371648  0.04367861  0.43161131  1
  Ga  Ga74  1  0.67371648  0.04367861  0.76494465  1
  Ga  Ga75  1  0.67371648  0.54367861  0.09827798  1
  Ga  Ga76  1  0.67371648  0.54367861  0.43161131  1
  Ga  Ga77  1  0.67371648  0.54367861  0.76494465  1
  Ga  Ga78  1  1.17371648  0.29367861  0.09827798  1
  Ga  Ga79  1  1.17371648  0.29367861  0.43161131  1
  Ga  Ga80  1  1.17371648  0.29367861  0.76494465  1
  Ga  Ga81  1  1.17371648  0.79367861  0.09827798  1
  Ga  Ga82  1  1.17371648  0.79367861  0.43161131  1
  Ga  Ga83  1  1.17371648  0.79367861  0.76494465  1
  Ga  Ga84  1  0.67371648  -0.04367861  0.26494465  1
  Ga  Ga85  1  0.67371648  -0.04367861  0.59827798  1
  Ga  Ga86  1  0.67371648  -0.04367861  0.93161131  1
  Ga  Ga87  1  0.67371648  0.45632139  0.26494465  1
  Ga  Ga88  1  0.67371648  0.45632139  0.59827798  1
  Ga  Ga89  1  0.67371648  0.45632139  0.93161131  1
  Ga  Ga90  1  1.17371648  0.20632139  0.26494465  1
  Ga  Ga91  1  1.17371648  0.20632139  0.59827798  1
  Ga  Ga92  1  1.17371648  0.20632139  0.93161131  1
  Ga  Ga93  1  1.17371648  0.70632139  0.26494465  1
  Ga  Ga94  1  1.17371648  0.70632139  0.59827798  1
  Ga  Ga95  1  1.17371648  0.70632139  0.93161131  1
  Ga  Ga96  1  0.87943733  -0.03186790  0.07425910  1
  Ga  Ga97  1  0.87943733  -0.03186790  0.40759243  1
  Ga  Ga98  1  0.87943733  -0.03186790  0.74092576  1
  Ga  Ga99  1  0.87943733  0.46813210  0.07425910  1
  Ga  Ga100  1  0.87943733  0.46813210  0.40759243  1
  Ga  Ga101  1  0.87943733  0.46813210  0.74092576  1
  Ga  Ga102  1  1.37943733  0.21813210  0.07425910  1
  Ga  Ga103  1  1.37943733  0.21813210  0.40759243  1
  Ga  Ga104  1  1.37943733  0.21813210  0.74092576  1
  Ga  Ga105  1  1.37943733  0.71813210  0.07425910  1
  Ga  Ga106  1  1.37943733  0.71813210  0.40759243  1
  Ga  Ga107  1  1.37943733  0.71813210  0.74092576  1
  Ga  Ga108  1  0.87943733  0.03186790  0.24092576  1
  Ga  Ga109  1  0.87943733  0.03186790  0.57425910  1
  Ga  Ga110  1  0.87943733  0.03186790  0.90759243  1
  Ga  Ga111  1  0.87943733  0.53186790  0.24092576  1
  Ga  Ga112  1  0.87943733  0.53186790  0.57425910  1
  Ga  Ga113  1  0.87943733  0.53186790  0.90759243  1
  Ga  Ga114  1  1.37943733  0.28186790  0.24092576  1
  Ga  Ga115  1  1.37943733  0.28186790  0.57425910  1
  Ga  Ga116  1  1.37943733  0.28186790  0.90759243  1
  Ga  Ga117  1  1.37943733  0.78186790  0.24092576  1
  Ga  Ga118  1  1.37943733  0.78186790  0.57425910  1
  Ga  Ga119  1  1.37943733  0.78186790  0.90759243  1
  O  O120  1  0.18581055  0.03044635  0.03571841  1
  O  O121  1  0.18581055  0.03044635  0.36905174  1
  O  O122  1  0.18581055  0.03044635  0.70238508  1
  O  O123  1  0.18581055  0.53044635  0.03571841  1
  O  O124  1  0.18581055  0.53044635  0.36905174  1
  O  O125  1  0.18581055  0.53044635  0.70238508  1
  O  O126  1  0.68581055  0.28044635  0.03571841  1
  O  O127  1  0.68581055  0.28044635  0.36905174  1
  O  O128  1  0.68581055  0.28044635  0.70238508  1
  O  O129  1  0.68581055  0.78044635  0.03571841  1
  O  O130  1  0.68581055  0.78044635  0.36905174  1
  O  O131  1  0.68581055  0.78044635  0.70238508  1
  O  O132  1  0.18581055  -0.03044635  0.20238508  1
  O  O133  1  0.18581055  -0.03044635  0.53571841  1
  O  O134  1  0.18581055  -0.03044635  0.86905174  1
  O  O135  1  0.18581055  0.46955365  0.20238508  1
  O  O136  1  0.18581055  0.46955365  0.53571841  1
  O  O137  1  0.18581055  0.46955365  0.86905174  1
  O  O138  1  0.68581055  0.21955365  0.20238508  1
  O  O139  1  0.68581055  0.21955365  0.53571841  1
  O  O140  1  0.68581055  0.21955365  0.86905174  1
  O  O141  1  0.68581055  0.71955365  0.20238508  1
  O  O142  1  0.68581055  0.71955365  0.53571841  1
  O  O143  1  0.68581055  0.71955365  0.86905174  1
  O  O144  1  0.37860965  -0.01844936  0.15149521  1
  O  O145  1  0.37860965  -0.01844936  0.48482854  1
  O  O146  1  0.37860965  -0.01844936  0.81816188  1
  O  O147  1  0.37860965  0.48155064  0.15149521  1
  O  O148  1  0.37860965  0.48155064  0.48482854  1
  O  O149  1  0.37860965  0.48155064  0.81816188  1
  O  O150  1  0.87860965  0.23155064  0.15149521  1
  O  O151  1  0.87860965  0.23155064  0.48482854  1
  O  O152  1  0.87860965  0.23155064  0.81816188  1
  O  O153  1  0.87860965  0.73155064  0.15149521  1
  O  O154  1  0.87860965  0.73155064  0.48482854  1
  O  O155  1  0.87860965  0.73155064  0.81816188  1
  O  O156  1  0.37341300  0.12917918  0.11126644  1
  O  O157  1  0.37341300  0.12917918  0.44459977  1
  O  O158  1  0.37341300  0.12917918  0.77793310  1
  O  O159  1  0.37341300  0.62917918  0.11126644  1
  O  O160  1  0.37341300  0.62917918  0.44459977  1
  O  O161  1  0.37341300  0.62917918  0.77793310  1
  O  O162  1  0.87341300  0.37917918  0.11126644  1
  O  O163  1  0.87341300  0.37917918  0.44459977  1
  O  O164  1  0.87341300  0.37917918  0.77793310  1
  O  O165  1  0.87341300  0.87917918  0.11126644  1
  O  O166  1  0.87341300  0.87917918  0.44459977  1
  O  O167  1  0.87341300  0.87917918  0.77793310  1
  O  O168  1  0.37860965  0.01844936  0.31816188  1
  O  O169  1  0.37860965  0.01844936  0.65149521  1
  O  O170  1  0.37860965  0.01844936  0.98482854  1
  O  O171  1  0.37860965  0.51844936  0.31816188  1
  O  O172  1  0.37860965  0.51844936  0.65149521  1
  O  O173  1  0.37860965  0.51844936  0.98482854  1
  O  O174  1  0.87860965  0.26844936  0.31816188  1
  O  O175  1  0.87860965  0.26844936  0.65149521  1
  O  O176  1  0.87860965  0.26844936  0.98482854  1
  O  O177  1  0.87860965  0.76844936  0.31816188  1
  O  O178  1  0.87860965  0.76844936  0.65149521  1
  O  O179  1  0.87860965  0.76844936  0.98482854  1
  O  O180  1  0.37341300  -0.12917918  0.27793310  1
  O  O181  1  0.37341300  -0.12917918  0.61126644  1
  O  O182  1  0.37341300  -0.12917918  0.94459977  1
  O  O183  1  0.37341300  0.37082082  0.27793310  1
  O  O184  1  0.37341300  0.37082082  0.61126644  1
  O  O185  1  0.37341300  0.37082082  0.94459977  1
  O  O186  1  0.87341300  0.12082082  0.27793310  1
  O  O187  1  0.87341300  0.12082082  0.61126644  1
  O  O188  1  0.87341300  0.12082082  0.94459977  1
  O  O189  1  0.87341300  0.62082082  0.27793310  1
  O  O190  1  0.87341300  0.62082082  0.61126644  1
  O  O191  1  0.87341300  0.62082082  0.94459977  1
  O  O192  1  0.50000000  -0.23748171  0.08333333  1
  O  O193  1  0.50000000  -0.23748171  0.41666667  1
  O  O194  1  0.50000000  -0.23748171  0.75000000  1
  O  O195  1  0.50000000  0.26251829  0.08333333  1
  O  O196  1  0.50000000  0.26251829  0.41666667  1
  O  O197  1  0.50000000  0.26251829  0.75000000  1
  O  O198  1  1.00000000  0.01251829  0.08333333  1
  O  O199  1  1.00000000  0.01251829  0.41666667  1
  O  O200  1  1.00000000  0.01251829  0.75000000  1
  O  O201  1  1.00000000  0.51251829  0.08333333  1
  O  O202  1  1.00000000  0.51251829  0.41666667  1
  O  O203  1  1.00000000  0.51251829  0.75000000  1
  O  O204  1  0.50000000  0.23748171  0.25000000  1
  O  O205  1  0.50000000  0.23748171  0.58333333  1
  O  O206  1  0.50000000  0.23748171  0.91666667  1
  O  O207  1  0.50000000  0.73748171  0.25000000  1
  O  O208  1  0.50000000  0.73748171  0.58333333  1
  O  O209  1  0.50000000  0.73748171  0.91666667  1
  O  O210  1  1.00000000  0.48748171  0.25000000  1
  O  O211  1  1.00000000  0.48748171  0.58333333  1
  O  O212  1  1.00000000  0.48748171  0.91666667  1
  O  O213  1  1.00000000  0.98748171  0.25000000  1
  O  O214  1  1.00000000  0.98748171  0.58333333  1
  O  O215  1  1.00000000  0.98748171  0.91666667  1
  O  O216  1  0.62658700  0.12917918  0.05540023  1
  O  O217  1  0.62658700  0.12917918  0.38873356  1
  O  O218  1  0.62658700  0.12917918  0.72206690  1
  O  O219  1  0.62658700  0.62917918  0.05540023  1
  O  O220  1  0.62658700  0.62917918  0.38873356  1
  O  O221  1  0.62658700  0.62917918  0.72206690  1
  O  O222  1  1.12658700  0.37917918  0.05540023  1
  O  O223  1  1.12658700  0.37917918  0.38873356  1
  O  O224  1  1.12658700  0.37917918  0.72206690  1
  O  O225  1  1.12658700  0.87917918  0.05540023  1
  O  O226  1  1.12658700  0.87917918  0.38873356  1
  O  O227  1  1.12658700  0.87917918  0.72206690  1
  O  O228  1  0.62139035  -0.01844936  0.01517146  1
  O  O229  1  0.62139035  -0.01844936  0.34850479  1
  O  O230  1  0.62139035  -0.01844936  0.68183812  1
  O  O231  1  0.62139035  0.48155064  0.01517146  1
  O  O232  1  0.62139035  0.48155064  0.34850479  1
  O  O233  1  0.62139035  0.48155064  0.68183812  1
  O  O234  1  1.12139035  0.23155064  0.01517146  1
  O  O235  1  1.12139035  0.23155064  0.34850479  1
  O  O236  1  1.12139035  0.23155064  0.68183812  1
  O  O237  1  1.12139035  0.73155064  0.01517146  1
  O  O238  1  1.12139035  0.73155064  0.34850479  1
  O  O239  1  1.12139035  0.73155064  0.68183812  1
  O  O240  1  0.62658700  -0.12917918  0.22206690  1
  O  O241  1  0.62658700  -0.12917918  0.55540023  1
  O  O242  1  0.62658700  -0.12917918  0.88873356  1
  O  O243  1  0.62658700  0.37082082  0.22206690  1
  O  O244  1  0.62658700  0.37082082  0.55540023  1
  O  O245  1  0.62658700  0.37082082  0.88873356  1
  O  O246  1  1.12658700  0.12082082  0.22206690  1
  O  O247  1  1.12658700  0.12082082  0.55540023  1
  O  O248  1  1.12658700  0.12082082  0.88873356  1
  O  O249  1  1.12658700  0.62082082  0.22206690  1
  O  O250  1  1.12658700  0.62082082  0.55540023  1
  O  O251  1  1.12658700  0.62082082  0.88873356  1
  O  O252  1  0.62139035  0.01844936  0.18183812  1
  O  O253  1  0.62139035  0.01844936  0.51517146  1
  O  O254  1  0.62139035  0.01844936  0.84850479  1
  O  O255  1  0.62139035  0.51844936  0.18183812  1
  O  O256  1  0.62139035  0.51844936  0.51517146  1
  O  O257  1  0.62139035  0.51844936  0.84850479  1
  O  O258  1  1.12139035  0.26844936  0.18183812  1
  O  O259  1  1.12139035  0.26844936  0.51517146  1
  O  O260  1  1.12139035  0.26844936  0.84850479  1
  O  O261  1  1.12139035  0.76844936  0.18183812  1
  O  O262  1  1.12139035  0.76844936  0.51517146  1
  O  O263  1  1.12139035  0.76844936  0.84850479  1
  O  O264  1  0.81418945  0.03044635  0.13094826  1
  O  O265  1  0.81418945  0.03044635  0.46428159  1
  O  O266  1  0.81418945  0.03044635  0.79761492  1
  O  O267  1  0.81418945  0.53044635  0.13094826  1
  O  O268  1  0.81418945  0.53044635  0.46428159  1
  O  O269  1  0.81418945  0.53044635  0.79761492  1
  O  O270  1  1.31418945  0.28044635  0.13094826  1
  O  O271  1  1.31418945  0.28044635  0.46428159  1
  O  O272  1  1.31418945  0.28044635  0.79761492  1
  O  O273  1  1.31418945  0.78044635  0.13094826  1
  O  O274  1  1.31418945  0.78044635  0.46428159  1
  O  O275  1  1.31418945  0.78044635  0.79761492  1
  O  O276  1  0.81418945  -0.03044635  0.29761492  1
  O  O277  1  0.81418945  -0.03044635  0.63094826  1
  O  O278  1  0.81418945  -0.03044635  0.96428159  1
  O  O279  1  0.81418945  0.46955365  0.29761492  1
  O  O280  1  0.81418945  0.46955365  0.63094826  1
  O  O281  1  0.81418945  0.46955365  0.96428159  1
  O  O282  1  1.31418945  0.21955365  0.29761492  1
  O  O283  1  1.31418945  0.21955365  0.63094826  1
  O  O284  1  1.31418945  0.21955365  0.96428159  1
  O  O285  1  1.31418945  0.71955365  0.29761492  1
  O  O286  1  1.31418945  0.71955365  0.63094826  1
  O  O287  1  1.31418945  0.71955365  0.96428159  1
