# generated using pymatgen
data_KCuO2
_symmetry_space_group_name_H-M   'P 1'
_cell_length_a   9.04891893
_cell_length_b   11.54439442
_cell_length_c   10.73186389
_cell_angle_alpha   90.00000000
_cell_angle_beta   90.00000000
_cell_angle_gamma   90.00000000
_symmetry_Int_Tables_number   1
_chemical_formula_structural   KCuO2
_chemical_formula_sum   'K16 Cu16 O32'
_cell_volume   1121.09653303
_cell_formula_units_Z   16
loop_
 _symmetry_equiv_pos_site_id
 _symmetry_equiv_pos_as_xyz
  1  'x, y, z'
loop_
 _atom_site_type_symbol
 _atom_site_label
 _atom_site_symmetry_multiplicity
 _atom_site_fract_x
 _atom_site_fract_y
 _atom_site_fract_z
 _atom_site_occupancy
  K  K0  1  0.25000000  -0.19501797  0.12500000  1
  K  K1  1  0.25000000  -0.19501797  0.62500000  1
  K  K2  1  0.75000000  -0.19501797  0.12500000  1
  K  K3  1  0.75000000  -0.19501797  0.62500000  1
  K  K4  1  0.50000000  0.30498203  0.12500000  1
  K  K5  1  0.50000000  0.30498203  0.62500000  1
  K  K6  1  1.00000000  0.30498203  0.12500000  1
  K  K7  1  1.00000000  0.30498203  0.62500000  1
  K  K8  1  0.25000000  0.19501797  0.37500000  1
  K  K9  1  0.25000000  0.19501797  0.87500000  1
  K  K10  1  0.75000000  0.19501797  0.37500000  1
  K  K11  1  0.75000000  0.19501797  0.87500000  1
  K  K12  1  0.50000000  0.69501797  0.37500000  1
  K  K13  1  0.50000000  0.69501797  0.87500000  1
  K  K14  1  1.00000000  0.69501797  0.37500000  1
  K  K15  1  1.00000000  0.69501797  0.87500000  1
  Cu  Cu16  1  0.25000000  0.49765826  0.37500000  1
  Cu  Cu17  1  0.25000000  0.49765826  0.87500000  1
  Cu  Cu18  1  0.75000000  0.49765826  0.37500000  1
  Cu  Cu19  1  0.75000000  0.49765826  0.87500000  1
  Cu  Cu20  1  0.50000000  0.99765826  0.37500000  1
  Cu  Cu21  1  0.50000000  0.99765826  0.87500000  1
  Cu  Cu22  1  1.00000000  0.99765826  0.37500000  1
  Cu  Cu23  1  1.00000000  0.99765826  0.87500000  1
  Cu  Cu24  1  0.25000000  -0.49765826  0.12500000  1
  Cu  Cu25  1  0.25000000  -0.49765826  0.62500000  1
  Cu  Cu26  1  0.75000000  -0.49765826  0.12500000  1
  Cu  Cu27  1  0.75000000  -0.49765826  0.62500000  1
  Cu  Cu28  1  0.50000000  0.00234174  0.12500000  1
  Cu  Cu29  1  0.50000000  0.00234174  0.62500000  1
  Cu  Cu30  1  1.00000000  0.00234174  0.12500000  1
  Cu  Cu31  1  1.00000000  0.00234174  0.62500000  1
  O  O32  1  0.25000000  0.39501221  0.24773745  1
  O  O33  1  0.25000000  0.39501221  0.74773745  1
  O  O34  1  0.75000000  0.39501221  0.24773745  1
  O  O35  1  0.75000000  0.39501221  0.74773745  1
  O  O36  1  0.50000000  0.89501221  0.24773745  1
  O  O37  1  0.50000000  0.89501221  0.74773745  1
  O  O38  1  1.00000000  0.89501221  0.24773745  1
  O  O39  1  1.00000000  0.89501221  0.74773745  1
  O  O40  1  0.25000000  -0.39501221  0.25226255  1
  O  O41  1  0.25000000  -0.39501221  0.75226255  1
  O  O42  1  0.75000000  -0.39501221  0.25226255  1
  O  O43  1  0.75000000  -0.39501221  0.75226255  1
  O  O44  1  0.50000000  0.10498779  0.25226255  1
  O  O45  1  0.50000000  0.10498779  0.75226255  1
  O  O46  1  1.00000000  0.10498779  0.25226255  1
  O  O47  1  1.00000000  0.10498779  0.75226255  1
  O  O48  1  0.25000000  0.39501221  0.00226255  1
  O  O49  1  0.25000000  0.39501221  0.50226255  1
  O  O50  1  0.75000000  0.39501221  0.00226255  1
  O  O51  1  0.75000000  0.39501221  0.50226255  1
  O  O52  1  0.50000000  0.89501221  0.00226255  1
  O  O53  1  0.50000000  0.89501221  0.50226255  1
  O  O54  1  1.00000000  0.89501221  0.00226255  1
  O  O55  1  1.00000000  0.89501221  0.50226255  1
  O  O56  1  0.25000000  -0.39501221  0.49773745  1
  O  O57  1  0.25000000  -0.39501221  0.99773745  1
  O  O58  1  0.75000000  -0.39501221  0.49773745  1
  O  O59  1  0.75000000  -0.39501221  0.99773745  1
  O  O60  1  0.50000000  0.10498779  0.49773745  1
  O  O61  1  0.50000000  0.10498779  0.99773745  1
  O  O62  1  1.00000000  0.10498779  0.49773745  1
  O  O63  1  1.00000000  0.10498779  0.99773745  1
