# generated using pymatgen
data_KNa2GaO3
_symmetry_space_group_name_H-M   'P 1'
_cell_length_a   12.97358043
_cell_length_b   12.31641057
_cell_length_c   10.07755565
_cell_angle_alpha   90.00000000
_cell_angle_beta   90.00000000
_cell_angle_gamma   90.00000000
_symmetry_Int_Tables_number   1
_chemical_formula_structural   KNa2GaO3
_chemical_formula_sum   'K16 Na32 Ga16 O48'
_cell_volume   1610.27188933
_cell_formula_units_Z   16
loop_
 _symmetry_equiv_pos_site_id
 _symmetry_equiv_pos_as_xyz
  1  'x, y, z'
loop_
 _atom_site_type_symbol
 _atom_site_label
 _atom_site_symmetry_multiplicity
 _atom_site_fract_x
 _atom_site_fract_y
 _atom_site_fract_z
 _atom_site_occupancy
  K  K0  1  0.07976881  0.37500000  0.46766259  1
  K  K1  1  0.07976881  0.87500000  0.46766259  1
  K  K2  1  0.57976881  0.37500000  0.46766259  1
  K  K3  1  0.57976881  0.87500000  0.46766259  1
  K  K4  1  0.17023119  0.12500000  0.96766259  1
  K  K5  1  0.17023119  0.62500000  0.96766259  1
  K  K6  1  0.67023119  0.12500000  0.96766259  1
  K  K7  1  0.67023119  0.62500000  0.96766259  1
  K  K8  1  0.42023119  0.12500000  0.53233741  1
  K  K9  1  0.42023119  0.62500000  0.53233741  1
  K  K10  1  0.92023119  0.12500000  0.53233741  1
  K  K11  1  0.92023119  0.62500000  0.53233741  1
  K  K12  1  0.32976881  0.37500000  0.03233741  1
  K  K13  1  0.32976881  0.87500000  0.03233741  1
  K  K14  1  0.82976881  0.37500000  0.03233741  1
  K  K15  1  0.82976881  0.87500000  0.03233741  1
  Na  Na16  1  0.24512421  0.24584736  0.26933778  1
  Na  Na17  1  0.24512421  0.74584736  0.26933778  1
  Na  Na18  1  0.74512421  0.24584736  0.26933778  1
  Na  Na19  1  0.74512421  0.74584736  0.26933778  1
  Na  Na20  1  0.00487579  0.25415264  0.76933778  1
  Na  Na21  1  0.00487579  0.75415264  0.76933778  1
  Na  Na22  1  0.50487579  0.25415264  0.76933778  1
  Na  Na23  1  0.50487579  0.75415264  0.76933778  1
  Na  Na24  1  0.49512421  0.24584736  0.23066222  1
  Na  Na25  1  0.49512421  0.74584736  0.23066222  1
  Na  Na26  1  0.99512421  0.24584736  0.23066222  1
  Na  Na27  1  0.99512421  0.74584736  0.23066222  1
  Na  Na28  1  0.24512421  0.00415264  0.26933778  1
  Na  Na29  1  0.24512421  0.50415264  0.26933778  1
  Na  Na30  1  0.74512421  0.00415264  0.26933778  1
  Na  Na31  1  0.74512421  0.50415264  0.26933778  1
  Na  Na32  1  0.25487579  0.25415264  0.73066222  1
  Na  Na33  1  0.25487579  0.75415264  0.73066222  1
  Na  Na34  1  0.75487579  0.25415264  0.73066222  1
  Na  Na35  1  0.75487579  0.75415264  0.73066222  1
  Na  Na36  1  0.25487579  0.49584736  0.73066222  1
  Na  Na37  1  0.25487579  0.99584736  0.73066222  1
  Na  Na38  1  0.75487579  0.49584736  0.73066222  1
  Na  Na39  1  0.75487579  0.99584736  0.73066222  1
  Na  Na40  1  0.00487579  0.49584736  0.76933778  1
  Na  Na41  1  0.00487579  0.99584736  0.76933778  1
  Na  Na42  1  0.50487579  0.49584736  0.76933778  1
  Na  Na43  1  0.50487579  0.99584736  0.76933778  1
  Na  Na44  1  0.49512421  0.00415264  0.23066222  1
  Na  Na45  1  0.49512421  0.50415264  0.23066222  1
  Na  Na46  1  0.99512421  0.00415264  0.23066222  1
  Na  Na47  1  0.99512421  0.50415264  0.23066222  1
  Ga  Ga48  1  0.16495258  0.12500000  0.50961146  1
  Ga  Ga49  1  0.16495258  0.62500000  0.50961146  1
  Ga  Ga50  1  0.66495258  0.12500000  0.50961146  1
  Ga  Ga51  1  0.66495258  0.62500000  0.50961146  1
  Ga  Ga52  1  0.41495258  0.12500000  0.99038854  1
  Ga  Ga53  1  0.41495258  0.62500000  0.99038854  1
  Ga  Ga54  1  0.91495258  0.12500000  0.99038854  1
  Ga  Ga55  1  0.91495258  0.62500000  0.99038854  1
  Ga  Ga56  1  0.08504742  0.37500000  0.00961146  1
  Ga  Ga57  1  0.08504742  0.87500000  0.00961146  1
  Ga  Ga58  1  0.58504742  0.37500000  0.00961146  1
  Ga  Ga59  1  0.58504742  0.87500000  0.00961146  1
  Ga  Ga60  1  0.33504742  0.37500000  0.49038854  1
  Ga  Ga61  1  0.33504742  0.87500000  0.49038854  1
  Ga  Ga62  1  0.83504742  0.37500000  0.49038854  1
  Ga  Ga63  1  0.83504742  0.87500000  0.49038854  1
  O  O64  1  0.10903188  0.12500000  0.67616635  1
  O  O65  1  0.10903188  0.62500000  0.67616635  1
  O  O66  1  0.60903188  0.12500000  0.67616635  1
  O  O67  1  0.60903188  0.62500000  0.67616635  1
  O  O68  1  0.00000000  0.25000000  0.00000000  1
  O  O69  1  0.00000000  0.75000000  0.00000000  1
  O  O70  1  0.50000000  0.25000000  0.00000000  1
  O  O71  1  0.50000000  0.75000000  0.00000000  1
  O  O72  1  0.00000000  0.00000000  0.00000000  1
  O  O73  1  0.00000000  0.50000000  0.00000000  1
  O  O74  1  0.50000000  0.00000000  0.00000000  1
  O  O75  1  0.50000000  0.50000000  0.00000000  1
  O  O76  1  0.33649516  0.12500000  0.14146994  1
  O  O77  1  0.33649516  0.62500000  0.14146994  1
  O  O78  1  0.83649516  0.12500000  0.14146994  1
  O  O79  1  0.83649516  0.62500000  0.14146994  1
  O  O80  1  0.16350484  0.37500000  0.85853006  1
  O  O81  1  0.16350484  0.87500000  0.85853006  1
  O  O82  1  0.66350484  0.37500000  0.85853006  1
  O  O83  1  0.66350484  0.87500000  0.85853006  1
  O  O84  1  0.08649516  0.12500000  0.35853006  1
  O  O85  1  0.08649516  0.62500000  0.35853006  1
  O  O86  1  0.58649516  0.12500000  0.35853006  1
  O  O87  1  0.58649516  0.62500000  0.35853006  1
  O  O88  1  0.41350484  0.37500000  0.64146994  1
  O  O89  1  0.41350484  0.87500000  0.64146994  1
  O  O90  1  0.91350484  0.37500000  0.64146994  1
  O  O91  1  0.91350484  0.87500000  0.64146994  1
  O  O92  1  0.14096812  0.37500000  0.17616635  1
  O  O93  1  0.14096812  0.87500000  0.17616635  1
  O  O94  1  0.64096812  0.37500000  0.17616635  1
  O  O95  1  0.64096812  0.87500000  0.17616635  1
  O  O96  1  0.25000000  0.00000000  0.50000000  1
  O  O97  1  0.25000000  0.50000000  0.50000000  1
  O  O98  1  0.75000000  0.00000000  0.50000000  1
  O  O99  1  0.75000000  0.50000000  0.50000000  1
  O  O100  1  0.25000000  0.25000000  0.50000000  1
  O  O101  1  0.25000000  0.75000000  0.50000000  1
  O  O102  1  0.75000000  0.25000000  0.50000000  1
  O  O103  1  0.75000000  0.75000000  0.50000000  1
  O  O104  1  0.39096812  0.37500000  0.32383365  1
  O  O105  1  0.39096812  0.87500000  0.32383365  1
  O  O106  1  0.89096812  0.37500000  0.32383365  1
  O  O107  1  0.89096812  0.87500000  0.32383365  1
  O  O108  1  0.35903188  0.12500000  0.82383365  1
  O  O109  1  0.35903188  0.62500000  0.82383365  1
  O  O110  1  0.85903188  0.12500000  0.82383365  1
  O  O111  1  0.85903188  0.62500000  0.82383365  1
