# generated using pymatgen
data_Ba4Bi2O
_symmetry_space_group_name_H-M   'P 1'
_cell_length_a   21.03518146
_cell_length_b   21.03518146
_cell_length_c   18.73991197
_cell_angle_alpha   90.00000000
_cell_angle_beta   90.00000000
_cell_angle_gamma   90.00000000
_symmetry_Int_Tables_number   1
_chemical_formula_structural   Ba4Bi2O
_chemical_formula_sum   'Ba128 Bi64 O32'
_cell_volume   8292.01486479
_cell_formula_units_Z   32
loop_
 _symmetry_equiv_pos_site_id
 _symmetry_equiv_pos_as_xyz
  1  'x, y, z'
loop_
 _atom_site_type_symbol
 _atom_site_label
 _atom_site_symmetry_multiplicity
 _atom_site_fract_x
 _atom_site_fract_y
 _atom_site_fract_z
 _atom_site_occupancy
  Ba  Ba0  1  0.75000000  0.62500000  0.49750206  1
  Ba  Ba1  1  0.75000000  0.37500000  0.49750206  1
  Ba  Ba2  1  0.75000000  0.12500000  0.49750206  1
  Ba  Ba3  1  0.75000000  -0.12500000  0.49750206  1
  Ba  Ba4  1  0.50000000  0.62500000  0.49750206  1
  Ba  Ba5  1  0.50000000  0.37500000  0.49750206  1
  Ba  Ba6  1  0.50000000  0.12500000  0.49750206  1
  Ba  Ba7  1  0.50000000  -0.12500000  0.49750206  1
  Ba  Ba8  1  0.25000000  0.62500000  0.49750206  1
  Ba  Ba9  1  0.25000000  0.37500000  0.49750206  1
  Ba  Ba10  1  0.25000000  0.12500000  0.49750206  1
  Ba  Ba11  1  0.25000000  -0.12500000  0.49750206  1
  Ba  Ba12  1  0.00000000  0.62500000  0.49750206  1
  Ba  Ba13  1  0.00000000  0.37500000  0.49750206  1
  Ba  Ba14  1  0.00000000  0.12500000  0.49750206  1
  Ba  Ba15  1  0.00000000  -0.12500000  0.49750206  1
  Ba  Ba16  1  0.62500000  0.50000000  0.99750206  1
  Ba  Ba17  1  0.62500000  0.25000000  0.99750206  1
  Ba  Ba18  1  0.62500000  0.00000000  0.99750206  1
  Ba  Ba19  1  0.62500000  -0.25000000  0.99750206  1
  Ba  Ba20  1  0.37500000  0.50000000  0.99750206  1
  Ba  Ba21  1  0.37500000  0.25000000  0.99750206  1
  Ba  Ba22  1  0.37500000  0.00000000  0.99750206  1
  Ba  Ba23  1  0.37500000  -0.25000000  0.99750206  1
  Ba  Ba24  1  0.12500000  0.50000000  0.99750206  1
  Ba  Ba25  1  0.12500000  0.25000000  0.99750206  1
  Ba  Ba26  1  0.12500000  0.00000000  0.99750206  1
  Ba  Ba27  1  0.12500000  -0.25000000  0.99750206  1
  Ba  Ba28  1  -0.12500000  0.50000000  0.99750206  1
  Ba  Ba29  1  -0.12500000  0.25000000  0.99750206  1
  Ba  Ba30  1  -0.12500000  0.00000000  0.99750206  1
  Ba  Ba31  1  -0.12500000  -0.25000000  0.99750206  1
  Ba  Ba32  1  0.62500000  0.75000000  0.49750206  1
  Ba  Ba33  1  0.62500000  0.50000000  0.49750206  1
  Ba  Ba34  1  0.62500000  0.25000000  0.49750206  1
  Ba  Ba35  1  0.62500000  0.00000000  0.49750206  1
  Ba  Ba36  1  0.37500000  0.75000000  0.49750206  1
  Ba  Ba37  1  0.37500000  0.50000000  0.49750206  1
  Ba  Ba38  1  0.37500000  0.25000000  0.49750206  1
  Ba  Ba39  1  0.37500000  0.00000000  0.49750206  1
  Ba  Ba40  1  0.12500000  0.75000000  0.49750206  1
  Ba  Ba41  1  0.12500000  0.50000000  0.49750206  1
  Ba  Ba42  1  0.12500000  0.25000000  0.49750206  1
  Ba  Ba43  1  0.12500000  0.00000000  0.49750206  1
  Ba  Ba44  1  -0.12500000  0.75000000  0.49750206  1
  Ba  Ba45  1  -0.12500000  0.50000000  0.49750206  1
  Ba  Ba46  1  -0.12500000  0.25000000  0.49750206  1
  Ba  Ba47  1  -0.12500000  0.00000000  0.49750206  1
  Ba  Ba48  1  0.50000000  0.62500000  0.99750206  1
  Ba  Ba49  1  0.50000000  0.37500000  0.99750206  1
  Ba  Ba50  1  0.50000000  0.12500000  0.99750206  1
  Ba  Ba51  1  0.50000000  -0.12500000  0.99750206  1
  Ba  Ba52  1  0.25000000  0.62500000  0.99750206  1
  Ba  Ba53  1  0.25000000  0.37500000  0.99750206  1
  Ba  Ba54  1  0.25000000  0.12500000  0.99750206  1
  Ba  Ba55  1  0.25000000  -0.12500000  0.99750206  1
  Ba  Ba56  1  0.00000000  0.62500000  0.99750206  1
  Ba  Ba57  1  0.00000000  0.37500000  0.99750206  1
  Ba  Ba58  1  0.00000000  0.12500000  0.99750206  1
  Ba  Ba59  1  0.00000000  -0.12500000  0.99750206  1
  Ba  Ba60  1  -0.25000000  0.62500000  0.99750206  1
  Ba  Ba61  1  -0.25000000  0.37500000  0.99750206  1
  Ba  Ba62  1  -0.25000000  0.12500000  0.99750206  1
  Ba  Ba63  1  -0.25000000  -0.12500000  0.99750206  1
  Ba  Ba64  1  0.75000000  0.75000000  0.83430256  1
  Ba  Ba65  1  0.75000000  0.50000000  0.83430256  1
  Ba  Ba66  1  0.75000000  0.25000000  0.83430256  1
  Ba  Ba67  1  0.75000000  -0.00000000  0.83430256  1
  Ba  Ba68  1  0.50000000  0.75000000  0.83430256  1
  Ba  Ba69  1  0.50000000  0.50000000  0.83430256  1
  Ba  Ba70  1  0.50000000  0.25000000  0.83430256  1
  Ba  Ba71  1  0.50000000  -0.00000000  0.83430256  1
  Ba  Ba72  1  0.25000000  0.75000000  0.83430256  1
  Ba  Ba73  1  0.25000000  0.50000000  0.83430256  1
  Ba  Ba74  1  0.25000000  0.25000000  0.83430256  1
  Ba  Ba75  1  0.25000000  -0.00000000  0.83430256  1
  Ba  Ba76  1  0.00000000  0.75000000  0.83430256  1
  Ba  Ba77  1  0.00000000  0.50000000  0.83430256  1
  Ba  Ba78  1  0.00000000  0.25000000  0.83430256  1
  Ba  Ba79  1  0.00000000  -0.00000000  0.83430256  1
  Ba  Ba80  1  0.62500000  0.62500000  1.33430256  1
  Ba  Ba81  1  0.62500000  0.37500000  1.33430256  1
  Ba  Ba82  1  0.62500000  0.12500000  1.33430256  1
  Ba  Ba83  1  0.62500000  -0.12500000  1.33430256  1
  Ba  Ba84  1  0.37500000  0.62500000  1.33430256  1
  Ba  Ba85  1  0.37500000  0.37500000  1.33430256  1
  Ba  Ba86  1  0.37500000  0.12500000  1.33430256  1
  Ba  Ba87  1  0.37500000  -0.12500000  1.33430256  1
  Ba  Ba88  1  0.12500000  0.62500000  1.33430256  1
  Ba  Ba89  1  0.12500000  0.37500000  1.33430256  1
  Ba  Ba90  1  0.12500000  0.12500000  1.33430256  1
  Ba  Ba91  1  0.12500000  -0.12500000  1.33430256  1
  Ba  Ba92  1  -0.12500000  0.62500000  1.33430256  1
  Ba  Ba93  1  -0.12500000  0.37500000  1.33430256  1
  Ba  Ba94  1  -0.12500000  0.12500000  1.33430256  1
  Ba  Ba95  1  -0.12500000  -0.12500000  1.33430256  1
  Ba  Ba96  1  0.75000000  0.75000000  0.17873871  1
  Ba  Ba97  1  0.75000000  0.50000000  0.17873871  1
  Ba  Ba98  1  0.75000000  0.25000000  0.17873871  1
  Ba  Ba99  1  0.75000000  -0.00000000  0.17873871  1
  Ba  Ba100  1  0.50000000  0.75000000  0.17873871  1
  Ba  Ba101  1  0.50000000  0.50000000  0.17873871  1
  Ba  Ba102  1  0.50000000  0.25000000  0.17873871  1
  Ba  Ba103  1  0.50000000  -0.00000000  0.17873871  1
  Ba  Ba104  1  0.25000000  0.75000000  0.17873871  1
  Ba  Ba105  1  0.25000000  0.50000000  0.17873871  1
  Ba  Ba106  1  0.25000000  0.25000000  0.17873871  1
  Ba  Ba107  1  0.25000000  -0.00000000  0.17873871  1
  Ba  Ba108  1  0.00000000  0.75000000  0.17873871  1
  Ba  Ba109  1  0.00000000  0.50000000  0.17873871  1
  Ba  Ba110  1  0.00000000  0.25000000  0.17873871  1
  Ba  Ba111  1  0.00000000  -0.00000000  0.17873871  1
  Ba  Ba112  1  0.62500000  0.62500000  0.67873871  1
  Ba  Ba113  1  0.62500000  0.37500000  0.67873871  1
  Ba  Ba114  1  0.62500000  0.12500000  0.67873871  1
  Ba  Ba115  1  0.62500000  -0.12500000  0.67873871  1
  Ba  Ba116  1  0.37500000  0.62500000  0.67873871  1
  Ba  Ba117  1  0.37500000  0.37500000  0.67873871  1
  Ba  Ba118  1  0.37500000  0.12500000  0.67873871  1
  Ba  Ba119  1  0.37500000  -0.12500000  0.67873871  1
  Ba  Ba120  1  0.12500000  0.62500000  0.67873871  1
  Ba  Ba121  1  0.12500000  0.37500000  0.67873871  1
  Ba  Ba122  1  0.12500000  0.12500000  0.67873871  1
  Ba  Ba123  1  0.12500000  -0.12500000  0.67873871  1
  Ba  Ba124  1  -0.12500000  0.62500000  0.67873871  1
  Ba  Ba125  1  -0.12500000  0.37500000  0.67873871  1
  Ba  Ba126  1  -0.12500000  0.12500000  0.67873871  1
  Ba  Ba127  1  -0.12500000  -0.12500000  0.67873871  1
  Bi  Bi128  1  0.75000000  0.75000000  0.63636306  1
  Bi  Bi129  1  0.75000000  0.50000000  0.63636306  1
  Bi  Bi130  1  0.75000000  0.25000000  0.63636306  1
  Bi  Bi131  1  0.75000000  0.00000000  0.63636306  1
  Bi  Bi132  1  0.50000000  0.75000000  0.63636306  1
  Bi  Bi133  1  0.50000000  0.50000000  0.63636306  1
  Bi  Bi134  1  0.50000000  0.25000000  0.63636306  1
  Bi  Bi135  1  0.50000000  0.00000000  0.63636306  1
  Bi  Bi136  1  0.25000000  0.75000000  0.63636306  1
  Bi  Bi137  1  0.25000000  0.50000000  0.63636306  1
  Bi  Bi138  1  0.25000000  0.25000000  0.63636306  1
  Bi  Bi139  1  0.25000000  0.00000000  0.63636306  1
  Bi  Bi140  1  -0.00000000  0.75000000  0.63636306  1
  Bi  Bi141  1  -0.00000000  0.50000000  0.63636306  1
  Bi  Bi142  1  -0.00000000  0.25000000  0.63636306  1
  Bi  Bi143  1  -0.00000000  0.00000000  0.63636306  1
  Bi  Bi144  1  0.62500000  0.62500000  1.13636306  1
  Bi  Bi145  1  0.62500000  0.37500000  1.13636306  1
  Bi  Bi146  1  0.62500000  0.12500000  1.13636306  1
  Bi  Bi147  1  0.62500000  -0.12500000  1.13636306  1
  Bi  Bi148  1  0.37500000  0.62500000  1.13636306  1
  Bi  Bi149  1  0.37500000  0.37500000  1.13636306  1
  Bi  Bi150  1  0.37500000  0.12500000  1.13636306  1
  Bi  Bi151  1  0.37500000  -0.12500000  1.13636306  1
  Bi  Bi152  1  0.12500000  0.62500000  1.13636306  1
  Bi  Bi153  1  0.12500000  0.37500000  1.13636306  1
  Bi  Bi154  1  0.12500000  0.12500000  1.13636306  1
  Bi  Bi155  1  0.12500000  -0.12500000  1.13636306  1
  Bi  Bi156  1  -0.12500000  0.62500000  1.13636306  1
  Bi  Bi157  1  -0.12500000  0.37500000  1.13636306  1
  Bi  Bi158  1  -0.12500000  0.12500000  1.13636306  1
  Bi  Bi159  1  -0.12500000  -0.12500000  1.13636306  1
  Bi  Bi160  1  0.75000000  0.75000000  0.36204296  1
  Bi  Bi161  1  0.75000000  0.50000000  0.36204296  1
  Bi  Bi162  1  0.75000000  0.25000000  0.36204296  1
  Bi  Bi163  1  0.75000000  -0.00000000  0.36204296  1
  Bi  Bi164  1  0.50000000  0.75000000  0.36204296  1
  Bi  Bi165  1  0.50000000  0.50000000  0.36204296  1
  Bi  Bi166  1  0.50000000  0.25000000  0.36204296  1
  Bi  Bi167  1  0.50000000  -0.00000000  0.36204296  1
  Bi  Bi168  1  0.25000000  0.75000000  0.36204296  1
  Bi  Bi169  1  0.25000000  0.50000000  0.36204296  1
  Bi  Bi170  1  0.25000000  0.25000000  0.36204296  1
  Bi  Bi171  1  0.25000000  -0.00000000  0.36204296  1
  Bi  Bi172  1  0.00000000  0.75000000  0.36204296  1
  Bi  Bi173  1  0.00000000  0.50000000  0.36204296  1
  Bi  Bi174  1  0.00000000  0.25000000  0.36204296  1
  Bi  Bi175  1  0.00000000  -0.00000000  0.36204296  1
  Bi  Bi176  1  0.62500000  0.62500000  0.86204296  1
  Bi  Bi177  1  0.62500000  0.37500000  0.86204296  1
  Bi  Bi178  1  0.62500000  0.12500000  0.86204296  1
  Bi  Bi179  1  0.62500000  -0.12500000  0.86204296  1
  Bi  Bi180  1  0.37500000  0.62500000  0.86204296  1
  Bi  Bi181  1  0.37500000  0.37500000  0.86204296  1
  Bi  Bi182  1  0.37500000  0.12500000  0.86204296  1
  Bi  Bi183  1  0.37500000  -0.12500000  0.86204296  1
  Bi  Bi184  1  0.12500000  0.62500000  0.86204296  1
  Bi  Bi185  1  0.12500000  0.37500000  0.86204296  1
  Bi  Bi186  1  0.12500000  0.12500000  0.86204296  1
  Bi  Bi187  1  0.12500000  -0.12500000  0.86204296  1
  Bi  Bi188  1  -0.12500000  0.62500000  0.86204296  1
  Bi  Bi189  1  -0.12500000  0.37500000  0.86204296  1
  Bi  Bi190  1  -0.12500000  0.12500000  0.86204296  1
  Bi  Bi191  1  -0.12500000  -0.12500000  0.86204296  1
  O  O192  1  0.75000000  0.75000000  0.97634859  1
  O  O193  1  0.75000000  0.50000000  0.97634859  1
  O  O194  1  0.75000000  0.25000000  0.97634859  1
  O  O195  1  0.75000000  -0.00000000  0.97634859  1
  O  O196  1  0.50000000  0.75000000  0.97634859  1
  O  O197  1  0.50000000  0.50000000  0.97634859  1
  O  O198  1  0.50000000  0.25000000  0.97634859  1
  O  O199  1  0.50000000  -0.00000000  0.97634859  1
  O  O200  1  0.25000000  0.75000000  0.97634859  1
  O  O201  1  0.25000000  0.50000000  0.97634859  1
  O  O202  1  0.25000000  0.25000000  0.97634859  1
  O  O203  1  0.25000000  -0.00000000  0.97634859  1
  O  O204  1  0.00000000  0.75000000  0.97634859  1
  O  O205  1  0.00000000  0.50000000  0.97634859  1
  O  O206  1  0.00000000  0.25000000  0.97634859  1
  O  O207  1  0.00000000  -0.00000000  0.97634859  1
  O  O208  1  0.62500000  0.62500000  1.47634859  1
  O  O209  1  0.62500000  0.37500000  1.47634859  1
  O  O210  1  0.62500000  0.12500000  1.47634859  1
  O  O211  1  0.62500000  -0.12500000  1.47634859  1
  O  O212  1  0.37500000  0.62500000  1.47634859  1
  O  O213  1  0.37500000  0.37500000  1.47634859  1
  O  O214  1  0.37500000  0.12500000  1.47634859  1
  O  O215  1  0.37500000  -0.12500000  1.47634859  1
  O  O216  1  0.12500000  0.62500000  1.47634859  1
  O  O217  1  0.12500000  0.37500000  1.47634859  1
  O  O218  1  0.12500000  0.12500000  1.47634859  1
  O  O219  1  0.12500000  -0.12500000  1.47634859  1
  O  O220  1  -0.12500000  0.62500000  1.47634859  1
  O  O221  1  -0.12500000  0.37500000  1.47634859  1
  O  O222  1  -0.12500000  0.12500000  1.47634859  1
  O  O223  1  -0.12500000  -0.12500000  1.47634859  1
