# generated using pymatgen
data_Zn(PtO2)3
_symmetry_space_group_name_H-M   'P 1'
_cell_length_a   14.13095924
_cell_length_b   19.74637162
_cell_length_c   15.85762510
_cell_angle_alpha   90.00000000
_cell_angle_beta   90.00000000
_cell_angle_gamma   90.00000000
_symmetry_Int_Tables_number   1
_chemical_formula_structural   Zn(PtO2)3
_chemical_formula_sum   'Zn40 Pt120 O240'
_cell_volume   4424.83515363
_cell_formula_units_Z   40
loop_
 _symmetry_equiv_pos_site_id
 _symmetry_equiv_pos_as_xyz
  1  'x, y, z'
loop_
 _atom_site_type_symbol
 _atom_site_label
 _atom_site_symmetry_multiplicity
 _atom_site_fract_x
 _atom_site_fract_y
 _atom_site_fract_z
 _atom_site_occupancy
  Zn  Zn0  1  0.25000000  0.00000000  0.00000000  1
  Zn  Zn1  1  0.25000000  0.00000000  0.20000000  1
  Zn  Zn2  1  0.25000000  0.00000000  0.40000000  1
  Zn  Zn3  1  0.25000000  0.00000000  0.60000000  1
  Zn  Zn4  1  0.25000000  0.00000000  0.80000000  1
  Zn  Zn5  1  0.25000000  0.50000000  0.00000000  1
  Zn  Zn6  1  0.25000000  0.50000000  0.20000000  1
  Zn  Zn7  1  0.25000000  0.50000000  0.40000000  1
  Zn  Zn8  1  0.25000000  0.50000000  0.60000000  1
  Zn  Zn9  1  0.25000000  0.50000000  0.80000000  1
  Zn  Zn10  1  0.75000000  0.00000000  0.00000000  1
  Zn  Zn11  1  0.75000000  0.00000000  0.20000000  1
  Zn  Zn12  1  0.75000000  0.00000000  0.40000000  1
  Zn  Zn13  1  0.75000000  0.00000000  0.60000000  1
  Zn  Zn14  1  0.75000000  0.00000000  0.80000000  1
  Zn  Zn15  1  0.75000000  0.50000000  0.00000000  1
  Zn  Zn16  1  0.75000000  0.50000000  0.20000000  1
  Zn  Zn17  1  0.75000000  0.50000000  0.40000000  1
  Zn  Zn18  1  0.75000000  0.50000000  0.60000000  1
  Zn  Zn19  1  0.75000000  0.50000000  0.80000000  1
  Zn  Zn20  1  0.50000000  0.25000000  0.00000000  1
  Zn  Zn21  1  0.50000000  0.25000000  0.20000000  1
  Zn  Zn22  1  0.50000000  0.25000000  0.40000000  1
  Zn  Zn23  1  0.50000000  0.25000000  0.60000000  1
  Zn  Zn24  1  0.50000000  0.25000000  0.80000000  1
  Zn  Zn25  1  0.50000000  0.75000000  0.00000000  1
  Zn  Zn26  1  0.50000000  0.75000000  0.20000000  1
  Zn  Zn27  1  0.50000000  0.75000000  0.40000000  1
  Zn  Zn28  1  0.50000000  0.75000000  0.60000000  1
  Zn  Zn29  1  0.50000000  0.75000000  0.80000000  1
  Zn  Zn30  1  1.00000000  0.25000000  0.00000000  1
  Zn  Zn31  1  1.00000000  0.25000000  0.20000000  1
  Zn  Zn32  1  1.00000000  0.25000000  0.40000000  1
  Zn  Zn33  1  1.00000000  0.25000000  0.60000000  1
  Zn  Zn34  1  1.00000000  0.25000000  0.80000000  1
  Zn  Zn35  1  1.00000000  0.75000000  0.00000000  1
  Zn  Zn36  1  1.00000000  0.75000000  0.20000000  1
  Zn  Zn37  1  1.00000000  0.75000000  0.40000000  1
  Zn  Zn38  1  1.00000000  0.75000000  0.60000000  1
  Zn  Zn39  1  1.00000000  0.75000000  0.80000000  1
  Pt  Pt40  1  0.12500000  -0.12500000  0.10000000  1
  Pt  Pt41  1  0.12500000  -0.12500000  0.30000000  1
  Pt  Pt42  1  0.12500000  -0.12500000  0.50000000  1
  Pt  Pt43  1  0.12500000  -0.12500000  0.70000000  1
  Pt  Pt44  1  0.12500000  -0.12500000  0.90000000  1
  Pt  Pt45  1  0.12500000  0.37500000  0.10000000  1
  Pt  Pt46  1  0.12500000  0.37500000  0.30000000  1
  Pt  Pt47  1  0.12500000  0.37500000  0.50000000  1
  Pt  Pt48  1  0.12500000  0.37500000  0.70000000  1
  Pt  Pt49  1  0.12500000  0.37500000  0.90000000  1
  Pt  Pt50  1  0.62500000  -0.12500000  0.10000000  1
  Pt  Pt51  1  0.62500000  -0.12500000  0.30000000  1
  Pt  Pt52  1  0.62500000  -0.12500000  0.50000000  1
  Pt  Pt53  1  0.62500000  -0.12500000  0.70000000  1
  Pt  Pt54  1  0.62500000  -0.12500000  0.90000000  1
  Pt  Pt55  1  0.62500000  0.37500000  0.10000000  1
  Pt  Pt56  1  0.62500000  0.37500000  0.30000000  1
  Pt  Pt57  1  0.62500000  0.37500000  0.50000000  1
  Pt  Pt58  1  0.62500000  0.37500000  0.70000000  1
  Pt  Pt59  1  0.62500000  0.37500000  0.90000000  1
  Pt  Pt60  1  0.37500000  0.12500000  0.10000000  1
  Pt  Pt61  1  0.37500000  0.12500000  0.30000000  1
  Pt  Pt62  1  0.37500000  0.12500000  0.50000000  1
  Pt  Pt63  1  0.37500000  0.12500000  0.70000000  1
  Pt  Pt64  1  0.37500000  0.12500000  0.90000000  1
  Pt  Pt65  1  0.37500000  0.62500000  0.10000000  1
  Pt  Pt66  1  0.37500000  0.62500000  0.30000000  1
  Pt  Pt67  1  0.37500000  0.62500000  0.50000000  1
  Pt  Pt68  1  0.37500000  0.62500000  0.70000000  1
  Pt  Pt69  1  0.37500000  0.62500000  0.90000000  1
  Pt  Pt70  1  0.87500000  0.12500000  0.10000000  1
  Pt  Pt71  1  0.87500000  0.12500000  0.30000000  1
  Pt  Pt72  1  0.87500000  0.12500000  0.50000000  1
  Pt  Pt73  1  0.87500000  0.12500000  0.70000000  1
  Pt  Pt74  1  0.87500000  0.12500000  0.90000000  1
  Pt  Pt75  1  0.87500000  0.62500000  0.10000000  1
  Pt  Pt76  1  0.87500000  0.62500000  0.30000000  1
  Pt  Pt77  1  0.87500000  0.62500000  0.50000000  1
  Pt  Pt78  1  0.87500000  0.62500000  0.70000000  1
  Pt  Pt79  1  0.87500000  0.62500000  0.90000000  1
  Pt  Pt80  1  -0.00000000  0.00000000  0.00000000  1
  Pt  Pt81  1  -0.00000000  0.00000000  0.20000000  1
  Pt  Pt82  1  -0.00000000  0.00000000  0.40000000  1
  Pt  Pt83  1  -0.00000000  0.00000000  0.60000000  1
  Pt  Pt84  1  -0.00000000  0.00000000  0.80000000  1
  Pt  Pt85  1  -0.00000000  0.50000000  0.00000000  1
  Pt  Pt86  1  -0.00000000  0.50000000  0.20000000  1
  Pt  Pt87  1  -0.00000000  0.50000000  0.40000000  1
  Pt  Pt88  1  -0.00000000  0.50000000  0.60000000  1
  Pt  Pt89  1  -0.00000000  0.50000000  0.80000000  1
  Pt  Pt90  1  0.50000000  0.00000000  0.00000000  1
  Pt  Pt91  1  0.50000000  0.00000000  0.20000000  1
  Pt  Pt92  1  0.50000000  0.00000000  0.40000000  1
  Pt  Pt93  1  0.50000000  0.00000000  0.60000000  1
  Pt  Pt94  1  0.50000000  0.00000000  0.80000000  1
  Pt  Pt95  1  0.50000000  0.50000000  0.00000000  1
  Pt  Pt96  1  0.50000000  0.50000000  0.20000000  1
  Pt  Pt97  1  0.50000000  0.50000000  0.40000000  1
  Pt  Pt98  1  0.50000000  0.50000000  0.60000000  1
  Pt  Pt99  1  0.50000000  0.50000000  0.80000000  1
  Pt  Pt100  1  0.25000000  0.25000000  0.00000000  1
  Pt  Pt101  1  0.25000000  0.25000000  0.20000000  1
  Pt  Pt102  1  0.25000000  0.25000000  0.40000000  1
  Pt  Pt103  1  0.25000000  0.25000000  0.60000000  1
  Pt  Pt104  1  0.25000000  0.25000000  0.80000000  1
  Pt  Pt105  1  0.25000000  0.75000000  0.00000000  1
  Pt  Pt106  1  0.25000000  0.75000000  0.20000000  1
  Pt  Pt107  1  0.25000000  0.75000000  0.40000000  1
  Pt  Pt108  1  0.25000000  0.75000000  0.60000000  1
  Pt  Pt109  1  0.25000000  0.75000000  0.80000000  1
  Pt  Pt110  1  0.75000000  0.25000000  0.00000000  1
  Pt  Pt111  1  0.75000000  0.25000000  0.20000000  1
  Pt  Pt112  1  0.75000000  0.25000000  0.40000000  1
  Pt  Pt113  1  0.75000000  0.25000000  0.60000000  1
  Pt  Pt114  1  0.75000000  0.25000000  0.80000000  1
  Pt  Pt115  1  0.75000000  0.75000000  0.00000000  1
  Pt  Pt116  1  0.75000000  0.75000000  0.20000000  1
  Pt  Pt117  1  0.75000000  0.75000000  0.40000000  1
  Pt  Pt118  1  0.75000000  0.75000000  0.60000000  1
  Pt  Pt119  1  0.75000000  0.75000000  0.80000000  1
  Pt  Pt120  1  0.12500000  0.12500000  0.10000000  1
  Pt  Pt121  1  0.12500000  0.12500000  0.30000000  1
  Pt  Pt122  1  0.12500000  0.12500000  0.50000000  1
  Pt  Pt123  1  0.12500000  0.12500000  0.70000000  1
  Pt  Pt124  1  0.12500000  0.12500000  0.90000000  1
  Pt  Pt125  1  0.12500000  0.62500000  0.10000000  1
  Pt  Pt126  1  0.12500000  0.62500000  0.30000000  1
  Pt  Pt127  1  0.12500000  0.62500000  0.50000000  1
  Pt  Pt128  1  0.12500000  0.62500000  0.70000000  1
  Pt  Pt129  1  0.12500000  0.62500000  0.90000000  1
  Pt  Pt130  1  0.62500000  0.12500000  0.10000000  1
  Pt  Pt131  1  0.62500000  0.12500000  0.30000000  1
  Pt  Pt132  1  0.62500000  0.12500000  0.50000000  1
  Pt  Pt133  1  0.62500000  0.12500000  0.70000000  1
  Pt  Pt134  1  0.62500000  0.12500000  0.90000000  1
  Pt  Pt135  1  0.62500000  0.62500000  0.10000000  1
  Pt  Pt136  1  0.62500000  0.62500000  0.30000000  1
  Pt  Pt137  1  0.62500000  0.62500000  0.50000000  1
  Pt  Pt138  1  0.62500000  0.62500000  0.70000000  1
  Pt  Pt139  1  0.62500000  0.62500000  0.90000000  1
  Pt  Pt140  1  0.37500000  0.37500000  0.10000000  1
  Pt  Pt141  1  0.37500000  0.37500000  0.30000000  1
  Pt  Pt142  1  0.37500000  0.37500000  0.50000000  1
  Pt  Pt143  1  0.37500000  0.37500000  0.70000000  1
  Pt  Pt144  1  0.37500000  0.37500000  0.90000000  1
  Pt  Pt145  1  0.37500000  0.87500000  0.10000000  1
  Pt  Pt146  1  0.37500000  0.87500000  0.30000000  1
  Pt  Pt147  1  0.37500000  0.87500000  0.50000000  1
  Pt  Pt148  1  0.37500000  0.87500000  0.70000000  1
  Pt  Pt149  1  0.37500000  0.87500000  0.90000000  1
  Pt  Pt150  1  0.87500000  0.37500000  0.10000000  1
  Pt  Pt151  1  0.87500000  0.37500000  0.30000000  1
  Pt  Pt152  1  0.87500000  0.37500000  0.50000000  1
  Pt  Pt153  1  0.87500000  0.37500000  0.70000000  1
  Pt  Pt154  1  0.87500000  0.37500000  0.90000000  1
  Pt  Pt155  1  0.87500000  0.87500000  0.10000000  1
  Pt  Pt156  1  0.87500000  0.87500000  0.30000000  1
  Pt  Pt157  1  0.87500000  0.87500000  0.50000000  1
  Pt  Pt158  1  0.87500000  0.87500000  0.70000000  1
  Pt  Pt159  1  0.87500000  0.87500000  0.90000000  1
  O  O160  1  0.10625804  0.06353814  0.00000000  1
  O  O161  1  0.10625804  0.06353814  0.20000000  1
  O  O162  1  0.10625804  0.06353814  0.40000000  1
  O  O163  1  0.10625804  0.06353814  0.60000000  1
  O  O164  1  0.10625804  0.06353814  0.80000000  1
  O  O165  1  0.10625804  0.56353814  0.00000000  1
  O  O166  1  0.10625804  0.56353814  0.20000000  1
  O  O167  1  0.10625804  0.56353814  0.40000000  1
  O  O168  1  0.10625804  0.56353814  0.60000000  1
  O  O169  1  0.10625804  0.56353814  0.80000000  1
  O  O170  1  0.60625804  0.06353814  0.00000000  1
  O  O171  1  0.60625804  0.06353814  0.20000000  1
  O  O172  1  0.60625804  0.06353814  0.40000000  1
  O  O173  1  0.60625804  0.06353814  0.60000000  1
  O  O174  1  0.60625804  0.06353814  0.80000000  1
  O  O175  1  0.60625804  0.56353814  0.00000000  1
  O  O176  1  0.60625804  0.56353814  0.20000000  1
  O  O177  1  0.60625804  0.56353814  0.40000000  1
  O  O178  1  0.60625804  0.56353814  0.60000000  1
  O  O179  1  0.60625804  0.56353814  0.80000000  1
  O  O180  1  0.35625804  0.31353814  0.00000000  1
  O  O181  1  0.35625804  0.31353814  0.20000000  1
  O  O182  1  0.35625804  0.31353814  0.40000000  1
  O  O183  1  0.35625804  0.31353814  0.60000000  1
  O  O184  1  0.35625804  0.31353814  0.80000000  1
  O  O185  1  0.35625804  0.81353814  0.00000000  1
  O  O186  1  0.35625804  0.81353814  0.20000000  1
  O  O187  1  0.35625804  0.81353814  0.40000000  1
  O  O188  1  0.35625804  0.81353814  0.60000000  1
  O  O189  1  0.35625804  0.81353814  0.80000000  1
  O  O190  1  0.85625804  0.31353814  0.00000000  1
  O  O191  1  0.85625804  0.31353814  0.20000000  1
  O  O192  1  0.85625804  0.31353814  0.40000000  1
  O  O193  1  0.85625804  0.31353814  0.60000000  1
  O  O194  1  0.85625804  0.31353814  0.80000000  1
  O  O195  1  0.85625804  0.81353814  0.00000000  1
  O  O196  1  0.85625804  0.81353814  0.20000000  1
  O  O197  1  0.85625804  0.81353814  0.40000000  1
  O  O198  1  0.85625804  0.81353814  0.60000000  1
  O  O199  1  0.85625804  0.81353814  0.80000000  1
  O  O200  1  0.39374196  -0.06353814  0.00000000  1
  O  O201  1  0.39374196  -0.06353814  0.20000000  1
  O  O202  1  0.39374196  -0.06353814  0.40000000  1
  O  O203  1  0.39374196  -0.06353814  0.60000000  1
  O  O204  1  0.39374196  -0.06353814  0.80000000  1
  O  O205  1  0.39374196  0.43646186  0.00000000  1
  O  O206  1  0.39374196  0.43646186  0.20000000  1
  O  O207  1  0.39374196  0.43646186  0.40000000  1
  O  O208  1  0.39374196  0.43646186  0.60000000  1
  O  O209  1  0.39374196  0.43646186  0.80000000  1
  O  O210  1  0.89374196  -0.06353814  0.00000000  1
  O  O211  1  0.89374196  -0.06353814  0.20000000  1
  O  O212  1  0.89374196  -0.06353814  0.40000000  1
  O  O213  1  0.89374196  -0.06353814  0.60000000  1
  O  O214  1  0.89374196  -0.06353814  0.80000000  1
  O  O215  1  0.89374196  0.43646186  0.00000000  1
  O  O216  1  0.89374196  0.43646186  0.20000000  1
  O  O217  1  0.89374196  0.43646186  0.40000000  1
  O  O218  1  0.89374196  0.43646186  0.60000000  1
  O  O219  1  0.89374196  0.43646186  0.80000000  1
  O  O220  1  0.64374196  0.18646186  0.00000000  1
  O  O221  1  0.64374196  0.18646186  0.20000000  1
  O  O222  1  0.64374196  0.18646186  0.40000000  1
  O  O223  1  0.64374196  0.18646186  0.60000000  1
  O  O224  1  0.64374196  0.18646186  0.80000000  1
  O  O225  1  0.64374196  0.68646186  0.00000000  1
  O  O226  1  0.64374196  0.68646186  0.20000000  1
  O  O227  1  0.64374196  0.68646186  0.40000000  1
  O  O228  1  0.64374196  0.68646186  0.60000000  1
  O  O229  1  0.64374196  0.68646186  0.80000000  1
  O  O230  1  1.14374196  0.18646186  0.00000000  1
  O  O231  1  1.14374196  0.18646186  0.20000000  1
  O  O232  1  1.14374196  0.18646186  0.40000000  1
  O  O233  1  1.14374196  0.18646186  0.60000000  1
  O  O234  1  1.14374196  0.18646186  0.80000000  1
  O  O235  1  1.14374196  0.68646186  0.00000000  1
  O  O236  1  1.14374196  0.68646186  0.20000000  1
  O  O237  1  1.14374196  0.68646186  0.40000000  1
  O  O238  1  1.14374196  0.68646186  0.60000000  1
  O  O239  1  1.14374196  0.68646186  0.80000000  1
  O  O240  1  0.10625804  -0.06353814  0.00000000  1
  O  O241  1  0.10625804  -0.06353814  0.20000000  1
  O  O242  1  0.10625804  -0.06353814  0.40000000  1
  O  O243  1  0.10625804  -0.06353814  0.60000000  1
  O  O244  1  0.10625804  -0.06353814  0.80000000  1
  O  O245  1  0.10625804  0.43646186  0.00000000  1
  O  O246  1  0.10625804  0.43646186  0.20000000  1
  O  O247  1  0.10625804  0.43646186  0.40000000  1
  O  O248  1  0.10625804  0.43646186  0.60000000  1
  O  O249  1  0.10625804  0.43646186  0.80000000  1
  O  O250  1  0.60625804  -0.06353814  0.00000000  1
  O  O251  1  0.60625804  -0.06353814  0.20000000  1
  O  O252  1  0.60625804  -0.06353814  0.40000000  1
  O  O253  1  0.60625804  -0.06353814  0.60000000  1
  O  O254  1  0.60625804  -0.06353814  0.80000000  1
  O  O255  1  0.60625804  0.43646186  0.00000000  1
  O  O256  1  0.60625804  0.43646186  0.20000000  1
  O  O257  1  0.60625804  0.43646186  0.40000000  1
  O  O258  1  0.60625804  0.43646186  0.60000000  1
  O  O259  1  0.60625804  0.43646186  0.80000000  1
  O  O260  1  0.35625804  0.18646186  0.00000000  1
  O  O261  1  0.35625804  0.18646186  0.20000000  1
  O  O262  1  0.35625804  0.18646186  0.40000000  1
  O  O263  1  0.35625804  0.18646186  0.60000000  1
  O  O264  1  0.35625804  0.18646186  0.80000000  1
  O  O265  1  0.35625804  0.68646186  0.00000000  1
  O  O266  1  0.35625804  0.68646186  0.20000000  1
  O  O267  1  0.35625804  0.68646186  0.40000000  1
  O  O268  1  0.35625804  0.68646186  0.60000000  1
  O  O269  1  0.35625804  0.68646186  0.80000000  1
  O  O270  1  0.85625804  0.18646186  0.00000000  1
  O  O271  1  0.85625804  0.18646186  0.20000000  1
  O  O272  1  0.85625804  0.18646186  0.40000000  1
  O  O273  1  0.85625804  0.18646186  0.60000000  1
  O  O274  1  0.85625804  0.18646186  0.80000000  1
  O  O275  1  0.85625804  0.68646186  0.00000000  1
  O  O276  1  0.85625804  0.68646186  0.20000000  1
  O  O277  1  0.85625804  0.68646186  0.40000000  1
  O  O278  1  0.85625804  0.68646186  0.60000000  1
  O  O279  1  0.85625804  0.68646186  0.80000000  1
  O  O280  1  0.39374196  0.06353814  0.00000000  1
  O  O281  1  0.39374196  0.06353814  0.20000000  1
  O  O282  1  0.39374196  0.06353814  0.40000000  1
  O  O283  1  0.39374196  0.06353814  0.60000000  1
  O  O284  1  0.39374196  0.06353814  0.80000000  1
  O  O285  1  0.39374196  0.56353814  0.00000000  1
  O  O286  1  0.39374196  0.56353814  0.20000000  1
  O  O287  1  0.39374196  0.56353814  0.40000000  1
  O  O288  1  0.39374196  0.56353814  0.60000000  1
  O  O289  1  0.39374196  0.56353814  0.80000000  1
  O  O290  1  0.89374196  0.06353814  0.00000000  1
  O  O291  1  0.89374196  0.06353814  0.20000000  1
  O  O292  1  0.89374196  0.06353814  0.40000000  1
  O  O293  1  0.89374196  0.06353814  0.60000000  1
  O  O294  1  0.89374196  0.06353814  0.80000000  1
  O  O295  1  0.89374196  0.56353814  0.00000000  1
  O  O296  1  0.89374196  0.56353814  0.20000000  1
  O  O297  1  0.89374196  0.56353814  0.40000000  1
  O  O298  1  0.89374196  0.56353814  0.60000000  1
  O  O299  1  0.89374196  0.56353814  0.80000000  1
  O  O300  1  0.64374196  0.31353814  0.00000000  1
  O  O301  1  0.64374196  0.31353814  0.20000000  1
  O  O302  1  0.64374196  0.31353814  0.40000000  1
  O  O303  1  0.64374196  0.31353814  0.60000000  1
  O  O304  1  0.64374196  0.31353814  0.80000000  1
  O  O305  1  0.64374196  0.81353814  0.00000000  1
  O  O306  1  0.64374196  0.81353814  0.20000000  1
  O  O307  1  0.64374196  0.81353814  0.40000000  1
  O  O308  1  0.64374196  0.81353814  0.60000000  1
  O  O309  1  0.64374196  0.81353814  0.80000000  1
  O  O310  1  1.14374196  0.31353814  0.00000000  1
  O  O311  1  1.14374196  0.31353814  0.20000000  1
  O  O312  1  1.14374196  0.31353814  0.40000000  1
  O  O313  1  1.14374196  0.31353814  0.60000000  1
  O  O314  1  1.14374196  0.31353814  0.80000000  1
  O  O315  1  1.14374196  0.81353814  0.00000000  1
  O  O316  1  1.14374196  0.81353814  0.20000000  1
  O  O317  1  1.14374196  0.81353814  0.40000000  1
  O  O318  1  1.14374196  0.81353814  0.60000000  1
  O  O319  1  1.14374196  0.81353814  0.80000000  1
  O  O320  1  0.25000000  -0.07343971  0.10000000  1
  O  O321  1  0.25000000  -0.07343971  0.30000000  1
  O  O322  1  0.25000000  -0.07343971  0.50000000  1
  O  O323  1  0.25000000  -0.07343971  0.70000000  1
  O  O324  1  0.25000000  -0.07343971  0.90000000  1
  O  O325  1  0.25000000  0.42656029  0.10000000  1
  O  O326  1  0.25000000  0.42656029  0.30000000  1
  O  O327  1  0.25000000  0.42656029  0.50000000  1
  O  O328  1  0.25000000  0.42656029  0.70000000  1
  O  O329  1  0.25000000  0.42656029  0.90000000  1
  O  O330  1  0.75000000  -0.07343971  0.10000000  1
  O  O331  1  0.75000000  -0.07343971  0.30000000  1
  O  O332  1  0.75000000  -0.07343971  0.50000000  1
  O  O333  1  0.75000000  -0.07343971  0.70000000  1
  O  O334  1  0.75000000  -0.07343971  0.90000000  1
  O  O335  1  0.75000000  0.42656029  0.10000000  1
  O  O336  1  0.75000000  0.42656029  0.30000000  1
  O  O337  1  0.75000000  0.42656029  0.50000000  1
  O  O338  1  0.75000000  0.42656029  0.70000000  1
  O  O339  1  0.75000000  0.42656029  0.90000000  1
  O  O340  1  0.50000000  0.17656029  0.10000000  1
  O  O341  1  0.50000000  0.17656029  0.30000000  1
  O  O342  1  0.50000000  0.17656029  0.50000000  1
  O  O343  1  0.50000000  0.17656029  0.70000000  1
  O  O344  1  0.50000000  0.17656029  0.90000000  1
  O  O345  1  0.50000000  0.67656029  0.10000000  1
  O  O346  1  0.50000000  0.67656029  0.30000000  1
  O  O347  1  0.50000000  0.67656029  0.50000000  1
  O  O348  1  0.50000000  0.67656029  0.70000000  1
  O  O349  1  0.50000000  0.67656029  0.90000000  1
  O  O350  1  1.00000000  0.17656029  0.10000000  1
  O  O351  1  1.00000000  0.17656029  0.30000000  1
  O  O352  1  1.00000000  0.17656029  0.50000000  1
  O  O353  1  1.00000000  0.17656029  0.70000000  1
  O  O354  1  1.00000000  0.17656029  0.90000000  1
  O  O355  1  1.00000000  0.67656029  0.10000000  1
  O  O356  1  1.00000000  0.67656029  0.30000000  1
  O  O357  1  1.00000000  0.67656029  0.50000000  1
  O  O358  1  1.00000000  0.67656029  0.70000000  1
  O  O359  1  1.00000000  0.67656029  0.90000000  1
  O  O360  1  0.25000000  0.07343971  0.10000000  1
  O  O361  1  0.25000000  0.07343971  0.30000000  1
  O  O362  1  0.25000000  0.07343971  0.50000000  1
  O  O363  1  0.25000000  0.07343971  0.70000000  1
  O  O364  1  0.25000000  0.07343971  0.90000000  1
  O  O365  1  0.25000000  0.57343971  0.10000000  1
  O  O366  1  0.25000000  0.57343971  0.30000000  1
  O  O367  1  0.25000000  0.57343971  0.50000000  1
  O  O368  1  0.25000000  0.57343971  0.70000000  1
  O  O369  1  0.25000000  0.57343971  0.90000000  1
  O  O370  1  0.75000000  0.07343971  0.10000000  1
  O  O371  1  0.75000000  0.07343971  0.30000000  1
  O  O372  1  0.75000000  0.07343971  0.50000000  1
  O  O373  1  0.75000000  0.07343971  0.70000000  1
  O  O374  1  0.75000000  0.07343971  0.90000000  1
  O  O375  1  0.75000000  0.57343971  0.10000000  1
  O  O376  1  0.75000000  0.57343971  0.30000000  1
  O  O377  1  0.75000000  0.57343971  0.50000000  1
  O  O378  1  0.75000000  0.57343971  0.70000000  1
  O  O379  1  0.75000000  0.57343971  0.90000000  1
  O  O380  1  0.50000000  0.32343971  0.10000000  1
  O  O381  1  0.50000000  0.32343971  0.30000000  1
  O  O382  1  0.50000000  0.32343971  0.50000000  1
  O  O383  1  0.50000000  0.32343971  0.70000000  1
  O  O384  1  0.50000000  0.32343971  0.90000000  1
  O  O385  1  0.50000000  0.82343971  0.10000000  1
  O  O386  1  0.50000000  0.82343971  0.30000000  1
  O  O387  1  0.50000000  0.82343971  0.50000000  1
  O  O388  1  0.50000000  0.82343971  0.70000000  1
  O  O389  1  0.50000000  0.82343971  0.90000000  1
  O  O390  1  1.00000000  0.32343971  0.10000000  1
  O  O391  1  1.00000000  0.32343971  0.30000000  1
  O  O392  1  1.00000000  0.32343971  0.50000000  1
  O  O393  1  1.00000000  0.32343971  0.70000000  1
  O  O394  1  1.00000000  0.32343971  0.90000000  1
  O  O395  1  1.00000000  0.82343971  0.10000000  1
  O  O396  1  1.00000000  0.82343971  0.30000000  1
  O  O397  1  1.00000000  0.82343971  0.50000000  1
  O  O398  1  1.00000000  0.82343971  0.70000000  1
  O  O399  1  1.00000000  0.82343971  0.90000000  1
