# generated using pymatgen
data_KBiO2
_symmetry_space_group_name_H-M   'P 1'
_cell_length_a   15.63555085
_cell_length_b   15.85621569
_cell_length_c   17.98212367
_cell_angle_alpha   90.00000000
_cell_angle_beta   124.65481107
_cell_angle_gamma   90.00000000
_symmetry_Int_Tables_number   1
_chemical_formula_structural   KBiO2
_chemical_formula_sum   'K48 Bi48 O96'
_cell_volume   3667.23382148
_cell_formula_units_Z   48
loop_
 _symmetry_equiv_pos_site_id
 _symmetry_equiv_pos_as_xyz
  1  'x, y, z'
loop_
 _atom_site_type_symbol
 _atom_site_label
 _atom_site_symmetry_multiplicity
 _atom_site_fract_x
 _atom_site_fract_y
 _atom_site_fract_z
 _atom_site_occupancy
  K  K0  1  0.25000000  0.18469716  0.08333333  1
  K  K1  1  0.25000000  0.18469716  0.41666667  1
  K  K2  1  0.25000000  0.18469716  0.75000000  1
  K  K3  1  0.25000000  0.68469716  0.08333333  1
  K  K4  1  0.25000000  0.68469716  0.41666667  1
  K  K5  1  0.25000000  0.68469716  0.75000000  1
  K  K6  1  0.75000000  0.18469716  0.08333333  1
  K  K7  1  0.75000000  0.18469716  0.41666667  1
  K  K8  1  0.75000000  0.18469716  0.75000000  1
  K  K9  1  0.75000000  0.68469716  0.08333333  1
  K  K10  1  0.75000000  0.68469716  0.41666667  1
  K  K11  1  0.75000000  0.68469716  0.75000000  1
  K  K12  1  0.50000000  0.43469716  0.08333333  1
  K  K13  1  0.50000000  0.43469716  0.41666667  1
  K  K14  1  0.50000000  0.43469716  0.75000000  1
  K  K15  1  0.50000000  0.93469716  0.08333333  1
  K  K16  1  0.50000000  0.93469716  0.41666667  1
  K  K17  1  0.50000000  0.93469716  0.75000000  1
  K  K18  1  1.00000000  0.43469716  0.08333333  1
  K  K19  1  1.00000000  0.43469716  0.41666667  1
  K  K20  1  1.00000000  0.43469716  0.75000000  1
  K  K21  1  1.00000000  0.93469716  0.08333333  1
  K  K22  1  1.00000000  0.93469716  0.41666667  1
  K  K23  1  1.00000000  0.93469716  0.75000000  1
  K  K24  1  0.25000000  -0.18469716  0.25000000  1
  K  K25  1  0.25000000  -0.18469716  0.58333333  1
  K  K26  1  0.25000000  -0.18469716  0.91666667  1
  K  K27  1  0.25000000  0.31530284  0.25000000  1
  K  K28  1  0.25000000  0.31530284  0.58333333  1
  K  K29  1  0.25000000  0.31530284  0.91666667  1
  K  K30  1  0.75000000  -0.18469716  0.25000000  1
  K  K31  1  0.75000000  -0.18469716  0.58333333  1
  K  K32  1  0.75000000  -0.18469716  0.91666667  1
  K  K33  1  0.75000000  0.31530284  0.25000000  1
  K  K34  1  0.75000000  0.31530284  0.58333333  1
  K  K35  1  0.75000000  0.31530284  0.91666667  1
  K  K36  1  0.50000000  0.06530284  0.25000000  1
  K  K37  1  0.50000000  0.06530284  0.58333333  1
  K  K38  1  0.50000000  0.06530284  0.91666667  1
  K  K39  1  0.50000000  0.56530284  0.25000000  1
  K  K40  1  0.50000000  0.56530284  0.58333333  1
  K  K41  1  0.50000000  0.56530284  0.91666667  1
  K  K42  1  1.00000000  0.06530284  0.25000000  1
  K  K43  1  1.00000000  0.06530284  0.58333333  1
  K  K44  1  1.00000000  0.06530284  0.91666667  1
  K  K45  1  1.00000000  0.56530284  0.25000000  1
  K  K46  1  1.00000000  0.56530284  0.58333333  1
  K  K47  1  1.00000000  0.56530284  0.91666667  1
  Bi  Bi48  1  0.25000000  0.05253540  0.25000000  1
  Bi  Bi49  1  0.25000000  0.05253540  0.58333333  1
  Bi  Bi50  1  0.25000000  0.05253540  0.91666667  1
  Bi  Bi51  1  0.25000000  0.55253540  0.25000000  1
  Bi  Bi52  1  0.25000000  0.55253540  0.58333333  1
  Bi  Bi53  1  0.25000000  0.55253540  0.91666667  1
  Bi  Bi54  1  0.75000000  0.05253540  0.25000000  1
  Bi  Bi55  1  0.75000000  0.05253540  0.58333333  1
  Bi  Bi56  1  0.75000000  0.05253540  0.91666667  1
  Bi  Bi57  1  0.75000000  0.55253540  0.25000000  1
  Bi  Bi58  1  0.75000000  0.55253540  0.58333333  1
  Bi  Bi59  1  0.75000000  0.55253540  0.91666667  1
  Bi  Bi60  1  0.50000000  0.30253540  0.25000000  1
  Bi  Bi61  1  0.50000000  0.30253540  0.58333333  1
  Bi  Bi62  1  0.50000000  0.30253540  0.91666667  1
  Bi  Bi63  1  0.50000000  0.80253540  0.25000000  1
  Bi  Bi64  1  0.50000000  0.80253540  0.58333333  1
  Bi  Bi65  1  0.50000000  0.80253540  0.91666667  1
  Bi  Bi66  1  1.00000000  0.30253540  0.25000000  1
  Bi  Bi67  1  1.00000000  0.30253540  0.58333333  1
  Bi  Bi68  1  1.00000000  0.30253540  0.91666667  1
  Bi  Bi69  1  1.00000000  0.80253540  0.25000000  1
  Bi  Bi70  1  1.00000000  0.80253540  0.58333333  1
  Bi  Bi71  1  1.00000000  0.80253540  0.91666667  1
  Bi  Bi72  1  0.25000000  -0.05253540  0.08333333  1
  Bi  Bi73  1  0.25000000  -0.05253540  0.41666667  1
  Bi  Bi74  1  0.25000000  -0.05253540  0.75000000  1
  Bi  Bi75  1  0.25000000  0.44746460  0.08333333  1
  Bi  Bi76  1  0.25000000  0.44746460  0.41666667  1
  Bi  Bi77  1  0.25000000  0.44746460  0.75000000  1
  Bi  Bi78  1  0.75000000  -0.05253540  0.08333333  1
  Bi  Bi79  1  0.75000000  -0.05253540  0.41666667  1
  Bi  Bi80  1  0.75000000  -0.05253540  0.75000000  1
  Bi  Bi81  1  0.75000000  0.44746460  0.08333333  1
  Bi  Bi82  1  0.75000000  0.44746460  0.41666667  1
  Bi  Bi83  1  0.75000000  0.44746460  0.75000000  1
  Bi  Bi84  1  0.50000000  0.19746460  0.08333333  1
  Bi  Bi85  1  0.50000000  0.19746460  0.41666667  1
  Bi  Bi86  1  0.50000000  0.19746460  0.75000000  1
  Bi  Bi87  1  0.50000000  0.69746460  0.08333333  1
  Bi  Bi88  1  0.50000000  0.69746460  0.41666667  1
  Bi  Bi89  1  0.50000000  0.69746460  0.75000000  1
  Bi  Bi90  1  1.00000000  0.19746460  0.08333333  1
  Bi  Bi91  1  1.00000000  0.19746460  0.41666667  1
  Bi  Bi92  1  1.00000000  0.19746460  0.75000000  1
  Bi  Bi93  1  1.00000000  0.69746460  0.08333333  1
  Bi  Bi94  1  1.00000000  0.69746460  0.41666667  1
  Bi  Bi95  1  1.00000000  0.69746460  0.75000000  1
  O  O96  1  0.15395031  -0.03389801  0.26010845  1
  O  O97  1  0.15395031  -0.03389801  0.59344178  1
  O  O98  1  0.15395031  -0.03389801  0.92677511  1
  O  O99  1  0.15395031  0.46610199  0.26010845  1
  O  O100  1  0.15395031  0.46610199  0.59344178  1
  O  O101  1  0.15395031  0.46610199  0.92677511  1
  O  O102  1  0.65395031  -0.03389801  0.26010845  1
  O  O103  1  0.65395031  -0.03389801  0.59344178  1
  O  O104  1  0.65395031  -0.03389801  0.92677511  1
  O  O105  1  0.65395031  0.46610199  0.26010845  1
  O  O106  1  0.65395031  0.46610199  0.59344178  1
  O  O107  1  0.65395031  0.46610199  0.92677511  1
  O  O108  1  0.40395031  0.21610199  0.26010845  1
  O  O109  1  0.40395031  0.21610199  0.59344178  1
  O  O110  1  0.40395031  0.21610199  0.92677511  1
  O  O111  1  0.40395031  0.71610199  0.26010845  1
  O  O112  1  0.40395031  0.71610199  0.59344178  1
  O  O113  1  0.40395031  0.71610199  0.92677511  1
  O  O114  1  0.90395031  0.21610199  0.26010845  1
  O  O115  1  0.90395031  0.21610199  0.59344178  1
  O  O116  1  0.90395031  0.21610199  0.92677511  1
  O  O117  1  0.90395031  0.71610199  0.26010845  1
  O  O118  1  0.90395031  0.71610199  0.59344178  1
  O  O119  1  0.90395031  0.71610199  0.92677511  1
  O  O120  1  0.34604969  -0.03389801  0.23989155  1
  O  O121  1  0.34604969  -0.03389801  0.57322489  1
  O  O122  1  0.34604969  -0.03389801  0.90655822  1
  O  O123  1  0.34604969  0.46610199  0.23989155  1
  O  O124  1  0.34604969  0.46610199  0.57322489  1
  O  O125  1  0.34604969  0.46610199  0.90655822  1
  O  O126  1  0.84604969  -0.03389801  0.23989155  1
  O  O127  1  0.84604969  -0.03389801  0.57322489  1
  O  O128  1  0.84604969  -0.03389801  0.90655822  1
  O  O129  1  0.84604969  0.46610199  0.23989155  1
  O  O130  1  0.84604969  0.46610199  0.57322489  1
  O  O131  1  0.84604969  0.46610199  0.90655822  1
  O  O132  1  0.59604969  0.21610199  0.23989155  1
  O  O133  1  0.59604969  0.21610199  0.57322489  1
  O  O134  1  0.59604969  0.21610199  0.90655822  1
  O  O135  1  0.59604969  0.71610199  0.23989155  1
  O  O136  1  0.59604969  0.71610199  0.57322489  1
  O  O137  1  0.59604969  0.71610199  0.90655822  1
  O  O138  1  1.09604969  0.21610199  0.23989155  1
  O  O139  1  1.09604969  0.21610199  0.57322489  1
  O  O140  1  1.09604969  0.21610199  0.90655822  1
  O  O141  1  1.09604969  0.71610199  0.23989155  1
  O  O142  1  1.09604969  0.71610199  0.57322489  1
  O  O143  1  1.09604969  0.71610199  0.90655822  1
  O  O144  1  0.15395031  0.03389801  0.09344178  1
  O  O145  1  0.15395031  0.03389801  0.42677511  1
  O  O146  1  0.15395031  0.03389801  0.76010845  1
  O  O147  1  0.15395031  0.53389801  0.09344178  1
  O  O148  1  0.15395031  0.53389801  0.42677511  1
  O  O149  1  0.15395031  0.53389801  0.76010845  1
  O  O150  1  0.65395031  0.03389801  0.09344178  1
  O  O151  1  0.65395031  0.03389801  0.42677511  1
  O  O152  1  0.65395031  0.03389801  0.76010845  1
  O  O153  1  0.65395031  0.53389801  0.09344178  1
  O  O154  1  0.65395031  0.53389801  0.42677511  1
  O  O155  1  0.65395031  0.53389801  0.76010845  1
  O  O156  1  0.40395031  0.28389801  0.09344178  1
  O  O157  1  0.40395031  0.28389801  0.42677511  1
  O  O158  1  0.40395031  0.28389801  0.76010845  1
  O  O159  1  0.40395031  0.78389801  0.09344178  1
  O  O160  1  0.40395031  0.78389801  0.42677511  1
  O  O161  1  0.40395031  0.78389801  0.76010845  1
  O  O162  1  0.90395031  0.28389801  0.09344178  1
  O  O163  1  0.90395031  0.28389801  0.42677511  1
  O  O164  1  0.90395031  0.28389801  0.76010845  1
  O  O165  1  0.90395031  0.78389801  0.09344178  1
  O  O166  1  0.90395031  0.78389801  0.42677511  1
  O  O167  1  0.90395031  0.78389801  0.76010845  1
  O  O168  1  0.34604969  0.03389801  0.07322489  1
  O  O169  1  0.34604969  0.03389801  0.40655822  1
  O  O170  1  0.34604969  0.03389801  0.73989155  1
  O  O171  1  0.34604969  0.53389801  0.07322489  1
  O  O172  1  0.34604969  0.53389801  0.40655822  1
  O  O173  1  0.34604969  0.53389801  0.73989155  1
  O  O174  1  0.84604969  0.03389801  0.07322489  1
  O  O175  1  0.84604969  0.03389801  0.40655822  1
  O  O176  1  0.84604969  0.03389801  0.73989155  1
  O  O177  1  0.84604969  0.53389801  0.07322489  1
  O  O178  1  0.84604969  0.53389801  0.40655822  1
  O  O179  1  0.84604969  0.53389801  0.73989155  1
  O  O180  1  0.59604969  0.28389801  0.07322489  1
  O  O181  1  0.59604969  0.28389801  0.40655822  1
  O  O182  1  0.59604969  0.28389801  0.73989155  1
  O  O183  1  0.59604969  0.78389801  0.07322489  1
  O  O184  1  0.59604969  0.78389801  0.40655822  1
  O  O185  1  0.59604969  0.78389801  0.73989155  1
  O  O186  1  1.09604969  0.28389801  0.07322489  1
  O  O187  1  1.09604969  0.28389801  0.40655822  1
  O  O188  1  1.09604969  0.28389801  0.73989155  1
  O  O189  1  1.09604969  0.78389801  0.07322489  1
  O  O190  1  1.09604969  0.78389801  0.40655822  1
  O  O191  1  1.09604969  0.78389801  0.73989155  1
