# generated using pymatgen
data_ScVO4
_symmetry_space_group_name_H-M   'P 1'
_cell_length_a   13.53411317
_cell_length_b   13.53411317
_cell_length_c   12.11571394
_cell_angle_alpha   90.00000000
_cell_angle_beta   90.00000000
_cell_angle_gamma   90.00000000
_symmetry_Int_Tables_number   1
_chemical_formula_structural   ScVO4
_chemical_formula_sum   'Sc32 V32 O128'
_cell_volume   2219.26221075
_cell_formula_units_Z   32
loop_
 _symmetry_equiv_pos_site_id
 _symmetry_equiv_pos_as_xyz
  1  'x, y, z'
loop_
 _atom_site_type_symbol
 _atom_site_label
 _atom_site_symmetry_multiplicity
 _atom_site_fract_x
 _atom_site_fract_y
 _atom_site_fract_z
 _atom_site_occupancy
  Sc  Sc0  1  0.00000000  0.50000000  -0.00000000  1
  Sc  Sc1  1  0.00000000  0.50000000  0.50000000  1
  Sc  Sc2  1  0.50000000  0.50000000  -0.00000000  1
  Sc  Sc3  1  0.50000000  0.50000000  0.50000000  1
  Sc  Sc4  1  0.00000000  -0.00000000  -0.00000000  1
  Sc  Sc5  1  0.00000000  -0.00000000  0.50000000  1
  Sc  Sc6  1  0.50000000  -0.00000000  -0.00000000  1
  Sc  Sc7  1  0.50000000  -0.00000000  0.50000000  1
  Sc  Sc8  1  0.25000000  0.25000000  0.25000000  1
  Sc  Sc9  1  0.25000000  0.25000000  0.75000000  1
  Sc  Sc10  1  0.75000000  0.25000000  0.25000000  1
  Sc  Sc11  1  0.75000000  0.25000000  0.75000000  1
  Sc  Sc12  1  0.25000000  -0.25000000  0.25000000  1
  Sc  Sc13  1  0.25000000  -0.25000000  0.75000000  1
  Sc  Sc14  1  0.75000000  -0.25000000  0.25000000  1
  Sc  Sc15  1  0.75000000  -0.25000000  0.75000000  1
  Sc  Sc16  1  0.25000000  0.50000000  0.12500000  1
  Sc  Sc17  1  0.25000000  0.50000000  0.62500000  1
  Sc  Sc18  1  0.75000000  0.50000000  0.12500000  1
  Sc  Sc19  1  0.75000000  0.50000000  0.62500000  1
  Sc  Sc20  1  0.25000000  0.00000000  0.12500000  1
  Sc  Sc21  1  0.25000000  0.00000000  0.62500000  1
  Sc  Sc22  1  0.75000000  0.00000000  0.12500000  1
  Sc  Sc23  1  0.75000000  0.00000000  0.62500000  1
  Sc  Sc24  1  0.50000000  0.25000000  0.37500000  1
  Sc  Sc25  1  0.50000000  0.25000000  0.87500000  1
  Sc  Sc26  1  1.00000000  0.25000000  0.37500000  1
  Sc  Sc27  1  1.00000000  0.25000000  0.87500000  1
  Sc  Sc28  1  0.50000000  -0.25000000  0.37500000  1
  Sc  Sc29  1  0.50000000  -0.25000000  0.87500000  1
  Sc  Sc30  1  1.00000000  -0.25000000  0.37500000  1
  Sc  Sc31  1  1.00000000  -0.25000000  0.87500000  1
  V  V32  1  0.00000000  0.25000000  0.12500000  1
  V  V33  1  0.00000000  0.25000000  0.62500000  1
  V  V34  1  0.50000000  0.25000000  0.12500000  1
  V  V35  1  0.50000000  0.25000000  0.62500000  1
  V  V36  1  0.00000000  -0.25000000  0.12500000  1
  V  V37  1  0.00000000  -0.25000000  0.62500000  1
  V  V38  1  0.50000000  -0.25000000  0.12500000  1
  V  V39  1  0.50000000  -0.25000000  0.62500000  1
  V  V40  1  0.25000000  0.00000000  0.37500000  1
  V  V41  1  0.25000000  0.00000000  0.87500000  1
  V  V42  1  0.75000000  0.00000000  0.37500000  1
  V  V43  1  0.75000000  0.00000000  0.87500000  1
  V  V44  1  0.25000000  -0.50000000  0.37500000  1
  V  V45  1  0.25000000  -0.50000000  0.87500000  1
  V  V46  1  0.75000000  -0.50000000  0.37500000  1
  V  V47  1  0.75000000  -0.50000000  0.87500000  1
  V  V48  1  0.00000000  0.50000000  0.25000000  1
  V  V49  1  0.00000000  0.50000000  0.75000000  1
  V  V50  1  0.50000000  0.50000000  0.25000000  1
  V  V51  1  0.50000000  0.50000000  0.75000000  1
  V  V52  1  0.00000000  -0.00000000  0.25000000  1
  V  V53  1  0.00000000  -0.00000000  0.75000000  1
  V  V54  1  0.50000000  -0.00000000  0.25000000  1
  V  V55  1  0.50000000  -0.00000000  0.75000000  1
  V  V56  1  0.25000000  0.25000000  0.50000000  1
  V  V57  1  0.25000000  0.25000000  1.00000000  1
  V  V58  1  0.75000000  0.25000000  0.50000000  1
  V  V59  1  0.75000000  0.25000000  1.00000000  1
  V  V60  1  0.25000000  -0.25000000  0.50000000  1
  V  V61  1  0.25000000  -0.25000000  1.00000000  1
  V  V62  1  0.75000000  -0.25000000  0.50000000  1
  V  V63  1  0.75000000  -0.25000000  1.00000000  1
  O  O64  1  0.09700507  0.25000000  0.21566530  1
  O  O65  1  0.09700507  0.25000000  0.71566530  1
  O  O66  1  0.59700507  0.25000000  0.21566530  1
  O  O67  1  0.59700507  0.25000000  0.71566530  1
  O  O68  1  0.09700507  -0.25000000  0.21566530  1
  O  O69  1  0.09700507  -0.25000000  0.71566530  1
  O  O70  1  0.59700507  -0.25000000  0.21566530  1
  O  O71  1  0.59700507  -0.25000000  0.71566530  1
  O  O72  1  0.34700507  0.00000000  0.46566530  1
  O  O73  1  0.34700507  0.00000000  0.96566530  1
  O  O74  1  0.84700507  0.00000000  0.46566530  1
  O  O75  1  0.84700507  0.00000000  0.96566530  1
  O  O76  1  0.34700507  -0.50000000  0.46566530  1
  O  O77  1  0.34700507  -0.50000000  0.96566530  1
  O  O78  1  0.84700507  -0.50000000  0.46566530  1
  O  O79  1  0.84700507  -0.50000000  0.96566530  1
  O  O80  1  -0.00000000  0.40299493  0.34066530  1
  O  O81  1  -0.00000000  0.40299493  0.84066530  1
  O  O82  1  0.50000000  0.40299493  0.34066530  1
  O  O83  1  0.50000000  0.40299493  0.84066530  1
  O  O84  1  -0.00000000  -0.09700507  0.34066530  1
  O  O85  1  -0.00000000  -0.09700507  0.84066530  1
  O  O86  1  0.50000000  -0.09700507  0.34066530  1
  O  O87  1  0.50000000  -0.09700507  0.84066530  1
  O  O88  1  0.25000000  0.15299493  0.59066530  1
  O  O89  1  0.25000000  0.15299493  1.09066530  1
  O  O90  1  0.75000000  0.15299493  0.59066530  1
  O  O91  1  0.75000000  0.15299493  1.09066530  1
  O  O92  1  0.25000000  -0.34700507  0.59066530  1
  O  O93  1  0.25000000  -0.34700507  1.09066530  1
  O  O94  1  0.75000000  -0.34700507  0.59066530  1
  O  O95  1  0.75000000  -0.34700507  1.09066530  1
  O  O96  1  0.25000000  0.34700507  0.09066530  1
  O  O97  1  0.25000000  0.34700507  0.59066530  1
  O  O98  1  0.75000000  0.34700507  0.09066530  1
  O  O99  1  0.75000000  0.34700507  0.59066530  1
  O  O100  1  0.25000000  -0.15299493  0.09066530  1
  O  O101  1  0.25000000  -0.15299493  0.59066530  1
  O  O102  1  0.75000000  -0.15299493  0.09066530  1
  O  O103  1  0.75000000  -0.15299493  0.59066530  1
  O  O104  1  0.50000000  0.09700507  0.34066530  1
  O  O105  1  0.50000000  0.09700507  0.84066530  1
  O  O106  1  1.00000000  0.09700507  0.34066530  1
  O  O107  1  1.00000000  0.09700507  0.84066530  1
  O  O108  1  0.50000000  -0.40299493  0.34066530  1
  O  O109  1  0.50000000  -0.40299493  0.84066530  1
  O  O110  1  1.00000000  -0.40299493  0.34066530  1
  O  O111  1  1.00000000  -0.40299493  0.84066530  1
  O  O112  1  -0.09700507  0.25000000  0.21566530  1
  O  O113  1  -0.09700507  0.25000000  0.71566530  1
  O  O114  1  0.40299493  0.25000000  0.21566530  1
  O  O115  1  0.40299493  0.25000000  0.71566530  1
  O  O116  1  -0.09700507  -0.25000000  0.21566530  1
  O  O117  1  -0.09700507  -0.25000000  0.71566530  1
  O  O118  1  0.40299493  -0.25000000  0.21566530  1
  O  O119  1  0.40299493  -0.25000000  0.71566530  1
  O  O120  1  0.15299493  0.00000000  0.46566530  1
  O  O121  1  0.15299493  0.00000000  0.96566530  1
  O  O122  1  0.65299493  0.00000000  0.46566530  1
  O  O123  1  0.65299493  0.00000000  0.96566530  1
  O  O124  1  0.15299493  -0.50000000  0.46566530  1
  O  O125  1  0.15299493  -0.50000000  0.96566530  1
  O  O126  1  0.65299493  -0.50000000  0.46566530  1
  O  O127  1  0.65299493  -0.50000000  0.96566530  1
  O  O128  1  0.15299493  0.25000000  -0.09066530  1
  O  O129  1  0.15299493  0.25000000  0.40933470  1
  O  O130  1  0.65299493  0.25000000  -0.09066530  1
  O  O131  1  0.65299493  0.25000000  0.40933470  1
  O  O132  1  0.15299493  -0.25000000  -0.09066530  1
  O  O133  1  0.15299493  -0.25000000  0.40933470  1
  O  O134  1  0.65299493  -0.25000000  -0.09066530  1
  O  O135  1  0.65299493  -0.25000000  0.40933470  1
  O  O136  1  0.40299493  0.00000000  0.15933470  1
  O  O137  1  0.40299493  0.00000000  0.65933470  1
  O  O138  1  0.90299493  0.00000000  0.15933470  1
  O  O139  1  0.90299493  0.00000000  0.65933470  1
  O  O140  1  0.40299493  -0.50000000  0.15933470  1
  O  O141  1  0.40299493  -0.50000000  0.65933470  1
  O  O142  1  0.90299493  -0.50000000  0.15933470  1
  O  O143  1  0.90299493  -0.50000000  0.65933470  1
  O  O144  1  0.00000000  0.34700507  0.03433470  1
  O  O145  1  0.00000000  0.34700507  0.53433470  1
  O  O146  1  0.50000000  0.34700507  0.03433470  1
  O  O147  1  0.50000000  0.34700507  0.53433470  1
  O  O148  1  0.00000000  -0.15299493  0.03433470  1
  O  O149  1  0.00000000  -0.15299493  0.53433470  1
  O  O150  1  0.50000000  -0.15299493  0.03433470  1
  O  O151  1  0.50000000  -0.15299493  0.53433470  1
  O  O152  1  0.25000000  0.09700507  0.28433470  1
  O  O153  1  0.25000000  0.09700507  0.78433470  1
  O  O154  1  0.75000000  0.09700507  0.28433470  1
  O  O155  1  0.75000000  0.09700507  0.78433470  1
  O  O156  1  0.25000000  -0.40299493  0.28433470  1
  O  O157  1  0.25000000  -0.40299493  0.78433470  1
  O  O158  1  0.75000000  -0.40299493  0.28433470  1
  O  O159  1  0.75000000  -0.40299493  0.78433470  1
  O  O160  1  0.00000000  0.15299493  0.03433470  1
  O  O161  1  0.00000000  0.15299493  0.53433470  1
  O  O162  1  0.50000000  0.15299493  0.03433470  1
  O  O163  1  0.50000000  0.15299493  0.53433470  1
  O  O164  1  0.00000000  -0.34700507  0.03433470  1
  O  O165  1  0.00000000  -0.34700507  0.53433470  1
  O  O166  1  0.50000000  -0.34700507  0.03433470  1
  O  O167  1  0.50000000  -0.34700507  0.53433470  1
  O  O168  1  0.25000000  -0.09700507  0.28433470  1
  O  O169  1  0.25000000  -0.09700507  0.78433470  1
  O  O170  1  0.75000000  -0.09700507  0.28433470  1
  O  O171  1  0.75000000  -0.09700507  0.78433470  1
  O  O172  1  0.25000000  -0.59700507  0.28433470  1
  O  O173  1  0.25000000  -0.59700507  0.78433470  1
  O  O174  1  0.75000000  -0.59700507  0.28433470  1
  O  O175  1  0.75000000  -0.59700507  0.78433470  1
  O  O176  1  0.09700507  0.50000000  0.15933470  1
  O  O177  1  0.09700507  0.50000000  0.65933470  1
  O  O178  1  0.59700507  0.50000000  0.15933470  1
  O  O179  1  0.59700507  0.50000000  0.65933470  1
  O  O180  1  0.09700507  0.00000000  0.15933470  1
  O  O181  1  0.09700507  0.00000000  0.65933470  1
  O  O182  1  0.59700507  0.00000000  0.15933470  1
  O  O183  1  0.59700507  0.00000000  0.65933470  1
  O  O184  1  0.34700507  0.25000000  0.40933470  1
  O  O185  1  0.34700507  0.25000000  0.90933470  1
  O  O186  1  0.84700507  0.25000000  0.40933470  1
  O  O187  1  0.84700507  0.25000000  0.90933470  1
  O  O188  1  0.34700507  -0.25000000  0.40933470  1
  O  O189  1  0.34700507  -0.25000000  0.90933470  1
  O  O190  1  0.84700507  -0.25000000  0.40933470  1
  O  O191  1  0.84700507  -0.25000000  0.90933470  1
