# generated using pymatgen
data_Na4As2O7
_symmetry_space_group_name_H-M   'P 1'
_cell_length_a   11.89817863
_cell_length_b   10.05534596
_cell_length_c   12.24990404
_cell_angle_alpha   90.00000000
_cell_angle_beta   92.74784861
_cell_angle_gamma   90.00000000
_symmetry_Int_Tables_number   1
_chemical_formula_structural   Na4As2O7
_chemical_formula_sum   'Na32 As16 O56'
_cell_volume   1463.89707863
_cell_formula_units_Z   8
loop_
 _symmetry_equiv_pos_site_id
 _symmetry_equiv_pos_as_xyz
  1  'x, y, z'
loop_
 _atom_site_type_symbol
 _atom_site_label
 _atom_site_symmetry_multiplicity
 _atom_site_fract_x
 _atom_site_fract_y
 _atom_site_fract_z
 _atom_site_occupancy
  Na  Na0  1  0.32877537  -0.32450921  0.37167971  1
  Na  Na1  1  0.82877537  -0.32450921  0.37167971  1
  Na  Na2  1  0.57877537  0.17549079  0.37167971  1
  Na  Na3  1  1.07877537  0.17549079  0.37167971  1
  Na  Na4  1  0.17122463  -0.32450921  0.12832029  1
  Na  Na5  1  0.67122463  -0.32450921  0.12832029  1
  Na  Na6  1  0.42122463  0.17549079  0.12832029  1
  Na  Na7  1  0.92122463  0.17549079  0.12832029  1
  Na  Na8  1  0.17122463  0.32450921  0.62832029  1
  Na  Na9  1  0.67122463  0.32450921  0.62832029  1
  Na  Na10  1  0.42122463  0.82450921  0.62832029  1
  Na  Na11  1  0.92122463  0.82450921  0.62832029  1
  Na  Na12  1  0.32877537  0.32450921  0.87167971  1
  Na  Na13  1  0.82877537  0.32450921  0.87167971  1
  Na  Na14  1  0.57877537  0.82450921  0.87167971  1
  Na  Na15  1  1.07877537  0.82450921  0.87167971  1
  Na  Na16  1  0.34573137  -0.01052887  0.90475079  1
  Na  Na17  1  0.84573137  -0.01052887  0.90475079  1
  Na  Na18  1  0.59573137  0.48947113  0.90475079  1
  Na  Na19  1  1.09573137  0.48947113  0.90475079  1
  Na  Na20  1  0.15426863  -0.01052887  0.59524921  1
  Na  Na21  1  0.65426863  -0.01052887  0.59524921  1
  Na  Na22  1  0.40426863  0.48947113  0.59524921  1
  Na  Na23  1  0.90426863  0.48947113  0.59524921  1
  Na  Na24  1  0.15426863  0.01052887  0.09524921  1
  Na  Na25  1  0.65426863  0.01052887  0.09524921  1
  Na  Na26  1  0.40426863  0.51052887  0.09524921  1
  Na  Na27  1  0.90426863  0.51052887  0.09524921  1
  Na  Na28  1  0.34573137  0.01052887  0.40475079  1
  Na  Na29  1  0.84573137  0.01052887  0.40475079  1
  Na  Na30  1  0.59573137  0.51052887  0.40475079  1
  Na  Na31  1  1.09573137  0.51052887  0.40475079  1
  As  As32  1  0.17763064  0.34583619  0.13783922  1
  As  As33  1  0.67763064  0.34583619  0.13783922  1
  As  As34  1  0.42763064  0.84583619  0.13783922  1
  As  As35  1  0.92763064  0.84583619  0.13783922  1
  As  As36  1  0.32236936  0.34583619  0.36216078  1
  As  As37  1  0.82236936  0.34583619  0.36216078  1
  As  As38  1  0.57236936  0.84583619  0.36216078  1
  As  As39  1  1.07236936  0.84583619  0.36216078  1
  As  As40  1  0.32236936  -0.34583619  0.86216078  1
  As  As41  1  0.82236936  -0.34583619  0.86216078  1
  As  As42  1  0.57236936  0.15416381  0.86216078  1
  As  As43  1  1.07236936  0.15416381  0.86216078  1
  As  As44  1  0.17763064  -0.34583619  0.63783922  1
  As  As45  1  0.67763064  -0.34583619  0.63783922  1
  As  As46  1  0.42763064  0.15416381  0.63783922  1
  As  As47  1  0.92763064  0.15416381  0.63783922  1
  O  O48  1  0.11576982  -0.20753909  0.68576359  1
  O  O49  1  0.61576982  -0.20753909  0.68576359  1
  O  O50  1  0.36576982  0.29246091  0.68576359  1
  O  O51  1  0.86576982  0.29246091  0.68576359  1
  O  O52  1  0.38423018  -0.20753909  0.81423641  1
  O  O53  1  0.88423018  -0.20753909  0.81423641  1
  O  O54  1  0.63423018  0.29246091  0.81423641  1
  O  O55  1  1.13423018  0.29246091  0.81423641  1
  O  O56  1  0.38423018  0.20753909  0.31423641  1
  O  O57  1  0.88423018  0.20753909  0.31423641  1
  O  O58  1  0.63423018  0.70753909  0.31423641  1
  O  O59  1  1.13423018  0.70753909  0.31423641  1
  O  O60  1  0.11576982  0.20753909  0.18576359  1
  O  O61  1  0.61576982  0.20753909  0.18576359  1
  O  O62  1  0.36576982  0.70753909  0.18576359  1
  O  O63  1  0.86576982  0.70753909  0.18576359  1
  O  O64  1  0.33750424  0.03464356  0.59205052  1
  O  O65  1  0.83750424  0.03464356  0.59205052  1
  O  O66  1  0.58750424  0.53464356  0.59205052  1
  O  O67  1  1.08750424  0.53464356  0.59205052  1
  O  O68  1  0.16249576  0.03464356  0.90794948  1
  O  O69  1  0.66249576  0.03464356  0.90794948  1
  O  O70  1  0.41249576  0.53464356  0.90794948  1
  O  O71  1  0.91249576  0.53464356  0.90794948  1
  O  O72  1  0.16249576  -0.03464356  0.40794948  1
  O  O73  1  0.66249576  -0.03464356  0.40794948  1
  O  O74  1  0.41249576  0.46535644  0.40794948  1
  O  O75  1  0.91249576  0.46535644  0.40794948  1
  O  O76  1  0.33750424  -0.03464356  0.09205052  1
  O  O77  1  0.83750424  -0.03464356  0.09205052  1
  O  O78  1  0.58750424  0.46535644  0.09205052  1
  O  O79  1  1.08750424  0.46535644  0.09205052  1
  O  O80  1  0.28477796  -0.31983444  0.55457114  1
  O  O81  1  0.78477796  -0.31983444  0.55457114  1
  O  O82  1  0.53477796  0.18016556  0.55457114  1
  O  O83  1  1.03477796  0.18016556  0.55457114  1
  O  O84  1  0.21522204  -0.31983444  0.94542886  1
  O  O85  1  0.71522204  -0.31983444  0.94542886  1
  O  O86  1  0.46522204  0.18016556  0.94542886  1
  O  O87  1  0.96522204  0.18016556  0.94542886  1
  O  O88  1  0.21522204  0.31983444  0.44542886  1
  O  O89  1  0.71522204  0.31983444  0.44542886  1
  O  O90  1  0.46522204  0.81983444  0.44542886  1
  O  O91  1  0.96522204  0.81983444  0.44542886  1
  O  O92  1  0.28477796  0.31983444  0.05457114  1
  O  O93  1  0.78477796  0.31983444  0.05457114  1
  O  O94  1  0.53477796  0.81983444  0.05457114  1
  O  O95  1  1.03477796  0.81983444  0.05457114  1
  O  O96  1  0.25000000  0.43465273  0.25000000  1
  O  O97  1  0.75000000  0.43465273  0.25000000  1
  O  O98  1  0.50000000  0.93465273  0.25000000  1
  O  O99  1  1.00000000  0.93465273  0.25000000  1
  O  O100  1  0.25000000  -0.43465273  0.75000000  1
  O  O101  1  0.75000000  -0.43465273  0.75000000  1
  O  O102  1  0.50000000  0.06534727  0.75000000  1
  O  O103  1  1.00000000  0.06534727  0.75000000  1
