# generated using pymatgen
data_BaBe2(BO3)2
_symmetry_space_group_name_H-M   'P 1'
_cell_length_a   12.55512243
_cell_length_b   11.71341579
_cell_length_c   13.03140103
_cell_angle_alpha   90.00000000
_cell_angle_beta   90.00000000
_cell_angle_gamma   90.00000000
_symmetry_Int_Tables_number   1
_chemical_formula_structural   BaBe2(BO3)2
_chemical_formula_sum   'Ba16 Be32 B32 O96'
_cell_volume   1916.44174290
_cell_formula_units_Z   16
loop_
 _symmetry_equiv_pos_site_id
 _symmetry_equiv_pos_as_xyz
  1  'x, y, z'
loop_
 _atom_site_type_symbol
 _atom_site_label
 _atom_site_symmetry_multiplicity
 _atom_site_fract_x
 _atom_site_fract_y
 _atom_site_fract_z
 _atom_site_occupancy
  Ba  Ba0  1  0.12500000  0.25000000  0.25000000  1
  Ba  Ba1  1  0.62500000  0.25000000  0.25000000  1
  Ba  Ba2  1  0.37500000  0.75000000  0.25000000  1
  Ba  Ba3  1  0.87500000  0.75000000  0.25000000  1
  Ba  Ba4  1  0.37500000  0.25000000  0.75000000  1
  Ba  Ba5  1  0.87500000  0.25000000  0.75000000  1
  Ba  Ba6  1  0.12500000  0.75000000  0.75000000  1
  Ba  Ba7  1  0.62500000  0.75000000  0.75000000  1
  Ba  Ba8  1  0.00000000  0.00000000  -0.00000000  1
  Ba  Ba9  1  0.50000000  0.00000000  -0.00000000  1
  Ba  Ba10  1  0.25000000  0.50000000  -0.00000000  1
  Ba  Ba11  1  0.75000000  0.50000000  -0.00000000  1
  Ba  Ba12  1  0.25000000  0.00000000  0.50000000  1
  Ba  Ba13  1  0.75000000  0.00000000  0.50000000  1
  Ba  Ba14  1  0.00000000  0.50000000  0.50000000  1
  Ba  Ba15  1  0.50000000  0.50000000  0.50000000  1
  Be  Be16  1  0.25000000  0.50000000  0.40774647  1
  Be  Be17  1  0.75000000  0.50000000  0.40774647  1
  Be  Be18  1  0.50000000  1.00000000  0.40774647  1
  Be  Be19  1  1.00000000  1.00000000  0.40774647  1
  Be  Be20  1  0.50000000  0.50000000  0.90774647  1
  Be  Be21  1  1.00000000  0.50000000  0.90774647  1
  Be  Be22  1  0.25000000  1.00000000  0.90774647  1
  Be  Be23  1  0.75000000  1.00000000  0.90774647  1
  Be  Be24  1  0.37500000  0.75000000  0.84225353  1
  Be  Be25  1  0.87500000  0.75000000  0.84225353  1
  Be  Be26  1  0.62500000  1.25000000  0.84225353  1
  Be  Be27  1  1.12500000  1.25000000  0.84225353  1
  Be  Be28  1  0.62500000  0.75000000  1.34225353  1
  Be  Be29  1  1.12500000  0.75000000  1.34225353  1
  Be  Be30  1  0.37500000  1.25000000  1.34225353  1
  Be  Be31  1  0.87500000  1.25000000  1.34225353  1
  Be  Be32  1  0.37500000  0.75000000  0.65774647  1
  Be  Be33  1  0.87500000  0.75000000  0.65774647  1
  Be  Be34  1  0.62500000  1.25000000  0.65774647  1
  Be  Be35  1  1.12500000  1.25000000  0.65774647  1
  Be  Be36  1  0.62500000  0.75000000  1.15774647  1
  Be  Be37  1  1.12500000  0.75000000  1.15774647  1
  Be  Be38  1  0.37500000  1.25000000  1.15774647  1
  Be  Be39  1  0.87500000  1.25000000  1.15774647  1
  Be  Be40  1  0.25000000  0.50000000  0.59225353  1
  Be  Be41  1  0.75000000  0.50000000  0.59225353  1
  Be  Be42  1  0.50000000  1.00000000  0.59225353  1
  Be  Be43  1  1.00000000  1.00000000  0.59225353  1
  Be  Be44  1  0.50000000  0.50000000  1.09225353  1
  Be  Be45  1  1.00000000  0.50000000  1.09225353  1
  Be  Be46  1  0.25000000  1.00000000  1.09225353  1
  Be  Be47  1  0.75000000  1.00000000  1.09225353  1
  B  B48  1  0.25000000  0.28437646  0.50000000  1
  B  B49  1  0.75000000  0.28437646  0.50000000  1
  B  B50  1  0.50000000  0.78437646  0.50000000  1
  B  B51  1  1.00000000  0.78437646  0.50000000  1
  B  B52  1  0.50000000  0.28437646  1.00000000  1
  B  B53  1  1.00000000  0.28437646  1.00000000  1
  B  B54  1  0.25000000  0.78437646  1.00000000  1
  B  B55  1  0.75000000  0.78437646  1.00000000  1
  B  B56  1  0.37500000  0.53437646  0.75000000  1
  B  B57  1  0.87500000  0.53437646  0.75000000  1
  B  B58  1  0.62500000  1.03437646  0.75000000  1
  B  B59  1  1.12500000  1.03437646  0.75000000  1
  B  B60  1  0.62500000  0.53437646  1.25000000  1
  B  B61  1  1.12500000  0.53437646  1.25000000  1
  B  B62  1  0.37500000  1.03437646  1.25000000  1
  B  B63  1  0.87500000  1.03437646  1.25000000  1
  B  B64  1  0.25000000  0.71562354  0.50000000  1
  B  B65  1  0.75000000  0.71562354  0.50000000  1
  B  B66  1  0.50000000  1.21562354  0.50000000  1
  B  B67  1  1.00000000  1.21562354  0.50000000  1
  B  B68  1  0.50000000  0.71562354  1.00000000  1
  B  B69  1  1.00000000  0.71562354  1.00000000  1
  B  B70  1  0.25000000  1.21562354  1.00000000  1
  B  B71  1  0.75000000  1.21562354  1.00000000  1
  B  B72  1  0.37500000  0.96562354  0.75000000  1
  B  B73  1  0.87500000  0.96562354  0.75000000  1
  B  B74  1  0.62500000  1.46562354  0.75000000  1
  B  B75  1  1.12500000  1.46562354  0.75000000  1
  B  B76  1  0.62500000  0.96562354  1.25000000  1
  B  B77  1  1.12500000  0.96562354  1.25000000  1
  B  B78  1  0.37500000  1.46562354  1.25000000  1
  B  B79  1  0.87500000  1.46562354  1.25000000  1
  O  O80  1  0.25000000  0.59778646  0.50000000  1
  O  O81  1  0.75000000  0.59778646  0.50000000  1
  O  O82  1  0.50000000  1.09778646  0.50000000  1
  O  O83  1  1.00000000  1.09778646  0.50000000  1
  O  O84  1  0.50000000  0.59778646  1.00000000  1
  O  O85  1  1.00000000  0.59778646  1.00000000  1
  O  O86  1  0.25000000  1.09778646  1.00000000  1
  O  O87  1  0.75000000  1.09778646  1.00000000  1
  O  O88  1  0.35361135  0.52418430  0.33906196  1
  O  O89  1  0.85361135  0.52418430  0.33906196  1
  O  O90  1  0.60361135  1.02418430  0.33906196  1
  O  O91  1  1.10361135  1.02418430  0.33906196  1
  O  O92  1  0.60361135  0.52418430  0.83906196  1
  O  O93  1  1.10361135  0.52418430  0.83906196  1
  O  O94  1  0.35361135  1.02418430  0.83906196  1
  O  O95  1  0.85361135  1.02418430  0.83906196  1
  O  O96  1  0.22861135  0.77418430  0.41093804  1
  O  O97  1  0.72861135  0.77418430  0.41093804  1
  O  O98  1  0.47861135  1.27418430  0.41093804  1
  O  O99  1  0.97861135  1.27418430  0.41093804  1
  O  O100  1  0.47861135  0.77418430  0.91093804  1
  O  O101  1  0.97861135  0.77418430  0.91093804  1
  O  O102  1  0.22861135  1.27418430  0.91093804  1
  O  O103  1  0.72861135  1.27418430  0.91093804  1
  O  O104  1  0.35361135  0.47581570  0.66093804  1
  O  O105  1  0.85361135  0.47581570  0.66093804  1
  O  O106  1  0.60361135  0.97581570  0.66093804  1
  O  O107  1  1.10361135  0.97581570  0.66093804  1
  O  O108  1  0.60361135  0.47581570  1.16093804  1
  O  O109  1  1.10361135  0.47581570  1.16093804  1
  O  O110  1  0.35361135  0.97581570  1.16093804  1
  O  O111  1  0.85361135  0.97581570  1.16093804  1
  O  O112  1  0.27138865  0.22581570  0.41093804  1
  O  O113  1  0.77138865  0.22581570  0.41093804  1
  O  O114  1  0.52138865  0.72581570  0.41093804  1
  O  O115  1  1.02138865  0.72581570  0.41093804  1
  O  O116  1  0.52138865  0.22581570  0.91093804  1
  O  O117  1  1.02138865  0.22581570  0.91093804  1
  O  O118  1  0.27138865  0.72581570  0.91093804  1
  O  O119  1  0.77138865  0.72581570  0.91093804  1
  O  O120  1  0.14638865  0.52418430  0.66093804  1
  O  O121  1  0.64638865  0.52418430  0.66093804  1
  O  O122  1  0.39638865  1.02418430  0.66093804  1
  O  O123  1  0.89638865  1.02418430  0.66093804  1
  O  O124  1  0.39638865  0.52418430  1.16093804  1
  O  O125  1  0.89638865  0.52418430  1.16093804  1
  O  O126  1  0.14638865  1.02418430  1.16093804  1
  O  O127  1  0.64638865  1.02418430  1.16093804  1
  O  O128  1  0.25000000  0.40221354  0.50000000  1
  O  O129  1  0.75000000  0.40221354  0.50000000  1
  O  O130  1  0.50000000  0.90221354  0.50000000  1
  O  O131  1  1.00000000  0.90221354  0.50000000  1
  O  O132  1  0.50000000  0.40221354  1.00000000  1
  O  O133  1  1.00000000  0.40221354  1.00000000  1
  O  O134  1  0.25000000  0.90221354  1.00000000  1
  O  O135  1  0.75000000  0.90221354  1.00000000  1
  O  O136  1  0.37500000  0.84778646  0.75000000  1
  O  O137  1  0.87500000  0.84778646  0.75000000  1
  O  O138  1  0.62500000  1.34778646  0.75000000  1
  O  O139  1  1.12500000  1.34778646  0.75000000  1
  O  O140  1  0.62500000  0.84778646  1.25000000  1
  O  O141  1  1.12500000  0.84778646  1.25000000  1
  O  O142  1  0.37500000  1.34778646  1.25000000  1
  O  O143  1  0.87500000  1.34778646  1.25000000  1
  O  O144  1  0.27138865  0.77418430  0.58906196  1
  O  O145  1  0.77138865  0.77418430  0.58906196  1
  O  O146  1  0.52138865  1.27418430  0.58906196  1
  O  O147  1  1.02138865  1.27418430  0.58906196  1
  O  O148  1  0.52138865  0.77418430  1.08906196  1
  O  O149  1  1.02138865  0.77418430  1.08906196  1
  O  O150  1  0.27138865  1.27418430  1.08906196  1
  O  O151  1  0.77138865  1.27418430  1.08906196  1
  O  O152  1  0.22861135  0.22581570  0.58906196  1
  O  O153  1  0.72861135  0.22581570  0.58906196  1
  O  O154  1  0.47861135  0.72581570  0.58906196  1
  O  O155  1  0.97861135  0.72581570  0.58906196  1
  O  O156  1  0.47861135  0.22581570  1.08906196  1
  O  O157  1  0.97861135  0.22581570  1.08906196  1
  O  O158  1  0.22861135  0.72581570  1.08906196  1
  O  O159  1  0.72861135  0.72581570  1.08906196  1
  O  O160  1  0.37500000  0.65221354  0.75000000  1
  O  O161  1  0.87500000  0.65221354  0.75000000  1
  O  O162  1  0.62500000  1.15221354  0.75000000  1
  O  O163  1  1.12500000  1.15221354  0.75000000  1
  O  O164  1  0.62500000  0.65221354  1.25000000  1
  O  O165  1  1.12500000  0.65221354  1.25000000  1
  O  O166  1  0.37500000  1.15221354  1.25000000  1
  O  O167  1  0.87500000  1.15221354  1.25000000  1
  O  O168  1  0.14638865  0.47581570  0.33906196  1
  O  O169  1  0.64638865  0.47581570  0.33906196  1
  O  O170  1  0.39638865  0.97581570  0.33906196  1
  O  O171  1  0.89638865  0.97581570  0.33906196  1
  O  O172  1  0.39638865  0.47581570  0.83906196  1
  O  O173  1  0.89638865  0.47581570  0.83906196  1
  O  O174  1  0.14638865  0.97581570  0.83906196  1
  O  O175  1  0.64638865  0.97581570  0.83906196  1
