# generated using pymatgen
data_Na5BiO5
_symmetry_space_group_name_H-M   'P 1'
_cell_length_a   10.79745625
_cell_length_b   13.53410988
_cell_length_c   12.97180377
_cell_angle_alpha   90.00000000
_cell_angle_beta   108.63304185
_cell_angle_gamma   90.00000000
_symmetry_Int_Tables_number   1
_chemical_formula_structural   Na5BiO5
_chemical_formula_sum   'Na60 Bi12 O60'
_cell_volume   1796.26076275
_cell_formula_units_Z   12
loop_
 _symmetry_equiv_pos_site_id
 _symmetry_equiv_pos_as_xyz
  1  'x, y, z'
loop_
 _atom_site_type_symbol
 _atom_site_label
 _atom_site_symmetry_multiplicity
 _atom_site_fract_x
 _atom_site_fract_y
 _atom_site_fract_z
 _atom_site_occupancy
  Na  Na0  1  0.32044448  -0.00000000  0.07101863  1
  Na  Na1  1  0.32044448  -0.00000000  0.57101863  1
  Na  Na2  1  0.32044448  0.33333333  0.07101863  1
  Na  Na3  1  0.32044448  0.33333333  0.57101863  1
  Na  Na4  1  0.32044448  0.66666667  0.07101863  1
  Na  Na5  1  0.32044448  0.66666667  0.57101863  1
  Na  Na6  1  0.82044448  0.16666667  0.07101863  1
  Na  Na7  1  0.82044448  0.16666667  0.57101863  1
  Na  Na8  1  0.82044448  0.50000000  0.07101863  1
  Na  Na9  1  0.82044448  0.50000000  0.57101863  1
  Na  Na10  1  0.82044448  0.83333333  0.07101863  1
  Na  Na11  1  0.82044448  0.83333333  0.57101863  1
  Na  Na12  1  0.30311425  -0.00000000  0.33657239  1
  Na  Na13  1  0.30311425  -0.00000000  0.83657239  1
  Na  Na14  1  0.30311425  0.33333333  0.33657239  1
  Na  Na15  1  0.30311425  0.33333333  0.83657239  1
  Na  Na16  1  0.30311425  0.66666667  0.33657239  1
  Na  Na17  1  0.30311425  0.66666667  0.83657239  1
  Na  Na18  1  0.80311425  0.16666667  0.33657239  1
  Na  Na19  1  0.80311425  0.16666667  0.83657239  1
  Na  Na20  1  0.80311425  0.50000000  0.33657239  1
  Na  Na21  1  0.80311425  0.50000000  0.83657239  1
  Na  Na22  1  0.80311425  0.83333333  0.33657239  1
  Na  Na23  1  0.80311425  0.83333333  0.83657239  1
  Na  Na24  1  0.69688575  -0.00000000  0.16342761  1
  Na  Na25  1  0.69688575  -0.00000000  0.66342761  1
  Na  Na26  1  0.69688575  0.33333333  0.16342761  1
  Na  Na27  1  0.69688575  0.33333333  0.66342761  1
  Na  Na28  1  0.69688575  0.66666667  0.16342761  1
  Na  Na29  1  0.69688575  0.66666667  0.66342761  1
  Na  Na30  1  1.19688575  0.16666667  0.16342761  1
  Na  Na31  1  1.19688575  0.16666667  0.66342761  1
  Na  Na32  1  1.19688575  0.50000000  0.16342761  1
  Na  Na33  1  1.19688575  0.50000000  0.66342761  1
  Na  Na34  1  1.19688575  0.83333333  0.16342761  1
  Na  Na35  1  1.19688575  0.83333333  0.66342761  1
  Na  Na36  1  0.67955552  -0.00000000  0.42898137  1
  Na  Na37  1  0.67955552  -0.00000000  0.92898137  1
  Na  Na38  1  0.67955552  0.33333333  0.42898137  1
  Na  Na39  1  0.67955552  0.33333333  0.92898137  1
  Na  Na40  1  0.67955552  0.66666667  0.42898137  1
  Na  Na41  1  0.67955552  0.66666667  0.92898137  1
  Na  Na42  1  1.17955552  0.16666667  0.42898137  1
  Na  Na43  1  1.17955552  0.16666667  0.92898137  1
  Na  Na44  1  1.17955552  0.50000000  0.42898137  1
  Na  Na45  1  1.17955552  0.50000000  0.92898137  1
  Na  Na46  1  1.17955552  0.83333333  0.42898137  1
  Na  Na47  1  1.17955552  0.83333333  0.92898137  1
  Na  Na48  1  -0.00000000  -0.00000000  0.25000000  1
  Na  Na49  1  -0.00000000  -0.00000000  0.75000000  1
  Na  Na50  1  -0.00000000  0.33333333  0.25000000  1
  Na  Na51  1  -0.00000000  0.33333333  0.75000000  1
  Na  Na52  1  -0.00000000  0.66666667  0.25000000  1
  Na  Na53  1  -0.00000000  0.66666667  0.75000000  1
  Na  Na54  1  0.50000000  0.16666667  0.25000000  1
  Na  Na55  1  0.50000000  0.16666667  0.75000000  1
  Na  Na56  1  0.50000000  0.50000000  0.25000000  1
  Na  Na57  1  0.50000000  0.50000000  0.75000000  1
  Na  Na58  1  0.50000000  0.83333333  0.25000000  1
  Na  Na59  1  0.50000000  0.83333333  0.75000000  1
  Bi  Bi60  1  -0.00000000  -0.00000000  0.00000000  1
  Bi  Bi61  1  -0.00000000  -0.00000000  0.50000000  1
  Bi  Bi62  1  -0.00000000  0.33333333  0.00000000  1
  Bi  Bi63  1  -0.00000000  0.33333333  0.50000000  1
  Bi  Bi64  1  -0.00000000  0.66666667  0.00000000  1
  Bi  Bi65  1  -0.00000000  0.66666667  0.50000000  1
  Bi  Bi66  1  0.50000000  0.16666667  0.00000000  1
  Bi  Bi67  1  0.50000000  0.16666667  0.50000000  1
  Bi  Bi68  1  0.50000000  0.50000000  0.00000000  1
  Bi  Bi69  1  0.50000000  0.50000000  0.50000000  1
  Bi  Bi70  1  0.50000000  0.83333333  0.00000000  1
  Bi  Bi71  1  0.50000000  0.83333333  0.50000000  1
  O  O72  1  0.85997531  -0.00000000  0.08248434  1
  O  O73  1  0.85997531  -0.00000000  0.58248434  1
  O  O74  1  0.85997531  0.33333333  0.08248434  1
  O  O75  1  0.85997531  0.33333333  0.58248434  1
  O  O76  1  0.85997531  0.66666667  0.08248434  1
  O  O77  1  0.85997531  0.66666667  0.58248434  1
  O  O78  1  1.35997531  0.16666667  0.08248434  1
  O  O79  1  1.35997531  0.16666667  0.58248434  1
  O  O80  1  1.35997531  0.50000000  0.08248434  1
  O  O81  1  1.35997531  0.50000000  0.58248434  1
  O  O82  1  1.35997531  0.83333333  0.08248434  1
  O  O83  1  1.35997531  0.83333333  0.58248434  1
  O  O84  1  0.50000000  -0.00000000  0.00000000  1
  O  O85  1  0.50000000  -0.00000000  0.50000000  1
  O  O86  1  0.50000000  0.33333333  0.00000000  1
  O  O87  1  0.50000000  0.33333333  0.50000000  1
  O  O88  1  0.50000000  0.66666667  0.00000000  1
  O  O89  1  0.50000000  0.66666667  0.50000000  1
  O  O90  1  1.00000000  0.16666667  0.00000000  1
  O  O91  1  1.00000000  0.16666667  0.50000000  1
  O  O92  1  1.00000000  0.50000000  0.00000000  1
  O  O93  1  1.00000000  0.50000000  0.50000000  1
  O  O94  1  1.00000000  0.83333333  0.00000000  1
  O  O95  1  1.00000000  0.83333333  0.50000000  1
  O  O96  1  0.84852734  -0.00000000  0.34590531  1
  O  O97  1  0.84852734  -0.00000000  0.84590531  1
  O  O98  1  0.84852734  0.33333333  0.34590531  1
  O  O99  1  0.84852734  0.33333333  0.84590531  1
  O  O100  1  0.84852734  0.66666667  0.34590531  1
  O  O101  1  0.84852734  0.66666667  0.84590531  1
  O  O102  1  1.34852734  0.16666667  0.34590531  1
  O  O103  1  1.34852734  0.16666667  0.84590531  1
  O  O104  1  1.34852734  0.50000000  0.34590531  1
  O  O105  1  1.34852734  0.50000000  0.84590531  1
  O  O106  1  1.34852734  0.83333333  0.34590531  1
  O  O107  1  1.34852734  0.83333333  0.84590531  1
  O  O108  1  0.15147266  -0.00000000  0.15409469  1
  O  O109  1  0.15147266  -0.00000000  0.65409469  1
  O  O110  1  0.15147266  0.33333333  0.15409469  1
  O  O111  1  0.15147266  0.33333333  0.65409469  1
  O  O112  1  0.15147266  0.66666667  0.15409469  1
  O  O113  1  0.15147266  0.66666667  0.65409469  1
  O  O114  1  0.65147266  0.16666667  0.15409469  1
  O  O115  1  0.65147266  0.16666667  0.65409469  1
  O  O116  1  0.65147266  0.50000000  0.15409469  1
  O  O117  1  0.65147266  0.50000000  0.65409469  1
  O  O118  1  0.65147266  0.83333333  0.15409469  1
  O  O119  1  0.65147266  0.83333333  0.65409469  1
  O  O120  1  0.14002469  -0.00000000  0.41751566  1
  O  O121  1  0.14002469  -0.00000000  0.91751566  1
  O  O122  1  0.14002469  0.33333333  0.41751566  1
  O  O123  1  0.14002469  0.33333333  0.91751566  1
  O  O124  1  0.14002469  0.66666667  0.41751566  1
  O  O125  1  0.14002469  0.66666667  0.91751566  1
  O  O126  1  0.64002469  0.16666667  0.41751566  1
  O  O127  1  0.64002469  0.16666667  0.91751566  1
  O  O128  1  0.64002469  0.50000000  0.41751566  1
  O  O129  1  0.64002469  0.50000000  0.91751566  1
  O  O130  1  0.64002469  0.83333333  0.41751566  1
  O  O131  1  0.64002469  0.83333333  0.91751566  1
