# generated using pymatgen
data_NaLiV2O6
_symmetry_space_group_name_H-M   'P 1'
_cell_length_a   20.02369992
_cell_length_b   19.90885186
_cell_length_c   17.31794969
_cell_angle_alpha   90.00000000
_cell_angle_beta   111.88761298
_cell_angle_gamma   90.00000000
_symmetry_Int_Tables_number   1
_chemical_formula_structural   NaLiV2O6
_chemical_formula_sum   'Na48 Li48 V96 O288'
_cell_volume   6406.13501194
_cell_formula_units_Z   48
loop_
 _symmetry_equiv_pos_site_id
 _symmetry_equiv_pos_as_xyz
  1  'x, y, z'
loop_
 _atom_site_type_symbol
 _atom_site_label
 _atom_site_symmetry_multiplicity
 _atom_site_fract_x
 _atom_site_fract_y
 _atom_site_fract_z
 _atom_site_occupancy
  Na  Na0  1  0.25000000  0.19892497  0.25000000  1
  Na  Na1  1  0.25000000  0.19892497  0.58333333  1
  Na  Na2  1  0.25000000  0.19892497  0.91666667  1
  Na  Na3  1  0.25000000  0.69892497  0.25000000  1
  Na  Na4  1  0.25000000  0.69892497  0.58333333  1
  Na  Na5  1  0.25000000  0.69892497  0.91666667  1
  Na  Na6  1  0.75000000  0.19892497  0.25000000  1
  Na  Na7  1  0.75000000  0.19892497  0.58333333  1
  Na  Na8  1  0.75000000  0.19892497  0.91666667  1
  Na  Na9  1  0.75000000  0.69892497  0.25000000  1
  Na  Na10  1  0.75000000  0.69892497  0.58333333  1
  Na  Na11  1  0.75000000  0.69892497  0.91666667  1
  Na  Na12  1  0.50000000  0.44892497  0.25000000  1
  Na  Na13  1  0.50000000  0.44892497  0.58333333  1
  Na  Na14  1  0.50000000  0.44892497  0.91666667  1
  Na  Na15  1  0.50000000  0.94892497  0.25000000  1
  Na  Na16  1  0.50000000  0.94892497  0.58333333  1
  Na  Na17  1  0.50000000  0.94892497  0.91666667  1
  Na  Na18  1  1.00000000  0.44892497  0.25000000  1
  Na  Na19  1  1.00000000  0.44892497  0.58333333  1
  Na  Na20  1  1.00000000  0.44892497  0.91666667  1
  Na  Na21  1  1.00000000  0.94892497  0.25000000  1
  Na  Na22  1  1.00000000  0.94892497  0.58333333  1
  Na  Na23  1  1.00000000  0.94892497  0.91666667  1
  Na  Na24  1  0.25000000  -0.19892497  0.08333333  1
  Na  Na25  1  0.25000000  -0.19892497  0.41666667  1
  Na  Na26  1  0.25000000  -0.19892497  0.75000000  1
  Na  Na27  1  0.25000000  0.30107503  0.08333333  1
  Na  Na28  1  0.25000000  0.30107503  0.41666667  1
  Na  Na29  1  0.25000000  0.30107503  0.75000000  1
  Na  Na30  1  0.75000000  -0.19892497  0.08333333  1
  Na  Na31  1  0.75000000  -0.19892497  0.41666667  1
  Na  Na32  1  0.75000000  -0.19892497  0.75000000  1
  Na  Na33  1  0.75000000  0.30107503  0.08333333  1
  Na  Na34  1  0.75000000  0.30107503  0.41666667  1
  Na  Na35  1  0.75000000  0.30107503  0.75000000  1
  Na  Na36  1  0.50000000  0.05107503  0.08333333  1
  Na  Na37  1  0.50000000  0.05107503  0.41666667  1
  Na  Na38  1  0.50000000  0.05107503  0.75000000  1
  Na  Na39  1  0.50000000  0.55107503  0.08333333  1
  Na  Na40  1  0.50000000  0.55107503  0.41666667  1
  Na  Na41  1  0.50000000  0.55107503  0.75000000  1
  Na  Na42  1  1.00000000  0.05107503  0.08333333  1
  Na  Na43  1  1.00000000  0.05107503  0.41666667  1
  Na  Na44  1  1.00000000  0.05107503  0.75000000  1
  Na  Na45  1  1.00000000  0.55107503  0.08333333  1
  Na  Na46  1  1.00000000  0.55107503  0.41666667  1
  Na  Na47  1  1.00000000  0.55107503  0.75000000  1
  Li  Li48  1  0.25000000  0.14333971  0.08333333  1
  Li  Li49  1  0.25000000  0.14333971  0.41666667  1
  Li  Li50  1  0.25000000  0.14333971  0.75000000  1
  Li  Li51  1  0.25000000  0.64333971  0.08333333  1
  Li  Li52  1  0.25000000  0.64333971  0.41666667  1
  Li  Li53  1  0.25000000  0.64333971  0.75000000  1
  Li  Li54  1  0.75000000  0.14333971  0.08333333  1
  Li  Li55  1  0.75000000  0.14333971  0.41666667  1
  Li  Li56  1  0.75000000  0.14333971  0.75000000  1
  Li  Li57  1  0.75000000  0.64333971  0.08333333  1
  Li  Li58  1  0.75000000  0.64333971  0.41666667  1
  Li  Li59  1  0.75000000  0.64333971  0.75000000  1
  Li  Li60  1  0.50000000  0.39333971  0.08333333  1
  Li  Li61  1  0.50000000  0.39333971  0.41666667  1
  Li  Li62  1  0.50000000  0.39333971  0.75000000  1
  Li  Li63  1  0.50000000  0.89333971  0.08333333  1
  Li  Li64  1  0.50000000  0.89333971  0.41666667  1
  Li  Li65  1  0.50000000  0.89333971  0.75000000  1
  Li  Li66  1  1.00000000  0.39333971  0.08333333  1
  Li  Li67  1  1.00000000  0.39333971  0.41666667  1
  Li  Li68  1  1.00000000  0.39333971  0.75000000  1
  Li  Li69  1  1.00000000  0.89333971  0.08333333  1
  Li  Li70  1  1.00000000  0.89333971  0.41666667  1
  Li  Li71  1  1.00000000  0.89333971  0.75000000  1
  Li  Li72  1  0.25000000  -0.14333971  0.25000000  1
  Li  Li73  1  0.25000000  -0.14333971  0.58333333  1
  Li  Li74  1  0.25000000  -0.14333971  0.91666667  1
  Li  Li75  1  0.25000000  0.35666029  0.25000000  1
  Li  Li76  1  0.25000000  0.35666029  0.58333333  1
  Li  Li77  1  0.25000000  0.35666029  0.91666667  1
  Li  Li78  1  0.75000000  -0.14333971  0.25000000  1
  Li  Li79  1  0.75000000  -0.14333971  0.58333333  1
  Li  Li80  1  0.75000000  -0.14333971  0.91666667  1
  Li  Li81  1  0.75000000  0.35666029  0.25000000  1
  Li  Li82  1  0.75000000  0.35666029  0.58333333  1
  Li  Li83  1  0.75000000  0.35666029  0.91666667  1
  Li  Li84  1  0.50000000  0.10666029  0.25000000  1
  Li  Li85  1  0.50000000  0.10666029  0.58333333  1
  Li  Li86  1  0.50000000  0.10666029  0.91666667  1
  Li  Li87  1  0.50000000  0.60666029  0.25000000  1
  Li  Li88  1  0.50000000  0.60666029  0.58333333  1
  Li  Li89  1  0.50000000  0.60666029  0.91666667  1
  Li  Li90  1  1.00000000  0.10666029  0.25000000  1
  Li  Li91  1  1.00000000  0.10666029  0.58333333  1
  Li  Li92  1  1.00000000  0.10666029  0.91666667  1
  Li  Li93  1  1.00000000  0.60666029  0.25000000  1
  Li  Li94  1  1.00000000  0.60666029  0.58333333  1
  Li  Li95  1  1.00000000  0.60666029  0.91666667  1
  V  V96  1  0.15646419  0.04212376  0.26360564  1
  V  V97  1  0.15646419  0.04212376  0.59693897  1
  V  V98  1  0.15646419  0.04212376  0.93027230  1
  V  V99  1  0.15646419  0.54212376  0.26360564  1
  V  V100  1  0.15646419  0.54212376  0.59693897  1
  V  V101  1  0.15646419  0.54212376  0.93027230  1
  V  V102  1  0.65646419  0.04212376  0.26360564  1
  V  V103  1  0.65646419  0.04212376  0.59693897  1
  V  V104  1  0.65646419  0.04212376  0.93027230  1
  V  V105  1  0.65646419  0.54212376  0.26360564  1
  V  V106  1  0.65646419  0.54212376  0.59693897  1
  V  V107  1  0.65646419  0.54212376  0.93027230  1
  V  V108  1  0.40646419  0.29212376  0.26360564  1
  V  V109  1  0.40646419  0.29212376  0.59693897  1
  V  V110  1  0.40646419  0.29212376  0.93027230  1
  V  V111  1  0.40646419  0.79212376  0.26360564  1
  V  V112  1  0.40646419  0.79212376  0.59693897  1
  V  V113  1  0.40646419  0.79212376  0.93027230  1
  V  V114  1  0.90646419  0.29212376  0.26360564  1
  V  V115  1  0.90646419  0.29212376  0.59693897  1
  V  V116  1  0.90646419  0.29212376  0.93027230  1
  V  V117  1  0.90646419  0.79212376  0.26360564  1
  V  V118  1  0.90646419  0.79212376  0.59693897  1
  V  V119  1  0.90646419  0.79212376  0.93027230  1
  V  V120  1  0.34353581  0.04212376  0.23639436  1
  V  V121  1  0.34353581  0.04212376  0.56972770  1
  V  V122  1  0.34353581  0.04212376  0.90306103  1
  V  V123  1  0.34353581  0.54212376  0.23639436  1
  V  V124  1  0.34353581  0.54212376  0.56972770  1
  V  V125  1  0.34353581  0.54212376  0.90306103  1
  V  V126  1  0.84353581  0.04212376  0.23639436  1
  V  V127  1  0.84353581  0.04212376  0.56972770  1
  V  V128  1  0.84353581  0.04212376  0.90306103  1
  V  V129  1  0.84353581  0.54212376  0.23639436  1
  V  V130  1  0.84353581  0.54212376  0.56972770  1
  V  V131  1  0.84353581  0.54212376  0.90306103  1
  V  V132  1  0.59353581  0.29212376  0.23639436  1
  V  V133  1  0.59353581  0.29212376  0.56972770  1
  V  V134  1  0.59353581  0.29212376  0.90306103  1
  V  V135  1  0.59353581  0.79212376  0.23639436  1
  V  V136  1  0.59353581  0.79212376  0.56972770  1
  V  V137  1  0.59353581  0.79212376  0.90306103  1
  V  V138  1  1.09353581  0.29212376  0.23639436  1
  V  V139  1  1.09353581  0.29212376  0.56972770  1
  V  V140  1  1.09353581  0.29212376  0.90306103  1
  V  V141  1  1.09353581  0.79212376  0.23639436  1
  V  V142  1  1.09353581  0.79212376  0.56972770  1
  V  V143  1  1.09353581  0.79212376  0.90306103  1
  V  V144  1  0.34353581  -0.04212376  0.06972770  1
  V  V145  1  0.34353581  -0.04212376  0.40306103  1
  V  V146  1  0.34353581  -0.04212376  0.73639436  1
  V  V147  1  0.34353581  0.45787624  0.06972770  1
  V  V148  1  0.34353581  0.45787624  0.40306103  1
  V  V149  1  0.34353581  0.45787624  0.73639436  1
  V  V150  1  0.84353581  -0.04212376  0.06972770  1
  V  V151  1  0.84353581  -0.04212376  0.40306103  1
  V  V152  1  0.84353581  -0.04212376  0.73639436  1
  V  V153  1  0.84353581  0.45787624  0.06972770  1
  V  V154  1  0.84353581  0.45787624  0.40306103  1
  V  V155  1  0.84353581  0.45787624  0.73639436  1
  V  V156  1  0.59353581  0.20787624  0.06972770  1
  V  V157  1  0.59353581  0.20787624  0.40306103  1
  V  V158  1  0.59353581  0.20787624  0.73639436  1
  V  V159  1  0.59353581  0.70787624  0.06972770  1
  V  V160  1  0.59353581  0.70787624  0.40306103  1
  V  V161  1  0.59353581  0.70787624  0.73639436  1
  V  V162  1  1.09353581  0.20787624  0.06972770  1
  V  V163  1  1.09353581  0.20787624  0.40306103  1
  V  V164  1  1.09353581  0.20787624  0.73639436  1
  V  V165  1  1.09353581  0.70787624  0.06972770  1
  V  V166  1  1.09353581  0.70787624  0.40306103  1
  V  V167  1  1.09353581  0.70787624  0.73639436  1
  V  V168  1  0.15646419  -0.04212376  0.09693897  1
  V  V169  1  0.15646419  -0.04212376  0.43027230  1
  V  V170  1  0.15646419  -0.04212376  0.76360564  1
  V  V171  1  0.15646419  0.45787624  0.09693897  1
  V  V172  1  0.15646419  0.45787624  0.43027230  1
  V  V173  1  0.15646419  0.45787624  0.76360564  1
  V  V174  1  0.65646419  -0.04212376  0.09693897  1
  V  V175  1  0.65646419  -0.04212376  0.43027230  1
  V  V176  1  0.65646419  -0.04212376  0.76360564  1
  V  V177  1  0.65646419  0.45787624  0.09693897  1
  V  V178  1  0.65646419  0.45787624  0.43027230  1
  V  V179  1  0.65646419  0.45787624  0.76360564  1
  V  V180  1  0.40646419  0.20787624  0.09693897  1
  V  V181  1  0.40646419  0.20787624  0.43027230  1
  V  V182  1  0.40646419  0.20787624  0.76360564  1
  V  V183  1  0.40646419  0.70787624  0.09693897  1
  V  V184  1  0.40646419  0.70787624  0.43027230  1
  V  V185  1  0.40646419  0.70787624  0.76360564  1
  V  V186  1  0.90646419  0.20787624  0.09693897  1
  V  V187  1  0.90646419  0.20787624  0.43027230  1
  V  V188  1  0.90646419  0.20787624  0.76360564  1
  V  V189  1  0.90646419  0.70787624  0.09693897  1
  V  V190  1  0.90646419  0.70787624  0.43027230  1
  V  V191  1  0.90646419  0.70787624  0.76360564  1
  O  O192  1  0.06639421  0.04559309  0.22619769  1
  O  O193  1  0.06639421  0.04559309  0.55953102  1
  O  O194  1  0.06639421  0.04559309  0.89286435  1
  O  O195  1  0.06639421  0.54559309  0.22619769  1
  O  O196  1  0.06639421  0.54559309  0.55953102  1
  O  O197  1  0.06639421  0.54559309  0.89286435  1
  O  O198  1  0.56639421  0.04559309  0.22619769  1
  O  O199  1  0.56639421  0.04559309  0.55953102  1
  O  O200  1  0.56639421  0.04559309  0.89286435  1
  O  O201  1  0.56639421  0.54559309  0.22619769  1
  O  O202  1  0.56639421  0.54559309  0.55953102  1
  O  O203  1  0.56639421  0.54559309  0.89286435  1
  O  O204  1  0.31639421  0.29559309  0.22619769  1
  O  O205  1  0.31639421  0.29559309  0.55953102  1
  O  O206  1  0.31639421  0.29559309  0.89286435  1
  O  O207  1  0.31639421  0.79559309  0.22619769  1
  O  O208  1  0.31639421  0.79559309  0.55953102  1
  O  O209  1  0.31639421  0.79559309  0.89286435  1
  O  O210  1  0.81639421  0.29559309  0.22619769  1
  O  O211  1  0.81639421  0.29559309  0.55953102  1
  O  O212  1  0.81639421  0.29559309  0.89286435  1
  O  O213  1  0.81639421  0.79559309  0.22619769  1
  O  O214  1  0.81639421  0.79559309  0.55953102  1
  O  O215  1  0.81639421  0.79559309  0.89286435  1
  O  O216  1  0.43360579  0.04559309  0.27380231  1
  O  O217  1  0.43360579  0.04559309  0.60713565  1
  O  O218  1  0.43360579  0.04559309  0.94046898  1
  O  O219  1  0.43360579  0.54559309  0.27380231  1
  O  O220  1  0.43360579  0.54559309  0.60713565  1
  O  O221  1  0.43360579  0.54559309  0.94046898  1
  O  O222  1  0.93360579  0.04559309  0.27380231  1
  O  O223  1  0.93360579  0.04559309  0.60713565  1
  O  O224  1  0.93360579  0.04559309  0.94046898  1
  O  O225  1  0.93360579  0.54559309  0.27380231  1
  O  O226  1  0.93360579  0.54559309  0.60713565  1
  O  O227  1  0.93360579  0.54559309  0.94046898  1
  O  O228  1  0.68360579  0.29559309  0.27380231  1
  O  O229  1  0.68360579  0.29559309  0.60713565  1
  O  O230  1  0.68360579  0.29559309  0.94046898  1
  O  O231  1  0.68360579  0.79559309  0.27380231  1
  O  O232  1  0.68360579  0.79559309  0.60713565  1
  O  O233  1  0.68360579  0.79559309  0.94046898  1
  O  O234  1  1.18360579  0.29559309  0.27380231  1
  O  O235  1  1.18360579  0.29559309  0.60713565  1
  O  O236  1  1.18360579  0.29559309  0.94046898  1
  O  O237  1  1.18360579  0.79559309  0.27380231  1
  O  O238  1  1.18360579  0.79559309  0.60713565  1
  O  O239  1  1.18360579  0.79559309  0.94046898  1
  O  O240  1  0.43360579  -0.04559309  0.10713565  1
  O  O241  1  0.43360579  -0.04559309  0.44046898  1
  O  O242  1  0.43360579  -0.04559309  0.77380231  1
  O  O243  1  0.43360579  0.45440691  0.10713565  1
  O  O244  1  0.43360579  0.45440691  0.44046898  1
  O  O245  1  0.43360579  0.45440691  0.77380231  1
  O  O246  1  0.93360579  -0.04559309  0.10713565  1
  O  O247  1  0.93360579  -0.04559309  0.44046898  1
  O  O248  1  0.93360579  -0.04559309  0.77380231  1
  O  O249  1  0.93360579  0.45440691  0.10713565  1
  O  O250  1  0.93360579  0.45440691  0.44046898  1
  O  O251  1  0.93360579  0.45440691  0.77380231  1
  O  O252  1  0.68360579  0.20440691  0.10713565  1
  O  O253  1  0.68360579  0.20440691  0.44046898  1
  O  O254  1  0.68360579  0.20440691  0.77380231  1
  O  O255  1  0.68360579  0.70440691  0.10713565  1
  O  O256  1  0.68360579  0.70440691  0.44046898  1
  O  O257  1  0.68360579  0.70440691  0.77380231  1
  O  O258  1  1.18360579  0.20440691  0.10713565  1
  O  O259  1  1.18360579  0.20440691  0.44046898  1
  O  O260  1  1.18360579  0.20440691  0.77380231  1
  O  O261  1  1.18360579  0.70440691  0.10713565  1
  O  O262  1  1.18360579  0.70440691  0.44046898  1
  O  O263  1  1.18360579  0.70440691  0.77380231  1
  O  O264  1  0.06639421  -0.04559309  0.05953102  1
  O  O265  1  0.06639421  -0.04559309  0.39286435  1
  O  O266  1  0.06639421  -0.04559309  0.72619769  1
  O  O267  1  0.06639421  0.45440691  0.05953102  1
  O  O268  1  0.06639421  0.45440691  0.39286435  1
  O  O269  1  0.06639421  0.45440691  0.72619769  1
  O  O270  1  0.56639421  -0.04559309  0.05953102  1
  O  O271  1  0.56639421  -0.04559309  0.39286435  1
  O  O272  1  0.56639421  -0.04559309  0.72619769  1
  O  O273  1  0.56639421  0.45440691  0.05953102  1
  O  O274  1  0.56639421  0.45440691  0.39286435  1
  O  O275  1  0.56639421  0.45440691  0.72619769  1
  O  O276  1  0.31639421  0.20440691  0.05953102  1
  O  O277  1  0.31639421  0.20440691  0.39286435  1
  O  O278  1  0.31639421  0.20440691  0.72619769  1
  O  O279  1  0.31639421  0.70440691  0.05953102  1
  O  O280  1  0.31639421  0.70440691  0.39286435  1
  O  O281  1  0.31639421  0.70440691  0.72619769  1
  O  O282  1  0.81639421  0.20440691  0.05953102  1
  O  O283  1  0.81639421  0.20440691  0.39286435  1
  O  O284  1  0.81639421  0.20440691  0.72619769  1
  O  O285  1  0.81639421  0.70440691  0.05953102  1
  O  O286  1  0.81639421  0.70440691  0.39286435  1
  O  O287  1  0.81639421  0.70440691  0.72619769  1
  O  O288  1  0.19112873  0.11673538  0.30007190  1
  O  O289  1  0.19112873  0.11673538  0.63340523  1
  O  O290  1  0.19112873  0.11673538  0.96673856  1
  O  O291  1  0.19112873  0.61673538  0.30007190  1
  O  O292  1  0.19112873  0.61673538  0.63340523  1
  O  O293  1  0.19112873  0.61673538  0.96673856  1
  O  O294  1  0.69112873  0.11673538  0.30007190  1
  O  O295  1  0.69112873  0.11673538  0.63340523  1
  O  O296  1  0.69112873  0.11673538  0.96673856  1
  O  O297  1  0.69112873  0.61673538  0.30007190  1
  O  O298  1  0.69112873  0.61673538  0.63340523  1
  O  O299  1  0.69112873  0.61673538  0.96673856  1
  O  O300  1  0.44112873  0.36673538  0.30007190  1
  O  O301  1  0.44112873  0.36673538  0.63340523  1
  O  O302  1  0.44112873  0.36673538  0.96673856  1
  O  O303  1  0.44112873  0.86673538  0.30007190  1
  O  O304  1  0.44112873  0.86673538  0.63340523  1
  O  O305  1  0.44112873  0.86673538  0.96673856  1
  O  O306  1  0.94112873  0.36673538  0.30007190  1
  O  O307  1  0.94112873  0.36673538  0.63340523  1
  O  O308  1  0.94112873  0.36673538  0.96673856  1
  O  O309  1  0.94112873  0.86673538  0.30007190  1
  O  O310  1  0.94112873  0.86673538  0.63340523  1
  O  O311  1  0.94112873  0.86673538  0.96673856  1
  O  O312  1  0.30887127  0.11673538  0.19992810  1
  O  O313  1  0.30887127  0.11673538  0.53326144  1
  O  O314  1  0.30887127  0.11673538  0.86659477  1
  O  O315  1  0.30887127  0.61673538  0.19992810  1
  O  O316  1  0.30887127  0.61673538  0.53326144  1
  O  O317  1  0.30887127  0.61673538  0.86659477  1
  O  O318  1  0.80887127  0.11673538  0.19992810  1
  O  O319  1  0.80887127  0.11673538  0.53326144  1
  O  O320  1  0.80887127  0.11673538  0.86659477  1
  O  O321  1  0.80887127  0.61673538  0.19992810  1
  O  O322  1  0.80887127  0.61673538  0.53326144  1
  O  O323  1  0.80887127  0.61673538  0.86659477  1
  O  O324  1  0.55887127  0.36673538  0.19992810  1
  O  O325  1  0.55887127  0.36673538  0.53326144  1
  O  O326  1  0.55887127  0.36673538  0.86659477  1
  O  O327  1  0.55887127  0.86673538  0.19992810  1
  O  O328  1  0.55887127  0.86673538  0.53326144  1
  O  O329  1  0.55887127  0.86673538  0.86659477  1
  O  O330  1  1.05887127  0.36673538  0.19992810  1
  O  O331  1  1.05887127  0.36673538  0.53326144  1
  O  O332  1  1.05887127  0.36673538  0.86659477  1
  O  O333  1  1.05887127  0.86673538  0.19992810  1
  O  O334  1  1.05887127  0.86673538  0.53326144  1
  O  O335  1  1.05887127  0.86673538  0.86659477  1
  O  O336  1  0.30887127  -0.11673538  0.03326144  1
  O  O337  1  0.30887127  -0.11673538  0.36659477  1
  O  O338  1  0.30887127  -0.11673538  0.69992810  1
  O  O339  1  0.30887127  0.38326462  0.03326144  1
  O  O340  1  0.30887127  0.38326462  0.36659477  1
  O  O341  1  0.30887127  0.38326462  0.69992810  1
  O  O342  1  0.80887127  -0.11673538  0.03326144  1
  O  O343  1  0.80887127  -0.11673538  0.36659477  1
  O  O344  1  0.80887127  -0.11673538  0.69992810  1
  O  O345  1  0.80887127  0.38326462  0.03326144  1
  O  O346  1  0.80887127  0.38326462  0.36659477  1
  O  O347  1  0.80887127  0.38326462  0.69992810  1
  O  O348  1  0.55887127  0.13326462  0.03326144  1
  O  O349  1  0.55887127  0.13326462  0.36659477  1
  O  O350  1  0.55887127  0.13326462  0.69992810  1
  O  O351  1  0.55887127  0.63326462  0.03326144  1
  O  O352  1  0.55887127  0.63326462  0.36659477  1
  O  O353  1  0.55887127  0.63326462  0.69992810  1
  O  O354  1  1.05887127  0.13326462  0.03326144  1
  O  O355  1  1.05887127  0.13326462  0.36659477  1
  O  O356  1  1.05887127  0.13326462  0.69992810  1
  O  O357  1  1.05887127  0.63326462  0.03326144  1
  O  O358  1  1.05887127  0.63326462  0.36659477  1
  O  O359  1  1.05887127  0.63326462  0.69992810  1
  O  O360  1  0.19112873  -0.11673538  0.13340523  1
  O  O361  1  0.19112873  -0.11673538  0.46673856  1
  O  O362  1  0.19112873  -0.11673538  0.80007190  1
  O  O363  1  0.19112873  0.38326462  0.13340523  1
  O  O364  1  0.19112873  0.38326462  0.46673856  1
  O  O365  1  0.19112873  0.38326462  0.80007190  1
  O  O366  1  0.69112873  -0.11673538  0.13340523  1
  O  O367  1  0.69112873  -0.11673538  0.46673856  1
  O  O368  1  0.69112873  -0.11673538  0.80007190  1
  O  O369  1  0.69112873  0.38326462  0.13340523  1
  O  O370  1  0.69112873  0.38326462  0.46673856  1
  O  O371  1  0.69112873  0.38326462  0.80007190  1
  O  O372  1  0.44112873  0.13326462  0.13340523  1
  O  O373  1  0.44112873  0.13326462  0.46673856  1
  O  O374  1  0.44112873  0.13326462  0.80007190  1
  O  O375  1  0.44112873  0.63326462  0.13340523  1
  O  O376  1  0.44112873  0.63326462  0.46673856  1
  O  O377  1  0.44112873  0.63326462  0.80007190  1
  O  O378  1  0.94112873  0.13326462  0.13340523  1
  O  O379  1  0.94112873  0.13326462  0.46673856  1
  O  O380  1  0.94112873  0.13326462  0.80007190  1
  O  O381  1  0.94112873  0.63326462  0.13340523  1
  O  O382  1  0.94112873  0.63326462  0.46673856  1
  O  O383  1  0.94112873  0.63326462  0.80007190  1
  O  O384  1  0.18262812  0.01807840  0.17921711  1
  O  O385  1  0.18262812  0.01807840  0.51255044  1
  O  O386  1  0.18262812  0.01807840  0.84588378  1
  O  O387  1  0.18262812  0.51807840  0.17921711  1
  O  O388  1  0.18262812  0.51807840  0.51255044  1
  O  O389  1  0.18262812  0.51807840  0.84588378  1
  O  O390  1  0.68262812  0.01807840  0.17921711  1
  O  O391  1  0.68262812  0.01807840  0.51255044  1
  O  O392  1  0.68262812  0.01807840  0.84588378  1
  O  O393  1  0.68262812  0.51807840  0.17921711  1
  O  O394  1  0.68262812  0.51807840  0.51255044  1
  O  O395  1  0.68262812  0.51807840  0.84588378  1
  O  O396  1  0.43262812  0.26807840  0.17921711  1
  O  O397  1  0.43262812  0.26807840  0.51255044  1
  O  O398  1  0.43262812  0.26807840  0.84588378  1
  O  O399  1  0.43262812  0.76807840  0.17921711  1
  O  O400  1  0.43262812  0.76807840  0.51255044  1
  O  O401  1  0.43262812  0.76807840  0.84588378  1
  O  O402  1  0.93262812  0.26807840  0.17921711  1
  O  O403  1  0.93262812  0.26807840  0.51255044  1
  O  O404  1  0.93262812  0.26807840  0.84588378  1
  O  O405  1  0.93262812  0.76807840  0.17921711  1
  O  O406  1  0.93262812  0.76807840  0.51255044  1
  O  O407  1  0.93262812  0.76807840  0.84588378  1
  O  O408  1  0.31737188  0.01807840  0.32078289  1
  O  O409  1  0.31737188  0.01807840  0.65411622  1
  O  O410  1  0.31737188  0.01807840  0.98744956  1
  O  O411  1  0.31737188  0.51807840  0.32078289  1
  O  O412  1  0.31737188  0.51807840  0.65411622  1
  O  O413  1  0.31737188  0.51807840  0.98744956  1
  O  O414  1  0.81737188  0.01807840  0.32078289  1
  O  O415  1  0.81737188  0.01807840  0.65411622  1
  O  O416  1  0.81737188  0.01807840  0.98744956  1
  O  O417  1  0.81737188  0.51807840  0.32078289  1
  O  O418  1  0.81737188  0.51807840  0.65411622  1
  O  O419  1  0.81737188  0.51807840  0.98744956  1
  O  O420  1  0.56737188  0.26807840  0.32078289  1
  O  O421  1  0.56737188  0.26807840  0.65411622  1
  O  O422  1  0.56737188  0.26807840  0.98744956  1
  O  O423  1  0.56737188  0.76807840  0.32078289  1
  O  O424  1  0.56737188  0.76807840  0.65411622  1
  O  O425  1  0.56737188  0.76807840  0.98744956  1
  O  O426  1  1.06737188  0.26807840  0.32078289  1
  O  O427  1  1.06737188  0.26807840  0.65411622  1
  O  O428  1  1.06737188  0.26807840  0.98744956  1
  O  O429  1  1.06737188  0.76807840  0.32078289  1
  O  O430  1  1.06737188  0.76807840  0.65411622  1
  O  O431  1  1.06737188  0.76807840  0.98744956  1
  O  O432  1  0.31737188  -0.01807840  0.15411622  1
  O  O433  1  0.31737188  -0.01807840  0.48744956  1
  O  O434  1  0.31737188  -0.01807840  0.82078289  1
  O  O435  1  0.31737188  0.48192160  0.15411622  1
  O  O436  1  0.31737188  0.48192160  0.48744956  1
  O  O437  1  0.31737188  0.48192160  0.82078289  1
  O  O438  1  0.81737188  -0.01807840  0.15411622  1
  O  O439  1  0.81737188  -0.01807840  0.48744956  1
  O  O440  1  0.81737188  -0.01807840  0.82078289  1
  O  O441  1  0.81737188  0.48192160  0.15411622  1
  O  O442  1  0.81737188  0.48192160  0.48744956  1
  O  O443  1  0.81737188  0.48192160  0.82078289  1
  O  O444  1  0.56737188  0.23192160  0.15411622  1
  O  O445  1  0.56737188  0.23192160  0.48744956  1
  O  O446  1  0.56737188  0.23192160  0.82078289  1
  O  O447  1  0.56737188  0.73192160  0.15411622  1
  O  O448  1  0.56737188  0.73192160  0.48744956  1
  O  O449  1  0.56737188  0.73192160  0.82078289  1
  O  O450  1  1.06737188  0.23192160  0.15411622  1
  O  O451  1  1.06737188  0.23192160  0.48744956  1
  O  O452  1  1.06737188  0.23192160  0.82078289  1
  O  O453  1  1.06737188  0.73192160  0.15411622  1
  O  O454  1  1.06737188  0.73192160  0.48744956  1
  O  O455  1  1.06737188  0.73192160  0.82078289  1
  O  O456  1  0.18262812  -0.01807840  0.01255044  1
  O  O457  1  0.18262812  -0.01807840  0.34588378  1
  O  O458  1  0.18262812  -0.01807840  0.67921711  1
  O  O459  1  0.18262812  0.48192160  0.01255044  1
  O  O460  1  0.18262812  0.48192160  0.34588378  1
  O  O461  1  0.18262812  0.48192160  0.67921711  1
  O  O462  1  0.68262812  -0.01807840  0.01255044  1
  O  O463  1  0.68262812  -0.01807840  0.34588378  1
  O  O464  1  0.68262812  -0.01807840  0.67921711  1
  O  O465  1  0.68262812  0.48192160  0.01255044  1
  O  O466  1  0.68262812  0.48192160  0.34588378  1
  O  O467  1  0.68262812  0.48192160  0.67921711  1
  O  O468  1  0.43262812  0.23192160  0.01255044  1
  O  O469  1  0.43262812  0.23192160  0.34588378  1
  O  O470  1  0.43262812  0.23192160  0.67921711  1
  O  O471  1  0.43262812  0.73192160  0.01255044  1
  O  O472  1  0.43262812  0.73192160  0.34588378  1
  O  O473  1  0.43262812  0.73192160  0.67921711  1
  O  O474  1  0.93262812  0.23192160  0.01255044  1
  O  O475  1  0.93262812  0.23192160  0.34588378  1
  O  O476  1  0.93262812  0.23192160  0.67921711  1
  O  O477  1  0.93262812  0.73192160  0.01255044  1
  O  O478  1  0.93262812  0.73192160  0.34588378  1
  O  O479  1  0.93262812  0.73192160  0.67921711  1
