# generated using pymatgen
data_RbAuO2
_symmetry_space_group_name_H-M   'P 1'
_cell_length_a   14.16731654
_cell_length_b   12.09566265
_cell_length_c   12.06197964
_cell_angle_alpha   90.00000000
_cell_angle_beta   90.00000000
_cell_angle_gamma   90.00000000
_symmetry_Int_Tables_number   1
_chemical_formula_structural   RbAuO2
_chemical_formula_sum   'Rb24 Au24 O48'
_cell_volume   2066.97800158
_cell_formula_units_Z   24
loop_
 _symmetry_equiv_pos_site_id
 _symmetry_equiv_pos_as_xyz
  1  'x, y, z'
loop_
 _atom_site_type_symbol
 _atom_site_label
 _atom_site_symmetry_multiplicity
 _atom_site_fract_x
 _atom_site_fract_y
 _atom_site_fract_z
 _atom_site_occupancy
  Rb  Rb0  1  0.16666667  0.19834392  0.37500000  1
  Rb  Rb1  1  0.16666667  0.19834392  0.87500000  1
  Rb  Rb2  1  0.50000000  0.19834392  0.37500000  1
  Rb  Rb3  1  0.50000000  0.19834392  0.87500000  1
  Rb  Rb4  1  0.83333333  0.19834392  0.37500000  1
  Rb  Rb5  1  0.83333333  0.19834392  0.87500000  1
  Rb  Rb6  1  0.33333333  0.69834392  0.37500000  1
  Rb  Rb7  1  0.33333333  0.69834392  0.87500000  1
  Rb  Rb8  1  0.66666667  0.69834392  0.37500000  1
  Rb  Rb9  1  0.66666667  0.69834392  0.87500000  1
  Rb  Rb10  1  1.00000000  0.69834392  0.37500000  1
  Rb  Rb11  1  1.00000000  0.69834392  0.87500000  1
  Rb  Rb12  1  0.16666667  -0.19834392  0.12500000  1
  Rb  Rb13  1  0.16666667  -0.19834392  0.62500000  1
  Rb  Rb14  1  0.50000000  -0.19834392  0.12500000  1
  Rb  Rb15  1  0.50000000  -0.19834392  0.62500000  1
  Rb  Rb16  1  0.83333333  -0.19834392  0.12500000  1
  Rb  Rb17  1  0.83333333  -0.19834392  0.62500000  1
  Rb  Rb18  1  0.33333333  0.30165608  0.12500000  1
  Rb  Rb19  1  0.33333333  0.30165608  0.62500000  1
  Rb  Rb20  1  0.66666667  0.30165608  0.12500000  1
  Rb  Rb21  1  0.66666667  0.30165608  0.62500000  1
  Rb  Rb22  1  1.00000000  0.30165608  0.12500000  1
  Rb  Rb23  1  1.00000000  0.30165608  0.62500000  1
  Au  Au24  1  0.16666667  -0.49747397  0.12500000  1
  Au  Au25  1  0.16666667  -0.49747397  0.62500000  1
  Au  Au26  1  0.50000000  -0.49747397  0.12500000  1
  Au  Au27  1  0.50000000  -0.49747397  0.62500000  1
  Au  Au28  1  0.83333333  -0.49747397  0.12500000  1
  Au  Au29  1  0.83333333  -0.49747397  0.62500000  1
  Au  Au30  1  0.33333333  0.00252603  0.12500000  1
  Au  Au31  1  0.33333333  0.00252603  0.62500000  1
  Au  Au32  1  0.66666667  0.00252603  0.12500000  1
  Au  Au33  1  0.66666667  0.00252603  0.62500000  1
  Au  Au34  1  1.00000000  0.00252603  0.12500000  1
  Au  Au35  1  1.00000000  0.00252603  0.62500000  1
  Au  Au36  1  0.16666667  0.49747397  0.37500000  1
  Au  Au37  1  0.16666667  0.49747397  0.87500000  1
  Au  Au38  1  0.50000000  0.49747397  0.37500000  1
  Au  Au39  1  0.50000000  0.49747397  0.87500000  1
  Au  Au40  1  0.83333333  0.49747397  0.37500000  1
  Au  Au41  1  0.83333333  0.49747397  0.87500000  1
  Au  Au42  1  0.33333333  0.99747397  0.37500000  1
  Au  Au43  1  0.33333333  0.99747397  0.87500000  1
  Au  Au44  1  0.66666667  0.99747397  0.37500000  1
  Au  Au45  1  0.66666667  0.99747397  0.87500000  1
  Au  Au46  1  1.00000000  0.99747397  0.37500000  1
  Au  Au47  1  1.00000000  0.99747397  0.87500000  1
  O  O48  1  0.16666667  -0.39075977  0.25239131  1
  O  O49  1  0.16666667  -0.39075977  0.75239131  1
  O  O50  1  0.50000000  -0.39075977  0.25239131  1
  O  O51  1  0.50000000  -0.39075977  0.75239131  1
  O  O52  1  0.83333333  -0.39075977  0.25239131  1
  O  O53  1  0.83333333  -0.39075977  0.75239131  1
  O  O54  1  0.33333333  0.10924023  0.25239131  1
  O  O55  1  0.33333333  0.10924023  0.75239131  1
  O  O56  1  0.66666667  0.10924023  0.25239131  1
  O  O57  1  0.66666667  0.10924023  0.75239131  1
  O  O58  1  1.00000000  0.10924023  0.25239131  1
  O  O59  1  1.00000000  0.10924023  0.75239131  1
  O  O60  1  0.16666667  0.39075977  0.24760869  1
  O  O61  1  0.16666667  0.39075977  0.74760869  1
  O  O62  1  0.50000000  0.39075977  0.24760869  1
  O  O63  1  0.50000000  0.39075977  0.74760869  1
  O  O64  1  0.83333333  0.39075977  0.24760869  1
  O  O65  1  0.83333333  0.39075977  0.74760869  1
  O  O66  1  0.33333333  0.89075977  0.24760869  1
  O  O67  1  0.33333333  0.89075977  0.74760869  1
  O  O68  1  0.66666667  0.89075977  0.24760869  1
  O  O69  1  0.66666667  0.89075977  0.74760869  1
  O  O70  1  1.00000000  0.89075977  0.24760869  1
  O  O71  1  1.00000000  0.89075977  0.74760869  1
  O  O72  1  0.16666667  -0.39075977  0.49760869  1
  O  O73  1  0.16666667  -0.39075977  0.99760869  1
  O  O74  1  0.50000000  -0.39075977  0.49760869  1
  O  O75  1  0.50000000  -0.39075977  0.99760869  1
  O  O76  1  0.83333333  -0.39075977  0.49760869  1
  O  O77  1  0.83333333  -0.39075977  0.99760869  1
  O  O78  1  0.33333333  0.10924023  0.49760869  1
  O  O79  1  0.33333333  0.10924023  0.99760869  1
  O  O80  1  0.66666667  0.10924023  0.49760869  1
  O  O81  1  0.66666667  0.10924023  0.99760869  1
  O  O82  1  1.00000000  0.10924023  0.49760869  1
  O  O83  1  1.00000000  0.10924023  0.99760869  1
  O  O84  1  0.16666667  0.39075977  0.00239131  1
  O  O85  1  0.16666667  0.39075977  0.50239131  1
  O  O86  1  0.50000000  0.39075977  0.00239131  1
  O  O87  1  0.50000000  0.39075977  0.50239131  1
  O  O88  1  0.83333333  0.39075977  0.00239131  1
  O  O89  1  0.83333333  0.39075977  0.50239131  1
  O  O90  1  0.33333333  0.89075977  0.00239131  1
  O  O91  1  0.33333333  0.89075977  0.50239131  1
  O  O92  1  0.66666667  0.89075977  0.00239131  1
  O  O93  1  0.66666667  0.89075977  0.50239131  1
  O  O94  1  1.00000000  0.89075977  0.00239131  1
  O  O95  1  1.00000000  0.89075977  0.50239131  1
