# generated using pymatgen
data_Ag2HgO2
_symmetry_space_group_name_H-M   'P 1'
_cell_length_a   6.11181261
_cell_length_b   6.11181261
_cell_length_c   8.37451599
_cell_angle_alpha   90.00000000
_cell_angle_beta   90.00000000
_cell_angle_gamma   90.00000000
_symmetry_Int_Tables_number   1
_chemical_formula_structural   Ag2HgO2
_chemical_formula_sum   'Ag8 Hg4 O8'
_cell_volume   312.82379177
_cell_formula_units_Z   4
loop_
 _symmetry_equiv_pos_site_id
 _symmetry_equiv_pos_as_xyz
  1  'x, y, z'
loop_
 _atom_site_type_symbol
 _atom_site_label
 _atom_site_symmetry_multiplicity
 _atom_site_fract_x
 _atom_site_fract_y
 _atom_site_fract_z
 _atom_site_occupancy
  Ag  Ag1  1  0.99987228  0.75582840  0.12834244  1
  Ag  Ag1  1  0.49987228  0.74417160  0.12165756  1
  Ag  Ag1  1  0.25582840  0.50012772  0.37834244  1
  Ag  Ag1  1  0.74417160  0.49987228  0.87834244  1
  Ag  Ag1  1  0.24417160  0.00012772  0.37165756  1
  Ag  Ag1  1  0.50012772  0.25582840  0.62165756  1
  Ag  Ag1  1  0.00012772  0.24417160  0.62834244  1
  Ag  Ag1  1  0.75582840  0.99987228  0.87165756  1
  Hg  Hg1  1  0.29295850  0.29295850  0.00000000  1
  Hg  Hg1  1  0.20704150  0.79295850  0.75000000  1
  Hg  Hg1  1  0.79295850  0.20704150  0.25000000  1
  Hg  Hg1  1  0.70704150  0.70704150  0.50000000  1
  O  O1  1  0.25075244  0.88469688  0.98606564  1
  O  O1  1  0.74924756  0.11530312  0.48606564  1
  O  O1  1  0.88469688  0.25075244  0.01393436  1
  O  O1  1  0.38469688  0.24924756  0.23606564  1
  O  O1  1  0.75075244  0.61530312  0.26393436  1
  O  O1  1  0.11530312  0.74924756  0.51393436  1
  O  O1  1  0.61530312  0.75075244  0.73606564  1
  O  O1  1  0.24924756  0.38469688  0.76393436  1
