# generated using pymatgen
data_AgAuO2
_symmetry_space_group_name_H-M   'P 1'
_cell_length_a   5.58132625
_cell_length_b   3.88484430
_cell_length_c   5.44797055
_cell_angle_alpha   90.00000000
_cell_angle_beta   105.64538149
_cell_angle_gamma   90.00000000
_symmetry_Int_Tables_number   1
_chemical_formula_structural   AgAuO2
_chemical_formula_sum   'Ag2 Au2 O4'
_cell_volume   113.74941824
_cell_formula_units_Z   2
loop_
 _symmetry_equiv_pos_site_id
 _symmetry_equiv_pos_as_xyz
  1  'x, y, z'
loop_
 _atom_site_type_symbol
 _atom_site_label
 _atom_site_symmetry_multiplicity
 _atom_site_fract_x
 _atom_site_fract_y
 _atom_site_fract_z
 _atom_site_occupancy
  Ag  Ag1  1  0.50000000  0.50000000  0.00000000  1
  Ag  Ag1  1  0.50000000  0.00000000  0.50000000  1
  Au  Au1  1  0.00000000  0.50000000  0.50000000  1
  Au  Au1  1  0.00000000  0.00000000  0.00000000  1
  O  O1  1  0.79859700  0.20256999  0.21882710  1
  O  O1  1  0.20140300  0.70256999  0.28117290  1
  O  O1  1  0.20140300  0.79743001  0.78117290  1
  O  O1  1  0.79859700  0.29743001  0.71882710  1
