# generated using pymatgen
data_Al2Ge2O7
_symmetry_space_group_name_H-M   'P 1'
_cell_length_a   7.22016915
_cell_length_b   7.77604884
_cell_length_c   9.79262867
_cell_angle_alpha   90.00000000
_cell_angle_beta   110.41003428
_cell_angle_gamma   90.00000000
_symmetry_Int_Tables_number   1
_chemical_formula_structural   Al2Ge2O7
_chemical_formula_sum   'Al8 Ge8 O28'
_cell_volume   515.28513881
_cell_formula_units_Z   4
loop_
 _symmetry_equiv_pos_site_id
 _symmetry_equiv_pos_as_xyz
  1  'x, y, z'
loop_
 _atom_site_type_symbol
 _atom_site_label
 _atom_site_symmetry_multiplicity
 _atom_site_fract_x
 _atom_site_fract_y
 _atom_site_fract_z
 _atom_site_occupancy
  Al  Al1  1  0.67015222  0.07696520  0.47876378  1
  Al  Al1  1  0.32984778  0.07696520  0.02123622  1
  Al  Al1  1  0.32984778  0.92303480  0.52123622  1
  Al  Al1  1  0.67015222  0.92303480  0.97876378  1
  Ge  Ge1  1  0.25960298  0.74828462  0.20605572  1
  Ge  Ge1  1  0.74039702  0.74828462  0.29394428  1
  Ge  Ge1  1  0.74039702  0.25171538  0.79394428  1
  Ge  Ge1  1  0.25960298  0.25171538  0.70605572  1
  O  O1  1  0.70885704  0.27268766  0.37258108  1
  O  O1  1  0.29114296  0.27268766  0.12741892  1
  O  O1  1  0.29114296  0.72731234  0.62741892  1
  O  O1  1  0.70885704  0.72731234  0.87258108  1
  O  O2  1  0.60004758  0.08106344  0.10207212  1
  O  O2  1  0.39995242  0.08106344  0.39792788  1
  O  O2  1  0.39995242  0.91893656  0.89792788  1
  O  O2  1  0.60004758  0.91893656  0.60207212  1
  O  O3  1  0.50000000  0.34029836  0.75000000  1
  O  O3  1  0.50000000  0.65970164  0.25000000  1
  O  O4  1  0.21158614  0.06611274  0.60136320  1
  O  O4  1  0.78841386  0.06611274  0.89863680  1
  O  O4  1  0.78841386  0.93388726  0.39863680  1
  O  O4  1  0.21158614  0.93388726  0.10136320  1
  Al  Al1  1  0.17015222  0.57696520  0.47876378  1
  Al  Al1  1  0.82984778  0.57696520  0.02123622  1
  Al  Al1  1  0.82984778  0.42303480  0.52123622  1
  Al  Al1  1  0.17015222  0.42303480  0.97876378  1
  Ge  Ge1  1  0.75960298  0.24828462  0.20605572  1
  Ge  Ge1  1  0.24039702  0.24828462  0.29394428  1
  Ge  Ge1  1  0.24039702  0.75171538  0.79394428  1
  Ge  Ge1  1  0.75960298  0.75171538  0.70605572  1
  O  O1  1  0.20885704  0.77268766  0.37258108  1
  O  O1  1  0.79114296  0.77268766  0.12741892  1
  O  O1  1  0.79114296  0.22731234  0.62741892  1
  O  O1  1  0.20885704  0.22731234  0.87258108  1
  O  O2  1  0.10004758  0.58106344  0.10207212  1
  O  O2  1  0.89995242  0.58106344  0.39792788  1
  O  O2  1  0.89995242  0.41893656  0.89792788  1
  O  O2  1  0.10004758  0.41893656  0.60207212  1
  O  O3  1  0.00000000  0.84029836  0.75000000  1
  O  O3  1  0.00000000  0.15970164  0.25000000  1
  O  O4  1  0.71158614  0.56611274  0.60136320  1
  O  O4  1  0.28841386  0.56611274  0.89863680  1
  O  O4  1  0.28841386  0.43388726  0.39863680  1
  O  O4  1  0.71158614  0.43388726  0.10136320  1
