# generated using pymatgen
data_Al2O3
_symmetry_space_group_name_H-M   'P 1'
_cell_length_a   4.77459390
_cell_length_b   4.77459390
_cell_length_c   13.01404156
_cell_angle_alpha   90.00000000
_cell_angle_beta   90.00000000
_cell_angle_gamma   120.00000000
_symmetry_Int_Tables_number   1
_chemical_formula_structural   Al2O3
_chemical_formula_sum   'Al12 O18'
_cell_volume   256.93052169
_cell_formula_units_Z   6
loop_
 _symmetry_equiv_pos_site_id
 _symmetry_equiv_pos_as_xyz
  1  'x, y, z'
loop_
 _atom_site_type_symbol
 _atom_site_label
 _atom_site_symmetry_multiplicity
 _atom_site_fract_x
 _atom_site_fract_y
 _atom_site_fract_z
 _atom_site_occupancy
  Al  Al1  1  0.33333333  0.66666667  0.31459011  1
  Al  Al1  1  0.66666667  0.33333333  0.18540989  1
  Al  Al1  1  0.66666667  0.33333333  0.48125678  1
  Al  Al1  1  0.00000000  0.00000000  0.35207655  1
  O  O1  1  0.63914889  0.66666667  0.41666667  1
  O  O1  1  0.00000000  0.69418444  0.25000000  1
  O  O1  1  0.33333333  0.97248223  0.41666667  1
  O  O1  1  0.02751777  0.36085111  0.41666667  1
  O  O1  1  0.30581556  0.30581556  0.25000000  1
  O  O1  1  0.69418444  0.00000000  0.25000000  1
  Al  Al1  1  0.00000000  0.00000000  0.64792345  1
  Al  Al1  1  0.33333333  0.66666667  0.51874322  1
  Al  Al1  1  0.33333333  0.66666667  0.81459011  1
  Al  Al1  1  0.66666667  0.33333333  0.68540989  1
  O  O1  1  0.30581556  0.00000000  0.75000000  1
  O  O1  1  0.66666667  0.02751777  0.58333333  1
  O  O1  1  0.00000000  0.30581556  0.75000000  1
  O  O1  1  0.69418444  0.69418444  0.75000000  1
  O  O1  1  0.97248223  0.63914889  0.58333333  1
  O  O1  1  0.36085111  0.33333333  0.58333333  1
  Al  Al1  1  0.66666667  0.33333333  0.98125678  1
  Al  Al1  1  0.00000000  0.00000000  0.85207655  1
  Al  Al1  1  0.00000000  0.00000000  0.14792345  1
  Al  Al1  1  0.33333333  0.66666667  0.01874322  1
  O  O1  1  0.97248223  0.33333333  0.08333333  1
  O  O1  1  0.33333333  0.36085111  0.91666667  1
  O  O1  1  0.66666667  0.63914889  0.08333333  1
  O  O1  1  0.36085111  0.02751777  0.08333333  1
  O  O1  1  0.63914889  0.97248223  0.91666667  1
  O  O1  1  0.02751777  0.66666667  0.91666667  1
