# generated using pymatgen
data_Al2PbO4
_symmetry_space_group_name_H-M   'P 1'
_cell_length_a   8.44545662
_cell_length_b   9.18807170
_cell_length_c   5.08774542
_cell_angle_alpha   90.00000000
_cell_angle_beta   90.00000000
_cell_angle_gamma   90.00000000
_symmetry_Int_Tables_number   1
_chemical_formula_structural   Al2PbO4
_chemical_formula_sum   'Al8 Pb4 O16'
_cell_volume   394.79612688
_cell_formula_units_Z   4
loop_
 _symmetry_equiv_pos_site_id
 _symmetry_equiv_pos_as_xyz
  1  'x, y, z'
loop_
 _atom_site_type_symbol
 _atom_site_label
 _atom_site_symmetry_multiplicity
 _atom_site_fract_x
 _atom_site_fract_y
 _atom_site_fract_z
 _atom_site_occupancy
  Al  Al1  1  0.55389360  0.17247470  0.53186347  1
  Al  Al1  1  0.44610640  0.32752530  0.03186347  1
  Al  Al1  1  0.94610640  0.17247470  0.53186347  1
  Al  Al1  1  0.05389360  0.32752530  0.03186347  1
  Pb  Pb1  1  0.75000000  0.02650846  0.99630528  1
  Pb  Pb1  1  0.25000000  0.47349154  0.49630528  1
  O  O1  1  0.75000000  0.18876330  0.65148014  1
  O  O1  1  0.25000000  0.31123670  0.15148014  1
  O  O2  1  0.50000000  0.00000000  0.65105985  1
  O  O2  1  0.00000000  0.00000000  0.65105985  1
  O  O3  1  0.55575374  0.18764170  0.18621439  1
  O  O3  1  0.44424626  0.31235830  0.68621439  1
  O  O3  1  0.05575374  0.31235830  0.68621439  1
  O  O3  1  0.94424626  0.18764170  0.18621439  1
  Al  Al1  1  0.55389360  0.67247470  0.03186347  1
  Al  Al1  1  0.44610640  0.82752530  0.53186347  1
  Al  Al1  1  0.94610640  0.67247470  0.03186347  1
  Al  Al1  1  0.05389360  0.82752530  0.53186347  1
  Pb  Pb1  1  0.75000000  0.52650846  0.49630528  1
  Pb  Pb1  1  0.25000000  0.97349154  0.99630528  1
  O  O1  1  0.75000000  0.68876330  0.15148014  1
  O  O1  1  0.25000000  0.81123670  0.65148014  1
  O  O2  1  0.50000000  0.50000000  0.15105985  1
  O  O2  1  0.00000000  0.50000000  0.15105985  1
  O  O3  1  0.55575374  0.68764170  0.68621439  1
  O  O3  1  0.44424626  0.81235830  0.18621439  1
  O  O3  1  0.05575374  0.81235830  0.18621439  1
  O  O3  1  0.94424626  0.68764170  0.68621439  1
