# generated using pymatgen
data_Al2ZnO4
_symmetry_space_group_name_H-M   'P 1'
_cell_length_a   8.04793030
_cell_length_b   8.04793030
_cell_length_c   8.04793030
_cell_angle_alpha   90.00000000
_cell_angle_beta   90.00000000
_cell_angle_gamma   90.00000000
_symmetry_Int_Tables_number   1
_chemical_formula_structural   Al2ZnO4
_chemical_formula_sum   'Al16 Zn8 O32'
_cell_volume   521.25786324
_cell_formula_units_Z   8
loop_
 _symmetry_equiv_pos_site_id
 _symmetry_equiv_pos_as_xyz
  1  'x, y, z'
loop_
 _atom_site_type_symbol
 _atom_site_label
 _atom_site_symmetry_multiplicity
 _atom_site_fract_x
 _atom_site_fract_y
 _atom_site_fract_z
 _atom_site_occupancy
  Al  Al1  1  0.37500000  0.37500000  0.12500000  1
  Al  Al1  1  0.37500000  0.12500000  0.37500000  1
  Al  Al1  1  0.12500000  0.37500000  0.37500000  1
  Al  Al1  1  0.12500000  0.12500000  0.12500000  1
  Zn  Zn1  1  0.00000000  0.00000000  0.50000000  1
  Zn  Zn1  1  0.25000000  0.75000000  0.25000000  1
  O  O1  1  0.36218264  0.86218264  0.86218264  1
  O  O1  1  0.38781736  0.61218264  0.11218264  1
  O  O1  1  0.11218264  0.61218264  0.38781736  1
  O  O1  1  0.11218264  0.88781736  0.11218264  1
  O  O1  1  0.13781736  0.13781736  0.36218264  1
  O  O1  1  0.13781736  0.86218264  0.63781736  1
  O  O1  1  0.38781736  0.88781736  0.38781736  1
  O  O1  1  0.36218264  0.13781736  0.13781736  1
  Al  Al1  1  0.37500000  0.87500000  0.62500000  1
  Al  Al1  1  0.37500000  0.62500000  0.87500000  1
  Al  Al1  1  0.12500000  0.87500000  0.87500000  1
  Al  Al1  1  0.12500000  0.62500000  0.62500000  1
  Zn  Zn1  1  0.00000000  0.50000000  0.00000000  1
  Zn  Zn1  1  0.25000000  0.25000000  0.75000000  1
  O  O1  1  0.36218264  0.36218264  0.36218264  1
  O  O1  1  0.38781736  0.11218264  0.61218264  1
  O  O1  1  0.11218264  0.11218264  0.88781736  1
  O  O1  1  0.11218264  0.38781736  0.61218264  1
  O  O1  1  0.13781736  0.63781736  0.86218264  1
  O  O1  1  0.13781736  0.36218264  0.13781736  1
  O  O1  1  0.38781736  0.38781736  0.88781736  1
  O  O1  1  0.36218264  0.63781736  0.63781736  1
  Al  Al1  1  0.87500000  0.37500000  0.62500000  1
  Al  Al1  1  0.87500000  0.12500000  0.87500000  1
  Al  Al1  1  0.62500000  0.37500000  0.87500000  1
  Al  Al1  1  0.62500000  0.12500000  0.62500000  1
  Zn  Zn1  1  0.50000000  0.00000000  0.00000000  1
  Zn  Zn1  1  0.75000000  0.75000000  0.75000000  1
  O  O1  1  0.86218264  0.86218264  0.36218264  1
  O  O1  1  0.88781736  0.61218264  0.61218264  1
  O  O1  1  0.61218264  0.61218264  0.88781736  1
  O  O1  1  0.61218264  0.88781736  0.61218264  1
  O  O1  1  0.63781736  0.13781736  0.86218264  1
  O  O1  1  0.63781736  0.86218264  0.13781736  1
  O  O1  1  0.88781736  0.88781736  0.88781736  1
  O  O1  1  0.86218264  0.13781736  0.63781736  1
  Al  Al1  1  0.87500000  0.87500000  0.12500000  1
  Al  Al1  1  0.87500000  0.62500000  0.37500000  1
  Al  Al1  1  0.62500000  0.87500000  0.37500000  1
  Al  Al1  1  0.62500000  0.62500000  0.12500000  1
  Zn  Zn1  1  0.50000000  0.50000000  0.50000000  1
  Zn  Zn1  1  0.75000000  0.25000000  0.25000000  1
  O  O1  1  0.86218264  0.36218264  0.86218264  1
  O  O1  1  0.88781736  0.11218264  0.11218264  1
  O  O1  1  0.61218264  0.11218264  0.38781736  1
  O  O1  1  0.61218264  0.38781736  0.11218264  1
  O  O1  1  0.63781736  0.63781736  0.36218264  1
  O  O1  1  0.63781736  0.36218264  0.63781736  1
  O  O1  1  0.88781736  0.38781736  0.38781736  1
  O  O1  1  0.86218264  0.63781736  0.13781736  1
