# generated using pymatgen
data_Al4Bi2O9
_symmetry_space_group_name_H-M   'P 1'
_cell_length_a   7.67825440
_cell_length_b   8.16106711
_cell_length_c   5.70948771
_cell_angle_alpha   90.00000000
_cell_angle_beta   90.00000000
_cell_angle_gamma   90.00000000
_symmetry_Int_Tables_number   1
_chemical_formula_structural   Al4Bi2O9
_chemical_formula_sum   'Al8 Bi4 O18'
_cell_volume   357.77219764
_cell_formula_units_Z   2
loop_
 _symmetry_equiv_pos_site_id
 _symmetry_equiv_pos_as_xyz
  1  'x, y, z'
loop_
 _atom_site_type_symbol
 _atom_site_label
 _atom_site_symmetry_multiplicity
 _atom_site_fract_x
 _atom_site_fract_y
 _atom_site_fract_z
 _atom_site_occupancy
  Al  Al1  1  0.14764726  0.83737268  0.50000000  1
  Al  Al1  1  0.85235274  0.16262732  0.50000000  1
  Al  Al1  1  0.64764726  0.66262732  0.50000000  1
  Al  Al1  1  0.35235274  0.33737268  0.50000000  1
  Al  Al2  1  0.00000000  0.50000000  0.25995805  1
  Al  Al2  1  0.50000000  0.00000000  0.74004195  1
  Al  Al2  1  0.00000000  0.50000000  0.74004195  1
  Al  Al2  1  0.50000000  0.00000000  0.25995805  1
  Bi  Bi1  1  0.33444542  0.66737636  0.00000000  1
  Bi  Bi1  1  0.66555458  0.33262364  0.00000000  1
  Bi  Bi1  1  0.83444542  0.83262364  0.00000000  1
  Bi  Bi1  1  0.16555458  0.16737636  0.00000000  1
  O  O1  1  0.35424454  0.93421280  0.00000000  1
  O  O1  1  0.64575546  0.06578720  0.00000000  1
  O  O1  1  0.85424454  0.56578720  0.00000000  1
  O  O1  1  0.14575546  0.43421280  0.00000000  1
  O  O2  1  0.36245814  0.91306936  0.50000000  1
  O  O2  1  0.63754186  0.08693064  0.50000000  1
  O  O2  1  0.86245814  0.58693064  0.50000000  1
  O  O2  1  0.13754186  0.41306936  0.50000000  1
  O  O3  1  0.87568822  0.29312742  0.24945824  1
  O  O3  1  0.12431178  0.70687258  0.24945824  1
  O  O3  1  0.37568822  0.20687258  0.75054176  1
  O  O3  1  0.62431178  0.79312742  0.75054176  1
  O  O4  1  0.00000000  0.00000000  0.50000000  1
  O  O4  1  0.50000000  0.50000000  0.50000000  1
  O  O3  1  0.37568822  0.20687258  0.24945824  1
  O  O3  1  0.62431178  0.79312742  0.24945824  1
  O  O3  1  0.87568822  0.29312742  0.75054176  1
  O  O3  1  0.12431178  0.70687258  0.75054176  1
