# generated using pymatgen
data_AlAgO2
_symmetry_space_group_name_H-M   'P 1'
_cell_length_a   2.88198045
_cell_length_b   2.88198045
_cell_length_c   12.17910715
_cell_angle_alpha   90.00000000
_cell_angle_beta   90.00000000
_cell_angle_gamma   120.00000000
_symmetry_Int_Tables_number   1
_chemical_formula_structural   AlAgO2
_chemical_formula_sum   'Al2 Ag2 O4'
_cell_volume   87.60484870
_cell_formula_units_Z   2
loop_
 _symmetry_equiv_pos_site_id
 _symmetry_equiv_pos_as_xyz
  1  'x, y, z'
loop_
 _atom_site_type_symbol
 _atom_site_label
 _atom_site_symmetry_multiplicity
 _atom_site_fract_x
 _atom_site_fract_y
 _atom_site_fract_z
 _atom_site_occupancy
  Al  Al1  1  0.00000000  0.00000000  0.00000000  1
  Al  Al1  1  0.00000000  0.00000000  0.50000000  1
  Ag  Ag1  1  0.33333333  0.66666667  0.75000000  1
  Ag  Ag1  1  0.66666667  0.33333333  0.25000000  1
  O  O1  1  0.66666667  0.33333333  0.42140651  1
  O  O1  1  0.33333333  0.66666667  0.92140651  1
  O  O1  1  0.66666667  0.33333333  0.07859349  1
  O  O1  1  0.33333333  0.66666667  0.57859349  1
