# generated using pymatgen
data_AlAsO4
_symmetry_space_group_name_H-M   'P 1'
_cell_length_a   5.12249562
_cell_length_b   5.12249562
_cell_length_c   7.56583624
_cell_angle_alpha   90.00000000
_cell_angle_beta   90.00000000
_cell_angle_gamma   90.00000000
_symmetry_Int_Tables_number   1
_chemical_formula_structural   AlAsO4
_chemical_formula_sum   'Al2 As2 O8'
_cell_volume   198.52725085
_cell_formula_units_Z   2
loop_
 _symmetry_equiv_pos_site_id
 _symmetry_equiv_pos_as_xyz
  1  'x, y, z'
loop_
 _atom_site_type_symbol
 _atom_site_label
 _atom_site_symmetry_multiplicity
 _atom_site_fract_x
 _atom_site_fract_y
 _atom_site_fract_z
 _atom_site_occupancy
  Al  Al1  1  0.00000000  0.00000000  0.00000000  1
  As  As1  1  0.00000000  0.50000000  0.25000000  1
  O  O1  1  0.13017575  0.74233825  0.12522578  1
  O  O1  1  0.24233825  0.36982425  0.37477422  1
  O  O1  1  0.86982425  0.25766175  0.12522578  1
  O  O1  1  0.75766175  0.63017575  0.37477422  1
  Al  Al1  1  0.50000000  0.50000000  0.50000000  1
  As  As1  1  0.50000000  0.00000000  0.75000000  1
  O  O1  1  0.63017575  0.24233825  0.62522578  1
  O  O1  1  0.74233825  0.86982425  0.87477422  1
  O  O1  1  0.36982425  0.75766175  0.62522578  1
  O  O1  1  0.25766175  0.13017575  0.87477422  1
