# generated using pymatgen
data_As2O3
_symmetry_space_group_name_H-M   'P 1'
_cell_length_a   8.00490353
_cell_length_b   4.55226693
_cell_length_c   10.89453165
_cell_angle_alpha   90.00000000
_cell_angle_beta   124.19525694
_cell_angle_gamma   90.00000000
_symmetry_Int_Tables_number   1
_chemical_formula_structural   As2O3
_chemical_formula_sum   'As8 O12'
_cell_volume   328.37088164
_cell_formula_units_Z   4
loop_
 _symmetry_equiv_pos_site_id
 _symmetry_equiv_pos_as_xyz
  1  'x, y, z'
loop_
 _atom_site_type_symbol
 _atom_site_label
 _atom_site_symmetry_multiplicity
 _atom_site_fract_x
 _atom_site_fract_y
 _atom_site_fract_z
 _atom_site_occupancy
  As  As1  1  0.43822869  0.82882576  0.12540496  1
  As  As1  1  0.56177131  0.32882576  0.37459504  1
  As  As1  1  0.56177131  0.17117424  0.87459504  1
  As  As1  1  0.43822869  0.67117424  0.62540496  1
  As  As2  1  0.08565393  0.35687600  0.19911322  1
  As  As2  1  0.91434607  0.85687600  0.30088678  1
  As  As2  1  0.91434607  0.64312400  0.80088678  1
  As  As2  1  0.08565393  0.14312400  0.69911322  1
  O  O1  1  0.66406628  0.88178072  0.12666288  1
  O  O1  1  0.33593372  0.38178072  0.37333712  1
  O  O1  1  0.33593372  0.11821928  0.87333712  1
  O  O1  1  0.66406628  0.61821928  0.62666288  1
  O  O2  1  0.58659449  0.69023352  0.31829098  1
  O  O2  1  0.41340551  0.19023352  0.18170902  1
  O  O2  1  0.41340551  0.30976648  0.68170902  1
  O  O2  1  0.58659449  0.80976648  0.81829098  1
  O  O3  1  0.04090393  0.52956500  0.71216104  1
  O  O3  1  0.95909607  0.02956500  0.78783896  1
  O  O3  1  0.95909607  0.47043500  0.28783896  1
  O  O3  1  0.04090393  0.97043500  0.21216104  1
