# generated using pymatgen
data_As2Pb3O8
_symmetry_space_group_name_H-M   'P 1'
_cell_length_a   7.41900664
_cell_length_b   6.23754634
_cell_length_c   9.30854829
_cell_angle_alpha   90.00000000
_cell_angle_beta   114.49673995
_cell_angle_gamma   90.00000000
_symmetry_Int_Tables_number   1
_chemical_formula_structural   As2Pb3O8
_chemical_formula_sum   'As4 Pb6 O16'
_cell_volume   391.99061586
_cell_formula_units_Z   2
loop_
 _symmetry_equiv_pos_site_id
 _symmetry_equiv_pos_as_xyz
  1  'x, y, z'
loop_
 _atom_site_type_symbol
 _atom_site_label
 _atom_site_symmetry_multiplicity
 _atom_site_fract_x
 _atom_site_fract_y
 _atom_site_fract_z
 _atom_site_occupancy
  As  As1  1  0.20401460  0.01772385  0.40270144  1
  As  As1  1  0.79598540  0.51772385  0.09729856  1
  As  As1  1  0.79598540  0.98227615  0.59729856  1
  As  As1  1  0.20401460  0.48227615  0.90270144  1
  Pb  Pb1  1  0.00000000  0.00000000  0.00000000  1
  Pb  Pb1  1  0.00000000  0.50000000  0.50000000  1
  Pb  Pb2  1  0.38507331  0.90847896  0.79094630  1
  Pb  Pb2  1  0.61492669  0.40847896  0.70905370  1
  Pb  Pb2  1  0.61492669  0.09152104  0.20905370  1
  Pb  Pb2  1  0.38507331  0.59152104  0.29094630  1
  O  O1  1  0.28030587  0.23746495  0.52239584  1
  O  O1  1  0.71969413  0.73746495  0.97760416  1
  O  O1  1  0.71969413  0.76253505  0.47760416  1
  O  O1  1  0.28030587  0.26253505  0.02239584  1
  O  O2  1  0.25850930  0.70671993  0.02357880  1
  O  O2  1  0.74149070  0.20671993  0.47642120  1
  O  O2  1  0.74149070  0.29328007  0.97642120  1
  O  O2  1  0.25850930  0.79328007  0.52357880  1
  O  O3  1  0.67396140  0.02764348  0.71812522  1
  O  O3  1  0.32603860  0.52764348  0.78187478  1
  O  O3  1  0.32603860  0.97235652  0.28187478  1
  O  O3  1  0.67396140  0.47235652  0.21812522  1
  O  O4  1  0.96140093  0.03610655  0.27437288  1
  O  O4  1  0.03859907  0.53610655  0.22562712  1
  O  O4  1  0.03859907  0.96389345  0.72562712  1
  O  O4  1  0.96140093  0.46389345  0.77437288  1
