# generated using pymatgen
data_As2PbO4
_symmetry_space_group_name_H-M   'P 1'
_cell_length_a   7.04184963
_cell_length_b   11.70328514
_cell_length_c   6.04883742
_cell_angle_alpha   90.00000000
_cell_angle_beta   111.19458568
_cell_angle_gamma   90.00000000
_symmetry_Int_Tables_number   1
_chemical_formula_structural   As2PbO4
_chemical_formula_sum   'As8 Pb4 O16'
_cell_volume   464.78182002
_cell_formula_units_Z   4
loop_
 _symmetry_equiv_pos_site_id
 _symmetry_equiv_pos_as_xyz
  1  'x, y, z'
loop_
 _atom_site_type_symbol
 _atom_site_label
 _atom_site_symmetry_multiplicity
 _atom_site_fract_x
 _atom_site_fract_y
 _atom_site_fract_z
 _atom_site_occupancy
  As  As1  1  0.72528942  0.08126235  0.29077064  1
  As  As1  1  0.27471058  0.58126235  0.20922936  1
  As  As1  1  0.27471058  0.91873765  0.70922936  1
  As  As1  1  0.72528942  0.41873765  0.79077064  1
  As  As2  1  0.38063564  0.14487370  0.48806300  1
  As  As2  1  0.61936436  0.64487370  0.01193700  1
  As  As2  1  0.61936436  0.85512630  0.51193700  1
  As  As2  1  0.38063564  0.35512630  0.98806300  1
  Pb  Pb1  1  0.99201528  0.35093744  0.40239352  1
  Pb  Pb1  1  0.00798472  0.85093744  0.09760648  1
  Pb  Pb1  1  0.00798472  0.64906256  0.59760648  1
  Pb  Pb1  1  0.99201528  0.14906256  0.90239352  1
  O  O1  1  0.45610210  0.08318247  0.24798848  1
  O  O1  1  0.54389790  0.58318247  0.25201152  1
  O  O1  1  0.54389790  0.91681753  0.75201152  1
  O  O1  1  0.45610210  0.41681753  0.74798848  1
  O  O2  1  0.19965656  0.02858406  0.47495114  1
  O  O2  1  0.80034344  0.52858406  0.02504886  1
  O  O2  1  0.80034344  0.97141594  0.52504886  1
  O  O2  1  0.19965656  0.47141594  0.97495114  1
  O  O3  1  0.81190988  0.19986930  0.48224306  1
  O  O3  1  0.18809012  0.69986930  0.01775694  1
  O  O3  1  0.18809012  0.80013070  0.51775694  1
  O  O3  1  0.81190988  0.30013070  0.98224306  1
  O  O4  1  0.19615626  0.26642066  0.78538780  1
  O  O4  1  0.80384374  0.76642066  0.71461220  1
  O  O4  1  0.80384374  0.73357934  0.21461220  1
  O  O4  1  0.19615626  0.23357934  0.28538780  1
