# generated using pymatgen
data_Au2O3
_symmetry_space_group_name_H-M   'P 1'
_cell_length_a   10.46900122
_cell_length_b   12.81433407
_cell_length_c   3.91072261
_cell_angle_alpha   90.00000000
_cell_angle_beta   90.00000000
_cell_angle_gamma   90.00000000
_symmetry_Int_Tables_number   1
_chemical_formula_structural   Au2O3
_chemical_formula_sum   'Au16 O24'
_cell_volume   524.63626099
_cell_formula_units_Z   8
loop_
 _symmetry_equiv_pos_site_id
 _symmetry_equiv_pos_as_xyz
  1  'x, y, z'
loop_
 _atom_site_type_symbol
 _atom_site_label
 _atom_site_symmetry_multiplicity
 _atom_site_fract_x
 _atom_site_fract_y
 _atom_site_fract_z
 _atom_site_occupancy
  Au  Au1  1  0.36656971  0.04582671  0.74499063  1
  Au  Au1  1  0.13343029  0.45417329  0.74499063  1
  Au  Au1  1  0.38343029  0.29582671  0.49499063  1
  Au  Au1  1  0.11656971  0.20417329  0.49499063  1
  O  O1  1  0.00000000  0.00000000  0.56238708  1
  O  O1  1  0.25000000  0.25000000  0.81238708  1
  O  O2  1  0.26752422  0.41781659  0.37736583  1
  O  O2  1  0.23247578  0.08218341  0.37736583  1
  O  O2  1  0.01752422  0.33218341  0.62736583  1
  O  O2  1  0.48247578  0.16781659  0.62736583  1
  Au  Au1  1  0.36656971  0.54582671  0.24499063  1
  Au  Au1  1  0.13343029  0.95417329  0.24499063  1
  Au  Au1  1  0.38343029  0.79582671  0.99499063  1
  Au  Au1  1  0.11656971  0.70417329  0.99499063  1
  O  O1  1  0.00000000  0.50000000  0.06238708  1
  O  O1  1  0.25000000  0.75000000  0.31238708  1
  O  O2  1  0.26752422  0.91781659  0.87736583  1
  O  O2  1  0.23247578  0.58218341  0.87736583  1
  O  O2  1  0.01752422  0.83218341  0.12736583  1
  O  O2  1  0.48247578  0.66781659  0.12736583  1
  Au  Au1  1  0.86656971  0.04582671  0.24499063  1
  Au  Au1  1  0.63343029  0.45417329  0.24499063  1
  Au  Au1  1  0.88343029  0.29582671  0.99499063  1
  Au  Au1  1  0.61656971  0.20417329  0.99499063  1
  O  O1  1  0.50000000  0.00000000  0.06238708  1
  O  O1  1  0.75000000  0.25000000  0.31238708  1
  O  O2  1  0.76752422  0.41781659  0.87736583  1
  O  O2  1  0.73247578  0.08218341  0.87736583  1
  O  O2  1  0.51752422  0.33218341  0.12736583  1
  O  O2  1  0.98247578  0.16781659  0.12736583  1
  Au  Au1  1  0.86656971  0.54582671  0.74499063  1
  Au  Au1  1  0.63343029  0.95417329  0.74499063  1
  Au  Au1  1  0.88343029  0.79582671  0.49499063  1
  Au  Au1  1  0.61656971  0.70417329  0.49499063  1
  O  O1  1  0.50000000  0.50000000  0.56238708  1
  O  O1  1  0.75000000  0.75000000  0.81238708  1
  O  O2  1  0.76752422  0.91781659  0.37736583  1
  O  O2  1  0.73247578  0.58218341  0.37736583  1
  O  O2  1  0.51752422  0.83218341  0.62736583  1
  O  O2  1  0.98247578  0.66781659  0.62736583  1
