# generated using pymatgen
data_B6O
_symmetry_space_group_name_H-M   'P 1'
_cell_length_a   5.37046859
_cell_length_b   5.37046859
_cell_length_c   12.26070541
_cell_angle_alpha   90.00000000
_cell_angle_beta   90.00000000
_cell_angle_gamma   120.00000000
_symmetry_Int_Tables_number   1
_chemical_formula_structural   B6O
_chemical_formula_sum   'B36 O6'
_cell_volume   306.24601851
_cell_formula_units_Z   6
loop_
 _symmetry_equiv_pos_site_id
 _symmetry_equiv_pos_as_xyz
  1  'x, y, z'
loop_
 _atom_site_type_symbol
 _atom_site_label
 _atom_site_symmetry_multiplicity
 _atom_site_fract_x
 _atom_site_fract_y
 _atom_site_fract_z
 _atom_site_occupancy
  B  B1  1  0.35064923  0.17532461  0.97367912  1
  B  B1  1  0.82467539  0.64935077  0.97367912  1
  B  B1  1  0.82467539  0.17532461  0.97367912  1
  B  B1  1  0.50865795  0.49134205  0.69298755  1
  B  B1  1  0.98268411  0.49134205  0.69298755  1
  B  B1  1  0.50865795  0.01731589  0.69298755  1
  B  B2  1  0.44593357  0.22296679  0.22082255  1
  B  B2  1  0.77703321  0.55406643  0.22082255  1
  B  B2  1  0.77703321  0.22296679  0.22082255  1
  B  B2  1  0.55630012  0.44369988  0.44584411  1
  B  B2  1  0.88739976  0.44369988  0.44584411  1
  B  B2  1  0.55630012  0.11260024  0.44584411  1
  O  O1  1  0.66666667  0.33333333  0.71147974  1
  O  O1  1  0.66666667  0.33333333  0.95518693  1
  B  B1  1  0.01731589  0.50865795  0.30701245  1
  B  B1  1  0.49134205  0.98268411  0.30701245  1
  B  B1  1  0.49134205  0.50865795  0.30701245  1
  B  B1  1  0.17532461  0.82467539  0.02632088  1
  B  B1  1  0.64935077  0.82467539  0.02632088  1
  B  B1  1  0.17532461  0.35064923  0.02632088  1
  B  B2  1  0.11260024  0.55630012  0.55415589  1
  B  B2  1  0.44369988  0.88739976  0.55415589  1
  B  B2  1  0.44369988  0.55630012  0.55415589  1
  B  B2  1  0.22296679  0.77703321  0.77917745  1
  B  B2  1  0.55406643  0.77703321  0.77917745  1
  B  B2  1  0.22296679  0.44593357  0.77917745  1
  O  O1  1  0.33333333  0.66666667  0.04481307  1
  O  O1  1  0.33333333  0.66666667  0.28852026  1
  B  B1  1  0.68398256  0.84199128  0.64034578  1
  B  B1  1  0.15800872  0.31601744  0.64034578  1
  B  B1  1  0.15800872  0.84199128  0.64034578  1
  B  B1  1  0.84199128  0.15800872  0.35965422  1
  B  B1  1  0.31601744  0.15800872  0.35965422  1
  B  B1  1  0.84199128  0.68398256  0.35965422  1
  B  B2  1  0.77926691  0.88963345  0.88748922  1
  B  B2  1  0.11036655  0.22073309  0.88748922  1
  B  B2  1  0.11036655  0.88963345  0.88748922  1
  B  B2  1  0.88963345  0.11036655  0.11251078  1
  B  B2  1  0.22073309  0.11036655  0.11251078  1
  B  B2  1  0.88963345  0.77926691  0.11251078  1
  O  O1  1  0.00000000  0.00000000  0.37814640  1
  O  O1  1  0.00000000  0.00000000  0.62185360  1
