# generated using pymatgen
data_Ba(AuO2)2
_symmetry_space_group_name_H-M   'P 1'
_cell_length_a   6.45008991
_cell_length_b   6.45008991
_cell_length_c   10.24032658
_cell_angle_alpha   90.00000000
_cell_angle_beta   90.00000000
_cell_angle_gamma   90.00000000
_symmetry_Int_Tables_number   1
_chemical_formula_structural   Ba(AuO2)2
_chemical_formula_sum   'Ba4 Au8 O16'
_cell_volume   426.03506315
_cell_formula_units_Z   4
loop_
 _symmetry_equiv_pos_site_id
 _symmetry_equiv_pos_as_xyz
  1  'x, y, z'
loop_
 _atom_site_type_symbol
 _atom_site_label
 _atom_site_symmetry_multiplicity
 _atom_site_fract_x
 _atom_site_fract_y
 _atom_site_fract_z
 _atom_site_occupancy
  Ba  Ba1  1  0.00000000  0.50000000  0.25000000  1
  Ba  Ba1  1  0.00000000  0.00000000  0.00000000  1
  Au  Au1  1  0.50000000  0.75000000  0.12500000  1
  Au  Au1  1  0.25000000  0.00000000  0.37500000  1
  Au  Au1  1  0.50000000  0.25000000  0.12500000  1
  Au  Au1  1  0.75000000  0.00000000  0.37500000  1
  O  O1  1  0.76582732  0.14925792  0.20383986  1
  O  O1  1  0.14925792  0.73417268  0.45383986  1
  O  O1  1  0.85074208  0.26582732  0.45383986  1
  O  O1  1  0.23417268  0.85074208  0.20383986  1
  O  O1  1  0.23417268  0.35074208  0.04616014  1
  O  O1  1  0.35074208  0.26582732  0.29616014  1
  O  O1  1  0.76582732  0.64925792  0.04616014  1
  O  O1  1  0.64925792  0.73417268  0.29616014  1
  Ba  Ba1  1  0.50000000  0.00000000  0.75000000  1
  Ba  Ba1  1  0.50000000  0.50000000  0.50000000  1
  Au  Au1  1  0.00000000  0.25000000  0.62500000  1
  Au  Au1  1  0.75000000  0.50000000  0.87500000  1
  Au  Au1  1  0.00000000  0.75000000  0.62500000  1
  Au  Au1  1  0.25000000  0.50000000  0.87500000  1
  O  O1  1  0.26582732  0.64925792  0.70383986  1
  O  O1  1  0.64925792  0.23417268  0.95383986  1
  O  O1  1  0.35074208  0.76582732  0.95383986  1
  O  O1  1  0.73417268  0.35074208  0.70383986  1
  O  O1  1  0.73417268  0.85074208  0.54616014  1
  O  O1  1  0.85074208  0.76582732  0.79616014  1
  O  O1  1  0.26582732  0.14925792  0.54616014  1
  O  O1  1  0.14925792  0.23417268  0.79616014  1
