# generated using pymatgen
data_Ba(AgO)2
_symmetry_space_group_name_H-M   'P 1'
_cell_length_a   5.81885594
_cell_length_b   5.81885594
_cell_length_c   10.76805415
_cell_angle_alpha   90.00000000
_cell_angle_beta   90.00000000
_cell_angle_gamma   90.00000000
_symmetry_Int_Tables_number   1
_chemical_formula_structural   Ba(AgO)2
_chemical_formula_sum   'Ba4 Ag8 O8'
_cell_volume   364.59645483
_cell_formula_units_Z   4
loop_
 _symmetry_equiv_pos_site_id
 _symmetry_equiv_pos_as_xyz
  1  'x, y, z'
loop_
 _atom_site_type_symbol
 _atom_site_label
 _atom_site_symmetry_multiplicity
 _atom_site_fract_x
 _atom_site_fract_y
 _atom_site_fract_z
 _atom_site_occupancy
  Ba  Ba1  1  0.50000000  0.00000000  0.25000000  1
  Ba  Ba1  1  0.50000000  0.50000000  0.00000000  1
  Ag  Ag1  1  0.75000000  0.00000000  0.87500000  1
  Ag  Ag1  1  0.00000000  0.25000000  0.12500000  1
  Ag  Ag1  1  0.00000000  0.75000000  0.12500000  1
  Ag  Ag1  1  0.25000000  0.00000000  0.87500000  1
  O  O1  1  0.50000000  0.50000000  0.75972517  1
  O  O1  1  0.50000000  0.00000000  0.00972517  1
  O  O1  1  0.00000000  0.50000000  0.99027483  1
  O  O1  1  0.50000000  0.50000000  0.24027483  1
  Ba  Ba1  1  0.00000000  0.50000000  0.75000000  1
  Ba  Ba1  1  0.00000000  0.00000000  0.50000000  1
  Ag  Ag1  1  0.25000000  0.50000000  0.37500000  1
  Ag  Ag1  1  0.50000000  0.75000000  0.62500000  1
  Ag  Ag1  1  0.50000000  0.25000000  0.62500000  1
  Ag  Ag1  1  0.75000000  0.50000000  0.37500000  1
  O  O1  1  0.00000000  0.00000000  0.25972517  1
  O  O1  1  0.00000000  0.50000000  0.50972517  1
  O  O1  1  0.50000000  0.00000000  0.49027483  1
  O  O1  1  0.00000000  0.00000000  0.74027483  1
