# generated using pymatgen
data_Ba(AsO3)2
_symmetry_space_group_name_H-M   'P 1'
_cell_length_a   7.37174568
_cell_length_b   17.81842993
_cell_length_c   5.02832602
_cell_angle_alpha   90.00000000
_cell_angle_beta   129.22258375
_cell_angle_gamma   90.00000000
_symmetry_Int_Tables_number   1
_chemical_formula_structural   Ba(AsO3)2
_chemical_formula_sum   'Ba4 As8 O24'
_cell_volume   511.67492092
_cell_formula_units_Z   4
loop_
 _symmetry_equiv_pos_site_id
 _symmetry_equiv_pos_as_xyz
  1  'x, y, z'
loop_
 _atom_site_type_symbol
 _atom_site_label
 _atom_site_symmetry_multiplicity
 _atom_site_fract_x
 _atom_site_fract_y
 _atom_site_fract_z
 _atom_site_occupancy
  Ba  Ba1  1  0.00000000  0.85666059  0.25000000  1
  Ba  Ba1  1  0.50000000  0.64333941  0.75000000  1
  As  As1  1  0.50000000  0.96512108  0.25000000  1
  As  As1  1  0.00000000  0.53487892  0.75000000  1
  As  As2  1  0.50000000  0.80987744  0.25000000  1
  As  As2  1  0.00000000  0.69012256  0.75000000  1
  O  O1  1  0.31818312  0.96935512  0.38794892  1
  O  O1  1  0.68181688  0.96935512  0.11205108  1
  O  O1  1  0.18181688  0.53064488  0.61205108  1
  O  O1  1  0.81818312  0.53064488  0.88794892  1
  O  O2  1  0.31361365  0.88353477  0.95722208  1
  O  O2  1  0.68638635  0.88353477  0.54277792  1
  O  O2  1  0.18638635  0.61646523  0.04277792  1
  O  O2  1  0.81361365  0.61646523  0.45722208  1
  O  O3  1  0.34768312  0.76579276  0.34654408  1
  O  O3  1  0.65231688  0.76579276  0.15345592  1
  O  O3  1  0.15231688  0.73420724  0.65345592  1
  O  O3  1  0.84768312  0.73420724  0.84654408  1
  Ba  Ba1  1  0.50000000  0.35666059  0.25000000  1
  Ba  Ba1  1  0.00000000  0.14333941  0.75000000  1
  As  As1  1  0.00000000  0.46512108  0.25000000  1
  As  As1  1  0.50000000  0.03487892  0.75000000  1
  As  As2  1  0.00000000  0.30987744  0.25000000  1
  As  As2  1  0.50000000  0.19012256  0.75000000  1
  O  O1  1  0.81818312  0.46935512  0.38794892  1
  O  O1  1  0.18181688  0.46935512  0.11205108  1
  O  O1  1  0.68181688  0.03064488  0.61205108  1
  O  O1  1  0.31818312  0.03064488  0.88794892  1
  O  O2  1  0.81361365  0.38353477  0.95722208  1
  O  O2  1  0.18638635  0.38353477  0.54277792  1
  O  O2  1  0.68638635  0.11646523  0.04277792  1
  O  O2  1  0.31361365  0.11646523  0.45722208  1
  O  O3  1  0.84768312  0.26579276  0.34654408  1
  O  O3  1  0.15231688  0.26579276  0.15345592  1
  O  O3  1  0.65231688  0.23420724  0.65345592  1
  O  O3  1  0.34768312  0.23420724  0.84654408  1
