# generated using pymatgen
data_Ba(CuO)2
_symmetry_space_group_name_H-M   'P 1'
_cell_length_a   5.66423705
_cell_length_b   5.66423705
_cell_length_c   10.05370012
_cell_angle_alpha   90.00000000
_cell_angle_beta   90.00000000
_cell_angle_gamma   90.00000000
_symmetry_Int_Tables_number   1
_chemical_formula_structural   Ba(CuO)2
_chemical_formula_sum   'Ba4 Cu8 O8'
_cell_volume   322.55870575
_cell_formula_units_Z   4
loop_
 _symmetry_equiv_pos_site_id
 _symmetry_equiv_pos_as_xyz
  1  'x, y, z'
loop_
 _atom_site_type_symbol
 _atom_site_label
 _atom_site_symmetry_multiplicity
 _atom_site_fract_x
 _atom_site_fract_y
 _atom_site_fract_z
 _atom_site_occupancy
  Ba  Ba1  1  0.00000000  0.50000000  0.25000000  1
  Ba  Ba1  1  0.00000000  0.00000000  0.00000000  1
  Cu  Cu1  1  0.50000000  0.75000000  0.12500000  1
  Cu  Cu1  1  0.25000000  0.50000000  0.87500000  1
  Cu  Cu1  1  0.50000000  0.25000000  0.12500000  1
  Cu  Cu1  1  0.75000000  0.50000000  0.87500000  1
  O  O1  1  0.00000000  0.50000000  0.98793941  1
  O  O1  1  0.50000000  0.50000000  0.23793941  1
  O  O1  1  0.50000000  0.50000000  0.76206059  1
  O  O1  1  0.50000000  0.00000000  0.01206059  1
  Ba  Ba1  1  0.50000000  0.00000000  0.75000000  1
  Ba  Ba1  1  0.50000000  0.50000000  0.50000000  1
  Cu  Cu1  1  0.00000000  0.25000000  0.62500000  1
  Cu  Cu1  1  0.75000000  0.00000000  0.37500000  1
  Cu  Cu1  1  0.00000000  0.75000000  0.62500000  1
  Cu  Cu1  1  0.25000000  0.00000000  0.37500000  1
  O  O1  1  0.50000000  0.00000000  0.48793941  1
  O  O1  1  0.00000000  0.00000000  0.73793941  1
  O  O1  1  0.00000000  0.00000000  0.26206059  1
  O  O1  1  0.00000000  0.50000000  0.51206059  1
