# generated using pymatgen
data_Ba(SbO3)2
_symmetry_space_group_name_H-M   'P 1'
_cell_length_a   5.33962110
_cell_length_b   5.33962110
_cell_length_c   5.79000088
_cell_angle_alpha   90.00000000
_cell_angle_beta   90.00000000
_cell_angle_gamma   120.00000000
_symmetry_Int_Tables_number   1
_chemical_formula_structural   Ba(SbO3)2
_chemical_formula_sum   'Ba1 Sb2 O6'
_cell_volume   142.96513618
_cell_formula_units_Z   1
loop_
 _symmetry_equiv_pos_site_id
 _symmetry_equiv_pos_as_xyz
  1  'x, y, z'
loop_
 _atom_site_type_symbol
 _atom_site_label
 _atom_site_symmetry_multiplicity
 _atom_site_fract_x
 _atom_site_fract_y
 _atom_site_fract_z
 _atom_site_occupancy
  Ba  Ba1  1  0.00000000  0.00000000  0.00000000  1
  Sb  Sb1  1  0.66666667  0.33333333  0.50000000  1
  Sb  Sb1  1  0.33333333  0.66666667  0.50000000  1
  O  O1  1  0.38507128  0.38507128  0.69578626  1
  O  O1  1  0.61492872  0.00000000  0.69578626  1
  O  O1  1  0.00000000  0.61492872  0.69578626  1
  O  O1  1  0.38507128  0.00000000  0.30421374  1
  O  O1  1  0.00000000  0.38507128  0.30421374  1
  O  O1  1  0.61492872  0.61492872  0.30421374  1
