data_image0
_chemical_formula_structural       O12Ba4Ce4
_chemical_formula_sum              "O12 Ba4 Ce4"
_cell_length_a       6.32191
_cell_length_b       8.90365
_cell_length_c       6.30805
_cell_angle_alpha    90
_cell_angle_beta     90
_cell_angle_gamma    90

_space_group_name_H-M_alt    "P 1"
_space_group_IT_number       1

loop_
  _space_group_symop_operation_xyz
  'x, y, z'

loop_
  _atom_site_type_symbol
  _atom_site_label
  _atom_site_symmetry_multiplicity
  _atom_site_fract_x
  _atom_site_fract_y
  _atom_site_fract_z
  _atom_site_occupancy
  O   O1        1.0  0.47983  0.25000  0.07996  1.0000
  O   O1        1.0  0.02017  0.75000  0.57996  1.0000
  O   O1        1.0  0.52017  0.75000  0.92004  1.0000
  O   O1        1.0  0.97983  0.25000  0.42004  1.0000
  O   O2        1.0  0.27961  0.04356  0.72108  1.0000
  O   O2        1.0  0.22039  0.54356  0.22108  1.0000
  O   O2        1.0  0.22039  0.95644  0.22108  1.0000
  O   O2        1.0  0.72039  0.54356  0.27892  1.0000
  O   O2        1.0  0.72039  0.95644  0.27892  1.0000
  O   O2        1.0  0.77961  0.45644  0.77892  1.0000
  O   O2        1.0  0.77961  0.04356  0.77892  1.0000
  O   O2        1.0  0.27961  0.45644  0.72108  1.0000
  Ba  Ba1       1.0  0.02532  0.25000  0.99166  1.0000
  Ba  Ba1       1.0  0.47468  0.75000  0.49166  1.0000
  Ba  Ba1       1.0  0.97468  0.75000  0.00834  1.0000
  Ba  Ba1       1.0  0.52532  0.25000  0.50834  1.0000
  Ce  Ce1       1.0  0.00000  0.00000  0.50000  1.0000
  Ce  Ce1       1.0  0.50000  0.50000  1.00000  1.0000
  Ce  Ce1       1.0  0.50000  0.00000  1.00000  1.0000
  Ce  Ce1       1.0  0.00000  0.50000  0.50000  1.0000
