# generated using pymatgen
data_Ba2Bi2O5
_symmetry_space_group_name_H-M   'P 1'
_cell_length_a   7.40772012
_cell_length_b   7.51563803
_cell_length_c   6.13750914
_cell_angle_alpha   90.00000000
_cell_angle_beta   101.35333516
_cell_angle_gamma   90.00000000
_symmetry_Int_Tables_number   1
_chemical_formula_structural   Ba2Bi2O5
_chemical_formula_sum   'Ba4 Bi4 O10'
_cell_volume   335.01170054
_cell_formula_units_Z   2
loop_
 _symmetry_equiv_pos_site_id
 _symmetry_equiv_pos_as_xyz
  1  'x, y, z'
loop_
 _atom_site_type_symbol
 _atom_site_label
 _atom_site_symmetry_multiplicity
 _atom_site_fract_x
 _atom_site_fract_y
 _atom_site_fract_z
 _atom_site_occupancy
  Ba  Ba1  1  0.13494740  0.07500550  0.77882938  1
  Ba  Ba1  1  0.86505260  0.57500550  0.72117062  1
  Ba  Ba1  1  0.86505260  0.92499450  0.22117062  1
  Ba  Ba1  1  0.13494740  0.42499450  0.27882938  1
  Bi  Bi1  1  0.62652046  0.12216580  0.72318240  1
  Bi  Bi1  1  0.37347954  0.62216580  0.77681760  1
  Bi  Bi1  1  0.37347954  0.87783420  0.27681760  1
  Bi  Bi1  1  0.62652046  0.37783420  0.22318240  1
  O  O1  1  0.80670432  0.22547536  0.46443676  1
  O  O1  1  0.19329568  0.72547536  0.03556324  1
  O  O1  1  0.19329568  0.77452464  0.53556324  1
  O  O1  1  0.80670432  0.27452464  0.96443676  1
  O  O2  1  0.18556324  0.41178122  0.73945572  1
  O  O2  1  0.81443676  0.91178122  0.76054428  1
  O  O2  1  0.81443676  0.58821878  0.26054428  1
  O  O2  1  0.18556324  0.08821878  0.23945572  1
  O  O3  1  0.50000000  0.00000000  0.00000000  1
  O  O3  1  0.50000000  0.50000000  0.50000000  1
