# generated using pymatgen
data_Ba2Ca(BO3)2
_symmetry_space_group_name_H-M   'P 1'
_cell_length_a   9.66859135
_cell_length_b   5.43391959
_cell_length_c   6.59882072
_cell_angle_alpha   90.00000000
_cell_angle_beta   119.79755206
_cell_angle_gamma   90.00000000
_symmetry_Int_Tables_number   1
_chemical_formula_structural   Ba2Ca(BO3)2
_chemical_formula_sum   'Ba4 Ca2 B4 O12'
_cell_volume   300.85395463
_cell_formula_units_Z   2
loop_
 _symmetry_equiv_pos_site_id
 _symmetry_equiv_pos_as_xyz
  1  'x, y, z'
loop_
 _atom_site_type_symbol
 _atom_site_label
 _atom_site_symmetry_multiplicity
 _atom_site_fract_x
 _atom_site_fract_y
 _atom_site_fract_z
 _atom_site_occupancy
  Ba  Ba1  1  0.21144528  0.00000000  0.68558179  1
  Ba  Ba1  1  0.78855472  0.00000000  0.31441821  1
  Ca  Ca1  1  0.00000000  0.00000000  0.00000000  1
  B  B1  1  0.06219400  0.50000000  0.75446023  1
  B  B1  1  0.93780600  0.50000000  0.24553977  1
  O  O1  1  0.22365184  0.50000000  0.82638787  1
  O  O2  1  0.01892116  0.72100433  0.27457659  1
  O  O2  1  0.98107884  0.72100433  0.72542341  1
  O  O1  1  0.77634816  0.50000000  0.17361213  1
  O  O2  1  0.01892116  0.27899567  0.27457659  1
  O  O2  1  0.98107884  0.27899567  0.72542341  1
  Ba  Ba1  1  0.71144528  0.50000000  0.68558179  1
  Ba  Ba1  1  0.28855472  0.50000000  0.31441821  1
  Ca  Ca1  1  0.50000000  0.50000000  0.00000000  1
  B  B1  1  0.56219400  0.00000000  0.75446023  1
  B  B1  1  0.43780600  0.00000000  0.24553977  1
  O  O1  1  0.72365184  0.00000000  0.82638787  1
  O  O2  1  0.51892116  0.22100433  0.27457659  1
  O  O2  1  0.48107884  0.22100433  0.72542341  1
  O  O1  1  0.27634816  0.00000000  0.17361213  1
  O  O2  1  0.51892116  0.77899567  0.27457659  1
  O  O2  1  0.48107884  0.77899567  0.72542341  1
