# generated using pymatgen
data_Ba2Ca(PdO2)3
_symmetry_space_group_name_H-M   'P 1'
_cell_length_a   8.72499334
_cell_length_b   11.36681565
_cell_length_c   14.96158288
_cell_angle_alpha   90.00000000
_cell_angle_beta   90.00000000
_cell_angle_gamma   90.00000000
_symmetry_Int_Tables_number   1
_chemical_formula_structural   Ba2Ca(PdO2)3
_chemical_formula_sum   'Ba16 Ca8 Pd24 O48'
_cell_volume   1483.82082891
_cell_formula_units_Z   8
loop_
 _symmetry_equiv_pos_site_id
 _symmetry_equiv_pos_as_xyz
  1  'x, y, z'
loop_
 _atom_site_type_symbol
 _atom_site_label
 _atom_site_symmetry_multiplicity
 _atom_site_fract_x
 _atom_site_fract_y
 _atom_site_fract_z
 _atom_site_occupancy
  Ba  Ba1  1  0.75000000  0.25000000  0.25000000  1
  Ba  Ba1  1  0.75000000  0.75000000  0.25000000  1
  Ba  Ba2  1  0.50000000  0.72982006  0.00000000  1
  Ba  Ba2  1  0.50000000  0.27017994  0.00000000  1
  Ca  Ca1  1  0.50000000  0.00000000  0.17088346  1
  Ca  Ca1  1  0.00000000  0.00000000  0.32911654  1
  Pd  Pd1  1  0.65859874  0.00000000  0.34831281  1
  Pd  Pd1  1  0.15859874  0.00000000  0.15168719  1
  Pd  Pd1  1  0.34140126  0.00000000  0.34831281  1
  Pd  Pd1  1  0.84140126  0.00000000  0.15168719  1
  Pd  Pd2  1  0.67360860  0.00000000  0.00000000  1
  Pd  Pd2  1  0.32639140  0.00000000  0.00000000  1
  O  O1  1  0.18762264  0.11725681  0.39874713  1
  O  O1  1  0.68762264  0.88274319  0.10125287  1
  O  O1  1  0.31237736  0.11725681  0.10125287  1
  O  O1  1  0.81237736  0.88274319  0.39874713  1
  O  O1  1  0.31237736  0.88274319  0.10125287  1
  O  O1  1  0.81237736  0.11725681  0.39874713  1
  O  O2  1  0.50000000  0.88223539  0.30546458  1
  O  O1  1  0.68762264  0.11725681  0.10125287  1
  O  O2  1  0.50000000  0.11776461  0.30546458  1
  O  O2  1  0.00000000  0.88223539  0.19453542  1
  O  O2  1  0.00000000  0.11776461  0.19453542  1
  O  O1  1  0.18762264  0.88274319  0.39874713  1
  Ba  Ba1  1  0.75000000  0.75000000  0.75000000  1
  Ba  Ba1  1  0.75000000  0.25000000  0.75000000  1
  Ba  Ba2  1  0.50000000  0.22982006  0.50000000  1
  Ba  Ba2  1  0.50000000  0.77017994  0.50000000  1
  Ca  Ca1  1  0.50000000  0.50000000  0.67088346  1
  Ca  Ca1  1  0.00000000  0.50000000  0.82911654  1
  Pd  Pd1  1  0.65859874  0.50000000  0.84831281  1
  Pd  Pd1  1  0.15859874  0.50000000  0.65168719  1
  Pd  Pd1  1  0.34140126  0.50000000  0.84831281  1
  Pd  Pd1  1  0.84140126  0.50000000  0.65168719  1
  Pd  Pd2  1  0.67360860  0.50000000  0.50000000  1
  Pd  Pd2  1  0.32639140  0.50000000  0.50000000  1
  O  O1  1  0.18762264  0.61725681  0.89874713  1
  O  O1  1  0.68762264  0.38274319  0.60125287  1
  O  O1  1  0.31237736  0.61725681  0.60125287  1
  O  O1  1  0.81237736  0.38274319  0.89874713  1
  O  O1  1  0.31237736  0.38274319  0.60125287  1
  O  O1  1  0.81237736  0.61725681  0.89874713  1
  O  O2  1  0.50000000  0.38223539  0.80546458  1
  O  O1  1  0.68762264  0.61725681  0.60125287  1
  O  O2  1  0.50000000  0.61776461  0.80546458  1
  O  O2  1  0.00000000  0.38223539  0.69453542  1
  O  O2  1  0.00000000  0.61776461  0.69453542  1
  O  O1  1  0.18762264  0.38274319  0.89874713  1
  Ba  Ba1  1  0.25000000  0.25000000  0.75000000  1
  Ba  Ba1  1  0.25000000  0.75000000  0.75000000  1
  Ba  Ba2  1  0.00000000  0.72982006  0.50000000  1
  Ba  Ba2  1  0.00000000  0.27017994  0.50000000  1
  Ca  Ca1  1  0.00000000  0.00000000  0.67088346  1
  Ca  Ca1  1  0.50000000  0.00000000  0.82911654  1
  Pd  Pd1  1  0.15859874  0.00000000  0.84831281  1
  Pd  Pd1  1  0.65859874  0.00000000  0.65168719  1
  Pd  Pd1  1  0.84140126  0.00000000  0.84831281  1
  Pd  Pd1  1  0.34140126  0.00000000  0.65168719  1
  Pd  Pd2  1  0.17360860  0.00000000  0.50000000  1
  Pd  Pd2  1  0.82639140  0.00000000  0.50000000  1
  O  O1  1  0.68762264  0.11725681  0.89874713  1
  O  O1  1  0.18762264  0.88274319  0.60125287  1
  O  O1  1  0.81237736  0.11725681  0.60125287  1
  O  O1  1  0.31237736  0.88274319  0.89874713  1
  O  O1  1  0.81237736  0.88274319  0.60125287  1
  O  O1  1  0.31237736  0.11725681  0.89874713  1
  O  O2  1  0.00000000  0.88223539  0.80546458  1
  O  O1  1  0.18762264  0.11725681  0.60125287  1
  O  O2  1  0.00000000  0.11776461  0.80546458  1
  O  O2  1  0.50000000  0.88223539  0.69453542  1
  O  O2  1  0.50000000  0.11776461  0.69453542  1
  O  O1  1  0.68762264  0.88274319  0.89874713  1
  Ba  Ba1  1  0.25000000  0.75000000  0.25000000  1
  Ba  Ba1  1  0.25000000  0.25000000  0.25000000  1
  Ba  Ba2  1  0.00000000  0.22982006  0.00000000  1
  Ba  Ba2  1  0.00000000  0.77017994  0.00000000  1
  Ca  Ca1  1  0.00000000  0.50000000  0.17088346  1
  Ca  Ca1  1  0.50000000  0.50000000  0.32911654  1
  Pd  Pd1  1  0.15859874  0.50000000  0.34831281  1
  Pd  Pd1  1  0.65859874  0.50000000  0.15168719  1
  Pd  Pd1  1  0.84140126  0.50000000  0.34831281  1
  Pd  Pd1  1  0.34140126  0.50000000  0.15168719  1
  Pd  Pd2  1  0.17360860  0.50000000  0.00000000  1
  Pd  Pd2  1  0.82639140  0.50000000  0.00000000  1
  O  O1  1  0.68762264  0.61725681  0.39874713  1
  O  O1  1  0.18762264  0.38274319  0.10125287  1
  O  O1  1  0.81237736  0.61725681  0.10125287  1
  O  O1  1  0.31237736  0.38274319  0.39874713  1
  O  O1  1  0.81237736  0.38274319  0.10125287  1
  O  O1  1  0.31237736  0.61725681  0.39874713  1
  O  O2  1  0.00000000  0.38223539  0.30546458  1
  O  O1  1  0.18762264  0.61725681  0.10125287  1
  O  O2  1  0.00000000  0.61776461  0.30546458  1
  O  O2  1  0.50000000  0.38223539  0.19453542  1
  O  O2  1  0.50000000  0.61776461  0.19453542  1
  O  O1  1  0.68762264  0.38274319  0.39874713  1
