data_image0
_chemical_formula_structural       OCo3Ba8CoO15
_chemical_formula_sum              "O16 Co4 Ba8"
_cell_length_a       6.1125
_cell_length_b       7.69479
_cell_length_c       10.5262
_cell_angle_alpha    89.9639
_cell_angle_beta     93.257
_cell_angle_gamma    90.0502

_space_group_name_H-M_alt    "P 1"
_space_group_IT_number       1

loop_
  _space_group_symop_operation_xyz
  'x, y, z'

loop_
  _atom_site_type_symbol
  _atom_site_label
  _atom_site_symmetry_multiplicity
  _atom_site_fract_x
  _atom_site_fract_y
  _atom_site_fract_z
  _atom_site_occupancy
  O   O1        1.0  0.71456  0.00552  0.42797  1.0000
  Co  Co1       1.0  0.25662  0.72332  0.91773  1.0000
  Co  Co1       1.0  0.24359  0.22318  0.58211  1.0000
  Co  Co1       1.0  0.74323  0.27708  0.08210  1.0000
  Ba  Ba1       1.0  0.73813  0.34740  0.42156  1.0000
  Ba  Ba1       1.0  0.23793  0.15273  0.92170  1.0000
  Ba  Ba1       1.0  0.26195  0.65223  0.57843  1.0000
  Ba  Ba1       1.0  0.76219  0.84755  0.07841  1.0000
  Ba  Ba2       1.0  0.27366  0.99909  0.30802  1.0000
  Ba  Ba2       1.0  0.77380  0.50087  0.80788  1.0000
  Ba  Ba2       1.0  0.72625  0.00076  0.69220  1.0000
  Ba  Ba2       1.0  0.22635  0.49923  0.19205  1.0000
  Co  Co1       1.0  0.75651  0.77659  0.41791  1.0000
  O   O1        1.0  0.21424  0.49438  0.92762  1.0000
  O   O1        1.0  0.28566  0.99433  0.57203  1.0000
  O   O1        1.0  0.78496  0.50610  0.07194  1.0000
  O   O2        1.0  0.97720  0.72885  0.31703  1.0000
  O   O2        1.0  0.47703  0.77056  0.81649  1.0000
  O   O2        1.0  0.02312  0.27082  0.68312  1.0000
  O   O2        1.0  0.52242  0.22951  0.18308  1.0000
  O   O3        1.0  0.50272  0.67081  0.36303  1.0000
  O   O3        1.0  0.00296  0.82908  0.86288  1.0000
  O   O3        1.0  0.49733  0.32866  0.63732  1.0000
  O   O3        1.0  0.99680  0.17168  0.13750  1.0000
  O   O4        1.0  0.82061  0.68095  0.57450  1.0000
  O   O4        1.0  0.32115  0.81831  0.07448  1.0000
  O   O4        1.0  0.17987  0.31872  0.42549  1.0000
  O   O4        1.0  0.67918  0.18167  0.92547  1.0000
