# generated using pymatgen
data_Ba2Cd(BO2)6
_symmetry_space_group_name_H-M   'P 1'
_cell_length_a   7.15525630
_cell_length_b   7.15525630
_cell_length_c   17.23887778
_cell_angle_alpha   90.00000000
_cell_angle_beta   90.00000000
_cell_angle_gamma   120.00000000
_symmetry_Int_Tables_number   1
_chemical_formula_structural   Ba2Cd(BO2)6
_chemical_formula_sum   'Ba6 Cd3 B18 O36'
_cell_volume   764.34602464
_cell_formula_units_Z   3
loop_
 _symmetry_equiv_pos_site_id
 _symmetry_equiv_pos_as_xyz
  1  'x, y, z'
loop_
 _atom_site_type_symbol
 _atom_site_label
 _atom_site_symmetry_multiplicity
 _atom_site_fract_x
 _atom_site_fract_y
 _atom_site_fract_z
 _atom_site_occupancy
  Ba  Ba1  1  0.33333333  0.66666667  0.87526391  1
  Ba  Ba1  1  0.33333333  0.66666667  0.45806943  1
  Cd  Cd1  1  0.00000000  0.00000000  0.00000000  1
  B  B1  1  0.55275065  0.71436211  0.08122324  1
  B  B1  1  0.28563789  0.83838854  0.08122324  1
  B  B1  1  0.16161146  0.44724935  0.08122324  1
  B  B1  1  0.11391602  0.61897123  0.25211009  1
  B  B1  1  0.38102877  0.49494479  0.25211009  1
  B  B1  1  0.50505521  0.88608398  0.25211009  1
  O  O1  1  0.75371241  0.75024348  0.08610991  1
  O  O1  1  0.24975652  0.00346893  0.08610991  1
  O  O1  1  0.99653107  0.24628759  0.08610991  1
  O  O1  1  0.91295425  0.58308985  0.24722342  1
  O  O1  1  0.41691015  0.32986440  0.24722342  1
  O  O1  1  0.67013560  0.08704575  0.24722342  1
  O  O2  1  0.37887527  0.50010063  0.07938906  1
  O  O2  1  0.49989937  0.87877464  0.07938906  1
  O  O2  1  0.12122536  0.62112473  0.07938906  1
  O  O2  1  0.28779139  0.83323270  0.25394427  1
  O  O2  1  0.16676730  0.45455869  0.25394427  1
  O  O2  1  0.54544131  0.71220861  0.25394427  1
  Ba  Ba1  1  0.00000000  0.00000000  0.20859724  1
  Ba  Ba1  1  0.00000000  0.00000000  0.79140276  1
  Cd  Cd1  1  0.66666667  0.33333333  0.33333333  1
  B  B1  1  0.21941731  0.04769544  0.41455657  1
  B  B1  1  0.95230456  0.17172187  0.41455657  1
  B  B1  1  0.82827813  0.78058269  0.41455657  1
  B  B1  1  0.78058269  0.95230456  0.58544343  1
  B  B1  1  0.04769544  0.82827813  0.58544343  1
  B  B1  1  0.17172187  0.21941731  0.58544343  1
  O  O1  1  0.42037908  0.08357681  0.41944324  1
  O  O1  1  0.91642319  0.33680227  0.41944324  1
  O  O1  1  0.66319773  0.57962092  0.41944324  1
  O  O1  1  0.57962092  0.91642319  0.58055676  1
  O  O1  1  0.08357681  0.66319773  0.58055676  1
  O  O1  1  0.33680227  0.42037908  0.58055676  1
  O  O2  1  0.04554194  0.83343397  0.41272239  1
  O  O2  1  0.16656603  0.21210797  0.41272239  1
  O  O2  1  0.78789203  0.95445806  0.41272239  1
  O  O2  1  0.95445806  0.16656603  0.58727761  1
  O  O2  1  0.83343397  0.78789203  0.58727761  1
  O  O2  1  0.21210797  0.04554194  0.58727761  1
  Ba  Ba1  1  0.66666667  0.33333333  0.54193057  1
  Ba  Ba1  1  0.66666667  0.33333333  0.12473609  1
  Cd  Cd1  1  0.33333333  0.66666667  0.66666667  1
  B  B1  1  0.88608398  0.38102877  0.74788991  1
  B  B1  1  0.61897123  0.50505521  0.74788991  1
  B  B1  1  0.49494479  0.11391602  0.74788991  1
  B  B1  1  0.44724935  0.28563789  0.91877676  1
  B  B1  1  0.71436211  0.16161146  0.91877676  1
  B  B1  1  0.83838854  0.55275065  0.91877676  1
  O  O1  1  0.08704575  0.41691015  0.75277658  1
  O  O1  1  0.58308985  0.67013560  0.75277658  1
  O  O1  1  0.32986440  0.91295425  0.75277658  1
  O  O1  1  0.24628759  0.24975652  0.91389009  1
  O  O1  1  0.75024348  0.99653107  0.91389009  1
  O  O1  1  0.00346893  0.75371241  0.91389009  1
  O  O2  1  0.71220861  0.16676730  0.74605573  1
  O  O2  1  0.83323270  0.54544131  0.74605573  1
  O  O2  1  0.45455869  0.28779139  0.74605573  1
  O  O2  1  0.62112473  0.49989937  0.92061094  1
  O  O2  1  0.50010063  0.12122536  0.92061094  1
  O  O2  1  0.87877464  0.37887527  0.92061094  1
