# generated using pymatgen
data_Ba2CePtO6
_symmetry_space_group_name_H-M   'P 1'
_cell_length_a   8.43081333
_cell_length_b   8.43081333
_cell_length_c   8.43081333
_cell_angle_alpha   90.00000000
_cell_angle_beta   90.00000000
_cell_angle_gamma   90.00000000
_symmetry_Int_Tables_number   1
_chemical_formula_structural   Ba2CePtO6
_chemical_formula_sum   'Ba8 Ce4 Pt4 O24'
_cell_volume   599.25052138
_cell_formula_units_Z   4
loop_
 _symmetry_equiv_pos_site_id
 _symmetry_equiv_pos_as_xyz
  1  'x, y, z'
loop_
 _atom_site_type_symbol
 _atom_site_label
 _atom_site_symmetry_multiplicity
 _atom_site_fract_x
 _atom_site_fract_y
 _atom_site_fract_z
 _atom_site_occupancy
  Ba  Ba1  1  0.25000000  0.75000000  0.25000000  1
  Ba  Ba1  1  0.25000000  0.25000000  0.25000000  1
  Ce  Ce1  1  0.00000000  0.00000000  0.50000000  1
  Pt  Pt1  1  0.00000000  0.00000000  0.00000000  1
  O  O1  1  0.00000000  0.00000000  0.76237202  1
  O  O1  1  0.00000000  0.26237202  0.50000000  1
  O  O1  1  0.00000000  0.73762798  0.50000000  1
  O  O1  1  0.23762798  0.00000000  0.00000000  1
  O  O1  1  0.00000000  0.00000000  0.23762798  1
  O  O1  1  0.26237202  0.00000000  0.50000000  1
  Ba  Ba1  1  0.25000000  0.25000000  0.75000000  1
  Ba  Ba1  1  0.25000000  0.75000000  0.75000000  1
  Ce  Ce1  1  0.00000000  0.50000000  0.00000000  1
  Pt  Pt1  1  0.00000000  0.50000000  0.50000000  1
  O  O1  1  0.00000000  0.50000000  0.26237202  1
  O  O1  1  0.00000000  0.76237202  0.00000000  1
  O  O1  1  0.00000000  0.23762798  0.00000000  1
  O  O1  1  0.23762798  0.50000000  0.50000000  1
  O  O1  1  0.00000000  0.50000000  0.73762798  1
  O  O1  1  0.26237202  0.50000000  0.00000000  1
  Ba  Ba1  1  0.75000000  0.75000000  0.75000000  1
  Ba  Ba1  1  0.75000000  0.25000000  0.75000000  1
  Ce  Ce1  1  0.50000000  0.00000000  0.00000000  1
  Pt  Pt1  1  0.50000000  0.00000000  0.50000000  1
  O  O1  1  0.50000000  0.00000000  0.26237202  1
  O  O1  1  0.50000000  0.26237202  0.00000000  1
  O  O1  1  0.50000000  0.73762798  0.00000000  1
  O  O1  1  0.73762798  0.00000000  0.50000000  1
  O  O1  1  0.50000000  0.00000000  0.73762798  1
  O  O1  1  0.76237202  0.00000000  0.00000000  1
  Ba  Ba1  1  0.75000000  0.25000000  0.25000000  1
  Ba  Ba1  1  0.75000000  0.75000000  0.25000000  1
  Ce  Ce1  1  0.50000000  0.50000000  0.50000000  1
  Pt  Pt1  1  0.50000000  0.50000000  0.00000000  1
  O  O1  1  0.50000000  0.50000000  0.76237202  1
  O  O1  1  0.50000000  0.76237202  0.50000000  1
  O  O1  1  0.50000000  0.23762798  0.50000000  1
  O  O1  1  0.73762798  0.50000000  0.00000000  1
  O  O1  1  0.50000000  0.50000000  0.23762798  1
  O  O1  1  0.76237202  0.50000000  0.50000000  1
