# generated using pymatgen
data_Ba2Ca(BO2)6
_symmetry_space_group_name_H-M   'P 1'
_cell_length_a   7.16221636
_cell_length_b   7.16221636
_cell_length_c   17.57281649
_cell_angle_alpha   90.00000000
_cell_angle_beta   90.00000000
_cell_angle_gamma   120.00000000
_symmetry_Int_Tables_number   1
_chemical_formula_structural   Ba2Ca(BO2)6
_chemical_formula_sum   'Ba6 Ca3 B18 O36'
_cell_volume   780.66889925
_cell_formula_units_Z   3
loop_
 _symmetry_equiv_pos_site_id
 _symmetry_equiv_pos_as_xyz
  1  'x, y, z'
loop_
 _atom_site_type_symbol
 _atom_site_label
 _atom_site_symmetry_multiplicity
 _atom_site_fract_x
 _atom_site_fract_y
 _atom_site_fract_z
 _atom_site_occupancy
  Ba  Ba1  1  0.66666667  0.33333333  0.12554490  1
  Ba  Ba1  1  0.00000000  0.00000000  0.20778843  1
  Ca  Ca1  1  0.00000000  0.00000000  0.00000000  1
  B  B1  1  0.11425162  0.61994269  0.24986852  1
  B  B1  1  0.16097560  0.44758495  0.08346482  1
  B  B1  1  0.55241505  0.71339065  0.08346482  1
  B  B1  1  0.28660935  0.83902440  0.08346482  1
  B  B1  1  0.50569107  0.88574838  0.24986852  1
  B  B1  1  0.38005731  0.49430893  0.24986852  1
  O  O1  1  0.12150017  0.62188360  0.08184814  1
  O  O1  1  0.50038343  0.87849983  0.08184814  1
  O  O1  1  0.37811640  0.49961657  0.08184814  1
  O  O1  1  0.28855027  0.83371677  0.25148520  1
  O  O2  1  0.99702587  0.24654554  0.08683564  1
  O  O1  1  0.16628323  0.45483350  0.25148520  1
  O  O1  1  0.54516650  0.71144973  0.25148520  1
  O  O2  1  0.24951967  0.00297413  0.08683564  1
  O  O2  1  0.75345446  0.75048033  0.08683564  1
  O  O2  1  0.41714699  0.33035920  0.24649769  1
  O  O2  1  0.91321221  0.58285301  0.24649769  1
  O  O2  1  0.66964080  0.08678779  0.24649769  1
  Ba  Ba1  1  0.33333333  0.66666667  0.45887824  1
  Ba  Ba1  1  0.66666667  0.33333333  0.54112176  1
  Ca  Ca1  1  0.66666667  0.33333333  0.33333333  1
  B  B1  1  0.78091829  0.95327602  0.58320185  1
  B  B1  1  0.82764227  0.78091829  0.41679815  1
  B  B1  1  0.21908171  0.04672398  0.41679815  1
  B  B1  1  0.95327602  0.17235773  0.41679815  1
  B  B1  1  0.17235773  0.21908171  0.58320185  1
  B  B1  1  0.04672398  0.82764227  0.58320185  1
  O  O1  1  0.78816683  0.95521693  0.41518147  1
  O  O1  1  0.16705010  0.21183317  0.41518147  1
  O  O1  1  0.04478307  0.83294990  0.41518147  1
  O  O1  1  0.95521693  0.16705010  0.58481853  1
  O  O2  1  0.66369253  0.57987887  0.42016898  1
  O  O1  1  0.83294990  0.78816683  0.58481853  1
  O  O1  1  0.21183317  0.04478307  0.58481853  1
  O  O2  1  0.91618634  0.33630747  0.42016898  1
  O  O2  1  0.42012113  0.08381366  0.42016898  1
  O  O2  1  0.08381366  0.66369253  0.57983102  1
  O  O2  1  0.57987887  0.91618634  0.57983102  1
  O  O2  1  0.33630747  0.42012113  0.57983102  1
  Ba  Ba1  1  0.00000000  0.00000000  0.79221157  1
  Ba  Ba1  1  0.33333333  0.66666667  0.87445510  1
  Ca  Ca1  1  0.33333333  0.66666667  0.66666667  1
  B  B1  1  0.44758495  0.28660935  0.91653518  1
  B  B1  1  0.49430893  0.11425162  0.75013148  1
  B  B1  1  0.88574838  0.38005731  0.75013148  1
  B  B1  1  0.61994269  0.50569107  0.75013148  1
  B  B1  1  0.83902440  0.55241505  0.91653518  1
  B  B1  1  0.71339065  0.16097560  0.91653518  1
  O  O1  1  0.45483350  0.28855027  0.74851480  1
  O  O1  1  0.83371677  0.54516650  0.74851480  1
  O  O1  1  0.71144973  0.16628323  0.74851480  1
  O  O1  1  0.62188360  0.50038343  0.91815186  1
  O  O2  1  0.33035920  0.91321221  0.75350231  1
  O  O1  1  0.49961657  0.12150017  0.91815186  1
  O  O1  1  0.87849983  0.37811640  0.91815186  1
  O  O2  1  0.58285301  0.66964080  0.75350231  1
  O  O2  1  0.08678779  0.41714699  0.75350231  1
  O  O2  1  0.75048033  0.99702587  0.91316436  1
  O  O2  1  0.24654554  0.24951967  0.91316436  1
  O  O2  1  0.00297413  0.75345446  0.91316436  1
