# generated using pymatgen
data_Ba2CdGe2O7
_symmetry_space_group_name_H-M   'P 1'
_cell_length_a   8.67310830
_cell_length_b   8.67310830
_cell_length_c   5.55598159
_cell_angle_alpha   90.00000000
_cell_angle_beta   90.00000000
_cell_angle_gamma   90.00000000
_symmetry_Int_Tables_number   1
_chemical_formula_structural   Ba2CdGe2O7
_chemical_formula_sum   'Ba4 Cd2 Ge4 O14'
_cell_volume   417.93653383
_cell_formula_units_Z   2
loop_
 _symmetry_equiv_pos_site_id
 _symmetry_equiv_pos_as_xyz
  1  'x, y, z'
loop_
 _atom_site_type_symbol
 _atom_site_label
 _atom_site_symmetry_multiplicity
 _atom_site_fract_x
 _atom_site_fract_y
 _atom_site_fract_z
 _atom_site_occupancy
  Ba  Ba1  1  0.16514082  0.33485918  0.50633813  1
  Ba  Ba1  1  0.83485918  0.66514082  0.50633813  1
  Ba  Ba1  1  0.66514082  0.16514082  0.49366187  1
  Ba  Ba1  1  0.33485918  0.83485918  0.49366187  1
  Cd  Cd1  1  0.00000000  0.00000000  0.00000000  1
  Cd  Cd1  1  0.50000000  0.50000000  0.00000000  1
  Ge  Ge1  1  0.63829678  0.86170322  0.94801903  1
  Ge  Ge1  1  0.36170322  0.13829678  0.94801903  1
  Ge  Ge1  1  0.13829678  0.63829678  0.05198097  1
  Ge  Ge1  1  0.86170322  0.36170322  0.05198097  1
  O  O1  1  0.00000000  0.50000000  0.17303793  1
  O  O1  1  0.50000000  0.00000000  0.82696207  1
  O  O2  1  0.63914098  0.86085902  0.26387084  1
  O  O2  1  0.36085902  0.13914098  0.26387084  1
  O  O2  1  0.13914098  0.63914098  0.73612916  1
  O  O2  1  0.86085902  0.36085902  0.73612916  1
  O  O3  1  0.07734440  0.80625216  0.21392834  1
  O  O3  1  0.92265560  0.19374784  0.21392834  1
  O  O3  1  0.19374784  0.07734440  0.78607166  1
  O  O3  1  0.42265560  0.30625216  0.78607166  1
  O  O3  1  0.80625216  0.92265560  0.78607166  1
  O  O3  1  0.57734440  0.69374784  0.78607166  1
  O  O3  1  0.30625216  0.57734440  0.21392834  1
  O  O3  1  0.69374784  0.42265560  0.21392834  1
