# generated using pymatgen
data_Ba2Cd(BO3)2
_symmetry_space_group_name_H-M   'P 1'
_cell_length_a   9.71138448
_cell_length_b   5.36098581
_cell_length_c   6.54246829
_cell_angle_alpha   90.00000000
_cell_angle_beta   118.77933725
_cell_angle_gamma   90.00000000
_symmetry_Int_Tables_number   1
_chemical_formula_structural   Ba2Cd(BO3)2
_chemical_formula_sum   'Ba4 Cd2 B4 O12'
_cell_volume   298.54487580
_cell_formula_units_Z   2
loop_
 _symmetry_equiv_pos_site_id
 _symmetry_equiv_pos_as_xyz
  1  'x, y, z'
loop_
 _atom_site_type_symbol
 _atom_site_label
 _atom_site_symmetry_multiplicity
 _atom_site_fract_x
 _atom_site_fract_y
 _atom_site_fract_z
 _atom_site_occupancy
  Ba  Ba1  1  0.79001252  0.00000000  0.31141621  1
  Ba  Ba1  1  0.70998748  0.50000000  0.68858379  1
  Cd  Cd1  1  0.00000000  0.00000000  0.00000000  1
  B  B1  1  0.94159270  0.50000000  0.24193347  1
  B  B1  1  0.55840730  0.00000000  0.75806653  1
  O  O1  1  0.52435342  0.22354404  0.27748505  1
  O  O1  1  0.52435342  0.77645596  0.27748505  1
  O  O1  1  0.97564658  0.27645596  0.72251495  1
  O  O1  1  0.97564658  0.72354404  0.72251495  1
  O  O2  1  0.78255220  0.50000000  0.16986878  1
  O  O2  1  0.71744780  0.00000000  0.83013122  1
  Ba  Ba1  1  0.29001252  0.50000000  0.31141621  1
  Ba  Ba1  1  0.20998748  0.00000000  0.68858379  1
  Cd  Cd1  1  0.50000000  0.50000000  0.00000000  1
  B  B1  1  0.44159270  0.00000000  0.24193347  1
  B  B1  1  0.05840730  0.50000000  0.75806653  1
  O  O1  1  0.02435342  0.72354404  0.27748505  1
  O  O1  1  0.02435342  0.27645596  0.27748505  1
  O  O1  1  0.47564658  0.77645596  0.72251495  1
  O  O1  1  0.47564658  0.22354404  0.72251495  1
  O  O2  1  0.28255220  0.00000000  0.16986878  1
  O  O2  1  0.21744780  0.50000000  0.83013122  1
