# generated using pymatgen
data_Ba2InGaO5
_symmetry_space_group_name_H-M   'P 1'
_cell_length_a   15.45512964
_cell_length_b   6.18440294
_cell_length_c   5.96056056
_cell_angle_alpha   90.00000000
_cell_angle_beta   90.00000000
_cell_angle_gamma   90.00000000
_symmetry_Int_Tables_number   1
_chemical_formula_structural   Ba2InGaO5
_chemical_formula_sum   'Ba8 In4 Ga4 O20'
_cell_volume   569.71484419
_cell_formula_units_Z   4
loop_
 _symmetry_equiv_pos_site_id
 _symmetry_equiv_pos_as_xyz
  1  'x, y, z'
loop_
 _atom_site_type_symbol
 _atom_site_label
 _atom_site_symmetry_multiplicity
 _atom_site_fract_x
 _atom_site_fract_y
 _atom_site_fract_z
 _atom_site_occupancy
  Ba  Ba1  1  0.88093501  0.49414270  0.01326990  1
  Ba  Ba1  1  0.61906499  0.00585730  0.51326990  1
  Ba  Ba1  1  0.61906499  0.49414270  0.01326990  1
  Ba  Ba1  1  0.88093501  0.00585730  0.51326990  1
  In  In1  1  0.00000000  0.50000000  0.51406541  1
  In  In1  1  0.00000000  0.00000000  0.01406541  1
  Ga  Ga1  1  0.75000000  0.56539080  0.51311369  1
  Ga  Ga1  1  0.75000000  0.93460920  0.01311369  1
  O  O1  1  0.51245450  0.75079397  0.76329999  1
  O  O1  1  0.98754550  0.74920603  0.26329999  1
  O  O1  1  0.98754550  0.75079397  0.76329999  1
  O  O1  1  0.51245450  0.74920603  0.26329999  1
  O  O2  1  0.85404370  0.42659547  0.51751664  1
  O  O2  1  0.64595630  0.07340453  0.01751664  1
  O  O2  1  0.64595630  0.42659547  0.51751664  1
  O  O2  1  0.85404370  0.07340453  0.01751664  1
  O  O3  1  0.75000000  0.75753756  0.75724785  1
  O  O3  1  0.75000000  0.74246244  0.25724785  1
  Ba  Ba1  1  0.38093501  0.99414270  0.51326990  1
  Ba  Ba1  1  0.11906499  0.50585730  0.01326990  1
  Ba  Ba1  1  0.11906499  0.99414270  0.51326990  1
  Ba  Ba1  1  0.38093501  0.50585730  0.01326990  1
  In  In1  1  0.50000000  0.00000000  0.01406541  1
  In  In1  1  0.50000000  0.50000000  0.51406541  1
  Ga  Ga1  1  0.25000000  0.06539080  0.01311369  1
  Ga  Ga1  1  0.25000000  0.43460920  0.51311369  1
  O  O1  1  0.01245450  0.25079397  0.26329999  1
  O  O1  1  0.48754550  0.24920603  0.76329999  1
  O  O1  1  0.48754550  0.25079397  0.26329999  1
  O  O1  1  0.01245450  0.24920603  0.76329999  1
  O  O2  1  0.35404370  0.92659547  0.01751664  1
  O  O2  1  0.14595630  0.57340453  0.51751664  1
  O  O2  1  0.14595630  0.92659547  0.01751664  1
  O  O2  1  0.35404370  0.57340453  0.51751664  1
  O  O3  1  0.25000000  0.25753756  0.25724785  1
  O  O3  1  0.25000000  0.24246244  0.75724785  1
