# generated using pymatgen
data_Ba2In2O5
_symmetry_space_group_name_H-M   'P 1'
_cell_length_a   16.65317497
_cell_length_b   6.21461971
_cell_length_c   6.01619176
_cell_angle_alpha   90.00000000
_cell_angle_beta   90.00000000
_cell_angle_gamma   90.00000000
_symmetry_Int_Tables_number   1
_chemical_formula_structural   Ba2In2O5
_chemical_formula_sum   'Ba8 In8 O20'
_cell_volume   622.63463299
_cell_formula_units_Z   4
loop_
 _symmetry_equiv_pos_site_id
 _symmetry_equiv_pos_as_xyz
  1  'x, y, z'
loop_
 _atom_site_type_symbol
 _atom_site_label
 _atom_site_symmetry_multiplicity
 _atom_site_fract_x
 _atom_site_fract_y
 _atom_site_fract_z
 _atom_site_occupancy
  Ba  Ba1  1  0.60795303  0.98175662  0.48089282  1
  Ba  Ba1  1  0.89204697  0.51824338  0.98089282  1
  Ba  Ba1  1  0.60795303  0.51824338  0.98089282  1
  Ba  Ba1  1  0.89204697  0.98175662  0.48089282  1
  In  In1  1  0.75000000  0.43344828  0.50762691  1
  In  In1  1  0.75000000  0.06655172  0.00762691  1
  In  In2  1  0.00000000  0.50000000  0.47480172  1
  In  In2  1  0.00000000  0.00000000  0.97480172  1
  O  O1  1  0.75000000  0.37493587  0.85620220  1
  O  O1  1  0.75000000  0.12506413  0.35620220  1
  O  O2  1  0.63633553  0.94061580  0.94665241  1
  O  O2  1  0.86366447  0.55938420  0.44665241  1
  O  O2  1  0.63633553  0.55938420  0.44665241  1
  O  O2  1  0.86366447  0.94061580  0.94665241  1
  O  O3  1  0.99060463  0.24453534  0.22978986  1
  O  O3  1  0.50939537  0.25546466  0.72978986  1
  O  O3  1  0.50939537  0.24453534  0.22978986  1
  O  O3  1  0.99060463  0.25546466  0.72978986  1
  Ba  Ba1  1  0.10795303  0.48175662  0.98089282  1
  Ba  Ba1  1  0.39204697  0.01824338  0.48089282  1
  Ba  Ba1  1  0.10795303  0.01824338  0.48089282  1
  Ba  Ba1  1  0.39204697  0.48175662  0.98089282  1
  In  In1  1  0.25000000  0.93344828  0.00762691  1
  In  In1  1  0.25000000  0.56655172  0.50762691  1
  In  In2  1  0.50000000  0.00000000  0.97480172  1
  In  In2  1  0.50000000  0.50000000  0.47480172  1
  O  O1  1  0.25000000  0.87493587  0.35620220  1
  O  O1  1  0.25000000  0.62506413  0.85620220  1
  O  O2  1  0.13633553  0.44061580  0.44665241  1
  O  O2  1  0.36366447  0.05938420  0.94665241  1
  O  O2  1  0.13633553  0.05938420  0.94665241  1
  O  O2  1  0.36366447  0.44061580  0.44665241  1
  O  O3  1  0.49060463  0.74453534  0.72978986  1
  O  O3  1  0.00939537  0.75546466  0.22978986  1
  O  O3  1  0.00939537  0.74453534  0.72978986  1
  O  O3  1  0.49060463  0.75546466  0.22978986  1
