# generated using pymatgen
data_Ba2InCuO4
_symmetry_space_group_name_H-M   'P 1'
_cell_length_a   4.20500947
_cell_length_b   4.20500947
_cell_length_c   8.09837703
_cell_angle_alpha   90.00000000
_cell_angle_beta   90.00000000
_cell_angle_gamma   90.00000000
_symmetry_Int_Tables_number   1
_chemical_formula_structural   Ba2InCuO4
_chemical_formula_sum   'Ba2 In1 Cu1 O4'
_cell_volume   143.19635025
_cell_formula_units_Z   1
loop_
 _symmetry_equiv_pos_site_id
 _symmetry_equiv_pos_as_xyz
  1  'x, y, z'
loop_
 _atom_site_type_symbol
 _atom_site_label
 _atom_site_symmetry_multiplicity
 _atom_site_fract_x
 _atom_site_fract_y
 _atom_site_fract_z
 _atom_site_occupancy
  Ba  Ba1  1  0.50000000  0.50000000  0.76903174  1
  Ba  Ba1  1  0.50000000  0.50000000  0.23096826  1
  In  In1  1  0.00000000  0.00000000  0.00000000  1
  Cu  Cu1  1  0.00000000  0.00000000  0.50000000  1
  O  O1  1  0.00000000  0.50000000  0.00000000  1
  O  O1  1  0.50000000  0.00000000  0.00000000  1
  O  O2  1  0.00000000  0.00000000  0.71897618  1
  O  O2  1  0.00000000  0.00000000  0.28102382  1
