# generated using pymatgen
data_Ba2LaBiO6
_symmetry_space_group_name_H-M   'P 1'
_cell_length_a   10.69117596
_cell_length_b   6.18790309
_cell_length_c   6.26068903
_cell_angle_alpha   90.00000000
_cell_angle_beta   125.08425510
_cell_angle_gamma   90.00000000
_symmetry_Int_Tables_number   1
_chemical_formula_structural   Ba2LaBiO6
_chemical_formula_sum   'Ba4 La2 Bi2 O12'
_cell_volume   338.92823538
_cell_formula_units_Z   2
loop_
 _symmetry_equiv_pos_site_id
 _symmetry_equiv_pos_as_xyz
  1  'x, y, z'
loop_
 _atom_site_type_symbol
 _atom_site_label
 _atom_site_symmetry_multiplicity
 _atom_site_fract_x
 _atom_site_fract_y
 _atom_site_fract_z
 _atom_site_occupancy
  Ba  Ba1  1  0.74740836  0.50000000  0.23800344  1
  Ba  Ba1  1  0.75259164  0.00000000  0.76199656  1
  La  La1  1  0.00000000  0.00000000  0.50000000  1
  Bi  Bi1  1  0.00000000  0.50000000  0.00000000  1
  O  O1  1  0.54384364  0.24107650  0.80831564  1
  O  O1  1  0.95615636  0.74107650  0.19168436  1
  O  O1  1  0.95615636  0.25892350  0.19168436  1
  O  O1  1  0.54384364  0.75892350  0.80831564  1
  O  O2  1  0.23644274  0.50000000  0.31432287  1
  O  O2  1  0.26355726  0.00000000  0.68567713  1
  Ba  Ba1  1  0.24740836  0.00000000  0.23800344  1
  Ba  Ba1  1  0.25259164  0.50000000  0.76199656  1
  La  La1  1  0.50000000  0.50000000  0.50000000  1
  Bi  Bi1  1  0.50000000  0.00000000  0.00000000  1
  O  O1  1  0.04384364  0.74107650  0.80831564  1
  O  O1  1  0.45615636  0.24107650  0.19168436  1
  O  O1  1  0.45615636  0.75892350  0.19168436  1
  O  O1  1  0.04384364  0.25892350  0.80831564  1
  O  O2  1  0.73644274  0.00000000  0.31432287  1
  O  O2  1  0.76355726  0.50000000  0.68567713  1
