# generated using pymatgen
data_Ba2LaSbO6
_symmetry_space_group_name_H-M   'P 1'
_cell_length_a   6.12444690
_cell_length_b   6.12444690
_cell_length_c   14.78841393
_cell_angle_alpha   90.00000000
_cell_angle_beta   90.00000000
_cell_angle_gamma   120.00000000
_symmetry_Int_Tables_number   1
_chemical_formula_structural   Ba2LaSbO6
_chemical_formula_sum   'Ba6 La3 Sb3 O18'
_cell_volume   480.38117148
_cell_formula_units_Z   3
loop_
 _symmetry_equiv_pos_site_id
 _symmetry_equiv_pos_as_xyz
  1  'x, y, z'
loop_
 _atom_site_type_symbol
 _atom_site_label
 _atom_site_symmetry_multiplicity
 _atom_site_fract_x
 _atom_site_fract_y
 _atom_site_fract_z
 _atom_site_occupancy
  Ba  Ba1  1  0.33333333  0.66666667  0.91858597  1
  Ba  Ba1  1  0.33333333  0.66666667  0.41474737  1
  La  La1  1  0.00000000  0.00000000  0.00000000  1
  Sb  Sb1  1  0.33333333  0.66666667  0.16666667  1
  O  O1  1  0.02869426  0.56317345  0.24477344  1
  O  O1  1  0.13218747  0.36202759  0.08855989  1
  O  O1  1  0.43682655  0.46552081  0.24477344  1
  O  O1  1  0.22984012  0.86781253  0.08855989  1
  O  O1  1  0.53447919  0.97130574  0.24477344  1
  O  O1  1  0.63797241  0.77015988  0.08855989  1
  Ba  Ba1  1  0.00000000  0.00000000  0.25191930  1
  Ba  Ba1  1  0.00000000  0.00000000  0.74808070  1
  La  La1  1  0.66666667  0.33333333  0.33333333  1
  Sb  Sb1  1  -0.00000000  0.00000000  0.50000000  1
  O  O1  1  0.69536093  0.89650679  0.57810678  1
  O  O1  1  0.79885414  0.69536093  0.42189322  1
  O  O1  1  0.10349321  0.79885414  0.57810678  1
  O  O1  1  0.89650679  0.20114586  0.42189322  1
  O  O1  1  0.20114586  0.30463907  0.57810678  1
  O  O1  1  0.30463907  0.10349321  0.42189322  1
  Ba  Ba1  1  0.66666667  0.33333333  0.58525263  1
  Ba  Ba1  1  0.66666667  0.33333333  0.08141403  1
  La  La1  1  0.33333333  0.66666667  0.66666667  1
  Sb  Sb1  1  0.66666667  0.33333333  0.83333333  1
  O  O1  1  0.36202759  0.22984012  0.91144011  1
  O  O1  1  0.46552081  0.02869426  0.75522656  1
  O  O1  1  0.77015988  0.13218747  0.91144011  1
  O  O1  1  0.56317345  0.53447919  0.75522656  1
  O  O1  1  0.86781253  0.63797241  0.91144011  1
  O  O1  1  0.97130574  0.43682655  0.75522656  1
