# generated using pymatgen
data_Ba2LaTaO6
_symmetry_space_group_name_H-M   'P 1'
_cell_length_a   10.48399105
_cell_length_b   6.06198721
_cell_length_c   6.14794080
_cell_angle_alpha   90.00000000
_cell_angle_beta   125.11332954
_cell_angle_gamma   90.00000000
_symmetry_Int_Tables_number   1
_chemical_formula_structural   Ba2LaTaO6
_chemical_formula_sum   'Ba4 La2 Ta2 O12'
_cell_volume   319.61937044
_cell_formula_units_Z   2
loop_
 _symmetry_equiv_pos_site_id
 _symmetry_equiv_pos_as_xyz
  1  'x, y, z'
loop_
 _atom_site_type_symbol
 _atom_site_label
 _atom_site_symmetry_multiplicity
 _atom_site_fract_x
 _atom_site_fract_y
 _atom_site_fract_z
 _atom_site_occupancy
  Ba  Ba1  1  0.25233418  0.50000000  0.25951181  1
  Ba  Ba1  1  0.24766582  0.00000000  0.74048819  1
  La  La1  1  0.00000000  0.00000000  0.00000000  1
  Ta  Ta1  1  0.50000000  0.00000000  0.50000000  1
  O  O1  1  0.03959548  0.26768153  0.31370321  1
  O  O1  1  0.96040452  0.26768153  0.68629679  1
  O  O1  1  0.46040452  0.23231847  0.68629679  1
  O  O1  1  0.53959548  0.23231847  0.31370321  1
  O  O2  1  0.72730952  0.00000000  0.79856179  1
  O  O2  1  0.77269048  0.50000000  0.20143821  1
  Ba  Ba1  1  0.75233418  0.00000000  0.25951181  1
  Ba  Ba1  1  0.74766582  0.50000000  0.74048819  1
  La  La1  1  0.50000000  0.50000000  0.00000000  1
  Ta  Ta1  1  0.00000000  0.50000000  0.50000000  1
  O  O1  1  0.53959548  0.76768153  0.31370321  1
  O  O1  1  0.46040452  0.76768153  0.68629679  1
  O  O1  1  0.96040452  0.73231847  0.68629679  1
  O  O1  1  0.03959548  0.73231847  0.31370321  1
  O  O2  1  0.22730952  0.50000000  0.79856179  1
  O  O2  1  0.27269048  0.00000000  0.20143821  1
