# generated using pymatgen
data_Ba2MgSi2O7
_symmetry_space_group_name_H-M   'P 1'
_cell_length_a   8.22138877
_cell_length_b   8.22138877
_cell_length_c   5.40843133
_cell_angle_alpha   90.00000000
_cell_angle_beta   90.00000000
_cell_angle_gamma   90.00000000
_symmetry_Int_Tables_number   1
_chemical_formula_structural   Ba2MgSi2O7
_chemical_formula_sum   'Ba4 Mg2 Si4 O14'
_cell_volume   365.56254408
_cell_formula_units_Z   2
loop_
 _symmetry_equiv_pos_site_id
 _symmetry_equiv_pos_as_xyz
  1  'x, y, z'
loop_
 _atom_site_type_symbol
 _atom_site_label
 _atom_site_symmetry_multiplicity
 _atom_site_fract_x
 _atom_site_fract_y
 _atom_site_fract_z
 _atom_site_occupancy
  Ba  Ba1  1  0.66438388  0.16438388  0.51011154  1
  Ba  Ba1  1  0.83561612  0.66438388  0.48988846  1
  Ba  Ba1  1  0.16438388  0.33561612  0.48988846  1
  Ba  Ba1  1  0.33561612  0.83561612  0.51011154  1
  Mg  Mg1  1  0.00000000  0.00000000  0.00000000  1
  Mg  Mg1  1  0.50000000  0.50000000  0.00000000  1
  Si  Si1  1  0.86262412  0.36262412  0.95472184  1
  Si  Si1  1  0.13737588  0.63737588  0.95472184  1
  Si  Si1  1  0.63737588  0.86262412  0.04527816  1
  Si  Si1  1  0.36262412  0.13737588  0.04527816  1
  O  O1  1  0.69354482  0.42248416  0.82018625  1
  O  O1  1  0.30645518  0.57751584  0.82018625  1
  O  O1  1  0.42248416  0.30645518  0.17981375  1
  O  O1  1  0.57751584  0.69354482  0.17981375  1
  O  O1  1  0.92248416  0.19354482  0.82018625  1
  O  O1  1  0.80645518  0.92248416  0.17981375  1
  O  O1  1  0.19354482  0.07751584  0.17981375  1
  O  O1  1  0.07751584  0.80645518  0.82018625  1
  O  O2  1  0.85979078  0.35979078  0.25383125  1
  O  O2  1  0.64020922  0.85979078  0.74616875  1
  O  O3  1  0.50000000  0.00000000  0.14152376  1
  O  O3  1  0.00000000  0.50000000  0.85847624  1
  O  O2  1  0.14020922  0.64020922  0.25383125  1
  O  O2  1  0.35979078  0.14020922  0.74616875  1
