# generated using pymatgen
data_Ba2Mg(BO3)2
_symmetry_space_group_name_H-M   'P 1'
_cell_length_a   5.35347724
_cell_length_b   5.35347724
_cell_length_c   16.41671147
_cell_angle_alpha   90.00000000
_cell_angle_beta   90.00000000
_cell_angle_gamma   120.00000000
_symmetry_Int_Tables_number   1
_chemical_formula_structural   Ba2Mg(BO3)2
_chemical_formula_sum   'Ba6 Mg3 B6 O18'
_cell_volume   407.46350606
_cell_formula_units_Z   3
loop_
 _symmetry_equiv_pos_site_id
 _symmetry_equiv_pos_as_xyz
  1  'x, y, z'
loop_
 _atom_site_type_symbol
 _atom_site_label
 _atom_site_symmetry_multiplicity
 _atom_site_fract_x
 _atom_site_fract_y
 _atom_site_fract_z
 _atom_site_occupancy
  Ba  Ba1  1  0.33333333  0.66666667  0.89006344  1
  Ba  Ba1  1  0.00000000  0.00000000  0.77660322  1
  Mg  Mg1  1  0.00000000  0.00000000  0.00000000  1
  B  B1  1  0.66666667  0.33333333  0.92262139  1
  B  B1  1  0.66666667  0.33333333  0.74404527  1
  O  O1  1  0.51648308  0.48351692  0.74308030  1
  O  O1  1  0.96703384  0.48351692  0.74308030  1
  O  O1  1  0.51648308  0.03296616  0.74308030  1
  O  O1  1  0.81685025  0.63370051  0.92358637  1
  O  O1  1  0.36629949  0.18314975  0.92358637  1
  O  O1  1  0.81685025  0.18314975  0.92358637  1
  Ba  Ba1  1  0.00000000  0.00000000  0.22339678  1
  Ba  Ba1  1  0.66666667  0.33333333  0.10993656  1
  Mg  Mg1  1  0.66666667  0.33333333  0.33333333  1
  B  B1  1  0.33333333  0.66666667  0.25595473  1
  B  B1  1  0.33333333  0.66666667  0.07737861  1
  O  O1  1  0.18314975  0.81685025  0.07641363  1
  O  O1  1  0.63370051  0.81685025  0.07641363  1
  O  O1  1  0.18314975  0.36629949  0.07641363  1
  O  O1  1  0.48351692  0.96703384  0.25691970  1
  O  O1  1  0.03296616  0.51648308  0.25691970  1
  O  O1  1  0.48351692  0.51648308  0.25691970  1
  Ba  Ba1  1  0.66666667  0.33333333  0.55673011  1
  Ba  Ba1  1  0.33333333  0.66666667  0.44326989  1
  Mg  Mg1  1  0.33333333  0.66666667  0.66666667  1
  B  B1  1  0.00000000  0.00000000  0.58928806  1
  B  B1  1  0.00000000  0.00000000  0.41071194  1
  O  O1  1  0.84981641  0.15018359  0.40974697  1
  O  O1  1  0.30036717  0.15018359  0.40974697  1
  O  O1  1  0.84981641  0.69963283  0.40974697  1
  O  O1  1  0.15018359  0.30036717  0.59025303  1
  O  O1  1  0.69963283  0.84981641  0.59025303  1
  O  O1  1  0.15018359  0.84981641  0.59025303  1
