# generated using pymatgen
data_Ba2Sc2O5
_symmetry_space_group_name_H-M   'P 1'
_cell_length_a   5.93625052
_cell_length_b   11.74542195
_cell_length_c   3.97721050
_cell_angle_alpha   90.00000000
_cell_angle_beta   90.00000000
_cell_angle_gamma   90.00000000
_symmetry_Int_Tables_number   1
_chemical_formula_structural   Ba2Sc2O5
_chemical_formula_sum   'Ba4 Sc4 O10'
_cell_volume   277.30609861
_cell_formula_units_Z   2
loop_
 _symmetry_equiv_pos_site_id
 _symmetry_equiv_pos_as_xyz
  1  'x, y, z'
loop_
 _atom_site_type_symbol
 _atom_site_label
 _atom_site_symmetry_multiplicity
 _atom_site_fract_x
 _atom_site_fract_y
 _atom_site_fract_z
 _atom_site_occupancy
  Ba  Ba1  1  0.23328298  0.87256517  0.50000000  1
  Ba  Ba1  1  0.26671702  0.37256517  0.50000000  1
  Ba  Ba1  1  0.73328298  0.62743483  0.50000000  1
  Ba  Ba1  1  0.76671702  0.12743483  0.50000000  1
  Sc  Sc1  1  0.26326866  0.63192402  0.00000000  1
  Sc  Sc1  1  0.23673134  0.13192402  0.00000000  1
  Sc  Sc1  1  0.76326866  0.86807598  0.00000000  1
  Sc  Sc1  1  0.73673134  0.36807598  0.00000000  1
  O  O1  1  0.00000000  0.00000000  0.00000000  1
  O  O2  1  0.01854270  0.25753450  0.00000000  1
  O  O3  1  0.19230940  0.59879727  0.50000000  1
  O  O3  1  0.30769060  0.09879727  0.50000000  1
  O  O2  1  0.48145730  0.75753450  0.00000000  1
  O  O1  1  0.50000000  0.50000000  0.00000000  1
  O  O2  1  0.51854270  0.24246550  0.00000000  1
  O  O3  1  0.69230940  0.90120273  0.50000000  1
  O  O3  1  0.80769060  0.40120273  0.50000000  1
  O  O2  1  0.98145730  0.74246550  0.00000000  1
