# generated using pymatgen
data_Ba2SiO4
_symmetry_space_group_name_H-M   'P 1'
_cell_length_a   7.50889241
_cell_length_b   5.78319662
_cell_length_c   10.23431241
_cell_angle_alpha   90.00000000
_cell_angle_beta   90.00000000
_cell_angle_gamma   90.00000000
_symmetry_Int_Tables_number   1
_chemical_formula_structural   Ba2SiO4
_chemical_formula_sum   'Ba8 Si4 O16'
_cell_volume   444.42912191
_cell_formula_units_Z   4
loop_
 _symmetry_equiv_pos_site_id
 _symmetry_equiv_pos_as_xyz
  1  'x, y, z'
loop_
 _atom_site_type_symbol
 _atom_site_label
 _atom_site_symmetry_multiplicity
 _atom_site_fract_x
 _atom_site_fract_y
 _atom_site_fract_z
 _atom_site_occupancy
  Ba  Ba1  1  0.99103058  0.25000000  0.30672162  1
  Ba  Ba1  1  0.00896942  0.75000000  0.69327838  1
  Ba  Ba1  1  0.49103058  0.25000000  0.19327838  1
  Ba  Ba1  1  0.50896942  0.75000000  0.80672162  1
  Ba  Ba2  1  0.15877808  0.25000000  0.91637468  1
  Ba  Ba2  1  0.84122192  0.75000000  0.08362532  1
  Ba  Ba2  1  0.65877808  0.25000000  0.58362532  1
  Ba  Ba2  1  0.34122192  0.75000000  0.41637468  1
  Si  Si1  1  0.22822746  0.25000000  0.57929930  1
  Si  Si1  1  0.77177254  0.75000000  0.42070070  1
  Si  Si1  1  0.72822746  0.25000000  0.92070070  1
  Si  Si1  1  0.27177254  0.75000000  0.07929930  1
  O  O1  1  0.69140066  0.98334870  0.35013374  1
  O  O1  1  0.30859934  0.48334870  0.64986626  1
  O  O1  1  0.19140066  0.51665130  0.14986626  1
  O  O1  1  0.80859934  0.01665130  0.85013374  1
  O  O1  1  0.30859934  0.01665130  0.64986626  1
  O  O1  1  0.69140066  0.51665130  0.35013374  1
  O  O1  1  0.80859934  0.48334870  0.85013374  1
  O  O1  1  0.19140066  0.98334870  0.14986626  1
  O  O2  1  0.30736930  0.25000000  0.42779934  1
  O  O2  1  0.69263070  0.75000000  0.57220066  1
  O  O2  1  0.80736930  0.25000000  0.07220066  1
  O  O2  1  0.19263070  0.75000000  0.92779934  1
  O  O3  1  0.49007838  0.75000000  0.08430534  1
  O  O3  1  0.50992162  0.25000000  0.91569466  1
  O  O3  1  0.99007838  0.75000000  0.41569466  1
  O  O3  1  0.00992162  0.25000000  0.58430534  1
