# generated using pymatgen
data_Ba2TiO4
_symmetry_space_group_name_H-M   'P 1'
_cell_length_a   6.14905962
_cell_length_b   7.67942836
_cell_length_c   11.79576539
_cell_angle_alpha   90.00000000
_cell_angle_beta   117.16888030
_cell_angle_gamma   90.00000000
_symmetry_Int_Tables_number   1
_chemical_formula_structural   Ba2TiO4
_chemical_formula_sum   'Ba8 Ti4 O16'
_cell_volume   495.55286390
_cell_formula_units_Z   4
loop_
 _symmetry_equiv_pos_site_id
 _symmetry_equiv_pos_as_xyz
  1  'x, y, z'
loop_
 _atom_site_type_symbol
 _atom_site_label
 _atom_site_symmetry_multiplicity
 _atom_site_fract_x
 _atom_site_fract_y
 _atom_site_fract_z
 _atom_site_occupancy
  Ba  Ba1  1  0.97657326  0.49957084  0.19798873  1
  Ba  Ba1  1  0.02342674  0.99957084  0.30201127  1
  Ba  Ba1  1  0.02342674  0.50042916  0.80201127  1
  Ba  Ba1  1  0.97657326  0.00042916  0.69798873  1
  Ba  Ba2  1  0.30491792  0.15691554  0.07375722  1
  Ba  Ba2  1  0.69508208  0.65691554  0.42624278  1
  Ba  Ba2  1  0.69508208  0.84308446  0.92624278  1
  Ba  Ba2  1  0.30491792  0.34308446  0.57375722  1
  Ti  Ti1  1  0.34380170  0.72051362  0.08276025  1
  Ti  Ti1  1  0.65619830  0.22051362  0.41723975  1
  Ti  Ti1  1  0.65619830  0.27948638  0.91723975  1
  Ti  Ti1  1  0.34380170  0.77948638  0.58276025  1
  O  O1  1  0.26093022  0.81947920  0.92567343  1
  O  O1  1  0.73906978  0.31947920  0.57432657  1
  O  O1  1  0.73906978  0.18052080  0.07432657  1
  O  O1  1  0.26093022  0.68052080  0.42567343  1
  O  O2  1  0.13945398  0.82827434  0.13680735  1
  O  O2  1  0.86054602  0.32827434  0.36319265  1
  O  O2  1  0.86054602  0.17172566  0.86319265  1
  O  O2  1  0.13945398  0.67172566  0.63680735  1
  O  O3  1  0.66954068  0.75916648  0.18999687  1
  O  O3  1  0.33045932  0.25916648  0.31000313  1
  O  O3  1  0.33045932  0.24083352  0.81000313  1
  O  O3  1  0.66954068  0.74083352  0.68999687  1
  O  O4  1  0.72537178  0.51063584  0.93458492  1
  O  O4  1  0.27462822  0.01063584  0.56541508  1
  O  O4  1  0.27462822  0.48936416  0.06541508  1
  O  O4  1  0.72537178  0.98936416  0.43458492  1
