# generated using pymatgen
data_Ba2Ti(SiO4)2
_symmetry_space_group_name_H-M   'P 1'
_cell_length_a   8.55221415
_cell_length_b   8.55221415
_cell_length_c   5.21798737
_cell_angle_alpha   90.00000000
_cell_angle_beta   90.00000000
_cell_angle_gamma   90.00000000
_symmetry_Int_Tables_number   1
_chemical_formula_structural   Ba2Ti(SiO4)2
_chemical_formula_sum   'Ba4 Ti2 Si4 O16'
_cell_volume   381.64551080
_cell_formula_units_Z   2
loop_
 _symmetry_equiv_pos_site_id
 _symmetry_equiv_pos_as_xyz
  1  'x, y, z'
loop_
 _atom_site_type_symbol
 _atom_site_label
 _atom_site_symmetry_multiplicity
 _atom_site_fract_x
 _atom_site_fract_y
 _atom_site_fract_z
 _atom_site_occupancy
  Ba  Ba1  1  0.67282308  0.82717692  0.99155117  1
  Ba  Ba1  1  0.82717692  0.32717692  0.99155117  1
  Ba  Ba1  1  0.17282308  0.67282308  0.99155117  1
  Ba  Ba1  1  0.32717692  0.17282308  0.99155117  1
  Ti  Ti1  1  0.50000000  0.50000000  0.53614793  1
  Ti  Ti1  1  0.00000000  0.00000000  0.53614793  1
  Si  Si1  1  0.87161690  0.62838310  0.50970777  1
  Si  Si1  1  0.62838310  0.12838310  0.50970777  1
  Si  Si1  1  0.37161690  0.87161690  0.50970777  1
  Si  Si1  1  0.12838310  0.37161690  0.50970777  1
  O  O1  1  0.50000000  0.50000000  0.20449158  1
  O  O1  1  0.00000000  0.00000000  0.20449158  1
  O  O2  1  0.07720454  0.20682432  0.64479935  1
  O  O2  1  0.92279546  0.79317568  0.64479935  1
  O  O2  1  0.79317568  0.07720454  0.64479935  1
  O  O2  1  0.20682432  0.92279546  0.64479935  1
  O  O2  1  0.70682432  0.57720454  0.64479935  1
  O  O2  1  0.57720454  0.29317568  0.64479935  1
  O  O2  1  0.42279546  0.70682432  0.64479935  1
  O  O2  1  0.29317568  0.42279546  0.64479935  1
  O  O3  1  0.00000000  0.50000000  0.62815102  1
  O  O3  1  0.50000000  0.00000000  0.62815102  1
  O  O4  1  0.12640404  0.37359596  0.20274761  1
  O  O4  1  0.37359596  0.87359596  0.20274761  1
  O  O4  1  0.62640404  0.12640404  0.20274761  1
  O  O4  1  0.87359596  0.62640404  0.20274761  1
