# generated using pymatgen
data_Ba2YTaO6
_symmetry_space_group_name_H-M   'P 1'
_cell_length_a   5.94197389
_cell_length_b   5.94197389
_cell_length_c   8.45740562
_cell_angle_alpha   90.00000000
_cell_angle_beta   90.00000000
_cell_angle_gamma   90.00000000
_symmetry_Int_Tables_number   1
_chemical_formula_structural   Ba2YTaO6
_chemical_formula_sum   'Ba4 Y2 Ta2 O12'
_cell_volume   298.60607411
_cell_formula_units_Z   2
loop_
 _symmetry_equiv_pos_site_id
 _symmetry_equiv_pos_as_xyz
  1  'x, y, z'
loop_
 _atom_site_type_symbol
 _atom_site_label
 _atom_site_symmetry_multiplicity
 _atom_site_fract_x
 _atom_site_fract_y
 _atom_site_fract_z
 _atom_site_occupancy
  Ba  Ba1  1  0.00000000  0.50000000  0.25000000  1
  Ba  Ba1  1  0.50000000  0.00000000  0.25000000  1
  Y  Y1  1  0.00000000  0.00000000  0.00000000  1
  Ta  Ta1  1  0.50000000  0.50000000  0.00000000  1
  O  O1  1  0.23611902  0.29164026  0.00000000  1
  O  O1  1  0.70835974  0.23611902  0.00000000  1
  O  O1  1  0.29164026  0.76388098  0.00000000  1
  O  O1  1  0.76388098  0.70835974  0.00000000  1
  O  O2  1  0.00000000  0.00000000  0.26360994  1
  O  O2  1  0.50000000  0.50000000  0.23639006  1
  Ba  Ba1  1  0.50000000  0.00000000  0.75000000  1
  Ba  Ba1  1  0.00000000  0.50000000  0.75000000  1
  Y  Y1  1  0.50000000  0.50000000  0.50000000  1
  Ta  Ta1  1  0.00000000  0.00000000  0.50000000  1
  O  O1  1  0.73611902  0.79164026  0.50000000  1
  O  O1  1  0.20835974  0.73611902  0.50000000  1
  O  O1  1  0.79164026  0.26388098  0.50000000  1
  O  O1  1  0.26388098  0.20835974  0.50000000  1
  O  O2  1  0.50000000  0.50000000  0.76360994  1
  O  O2  1  0.00000000  0.00000000  0.73639006  1
