# generated using pymatgen
data_Ba2ZnO3
_symmetry_space_group_name_H-M   'P 1'
_cell_length_a   5.79401617
_cell_length_b   11.31880296
_cell_length_c   12.52305969
_cell_angle_alpha   90.00000000
_cell_angle_beta   93.11393271
_cell_angle_gamma   90.00000000
_symmetry_Int_Tables_number   1
_chemical_formula_structural   Ba2ZnO3
_chemical_formula_sum   'Ba16 Zn8 O24'
_cell_volume   820.06625039
_cell_formula_units_Z   8
loop_
 _symmetry_equiv_pos_site_id
 _symmetry_equiv_pos_as_xyz
  1  'x, y, z'
loop_
 _atom_site_type_symbol
 _atom_site_label
 _atom_site_symmetry_multiplicity
 _atom_site_fract_x
 _atom_site_fract_y
 _atom_site_fract_z
 _atom_site_occupancy
  Ba  Ba1  1  0.76631984  0.20435437  0.15280110  1
  Ba  Ba1  1  0.26631984  0.29564563  0.65280110  1
  Ba  Ba1  1  0.73368016  0.29564563  0.84719890  1
  Ba  Ba1  1  0.23368016  0.20435437  0.34719890  1
  Ba  Ba2  1  0.24276862  0.10375796  0.92515389  1
  Ba  Ba2  1  0.75723138  0.10375796  0.57484611  1
  Ba  Ba2  1  0.25723138  0.39624204  0.07484611  1
  Ba  Ba2  1  0.74276862  0.39624204  0.42515389  1
  Zn  Zn1  1  0.76845628  0.49885869  0.66471892  1
  Zn  Zn1  1  0.73154372  0.00114131  0.33528108  1
  Zn  Zn1  1  0.23154372  0.49885869  0.83528108  1
  Zn  Zn1  1  0.26845628  0.00114131  0.16471892  1
  O  O1  1  0.77042718  0.09762361  0.96288105  1
  O  O1  1  0.22957282  0.09762361  0.53711895  1
  O  O1  1  0.72957282  0.40237639  0.03711895  1
  O  O1  1  0.27042718  0.40237639  0.46288105  1
  O  O2  1  0.50000000  0.49796597  0.75000000  1
  O  O2  1  0.00000000  0.00203403  0.25000000  1
  O  O3  1  0.50000000  0.09014303  0.75000000  1
  O  O4  1  0.68485362  0.16843520  0.36618675  1
  O  O4  1  0.18485362  0.33156480  0.86618675  1
  O  O4  1  0.81514638  0.33156480  0.63381325  1
  O  O4  1  0.31514638  0.16843520  0.13381325  1
  O  O3  1  0.00000000  0.40985697  0.25000000  1
  Ba  Ba1  1  0.26631984  0.70435437  0.15280110  1
  Ba  Ba1  1  0.76631984  0.79564563  0.65280110  1
  Ba  Ba1  1  0.23368016  0.79564563  0.84719890  1
  Ba  Ba1  1  0.73368016  0.70435437  0.34719890  1
  Ba  Ba2  1  0.74276862  0.60375796  0.92515389  1
  Ba  Ba2  1  0.25723138  0.60375796  0.57484611  1
  Ba  Ba2  1  0.75723138  0.89624204  0.07484611  1
  Ba  Ba2  1  0.24276862  0.89624204  0.42515389  1
  Zn  Zn1  1  0.26845628  0.99885869  0.66471892  1
  Zn  Zn1  1  0.23154372  0.50114131  0.33528108  1
  Zn  Zn1  1  0.73154372  0.99885869  0.83528108  1
  Zn  Zn1  1  0.76845628  0.50114131  0.16471892  1
  O  O1  1  0.27042718  0.59762361  0.96288105  1
  O  O1  1  0.72957282  0.59762361  0.53711895  1
  O  O1  1  0.22957282  0.90237639  0.03711895  1
  O  O1  1  0.77042718  0.90237639  0.46288105  1
  O  O2  1  0.00000000  0.99796597  0.75000000  1
  O  O2  1  0.50000000  0.50203403  0.25000000  1
  O  O3  1  0.00000000  0.59014303  0.75000000  1
  O  O4  1  0.18485362  0.66843520  0.36618675  1
  O  O4  1  0.68485362  0.83156480  0.86618675  1
  O  O4  1  0.31514638  0.83156480  0.63381325  1
  O  O4  1  0.81514638  0.66843520  0.13381325  1
  O  O3  1  0.50000000  0.90985697  0.25000000  1
