# generated using pymatgen
data_Ba2ZnGe2O7
_symmetry_space_group_name_H-M   'P 1'
_cell_length_a   8.33553390
_cell_length_b   8.33553390
_cell_length_c   5.59518527
_cell_angle_alpha   90.00000000
_cell_angle_beta   90.00000000
_cell_angle_gamma   90.00000000
_symmetry_Int_Tables_number   1
_chemical_formula_structural   Ba2ZnGe2O7
_chemical_formula_sum   'Ba4 Zn2 Ge4 O14'
_cell_volume   388.75976937
_cell_formula_units_Z   2
loop_
 _symmetry_equiv_pos_site_id
 _symmetry_equiv_pos_as_xyz
  1  'x, y, z'
loop_
 _atom_site_type_symbol
 _atom_site_label
 _atom_site_symmetry_multiplicity
 _atom_site_fract_x
 _atom_site_fract_y
 _atom_site_fract_z
 _atom_site_occupancy
  Ba  Ba1  1  0.33510248  0.83510248  0.50816695  1
  Ba  Ba1  1  0.16489752  0.33510248  0.49183305  1
  Ba  Ba1  1  0.66489752  0.16489752  0.50816695  1
  Ba  Ba1  1  0.83510248  0.66489752  0.49183305  1
  Zn  Zn1  1  0.50000000  0.50000000  0.00000000  1
  Zn  Zn1  1  0.00000000  0.00000000  0.00000000  1
  Ge  Ge1  1  0.14286696  0.64286696  0.96350602  1
  Ge  Ge1  1  0.35713304  0.14286696  0.03649398  1
  Ge  Ge1  1  0.85713304  0.35713304  0.96350602  1
  Ge  Ge1  1  0.64286696  0.85713304  0.03649398  1
  O  O1  1  0.50000000  0.00000000  0.16388588  1
  O  O1  1  0.00000000  0.50000000  0.83611412  1
  O  O2  1  0.13771534  0.63771534  0.27709349  1
  O  O2  1  0.36228466  0.13771534  0.72290651  1
  O  O2  1  0.86228466  0.36228466  0.27709349  1
  O  O2  1  0.63771534  0.86228466  0.72290651  1
  O  O3  1  0.32209096  0.57999774  0.81322627  1
  O  O3  1  0.17790904  0.07999774  0.18677373  1
  O  O3  1  0.67790904  0.42000226  0.81322627  1
  O  O3  1  0.82209096  0.92000226  0.18677373  1
  O  O3  1  0.57999774  0.67790904  0.18677373  1
  O  O3  1  0.92000226  0.17790904  0.81322627  1
  O  O3  1  0.42000226  0.32209096  0.18677373  1
  O  O3  1  0.07999774  0.82209096  0.81322627  1
