# generated using pymatgen
data_Ba2ZnSi2O7
_symmetry_space_group_name_H-M   'P 1'
_cell_length_a   8.39439179
_cell_length_b   10.72957636
_cell_length_c   8.39026654
_cell_angle_alpha   90.00000000
_cell_angle_beta   110.93437066
_cell_angle_gamma   90.00000000
_symmetry_Int_Tables_number   1
_chemical_formula_structural   Ba2ZnSi2O7
_chemical_formula_sum   'Ba8 Zn4 Si8 O28'
_cell_volume   705.81345957
_cell_formula_units_Z   4
loop_
 _symmetry_equiv_pos_site_id
 _symmetry_equiv_pos_as_xyz
  1  'x, y, z'
loop_
 _atom_site_type_symbol
 _atom_site_label
 _atom_site_symmetry_multiplicity
 _atom_site_fract_x
 _atom_site_fract_y
 _atom_site_fract_z
 _atom_site_occupancy
  Ba  Ba1  1  0.77283770  0.04282676  0.02597842  1
  Ba  Ba1  1  0.77283770  0.95717324  0.52597842  1
  Ba  Ba1  1  0.22716230  0.04282676  0.47402158  1
  Ba  Ba1  1  0.22716230  0.95717324  0.97402158  1
  Zn  Zn1  1  0.50000000  0.24227436  0.25000000  1
  Zn  Zn1  1  0.50000000  0.75772564  0.75000000  1
  Si  Si1  1  0.38500966  0.78069614  0.36386452  1
  Si  Si1  1  0.61499034  0.78069614  0.13613548  1
  Si  Si1  1  0.61499034  0.21930386  0.63613548  1
  Si  Si1  1  0.38500966  0.21930386  0.86386452  1
  O  O1  1  0.52891300  0.85183802  0.95208548  1
  O  O2  1  0.19594618  0.15801628  0.76497586  1
  O  O3  1  0.39149138  0.63021342  0.36696836  1
  O  O3  1  0.60850862  0.63021342  0.13303164  1
  O  O4  1  0.50000000  0.83507334  0.25000000  1
  O  O2  1  0.80405382  0.84198372  0.23502414  1
  O  O4  1  0.50000000  0.16492666  0.75000000  1
  O  O2  1  0.19594618  0.84198372  0.26497586  1
  O  O1  1  0.52891300  0.14816198  0.45208548  1
  O  O3  1  0.60850862  0.36978658  0.63303164  1
  O  O1  1  0.47108700  0.14816198  0.04791452  1
  O  O3  1  0.39149138  0.36978658  0.86696836  1
  O  O2  1  0.80405382  0.15801628  0.73502414  1
  O  O1  1  0.47108700  0.85183802  0.54791452  1
  Ba  Ba1  1  0.27283770  0.54282676  0.02597842  1
  Ba  Ba1  1  0.27283770  0.45717324  0.52597842  1
  Ba  Ba1  1  0.72716230  0.54282676  0.47402158  1
  Ba  Ba1  1  0.72716230  0.45717324  0.97402158  1
  Zn  Zn1  1  0.00000000  0.74227436  0.25000000  1
  Zn  Zn1  1  0.00000000  0.25772564  0.75000000  1
  Si  Si1  1  0.88500966  0.28069614  0.36386452  1
  Si  Si1  1  0.11499034  0.28069614  0.13613548  1
  Si  Si1  1  0.11499034  0.71930386  0.63613548  1
  Si  Si1  1  0.88500966  0.71930386  0.86386452  1
  O  O1  1  0.02891300  0.35183802  0.95208548  1
  O  O2  1  0.69594618  0.65801628  0.76497586  1
  O  O3  1  0.89149138  0.13021342  0.36696836  1
  O  O3  1  0.10850862  0.13021342  0.13303164  1
  O  O4  1  0.00000000  0.33507334  0.25000000  1
  O  O2  1  0.30405382  0.34198372  0.23502414  1
  O  O4  1  0.00000000  0.66492666  0.75000000  1
  O  O2  1  0.69594618  0.34198372  0.26497586  1
  O  O1  1  0.02891300  0.64816198  0.45208548  1
  O  O3  1  0.10850862  0.86978658  0.63303164  1
  O  O1  1  0.97108700  0.64816198  0.04791452  1
  O  O3  1  0.89149138  0.86978658  0.86696836  1
  O  O2  1  0.30405382  0.65801628  0.73502414  1
  O  O1  1  0.97108700  0.35183802  0.54791452  1
