# generated using pymatgen
data_Ba3(AsO4)2
_symmetry_space_group_name_H-M   'P 1'
_cell_length_a   5.77377089
_cell_length_b   5.77377089
_cell_length_c   21.30866974
_cell_angle_alpha   90.00000000
_cell_angle_beta   90.00000000
_cell_angle_gamma   120.00000000
_symmetry_Int_Tables_number   1
_chemical_formula_structural   Ba3(AsO4)2
_chemical_formula_sum   'Ba9 As6 O24'
_cell_volume   615.18546130
_cell_formula_units_Z   3
loop_
 _symmetry_equiv_pos_site_id
 _symmetry_equiv_pos_as_xyz
  1  'x, y, z'
loop_
 _atom_site_type_symbol
 _atom_site_label
 _atom_site_symmetry_multiplicity
 _atom_site_fract_x
 _atom_site_fract_y
 _atom_site_fract_z
 _atom_site_occupancy
  Ba  Ba1  1  0.00000000  0.00000000  0.79394035  1
  Ba  Ba1  1  0.33333333  0.66666667  0.87272632  1
  Ba  Ba2  1  0.00000000  0.00000000  0.00000000  1
  As  As1  1  0.66666667  0.33333333  0.92592350  1
  As  As1  1  0.66666667  0.33333333  0.74074316  1
  O  O1  1  0.00000000  0.00000000  0.67267853  1
  O  O1  1  0.33333333  0.66666667  0.99398814  1
  O  O2  1  0.82855119  0.65710237  0.89869260  1
  O  O2  1  0.34289763  0.17144881  0.89869260  1
  O  O2  1  0.82855119  0.17144881  0.89869260  1
  O  O2  1  0.99043571  0.49521785  0.76797406  1
  O  O2  1  0.50478215  0.00956429  0.76797406  1
  O  O2  1  0.50478215  0.49521785  0.76797406  1
  Ba  Ba1  1  0.66666667  0.33333333  0.12727368  1
  Ba  Ba1  1  0.00000000  0.00000000  0.20605965  1
  Ba  Ba2  1  0.66666667  0.33333333  0.33333333  1
  As  As1  1  0.33333333  0.66666667  0.25925684  1
  As  As1  1  0.33333333  0.66666667  0.07407650  1
  O  O1  1  0.66666667  0.33333333  0.00601186  1
  O  O1  1  0.00000000  0.00000000  0.32732147  1
  O  O2  1  0.49521785  0.99043571  0.23202594  1
  O  O2  1  0.00956429  0.50478215  0.23202594  1
  O  O2  1  0.49521785  0.50478215  0.23202594  1
  O  O2  1  0.65710237  0.82855119  0.10130740  1
  O  O2  1  0.17144881  0.34289763  0.10130740  1
  O  O2  1  0.17144881  0.82855119  0.10130740  1
  Ba  Ba1  1  0.33333333  0.66666667  0.46060701  1
  Ba  Ba1  1  0.66666667  0.33333333  0.53939299  1
  Ba  Ba2  1  0.33333333  0.66666667  0.66666667  1
  As  As1  1  0.00000000  0.00000000  0.59259017  1
  As  As1  1  0.00000000  0.00000000  0.40740983  1
  O  O1  1  0.33333333  0.66666667  0.33934519  1
  O  O1  1  0.66666667  0.33333333  0.66065481  1
  O  O2  1  0.16188452  0.32376904  0.56535927  1
  O  O2  1  0.67623096  0.83811548  0.56535927  1
  O  O2  1  0.16188452  0.83811548  0.56535927  1
  O  O2  1  0.32376904  0.16188452  0.43464073  1
  O  O2  1  0.83811548  0.67623096  0.43464073  1
  O  O2  1  0.83811548  0.16188452  0.43464073  1
