# generated using pymatgen
data_Ba3CaTa2O9
_symmetry_space_group_name_H-M   'P 1'
_cell_length_a   5.89003092
_cell_length_b   5.89003092
_cell_length_c   7.27267643
_cell_angle_alpha   90.00000000
_cell_angle_beta   90.00000000
_cell_angle_gamma   120.00000000
_symmetry_Int_Tables_number   1
_chemical_formula_structural   Ba3CaTa2O9
_chemical_formula_sum   'Ba3 Ca1 Ta2 O9'
_cell_volume   218.50432964
_cell_formula_units_Z   1
loop_
 _symmetry_equiv_pos_site_id
 _symmetry_equiv_pos_as_xyz
  1  'x, y, z'
loop_
 _atom_site_type_symbol
 _atom_site_label
 _atom_site_symmetry_multiplicity
 _atom_site_fract_x
 _atom_site_fract_y
 _atom_site_fract_z
 _atom_site_occupancy
  Ba  Ba1  1  0.33333333  0.66666667  0.33393672  1
  Ba  Ba1  1  0.66666667  0.33333333  0.66606328  1
  Ba  Ba2  1  0.00000000  0.00000000  0.00000000  1
  Ca  Ca1  1  0.00000000  0.00000000  0.50000000  1
  Ta  Ta1  1  0.33333333  0.66666667  0.83224264  1
  Ta  Ta1  1  0.66666667  0.33333333  0.16775736  1
  O  O1  1  0.35272806  0.17636403  0.31401458  1
  O  O1  1  0.64727194  0.82363597  0.68598542  1
  O  O2  1  0.00000000  0.50000000  0.00000000  1
  O  O2  1  0.50000000  0.00000000  0.00000000  1
  O  O1  1  0.82363597  0.64727194  0.31401458  1
  O  O1  1  0.17636403  0.35272806  0.68598542  1
  O  O1  1  0.82363597  0.17636403  0.31401458  1
  O  O1  1  0.17636403  0.82363597  0.68598542  1
  O  O2  1  0.50000000  0.50000000  0.00000000  1
