# generated using pymatgen
data_Ba3Hf2O7
_symmetry_space_group_name_H-M   'P 1'
_cell_length_a   4.15537517
_cell_length_b   4.15537517
_cell_length_c   21.72892748
_cell_angle_alpha   90.00000000
_cell_angle_beta   90.00000000
_cell_angle_gamma   90.00000000
_symmetry_Int_Tables_number   1
_chemical_formula_structural   Ba3Hf2O7
_chemical_formula_sum   'Ba6 Hf4 O14'
_cell_volume   375.19649434
_cell_formula_units_Z   2
loop_
 _symmetry_equiv_pos_site_id
 _symmetry_equiv_pos_as_xyz
  1  'x, y, z'
loop_
 _atom_site_type_symbol
 _atom_site_label
 _atom_site_symmetry_multiplicity
 _atom_site_fract_x
 _atom_site_fract_y
 _atom_site_fract_z
 _atom_site_occupancy
  Ba  Ba1  1  0.50000000  0.50000000  0.00000000  1
  Ba  Ba2  1  0.00000000  0.00000000  0.68569445  1
  Ba  Ba2  1  0.50000000  0.50000000  0.81430555  1
  Hf  Hf1  1  0.00000000  0.00000000  0.90326265  1
  Hf  Hf1  1  0.50000000  0.50000000  0.59673735  1
  O  O1  1  0.00000000  0.00000000  0.00000000  1
  O  O2  1  0.00000000  0.50000000  0.59567524  1
  O  O2  1  0.00000000  0.50000000  0.90432476  1
  O  O3  1  0.00000000  0.00000000  0.80790260  1
  O  O3  1  0.50000000  0.50000000  0.69209740  1
  O  O2  1  0.50000000  0.00000000  0.59567524  1
  O  O2  1  0.50000000  0.00000000  0.90432476  1
  Ba  Ba1  1  0.00000000  0.00000000  0.50000000  1
  Ba  Ba2  1  0.50000000  0.50000000  0.18569445  1
  Ba  Ba2  1  0.00000000  0.00000000  0.31430555  1
  Hf  Hf1  1  0.50000000  0.50000000  0.40326265  1
  Hf  Hf1  1  0.00000000  0.00000000  0.09673735  1
  O  O1  1  0.50000000  0.50000000  0.50000000  1
  O  O2  1  0.50000000  0.00000000  0.09567524  1
  O  O2  1  0.50000000  0.00000000  0.40432476  1
  O  O3  1  0.50000000  0.50000000  0.30790260  1
  O  O3  1  0.00000000  0.00000000  0.19209740  1
  O  O2  1  0.00000000  0.50000000  0.09567524  1
  O  O2  1  0.00000000  0.50000000  0.40432476  1
