# generated using pymatgen
data_Ba3MgSb2O9
_symmetry_space_group_name_H-M   'P 1'
_cell_length_a   5.85017011
_cell_length_b   5.85017011
_cell_length_c   14.47119796
_cell_angle_alpha   90.00000000
_cell_angle_beta   90.00000000
_cell_angle_gamma   120.00000000
_symmetry_Int_Tables_number   1
_chemical_formula_structural   Ba3MgSb2O9
_chemical_formula_sum   'Ba6 Mg2 Sb4 O18'
_cell_volume   428.91585949
_cell_formula_units_Z   2
loop_
 _symmetry_equiv_pos_site_id
 _symmetry_equiv_pos_as_xyz
  1  'x, y, z'
loop_
 _atom_site_type_symbol
 _atom_site_label
 _atom_site_symmetry_multiplicity
 _atom_site_fract_x
 _atom_site_fract_y
 _atom_site_fract_z
 _atom_site_occupancy
  Ba  Ba1  1  0.66666667  0.33333333  0.58812249  1
  Ba  Ba1  1  0.33333333  0.66666667  0.08812249  1
  Ba  Ba1  1  0.33333333  0.66666667  0.41187751  1
  Ba  Ba1  1  0.66666667  0.33333333  0.91187751  1
  Ba  Ba2  1  0.00000000  0.00000000  0.75000000  1
  Ba  Ba2  1  0.00000000  0.00000000  0.25000000  1
  Mg  Mg1  1  0.00000000  0.00000000  0.00000000  1
  Mg  Mg1  1  0.00000000  0.00000000  0.50000000  1
  Sb  Sb1  1  0.33333333  0.66666667  0.65130761  1
  Sb  Sb1  1  0.66666667  0.33333333  0.15130761  1
  Sb  Sb1  1  0.33333333  0.66666667  0.84869239  1
  Sb  Sb1  1  0.66666667  0.33333333  0.34869239  1
  O  O1  1  0.83190937  0.66381873  0.08333463  1
  O  O1  1  0.33618127  0.16809063  0.08333463  1
  O  O1  1  0.83190937  0.16809063  0.08333463  1
  O  O1  1  0.16809063  0.83190937  0.58333463  1
  O  O1  1  0.66381873  0.83190937  0.91666537  1
  O  O1  1  0.16809063  0.33618127  0.58333463  1
  O  O1  1  0.66381873  0.83190937  0.58333463  1
  O  O1  1  0.83190937  0.66381873  0.41666537  1
  O  O1  1  0.83190937  0.16809063  0.41666537  1
  O  O1  1  0.16809063  0.83190937  0.91666537  1
  O  O1  1  0.16809063  0.33618127  0.91666537  1
  O  O1  1  0.33618127  0.16809063  0.41666537  1
  O  O2  1  0.96584113  0.48292057  0.25000000  1
  O  O2  1  0.48292057  0.96584113  0.75000000  1
  O  O2  1  0.48292057  0.51707943  0.75000000  1
  O  O2  1  0.51707943  0.48292057  0.25000000  1
  O  O2  1  0.51707943  0.03415887  0.25000000  1
  O  O2  1  0.03415887  0.51707943  0.75000000  1
