# generated using pymatgen
data_Ba3MgTaNbO9
_symmetry_space_group_name_H-M   'P 1'
_cell_length_a   5.77879356
_cell_length_b   5.77879356
_cell_length_c   7.09684348
_cell_angle_alpha   90.00000000
_cell_angle_beta   90.00000000
_cell_angle_gamma   120.00000000
_symmetry_Int_Tables_number   1
_chemical_formula_structural   Ba3MgTaNbO9
_chemical_formula_sum   'Ba3 Mg1 Ta1 Nb1 O9'
_cell_volume   205.24388150
_cell_formula_units_Z   1
loop_
 _symmetry_equiv_pos_site_id
 _symmetry_equiv_pos_as_xyz
  1  'x, y, z'
loop_
 _atom_site_type_symbol
 _atom_site_label
 _atom_site_symmetry_multiplicity
 _atom_site_fract_x
 _atom_site_fract_y
 _atom_site_fract_z
 _atom_site_occupancy
  Ba  Ba1  1  0.33333333  0.66666667  0.99893610  1
  Ba  Ba2  1  0.66666667  0.33333333  0.33650794  1
  Ba  Ba3  1  0.00000000  0.00000000  0.66628790  1
  Mg  Mg1  1  0.33333333  0.66666667  0.50261034  1
  Ta  Ta1  1  0.66666667  0.33333333  0.82327562  1
  Nb  Nb1  1  0.00000000  0.00000000  0.17879100  1
  O  O1  1  0.50455390  0.00910781  0.67352186  1
  O  O1  1  0.50455390  0.49544610  0.67352186  1
  O  O1  1  0.99089219  0.49544610  0.67352186  1
  O  O2  1  0.16298721  0.32597442  0.32593174  1
  O  O2  1  0.16298721  0.83701279  0.32593174  1
  O  O2  1  0.67402558  0.83701279  0.32593174  1
  O  O3  1  0.83219006  0.16780994  0.99841108  1
  O  O3  1  0.33561987  0.16780994  0.99841108  1
  O  O3  1  0.83219006  0.66438013  0.99841108  1
