# generated using pymatgen
data_Ba3MgTa2O9
_symmetry_space_group_name_H-M   'P 1'
_cell_length_a   5.76767846
_cell_length_b   5.76767846
_cell_length_c   7.08703491
_cell_angle_alpha   90.00000000
_cell_angle_beta   90.00000000
_cell_angle_gamma   120.00000000
_symmetry_Int_Tables_number   1
_chemical_formula_structural   Ba3MgTa2O9
_chemical_formula_sum   'Ba3 Mg1 Ta2 O9'
_cell_volume   204.17251836
_cell_formula_units_Z   1
loop_
 _symmetry_equiv_pos_site_id
 _symmetry_equiv_pos_as_xyz
  1  'x, y, z'
loop_
 _atom_site_type_symbol
 _atom_site_label
 _atom_site_symmetry_multiplicity
 _atom_site_fract_x
 _atom_site_fract_y
 _atom_site_fract_z
 _atom_site_occupancy
  Ba  Ba1  1  0.66666667  0.33333333  0.66305610  1
  Ba  Ba2  1  0.00000000  0.00000000  0.00000000  1
  Ba  Ba1  1  0.33333333  0.66666667  0.33694390  1
  Mg  Mg1  1  0.00000000  0.00000000  0.50000000  1
  Ta  Ta1  1  0.66666667  0.33333333  0.17640586  1
  Ta  Ta1  1  0.33333333  0.66666667  0.82359414  1
  O  O1  1  0.65764864  0.82882432  0.67464418  1
  O  O1  1  0.17117568  0.82882432  0.67464418  1
  O  O1  1  0.17117568  0.34235136  0.67464418  1
  O  O1  1  0.82882432  0.65764864  0.32535582  1
  O  O1  1  0.82882432  0.17117568  0.32535582  1
  O  O1  1  0.34235136  0.17117568  0.32535582  1
  O  O2  1  0.50000000  0.50000000  0.00000000  1
  O  O2  1  0.50000000  0.00000000  0.00000000  1
  O  O2  1  0.00000000  0.50000000  0.00000000  1
