# generated using pymatgen
data_Ba3NaSbO6
_symmetry_space_group_name_H-M   'P 1'
_cell_length_a   10.25332470
_cell_length_b   10.25332470
_cell_length_c   11.94390364
_cell_angle_alpha   90.00000000
_cell_angle_beta   90.00000000
_cell_angle_gamma   120.00000000
_symmetry_Int_Tables_number   1
_chemical_formula_structural   Ba3NaSbO6
_chemical_formula_sum   'Ba18 Na6 Sb6 O36'
_cell_volume   1087.44260468
_cell_formula_units_Z   6
loop_
 _symmetry_equiv_pos_site_id
 _symmetry_equiv_pos_as_xyz
  1  'x, y, z'
loop_
 _atom_site_type_symbol
 _atom_site_label
 _atom_site_symmetry_multiplicity
 _atom_site_fract_x
 _atom_site_fract_y
 _atom_site_fract_z
 _atom_site_occupancy
  Ba  Ba1  1  0.01773527  0.33333333  0.58333333  1
  Ba  Ba1  1  0.66666667  0.68440194  0.58333333  1
  Ba  Ba1  1  0.31559806  0.98226473  0.58333333  1
  Ba  Ba1  1  0.68440194  0.01773527  0.41666667  1
  Ba  Ba1  1  0.98226473  0.66666667  0.41666667  1
  Ba  Ba1  1  0.33333333  0.31559806  0.41666667  1
  Na  Na1  1  0.00000000  0.00000000  0.25000000  1
  Na  Na1  1  0.00000000  0.00000000  0.75000000  1
  Sb  Sb1  1  0.00000000  0.00000000  0.00000000  1
  Sb  Sb1  1  0.00000000  0.00000000  0.50000000  1
  O  O1  1  0.64945444  0.48451709  0.43314160  1
  O  O1  1  0.51548291  0.16493735  0.43314160  1
  O  O1  1  0.83506265  0.35054556  0.43314160  1
  O  O1  1  0.98278778  0.83160402  0.59980827  1
  O  O1  1  0.16839598  0.15118376  0.59980827  1
  O  O1  1  0.84881624  0.01721222  0.59980827  1
  O  O1  1  0.35054556  0.51548291  0.56685840  1
  O  O1  1  0.48451709  0.83506265  0.56685840  1
  O  O1  1  0.16493735  0.64945444  0.56685840  1
  O  O1  1  0.01721222  0.16839598  0.40019173  1
  O  O1  1  0.83160402  0.84881624  0.40019173  1
  O  O1  1  0.15118376  0.98278778  0.40019173  1
  Ba  Ba1  1  0.68440194  0.66666667  0.91666667  1
  Ba  Ba1  1  0.33333333  0.01773527  0.91666667  1
  Ba  Ba1  1  0.98226473  0.31559806  0.91666667  1
  Ba  Ba1  1  0.35106860  0.35106860  0.75000000  1
  Ba  Ba1  1  0.64893140  0.00000000  0.75000000  1
  Ba  Ba1  1  0.00000000  0.64893140  0.75000000  1
  Na  Na1  1  0.66666667  0.33333333  0.58333333  1
  Na  Na1  1  0.66666667  0.33333333  0.08333333  1
  Sb  Sb1  1  0.66666667  0.33333333  0.33333333  1
  Sb  Sb1  1  0.66666667  0.33333333  0.83333333  1
  O  O1  1  0.31612111  0.81785042  0.76647493  1
  O  O1  1  0.18214958  0.49827069  0.76647493  1
  O  O1  1  0.50172931  0.68387889  0.76647493  1
  O  O1  1  0.64945444  0.16493735  0.93314160  1
  O  O1  1  0.83506265  0.48451709  0.93314160  1
  O  O1  1  0.51548291  0.35054556  0.93314160  1
  O  O1  1  0.01721222  0.84881624  0.90019173  1
  O  O1  1  0.15118376  0.16839598  0.90019173  1
  O  O1  1  0.83160402  0.98278778  0.90019173  1
  O  O1  1  0.68387889  0.50172931  0.73352507  1
  O  O1  1  0.49827069  0.18214958  0.73352507  1
  O  O1  1  0.81785042  0.31612111  0.73352507  1
  Ba  Ba1  1  0.35106860  0.00000000  0.25000000  1
  Ba  Ba1  1  0.00000000  0.35106860  0.25000000  1
  Ba  Ba1  1  0.64893140  0.64893140  0.25000000  1
  Ba  Ba1  1  0.01773527  0.68440194  0.08333333  1
  Ba  Ba1  1  0.31559806  0.33333333  0.08333333  1
  Ba  Ba1  1  0.66666667  0.98226473  0.08333333  1
  Na  Na1  1  0.33333333  0.66666667  0.91666667  1
  Na  Na1  1  0.33333333  0.66666667  0.41666667  1
  Sb  Sb1  1  0.33333333  0.66666667  0.66666667  1
  Sb  Sb1  1  0.33333333  0.66666667  0.16666667  1
  O  O1  1  0.98278778  0.15118376  0.09980827  1
  O  O1  1  0.84881624  0.83160402  0.09980827  1
  O  O1  1  0.16839598  0.01721222  0.09980827  1
  O  O1  1  0.31612111  0.49827069  0.26647493  1
  O  O1  1  0.50172931  0.81785042  0.26647493  1
  O  O1  1  0.18214958  0.68387889  0.26647493  1
  O  O1  1  0.68387889  0.18214958  0.23352507  1
  O  O1  1  0.81785042  0.50172931  0.23352507  1
  O  O1  1  0.49827069  0.31612111  0.23352507  1
  O  O1  1  0.35054556  0.83506265  0.06685840  1
  O  O1  1  0.16493735  0.51548291  0.06685840  1
  O  O1  1  0.48451709  0.64945444  0.06685840  1
