# generated using pymatgen
data_Ba3NaBiO6
_symmetry_space_group_name_H-M   'P 1'
_cell_length_a   10.40503989
_cell_length_b   10.40503989
_cell_length_c   12.12400124
_cell_angle_alpha   90.00000000
_cell_angle_beta   90.00000000
_cell_angle_gamma   120.00000000
_symmetry_Int_Tables_number   1
_chemical_formula_structural   Ba3NaBiO6
_chemical_formula_sum   'Ba18 Na6 Bi6 O36'
_cell_volume   1136.74774888
_cell_formula_units_Z   6
loop_
 _symmetry_equiv_pos_site_id
 _symmetry_equiv_pos_as_xyz
  1  'x, y, z'
loop_
 _atom_site_type_symbol
 _atom_site_label
 _atom_site_symmetry_multiplicity
 _atom_site_fract_x
 _atom_site_fract_y
 _atom_site_fract_z
 _atom_site_occupancy
  Ba  Ba1  1  0.31472667  0.33333333  0.58333333  1
  Ba  Ba1  1  0.68527333  0.66666667  0.41666667  1
  Ba  Ba1  1  0.01860666  0.68527333  0.58333333  1
  Ba  Ba1  1  0.33333333  0.01860666  0.41666667  1
  Ba  Ba1  1  0.98139334  0.31472667  0.41666667  1
  Ba  Ba1  1  0.66666667  0.98139334  0.58333333  1
  Na  Na1  1  0.00000000  0.00000000  0.75000000  1
  Na  Na1  1  0.00000000  0.00000000  0.25000000  1
  Bi  Bi1  1  0.00000000  0.00000000  0.00000000  1
  Bi  Bi1  1  0.00000000  0.00000000  0.50000000  1
  O  O1  1  0.35447038  0.84329425  0.56279662  1
  O  O1  1  0.15670575  0.51117613  0.56279662  1
  O  O1  1  0.51117613  0.35447038  0.43720338  1
  O  O1  1  0.48882387  0.64552962  0.56279662  1
  O  O1  1  0.97886295  0.15549053  0.60387005  1
  O  O1  1  0.17662758  0.02113705  0.60387005  1
  O  O1  1  0.64552962  0.15670575  0.43720338  1
  O  O1  1  0.84329425  0.48882387  0.43720338  1
  O  O1  1  0.15549053  0.17662758  0.39612995  1
  O  O1  1  0.02113705  0.84450947  0.39612995  1
  O  O1  1  0.82337242  0.97886295  0.39612995  1
  O  O1  1  0.84450947  0.82337242  0.60387005  1
  Ba  Ba1  1  0.98139334  0.66666667  0.91666667  1
  Ba  Ba1  1  0.35194000  0.00000000  0.75000000  1
  Ba  Ba1  1  0.68527333  0.01860666  0.91666667  1
  Ba  Ba1  1  0.00000000  0.35194000  0.75000000  1
  Ba  Ba1  1  0.64806000  0.64806000  0.75000000  1
  Ba  Ba1  1  0.33333333  0.31472667  0.91666667  1
  Na  Na1  1  0.66666667  0.33333333  0.08333333  1
  Na  Na1  1  0.66666667  0.33333333  0.58333333  1
  Bi  Bi1  1  0.66666667  0.33333333  0.33333333  1
  Bi  Bi1  1  0.66666667  0.33333333  0.83333333  1
  O  O1  1  0.02113705  0.17662758  0.89612995  1
  O  O1  1  0.82337242  0.84450947  0.89612995  1
  O  O1  1  0.17784280  0.68780371  0.77053671  1
  O  O1  1  0.15549053  0.97886295  0.89612995  1
  O  O1  1  0.64552962  0.48882387  0.93720338  1
  O  O1  1  0.84329425  0.35447038  0.93720338  1
  O  O1  1  0.31219629  0.49003909  0.77053671  1
  O  O1  1  0.50996091  0.82215720  0.77053671  1
  O  O1  1  0.82215720  0.50996091  0.72946329  1
  O  O1  1  0.68780371  0.17784280  0.72946329  1
  O  O1  1  0.49003909  0.31219629  0.72946329  1
  O  O1  1  0.51117613  0.15670575  0.93720338  1
  Ba  Ba1  1  0.64806000  0.00000000  0.25000000  1
  Ba  Ba1  1  0.01860666  0.33333333  0.08333333  1
  Ba  Ba1  1  0.35194000  0.35194000  0.25000000  1
  Ba  Ba1  1  0.66666667  0.68527333  0.08333333  1
  Ba  Ba1  1  0.31472667  0.98139334  0.08333333  1
  Ba  Ba1  1  0.00000000  0.64806000  0.25000000  1
  Na  Na1  1  0.33333333  0.66666667  0.41666667  1
  Na  Na1  1  0.33333333  0.66666667  0.91666667  1
  Bi  Bi1  1  0.33333333  0.66666667  0.66666667  1
  Bi  Bi1  1  0.33333333  0.66666667  0.16666667  1
  O  O1  1  0.68780371  0.50996091  0.22946329  1
  O  O1  1  0.49003909  0.17784280  0.22946329  1
  O  O1  1  0.84450947  0.02113705  0.10387005  1
  O  O1  1  0.82215720  0.31219629  0.22946329  1
  O  O1  1  0.31219629  0.82215720  0.27053671  1
  O  O1  1  0.50996091  0.68780371  0.27053671  1
  O  O1  1  0.97886295  0.82337242  0.10387005  1
  O  O1  1  0.17662758  0.15549053  0.10387005  1
  O  O1  1  0.48882387  0.84329425  0.06279662  1
  O  O1  1  0.35447038  0.51117613  0.06279662  1
  O  O1  1  0.15670575  0.64552962  0.06279662  1
  O  O1  1  0.17784280  0.49003909  0.27053671  1
