# generated using pymatgen
data_Ba3Nb2CdO9
_symmetry_space_group_name_H-M   'P 1'
_cell_length_a   5.89786444
_cell_length_b   5.89786444
_cell_length_c   7.28402956
_cell_angle_alpha   90.00000000
_cell_angle_beta   90.00000000
_cell_angle_gamma   120.00000000
_symmetry_Int_Tables_number   1
_chemical_formula_structural   Ba3Nb2CdO9
_chemical_formula_sum   'Ba3 Nb2 Cd1 O9'
_cell_volume   219.42792879
_cell_formula_units_Z   1
loop_
 _symmetry_equiv_pos_site_id
 _symmetry_equiv_pos_as_xyz
  1  'x, y, z'
loop_
 _atom_site_type_symbol
 _atom_site_label
 _atom_site_symmetry_multiplicity
 _atom_site_fract_x
 _atom_site_fract_y
 _atom_site_fract_z
 _atom_site_occupancy
  Ba  Ba1  1  0.00000000  0.00000000  0.00000000  1
  Ba  Ba2  1  0.66666667  0.33333333  0.66684054  1
  Ba  Ba2  1  0.33333333  0.66666667  0.33315946  1
  Nb  Nb1  1  0.66666667  0.33333333  0.16955836  1
  Nb  Nb1  1  0.33333333  0.66666667  0.83044164  1
  Cd  Cd1  1  0.00000000  0.00000000  0.50000000  1
  O  O1  1  0.35081414  0.17540707  0.31507282  1
  O  O1  1  0.64918586  0.82459293  0.68492718  1
  O  O1  1  0.82459293  0.17540707  0.31507282  1
  O  O1  1  0.17540707  0.82459293  0.68492718  1
  O  O1  1  0.82459293  0.64918586  0.31507282  1
  O  O1  1  0.17540707  0.35081414  0.68492718  1
  O  O2  1  0.50000000  0.50000000  0.00000000  1
  O  O2  1  0.50000000  0.00000000  0.00000000  1
  O  O2  1  0.00000000  0.50000000  0.00000000  1
