# generated using pymatgen
data_Ba3NbGa3(SiO7)2
_symmetry_space_group_name_H-M   'P 1'
_cell_length_a   8.53873506
_cell_length_b   8.53873506
_cell_length_c   5.20737846
_cell_angle_alpha   90.00000000
_cell_angle_beta   90.00000000
_cell_angle_gamma   120.00000000
_symmetry_Int_Tables_number   1
_chemical_formula_structural   Ba3NbGa3(SiO7)2
_chemical_formula_sum   'Ba3 Nb1 Ga3 Si2 O14'
_cell_volume   328.80381674
_cell_formula_units_Z   1
loop_
 _symmetry_equiv_pos_site_id
 _symmetry_equiv_pos_as_xyz
  1  'x, y, z'
loop_
 _atom_site_type_symbol
 _atom_site_label
 _atom_site_symmetry_multiplicity
 _atom_site_fract_x
 _atom_site_fract_y
 _atom_site_fract_z
 _atom_site_occupancy
  Ba  Ba1  1  0.00000000  0.57004002  0.00000000  1
  Ba  Ba1  1  0.57004002  0.00000000  0.00000000  1
  Ba  Ba1  1  0.42995998  0.42995998  0.00000000  1
  Nb  Nb1  1  0.00000000  0.00000000  0.00000000  1
  Ga  Ga1  1  0.00000000  0.25632408  0.50000000  1
  Ga  Ga1  1  0.25632408  0.00000000  0.50000000  1
  Ga  Ga1  1  0.74367592  0.74367592  0.50000000  1
  Si  Si1  1  0.33333333  0.66666667  0.52109283  1
  Si  Si1  1  0.66666667  0.33333333  0.47890717  1
  O  O1  1  0.88794748  0.10663634  0.77240433  1
  O  O1  1  0.89336366  0.78131114  0.77240433  1
  O  O1  1  0.21868886  0.11205252  0.77240433  1
  O  O1  1  0.10663634  0.88794748  0.22759567  1
  O  O1  1  0.78131114  0.89336366  0.22759567  1
  O  O1  1  0.11205252  0.21868886  0.22759567  1
  O  O2  1  0.82514274  0.29949160  0.35045613  1
  O  O2  1  0.70050840  0.52565114  0.35045613  1
  O  O2  1  0.47434886  0.17485726  0.35045613  1
  O  O3  1  0.66666667  0.33333333  0.78727506  1
  O  O3  1  0.33333333  0.66666667  0.21272494  1
  O  O2  1  0.17485726  0.47434886  0.64954387  1
  O  O2  1  0.52565114  0.70050840  0.64954387  1
  O  O2  1  0.29949160  0.82514274  0.64954387  1
