# generated using pymatgen
data_Ba3SrTa2O9
_symmetry_space_group_name_H-M   'P 1'
_cell_length_a   6.06257351
_cell_length_b   6.06257351
_cell_length_c   15.46283810
_cell_angle_alpha   90.00000000
_cell_angle_beta   90.00000000
_cell_angle_gamma   120.00000000
_symmetry_Int_Tables_number   1
_chemical_formula_structural   Ba3SrTa2O9
_chemical_formula_sum   'Ba6 Sr2 Ta4 O18'
_cell_volume   492.19123454
_cell_formula_units_Z   2
loop_
 _symmetry_equiv_pos_site_id
 _symmetry_equiv_pos_as_xyz
  1  'x, y, z'
loop_
 _atom_site_type_symbol
 _atom_site_label
 _atom_site_symmetry_multiplicity
 _atom_site_fract_x
 _atom_site_fract_y
 _atom_site_fract_z
 _atom_site_occupancy
  Ba  Ba1  1  0.00000000  0.00000000  0.25000000  1
  Ba  Ba1  1  0.00000000  0.00000000  0.75000000  1
  Ba  Ba2  1  0.66666667  0.33333333  0.37954494  1
  Ba  Ba2  1  0.33333333  0.66666667  0.87954494  1
  Ba  Ba2  1  0.33333333  0.66666667  0.62045506  1
  Ba  Ba2  1  0.66666667  0.33333333  0.12045506  1
  Sr  Sr1  1  0.00000000  0.00000000  0.50000000  1
  Sr  Sr1  1  0.00000000  0.00000000  0.00000000  1
  Ta  Ta1  1  0.66666667  0.33333333  0.65492345  1
  Ta  Ta1  1  0.33333333  0.66666667  0.15492345  1
  Ta  Ta1  1  0.33333333  0.66666667  0.34507655  1
  Ta  Ta1  1  0.66666667  0.33333333  0.84507655  1
  O  O1  1  0.52466183  0.95617116  0.25000000  1
  O  O1  1  0.95617116  0.43150933  0.75000000  1
  O  O1  1  0.56849067  0.52466183  0.75000000  1
  O  O1  1  0.43150933  0.47533817  0.25000000  1
  O  O1  1  0.04382884  0.56849067  0.25000000  1
  O  O1  1  0.47533817  0.04382884  0.75000000  1
  O  O2  1  0.11291063  0.35256104  0.40107074  1
  O  O2  1  0.35256104  0.23965041  0.90107074  1
  O  O2  1  0.76034959  0.11291063  0.90107074  1
  O  O2  1  0.23965041  0.88708937  0.40107074  1
  O  O2  1  0.64743896  0.76034959  0.40107074  1
  O  O2  1  0.88708937  0.64743896  0.90107074  1
  O  O2  1  0.88708937  0.64743896  0.59892926  1
  O  O2  1  0.64743896  0.76034959  0.09892926  1
  O  O2  1  0.23965041  0.88708937  0.09892926  1
  O  O2  1  0.76034959  0.11291063  0.59892926  1
  O  O2  1  0.35256104  0.23965041  0.59892926  1
  O  O2  1  0.11291063  0.35256104  0.09892926  1
