# generated using pymatgen
data_Ba3SrNb2O9
_symmetry_space_group_name_H-M   'P 1'
_cell_length_a   6.07028599
_cell_length_b   6.07028599
_cell_length_c   15.54561510
_cell_angle_alpha   90.00000000
_cell_angle_beta   90.00000000
_cell_angle_gamma   120.00000000
_symmetry_Int_Tables_number   1
_chemical_formula_structural   Ba3SrNb2O9
_chemical_formula_sum   'Ba6 Sr2 Nb4 O18'
_cell_volume   496.08585875
_cell_formula_units_Z   2
loop_
 _symmetry_equiv_pos_site_id
 _symmetry_equiv_pos_as_xyz
  1  'x, y, z'
loop_
 _atom_site_type_symbol
 _atom_site_label
 _atom_site_symmetry_multiplicity
 _atom_site_fract_x
 _atom_site_fract_y
 _atom_site_fract_z
 _atom_site_occupancy
  Ba  Ba1  1  0.00000000  0.00000000  0.25000000  1
  Ba  Ba1  1  0.00000000  0.00000000  0.75000000  1
  Ba  Ba2  1  0.66666667  0.33333333  0.37628703  1
  Ba  Ba2  1  0.33333333  0.66666667  0.87628703  1
  Ba  Ba2  1  0.33333333  0.66666667  0.62371297  1
  Ba  Ba2  1  0.66666667  0.33333333  0.12371297  1
  Sr  Sr1  1  0.00000000  0.00000000  0.50000000  1
  Sr  Sr1  1  0.00000000  0.00000000  0.00000000  1
  Nb  Nb1  1  0.66666667  0.33333333  0.65412227  1
  Nb  Nb1  1  0.33333333  0.66666667  0.15412227  1
  Nb  Nb1  1  0.33333333  0.66666667  0.34587773  1
  Nb  Nb1  1  0.66666667  0.33333333  0.84587773  1
  O  O1  1  0.52733099  0.96014046  0.25000000  1
  O  O1  1  0.96014046  0.43280947  0.75000000  1
  O  O1  1  0.56719053  0.52733099  0.75000000  1
  O  O1  1  0.43280947  0.47266901  0.25000000  1
  O  O1  1  0.03985954  0.56719053  0.25000000  1
  O  O1  1  0.47266901  0.03985954  0.75000000  1
  O  O2  1  0.11117585  0.35040163  0.40058362  1
  O  O2  1  0.35040163  0.23922578  0.90058362  1
  O  O2  1  0.76077422  0.11117585  0.90058362  1
  O  O2  1  0.23922578  0.88882415  0.40058362  1
  O  O2  1  0.64959837  0.76077422  0.40058362  1
  O  O2  1  0.88882415  0.64959837  0.90058362  1
  O  O2  1  0.88882415  0.64959837  0.59941638  1
  O  O2  1  0.64959837  0.76077422  0.09941638  1
  O  O2  1  0.23922578  0.88882415  0.09941638  1
  O  O2  1  0.76077422  0.11117585  0.59941638  1
  O  O2  1  0.35040163  0.23922578  0.59941638  1
  O  O2  1  0.11117585  0.35040163  0.09941638  1
