# generated using pymatgen
data_Ba3Sn2O7
_symmetry_space_group_name_H-M   'P 1'
_cell_length_a   4.15435401
_cell_length_b   4.15435401
_cell_length_c   21.53141277
_cell_angle_alpha   90.00000000
_cell_angle_beta   90.00000000
_cell_angle_gamma   90.00000000
_symmetry_Int_Tables_number   1
_chemical_formula_structural   Ba3Sn2O7
_chemical_formula_sum   'Ba6 Sn4 O14'
_cell_volume   371.60327326
_cell_formula_units_Z   2
loop_
 _symmetry_equiv_pos_site_id
 _symmetry_equiv_pos_as_xyz
  1  'x, y, z'
loop_
 _atom_site_type_symbol
 _atom_site_label
 _atom_site_symmetry_multiplicity
 _atom_site_fract_x
 _atom_site_fract_y
 _atom_site_fract_z
 _atom_site_occupancy
  Ba  Ba1  1  0.50000000  0.50000000  0.68498144  1
  Ba  Ba1  1  0.00000000  0.00000000  0.81501856  1
  Ba  Ba2  1  0.00000000  0.00000000  0.00000000  1
  Sn  Sn1  1  0.00000000  0.00000000  0.59651405  1
  Sn  Sn1  1  0.50000000  0.50000000  0.90348595  1
  O  O1  1  0.00000000  0.50000000  0.59530849  1
  O  O1  1  0.50000000  0.00000000  0.59530849  1
  O  O2  1  0.00000000  0.00000000  0.69250584  1
  O  O2  1  0.50000000  0.50000000  0.80749416  1
  O  O1  1  0.00000000  0.50000000  0.90469151  1
  O  O1  1  0.50000000  0.00000000  0.90469151  1
  O  O3  1  0.50000000  0.50000000  0.00000000  1
  Ba  Ba1  1  0.00000000  0.00000000  0.18498144  1
  Ba  Ba1  1  0.50000000  0.50000000  0.31501856  1
  Ba  Ba2  1  0.50000000  0.50000000  0.50000000  1
  Sn  Sn1  1  0.50000000  0.50000000  0.09651405  1
  Sn  Sn1  1  0.00000000  0.00000000  0.40348595  1
  O  O1  1  0.50000000  0.00000000  0.09530849  1
  O  O1  1  0.00000000  0.50000000  0.09530849  1
  O  O2  1  0.50000000  0.50000000  0.19250584  1
  O  O2  1  0.00000000  0.00000000  0.30749416  1
  O  O1  1  0.50000000  0.00000000  0.40469151  1
  O  O1  1  0.00000000  0.50000000  0.40469151  1
  O  O3  1  0.00000000  0.00000000  0.50000000  1
