# generated using pymatgen
data_Ba3V2O8
_symmetry_space_group_name_H-M   'P 1'
_cell_length_a   5.76179895
_cell_length_b   5.76179895
_cell_length_c   21.35445693
_cell_angle_alpha   90.00000000
_cell_angle_beta   90.00000000
_cell_angle_gamma   120.00000000
_symmetry_Int_Tables_number   1
_chemical_formula_structural   Ba3V2O8
_chemical_formula_sum   'Ba9 V6 O24'
_cell_volume   613.95333623
_cell_formula_units_Z   3
loop_
 _symmetry_equiv_pos_site_id
 _symmetry_equiv_pos_as_xyz
  1  'x, y, z'
loop_
 _atom_site_type_symbol
 _atom_site_label
 _atom_site_symmetry_multiplicity
 _atom_site_fract_x
 _atom_site_fract_y
 _atom_site_fract_z
 _atom_site_occupancy
  Ba  Ba1  1  0.00000000  0.00000000  0.79467179  1
  Ba  Ba1  1  0.33333333  0.66666667  0.87199487  1
  Ba  Ba2  1  0.00000000  0.00000000  0.00000000  1
  V  V1  1  0.66666667  0.33333333  0.74090296  1
  V  V1  1  0.66666667  0.33333333  0.92576370  1
  O  O1  1  0.33333333  0.66666667  0.99414121  1
  O  O1  1  0.00000000  0.00000000  0.67252545  1
  O  O2  1  0.50388083  0.49611917  0.76822817  1
  O  O2  1  0.99223834  0.49611917  0.76822817  1
  O  O2  1  0.50388083  0.00776166  0.76822817  1
  O  O2  1  0.82945250  0.17054750  0.89843849  1
  O  O2  1  0.82945250  0.65890501  0.89843849  1
  O  O2  1  0.34109499  0.17054750  0.89843849  1
  Ba  Ba1  1  0.66666667  0.33333333  0.12800513  1
  Ba  Ba1  1  0.00000000  0.00000000  0.20532821  1
  Ba  Ba2  1  0.66666667  0.33333333  0.33333333  1
  V  V1  1  0.33333333  0.66666667  0.07423630  1
  V  V1  1  0.33333333  0.66666667  0.25909704  1
  O  O1  1  0.00000000  0.00000000  0.32747455  1
  O  O1  1  0.66666667  0.33333333  0.00585879  1
  O  O2  1  0.17054750  0.82945250  0.10156151  1
  O  O2  1  0.65890501  0.82945250  0.10156151  1
  O  O2  1  0.17054750  0.34109499  0.10156151  1
  O  O2  1  0.49611917  0.50388083  0.23177183  1
  O  O2  1  0.49611917  0.99223834  0.23177183  1
  O  O2  1  0.00776166  0.50388083  0.23177183  1
  Ba  Ba1  1  0.33333333  0.66666667  0.46133846  1
  Ba  Ba1  1  0.66666667  0.33333333  0.53866154  1
  Ba  Ba2  1  0.33333333  0.66666667  0.66666667  1
  V  V1  1  0.00000000  0.00000000  0.40756963  1
  V  V1  1  0.00000000  0.00000000  0.59243037  1
  O  O1  1  0.66666667  0.33333333  0.66080788  1
  O  O1  1  0.33333333  0.66666667  0.33919212  1
  O  O2  1  0.83721416  0.16278584  0.43489484  1
  O  O2  1  0.32557167  0.16278584  0.43489484  1
  O  O2  1  0.83721416  0.67442833  0.43489484  1
  O  O2  1  0.16278584  0.83721416  0.56510516  1
  O  O2  1  0.16278584  0.32557167  0.56510516  1
  O  O2  1  0.67442833  0.83721416  0.56510516  1
