# generated using pymatgen
data_Ba3ZnSb2O9
_symmetry_space_group_name_H-M   'P 1'
_cell_length_a   5.83517068
_cell_length_b   5.83517068
_cell_length_c   14.44389449
_cell_angle_alpha   90.00000000
_cell_angle_beta   90.00000000
_cell_angle_gamma   120.00000000
_symmetry_Int_Tables_number   1
_chemical_formula_structural   Ba3ZnSb2O9
_chemical_formula_sum   'Ba6 Zn2 Sb4 O18'
_cell_volume   425.91414837
_cell_formula_units_Z   2
loop_
 _symmetry_equiv_pos_site_id
 _symmetry_equiv_pos_as_xyz
  1  'x, y, z'
loop_
 _atom_site_type_symbol
 _atom_site_label
 _atom_site_symmetry_multiplicity
 _atom_site_fract_x
 _atom_site_fract_y
 _atom_site_fract_z
 _atom_site_occupancy
  Ba  Ba1  1  0.66666667  0.33333333  0.08722460  1
  Ba  Ba1  1  0.33333333  0.66666667  0.91277540  1
  Ba  Ba1  1  0.33333333  0.66666667  0.58722460  1
  Ba  Ba1  1  0.66666667  0.33333333  0.41277540  1
  Ba  Ba2  1  0.00000000  0.00000000  0.25000000  1
  Ba  Ba2  1  0.00000000  0.00000000  0.75000000  1
  Zn  Zn1  1  0.00000000  0.00000000  0.00000000  1
  Zn  Zn1  1  0.00000000  0.00000000  0.50000000  1
  Sb  Sb1  1  0.66666667  0.33333333  0.65120888  1
  Sb  Sb1  1  0.33333333  0.66666667  0.34879112  1
  Sb  Sb1  1  0.33333333  0.66666667  0.15120888  1
  Sb  Sb1  1  0.66666667  0.33333333  0.84879112  1
  O  O1  1  0.03352412  0.51676206  0.25000000  1
  O  O1  1  0.96647588  0.48323794  0.75000000  1
  O  O1  1  0.48323794  0.51676206  0.25000000  1
  O  O1  1  0.51676206  0.48323794  0.75000000  1
  O  O1  1  0.48323794  0.96647588  0.25000000  1
  O  O1  1  0.51676206  0.03352412  0.75000000  1
  O  O2  1  0.33446901  0.16723451  0.58295719  1
  O  O2  1  0.66553099  0.83276549  0.41704281  1
  O  O2  1  0.83276549  0.16723451  0.58295719  1
  O  O2  1  0.66553099  0.83276549  0.08295719  1
  O  O2  1  0.16723451  0.83276549  0.41704281  1
  O  O2  1  0.33446901  0.16723451  0.91704281  1
  O  O2  1  0.83276549  0.66553099  0.58295719  1
  O  O2  1  0.16723451  0.83276549  0.08295719  1
  O  O2  1  0.16723451  0.33446901  0.41704281  1
  O  O2  1  0.83276549  0.16723451  0.91704281  1
  O  O2  1  0.16723451  0.33446901  0.08295719  1
  O  O2  1  0.83276549  0.66553099  0.91704281  1
