# generated using pymatgen
data_Ba3Zr2O7
_symmetry_space_group_name_H-M   'P 1'
_cell_length_a   4.18863885
_cell_length_b   4.18863885
_cell_length_c   21.78243181
_cell_angle_alpha   90.00000000
_cell_angle_beta   90.00000000
_cell_angle_gamma   90.00000000
_symmetry_Int_Tables_number   1
_chemical_formula_structural   Ba3Zr2O7
_chemical_formula_sum   'Ba6 Zr4 O14'
_cell_volume   382.16613201
_cell_formula_units_Z   2
loop_
 _symmetry_equiv_pos_site_id
 _symmetry_equiv_pos_as_xyz
  1  'x, y, z'
loop_
 _atom_site_type_symbol
 _atom_site_label
 _atom_site_symmetry_multiplicity
 _atom_site_fract_x
 _atom_site_fract_y
 _atom_site_fract_z
 _atom_site_occupancy
  Ba  Ba1  1  0.00000000  0.00000000  0.00000000  1
  Ba  Ba2  1  0.00000000  0.00000000  0.81436682  1
  Ba  Ba2  1  0.50000000  0.50000000  0.68563318  1
  Zr  Zr1  1  0.00000000  0.00000000  0.59726828  1
  Zr  Zr1  1  0.50000000  0.50000000  0.90273172  1
  O  O1  1  0.00000000  0.50000000  0.59607217  1
  O  O2  1  0.50000000  0.50000000  0.00000000  1
  O  O3  1  0.00000000  0.00000000  0.69307838  1
  O  O1  1  0.00000000  0.50000000  0.90392783  1
  O  O1  1  0.50000000  0.00000000  0.59607217  1
  O  O3  1  0.50000000  0.50000000  0.80692162  1
  O  O1  1  0.50000000  0.00000000  0.90392783  1
  Ba  Ba1  1  0.50000000  0.50000000  0.50000000  1
  Ba  Ba2  1  0.50000000  0.50000000  0.31436682  1
  Ba  Ba2  1  0.00000000  0.00000000  0.18563318  1
  Zr  Zr1  1  0.50000000  0.50000000  0.09726828  1
  Zr  Zr1  1  0.00000000  0.00000000  0.40273172  1
  O  O1  1  0.50000000  0.00000000  0.09607217  1
  O  O2  1  0.00000000  0.00000000  0.50000000  1
  O  O3  1  0.50000000  0.50000000  0.19307838  1
  O  O1  1  0.50000000  0.00000000  0.40392783  1
  O  O1  1  0.00000000  0.50000000  0.09607217  1
  O  O3  1  0.00000000  0.00000000  0.30692162  1
  O  O1  1  0.00000000  0.50000000  0.40392783  1
