# generated using pymatgen
data_Ba4AgAuO6
_symmetry_space_group_name_H-M   'P 1'
_cell_length_a   13.19386986
_cell_length_b   5.79248092
_cell_length_c   11.38944540
_cell_angle_alpha   90.00000000
_cell_angle_beta   90.00000000
_cell_angle_gamma   90.00000000
_symmetry_Int_Tables_number   1
_chemical_formula_structural   Ba4AgAuO6
_chemical_formula_sum   'Ba16 Ag4 Au4 O24'
_cell_volume   870.44109161
_cell_formula_units_Z   4
loop_
 _symmetry_equiv_pos_site_id
 _symmetry_equiv_pos_as_xyz
  1  'x, y, z'
loop_
 _atom_site_type_symbol
 _atom_site_label
 _atom_site_symmetry_multiplicity
 _atom_site_fract_x
 _atom_site_fract_y
 _atom_site_fract_z
 _atom_site_occupancy
  Ba  Ba1  1  0.85458339  0.93620534  0.75000000  1
  Ba  Ba2  1  0.85380789  0.50000000  0.50000000  1
  Ba  Ba1  1  0.64541661  0.56379466  0.25000000  1
  Ba  Ba1  1  0.64541661  0.43620534  0.75000000  1
  Ba  Ba1  1  0.85458339  0.06379466  0.25000000  1
  Ba  Ba2  1  0.64619211  0.00000000  0.00000000  1
  Ba  Ba2  1  0.64619211  0.00000000  0.50000000  1
  Ba  Ba2  1  0.85380789  0.50000000  0.00000000  1
  Ag  Ag1  1  0.00000000  0.59280042  0.25000000  1
  Ag  Ag1  1  0.00000000  0.40719958  0.75000000  1
  Au  Au1  1  0.00000000  0.00000000  0.00000000  1
  Au  Au1  1  0.00000000  0.00000000  0.50000000  1
  O  O1  1  0.65857893  0.09499290  0.25000000  1
  O  O2  1  0.84583925  0.00000000  0.50000000  1
  O  O1  1  0.84142107  0.59499290  0.25000000  1
  O  O3  1  0.00000000  0.26906882  0.38979579  1
  O  O2  1  0.84583925  0.00000000  0.00000000  1
  O  O2  1  0.65416075  0.50000000  0.00000000  1
  O  O1  1  0.65857893  0.90500710  0.75000000  1
  O  O1  1  0.84142107  0.40500710  0.75000000  1
  O  O3  1  0.00000000  0.26906882  0.11020421  1
  O  O2  1  0.65416075  0.50000000  0.50000000  1
  O  O3  1  0.00000000  0.73093118  0.61020421  1
  O  O3  1  0.00000000  0.73093118  0.88979579  1
  Ba  Ba1  1  0.35458339  0.43620534  0.75000000  1
  Ba  Ba2  1  0.35380789  0.00000000  0.50000000  1
  Ba  Ba1  1  0.14541661  0.06379466  0.25000000  1
  Ba  Ba1  1  0.14541661  0.93620534  0.75000000  1
  Ba  Ba1  1  0.35458339  0.56379466  0.25000000  1
  Ba  Ba2  1  0.14619211  0.50000000  0.00000000  1
  Ba  Ba2  1  0.14619211  0.50000000  0.50000000  1
  Ba  Ba2  1  0.35380789  0.00000000  0.00000000  1
  Ag  Ag1  1  0.50000000  0.09280042  0.25000000  1
  Ag  Ag1  1  0.50000000  0.90719958  0.75000000  1
  Au  Au1  1  0.50000000  0.50000000  0.00000000  1
  Au  Au1  1  0.50000000  0.50000000  0.50000000  1
  O  O1  1  0.15857893  0.59499290  0.25000000  1
  O  O2  1  0.34583925  0.50000000  0.50000000  1
  O  O1  1  0.34142107  0.09499290  0.25000000  1
  O  O3  1  0.50000000  0.76906882  0.38979579  1
  O  O2  1  0.34583925  0.50000000  0.00000000  1
  O  O2  1  0.15416075  0.00000000  0.00000000  1
  O  O1  1  0.15857893  0.40500710  0.75000000  1
  O  O1  1  0.34142107  0.90500710  0.75000000  1
  O  O3  1  0.50000000  0.76906882  0.11020421  1
  O  O2  1  0.15416075  0.00000000  0.50000000  1
  O  O3  1  0.50000000  0.23093118  0.61020421  1
  O  O3  1  0.50000000  0.23093118  0.88979579  1
