# generated using pymatgen
data_Ba4InSbO8
_symmetry_space_group_name_H-M   'P 1'
_cell_length_a   5.92015394
_cell_length_b   13.26784078
_cell_length_c   5.93825566
_cell_angle_alpha   90.00000000
_cell_angle_beta   90.00000000
_cell_angle_gamma   90.00000000
_symmetry_Int_Tables_number   1
_chemical_formula_structural   Ba4InSbO8
_chemical_formula_sum   'Ba8 In2 Sb2 O16'
_cell_volume   466.43608580
_cell_formula_units_Z   2
loop_
 _symmetry_equiv_pos_site_id
 _symmetry_equiv_pos_as_xyz
  1  'x, y, z'
loop_
 _atom_site_type_symbol
 _atom_site_label
 _atom_site_symmetry_multiplicity
 _atom_site_fract_x
 _atom_site_fract_y
 _atom_site_fract_z
 _atom_site_occupancy
  Ba  Ba1  1  0.50000000  0.14521689  0.00000000  1
  Ba  Ba2  1  0.00000000  0.14541271  0.50000000  1
  Ba  Ba2  1  0.50000000  0.35458729  0.50000000  1
  Ba  Ba1  1  0.00000000  0.35478311  0.00000000  1
  In  In1  1  0.00000000  0.00000000  0.00000000  1
  Sb  Sb1  1  0.50000000  0.00000000  0.50000000  1
  O  O1  1  0.26062962  0.00000000  0.73557156  1
  O  O1  1  0.73937038  0.00000000  0.26442844  1
  O  O1  1  0.73937038  0.00000000  0.73557156  1
  O  O1  1  0.26062962  0.00000000  0.26442844  1
  O  O2  1  0.50000000  0.33806487  0.00000000  1
  O  O3  1  0.00000000  0.34707560  0.50000000  1
  O  O3  1  0.50000000  0.15292440  0.50000000  1
  O  O2  1  0.00000000  0.16193513  0.00000000  1
  Ba  Ba1  1  0.00000000  0.64521689  0.00000000  1
  Ba  Ba2  1  0.50000000  0.64541271  0.50000000  1
  Ba  Ba2  1  0.00000000  0.85458729  0.50000000  1
  Ba  Ba1  1  0.50000000  0.85478311  0.00000000  1
  In  In1  1  0.50000000  0.50000000  0.00000000  1
  Sb  Sb1  1  0.00000000  0.50000000  0.50000000  1
  O  O1  1  0.76062962  0.50000000  0.73557156  1
  O  O1  1  0.23937038  0.50000000  0.26442844  1
  O  O1  1  0.23937038  0.50000000  0.73557156  1
  O  O1  1  0.76062962  0.50000000  0.26442844  1
  O  O2  1  0.00000000  0.83806487  0.00000000  1
  O  O3  1  0.50000000  0.84707560  0.50000000  1
  O  O3  1  0.00000000  0.65292440  0.50000000  1
  O  O2  1  0.50000000  0.66193513  0.00000000  1
