# generated using pymatgen
data_Ba4Li(SbO4)3
_symmetry_space_group_name_H-M   'P 1'
_cell_length_a   8.23747415
_cell_length_b   8.23747415
_cell_length_c   8.23747415
_cell_angle_alpha   90.00000000
_cell_angle_beta   90.00000000
_cell_angle_gamma   90.00000000
_symmetry_Int_Tables_number   1
_chemical_formula_structural   Ba4Li(SbO4)3
_chemical_formula_sum   'Ba8 Li2 Sb6 O24'
_cell_volume   558.96188424
_cell_formula_units_Z   2
loop_
 _symmetry_equiv_pos_site_id
 _symmetry_equiv_pos_as_xyz
  1  'x, y, z'
loop_
 _atom_site_type_symbol
 _atom_site_label
 _atom_site_symmetry_multiplicity
 _atom_site_fract_x
 _atom_site_fract_y
 _atom_site_fract_z
 _atom_site_occupancy
  Ba  Ba1  1  0.25000000  0.75000000  0.25000000  1
  Ba  Ba1  1  0.75000000  0.25000000  0.25000000  1
  Ba  Ba1  1  0.25000000  0.25000000  0.75000000  1
  Ba  Ba1  1  0.25000000  0.25000000  0.25000000  1
  Li  Li1  1  0.00000000  0.00000000  0.00000000  1
  Sb  Sb1  1  0.00000000  0.50000000  0.00000000  1
  Sb  Sb1  1  0.50000000  0.00000000  0.00000000  1
  Sb  Sb1  1  0.00000000  0.00000000  0.50000000  1
  O  O1  1  0.50000000  0.00000000  0.25000000  1
  O  O2  1  0.00000000  0.73302678  0.00000000  1
  O  O2  1  0.73302678  0.00000000  0.00000000  1
  O  O2  1  0.26697322  0.00000000  0.00000000  1
  O  O2  1  0.00000000  0.00000000  0.26697322  1
  O  O2  1  0.00000000  0.26697322  0.00000000  1
  O  O2  1  0.00000000  0.00000000  0.73302678  1
  O  O1  1  0.00000000  0.50000000  0.25000000  1
  O  O1  1  0.25000000  0.50000000  0.00000000  1
  O  O1  1  0.25000000  0.00000000  0.50000000  1
  O  O1  1  0.50000000  0.25000000  0.00000000  1
  O  O1  1  0.00000000  0.25000000  0.50000000  1
  Ba  Ba1  1  0.75000000  0.25000000  0.75000000  1
  Ba  Ba1  1  0.25000000  0.75000000  0.75000000  1
  Ba  Ba1  1  0.75000000  0.75000000  0.25000000  1
  Ba  Ba1  1  0.75000000  0.75000000  0.75000000  1
  Li  Li1  1  0.50000000  0.50000000  0.50000000  1
  Sb  Sb1  1  0.50000000  0.00000000  0.50000000  1
  Sb  Sb1  1  0.00000000  0.50000000  0.50000000  1
  Sb  Sb1  1  0.50000000  0.50000000  0.00000000  1
  O  O1  1  0.00000000  0.50000000  0.75000000  1
  O  O2  1  0.50000000  0.23302678  0.50000000  1
  O  O2  1  0.23302678  0.50000000  0.50000000  1
  O  O2  1  0.76697322  0.50000000  0.50000000  1
  O  O2  1  0.50000000  0.50000000  0.76697322  1
  O  O2  1  0.50000000  0.76697322  0.50000000  1
  O  O2  1  0.50000000  0.50000000  0.23302678  1
  O  O1  1  0.50000000  0.00000000  0.75000000  1
  O  O1  1  0.75000000  0.00000000  0.50000000  1
  O  O1  1  0.75000000  0.50000000  0.00000000  1
  O  O1  1  0.00000000  0.75000000  0.50000000  1
  O  O1  1  0.50000000  0.75000000  0.00000000  1
