# generated using pymatgen
data_Ba4Nb2O9
_symmetry_space_group_name_H-M   'P 1'
_cell_length_a   6.08782439
_cell_length_b   6.08782439
_cell_length_c   16.59771928
_cell_angle_alpha   90.00000000
_cell_angle_beta   90.00000000
_cell_angle_gamma   120.00000000
_symmetry_Int_Tables_number   1
_chemical_formula_structural   Ba4Nb2O9
_chemical_formula_sum   'Ba8 Nb4 O18'
_cell_volume   532.72524672
_cell_formula_units_Z   2
loop_
 _symmetry_equiv_pos_site_id
 _symmetry_equiv_pos_as_xyz
  1  'x, y, z'
loop_
 _atom_site_type_symbol
 _atom_site_label
 _atom_site_symmetry_multiplicity
 _atom_site_fract_x
 _atom_site_fract_y
 _atom_site_fract_z
 _atom_site_occupancy
  Ba  Ba1  1  0.00000000  0.00000000  0.25000000  1
  Ba  Ba1  1  0.00000000  0.00000000  0.75000000  1
  Ba  Ba2  1  0.66666667  0.33333333  0.36360203  1
  Ba  Ba2  1  0.33333333  0.66666667  0.86360203  1
  Ba  Ba2  1  0.33333333  0.66666667  0.63639797  1
  Ba  Ba2  1  0.66666667  0.33333333  0.13639797  1
  Ba  Ba3  1  0.00000000  0.00000000  0.50000000  1
  Ba  Ba3  1  0.00000000  0.00000000  0.00000000  1
  Nb  Nb1  1  0.66666667  0.33333333  0.65923575  1
  Nb  Nb1  1  0.33333333  0.66666667  0.15923575  1
  Nb  Nb1  1  0.33333333  0.66666667  0.34076425  1
  Nb  Nb1  1  0.66666667  0.33333333  0.84076425  1
  O  O1  1  0.04119550  0.47052361  0.25000000  1
  O  O1  1  0.42932811  0.95880450  0.25000000  1
  O  O1  1  0.52947639  0.57067189  0.25000000  1
  O  O1  1  0.95880450  0.52947639  0.75000000  1
  O  O1  1  0.57067189  0.04119550  0.75000000  1
  O  O1  1  0.47052361  0.42932811  0.75000000  1
  O  O2  1  0.64758251  0.89443063  0.39128850  1
  O  O2  1  0.24684812  0.35241749  0.39128850  1
  O  O2  1  0.10556937  0.75315188  0.39128850  1
  O  O2  1  0.35241749  0.10556937  0.89128850  1
  O  O2  1  0.75315188  0.64758251  0.89128850  1
  O  O2  1  0.89443063  0.24684812  0.89128850  1
  O  O2  1  0.35241749  0.10556937  0.60871150  1
  O  O2  1  0.75315188  0.64758251  0.60871150  1
  O  O2  1  0.89443063  0.24684812  0.60871150  1
  O  O2  1  0.64758251  0.89443063  0.10871150  1
  O  O2  1  0.24684812  0.35241749  0.10871150  1
  O  O2  1  0.10556937  0.75315188  0.10871150  1
