# generated using pymatgen
data_Ba4PtO6
_symmetry_space_group_name_H-M   'P 1'
_cell_length_a   10.20903487
_cell_length_b   10.20903487
_cell_length_c   12.67834353
_cell_angle_alpha   90.00000000
_cell_angle_beta   90.00000000
_cell_angle_gamma   120.00000000
_symmetry_Int_Tables_number   1
_chemical_formula_structural   Ba4PtO6
_chemical_formula_sum   'Ba24 Pt6 O36'
_cell_volume   1144.35961052
_cell_formula_units_Z   6
loop_
 _symmetry_equiv_pos_site_id
 _symmetry_equiv_pos_as_xyz
  1  'x, y, z'
loop_
 _atom_site_type_symbol
 _atom_site_label
 _atom_site_symmetry_multiplicity
 _atom_site_fract_x
 _atom_site_fract_y
 _atom_site_fract_z
 _atom_site_occupancy
  Ba  Ba1  1  0.33333333  0.66666667  0.91666667  1
  Ba  Ba1  1  0.33333333  0.66666667  0.41666667  1
  Ba  Ba2  1  0.03428963  0.33333333  0.08333333  1
  Ba  Ba2  1  0.66666667  0.70095630  0.08333333  1
  Ba  Ba2  1  0.29904370  0.96571037  0.08333333  1
  Ba  Ba2  1  0.63237703  0.00000000  0.25000000  1
  Ba  Ba2  1  0.00000000  0.63237703  0.25000000  1
  Ba  Ba2  1  0.36762297  0.36762297  0.25000000  1
  Pt  Pt1  1  0.00000000  0.00000000  0.00000000  1
  Pt  Pt1  1  0.33333333  0.66666667  0.16666667  1
  O  O1  1  0.51011304  0.68702382  0.26087795  1
  O  O1  1  0.31297618  0.82308922  0.26087795  1
  O  O1  1  0.17691078  0.48988696  0.26087795  1
  O  O1  1  0.82308922  0.31297618  0.23912205  1
  O  O1  1  0.68702382  0.51011304  0.23912205  1
  O  O1  1  0.48988696  0.17691078  0.23912205  1
  O  O1  1  0.15655362  0.64630951  0.07245538  1
  O  O1  1  0.35369049  0.51024411  0.07245538  1
  O  O1  1  0.48975589  0.84344638  0.07245538  1
  O  O1  1  0.84357745  0.02035716  0.09421128  1
  O  O1  1  0.17677971  0.15642255  0.09421128  1
  O  O1  1  0.97964284  0.82322029  0.09421128  1
  Ba  Ba1  1  0.00000000  0.00000000  0.25000000  1
  Ba  Ba1  1  0.00000000  0.00000000  0.75000000  1
  Ba  Ba2  1  0.70095630  0.66666667  0.41666667  1
  Ba  Ba2  1  0.33333333  0.03428963  0.41666667  1
  Ba  Ba2  1  0.96571037  0.29904370  0.41666667  1
  Ba  Ba2  1  0.29904370  0.33333333  0.58333333  1
  Ba  Ba2  1  0.66666667  0.96571037  0.58333333  1
  Ba  Ba2  1  0.03428963  0.70095630  0.58333333  1
  Pt  Pt1  1  0.66666667  0.33333333  0.33333333  1
  Pt  Pt1  1  0.00000000  0.00000000  0.50000000  1
  O  O1  1  0.17677971  0.02035716  0.59421128  1
  O  O1  1  0.97964284  0.15642255  0.59421128  1
  O  O1  1  0.84357745  0.82322029  0.59421128  1
  O  O1  1  0.48975589  0.64630951  0.57245538  1
  O  O1  1  0.35369049  0.84344638  0.57245538  1
  O  O1  1  0.15655362  0.51024411  0.57245538  1
  O  O1  1  0.82322029  0.97964284  0.40578872  1
  O  O1  1  0.02035716  0.84357745  0.40578872  1
  O  O1  1  0.15642255  0.17677971  0.40578872  1
  O  O1  1  0.51024411  0.35369049  0.42754462  1
  O  O1  1  0.84344638  0.48975589  0.42754462  1
  O  O1  1  0.64630951  0.15655362  0.42754462  1
  Ba  Ba1  1  0.66666667  0.33333333  0.58333333  1
  Ba  Ba1  1  0.66666667  0.33333333  0.08333333  1
  Ba  Ba2  1  0.36762297  0.00000000  0.75000000  1
  Ba  Ba2  1  0.00000000  0.36762297  0.75000000  1
  Ba  Ba2  1  0.63237703  0.63237703  0.75000000  1
  Ba  Ba2  1  0.96571037  0.66666667  0.91666667  1
  Ba  Ba2  1  0.33333333  0.29904370  0.91666667  1
  Ba  Ba2  1  0.70095630  0.03428963  0.91666667  1
  Pt  Pt1  1  0.33333333  0.66666667  0.66666667  1
  Pt  Pt1  1  0.66666667  0.33333333  0.83333333  1
  O  O1  1  0.84344638  0.35369049  0.92754462  1
  O  O1  1  0.64630951  0.48975589  0.92754462  1
  O  O1  1  0.51024411  0.15655362  0.92754462  1
  O  O1  1  0.15642255  0.97964284  0.90578872  1
  O  O1  1  0.02035716  0.17677971  0.90578872  1
  O  O1  1  0.82322029  0.84357745  0.90578872  1
  O  O1  1  0.48988696  0.31297618  0.73912205  1
  O  O1  1  0.68702382  0.17691078  0.73912205  1
  O  O1  1  0.82308922  0.51011304  0.73912205  1
  O  O1  1  0.17691078  0.68702382  0.76087795  1
  O  O1  1  0.51011304  0.82308922  0.76087795  1
  O  O1  1  0.31297618  0.48988696  0.76087795  1
