# generated using pymatgen
data_Ba4PdO6
_symmetry_space_group_name_H-M   'P 1'
_cell_length_a   10.18684112
_cell_length_b   10.18684112
_cell_length_c   12.67590266
_cell_angle_alpha   90.00000000
_cell_angle_beta   90.00000000
_cell_angle_gamma   120.00000000
_symmetry_Int_Tables_number   1
_chemical_formula_structural   Ba4PdO6
_chemical_formula_sum   'Ba24 Pd6 O36'
_cell_volume   1139.17013981
_cell_formula_units_Z   6
loop_
 _symmetry_equiv_pos_site_id
 _symmetry_equiv_pos_as_xyz
  1  'x, y, z'
loop_
 _atom_site_type_symbol
 _atom_site_label
 _atom_site_symmetry_multiplicity
 _atom_site_fract_x
 _atom_site_fract_y
 _atom_site_fract_z
 _atom_site_occupancy
  Ba  Ba1  1  0.36858994  0.00000000  0.25000000  1
  Ba  Ba1  1  0.66666667  0.96474340  0.08333333  1
  Ba  Ba1  1  0.03525660  0.70192327  0.08333333  1
  Ba  Ba2  1  0.33333333  0.66666667  0.91666667  1
  Ba  Ba2  1  0.33333333  0.66666667  0.41666667  1
  Ba  Ba1  1  0.63141006  0.63141006  0.25000000  1
  Ba  Ba1  1  0.00000000  0.36858994  0.25000000  1
  Ba  Ba1  1  0.29807673  0.33333333  0.08333333  1
  Pd  Pd1  1  0.33333333  0.66666667  0.16666667  1
  Pd  Pd1  1  0.00000000  0.00000000  0.00000000  1
  O  O1  1  0.48950289  0.64655531  0.07266881  1
  O  O1  1  0.50961425  0.82283623  0.26066452  1
  O  O1  1  0.84383044  0.82371908  0.09399785  1
  O  O1  1  0.49038575  0.31322198  0.23933548  1
  O  O1  1  0.31322198  0.49038575  0.26066452  1
  O  O1  1  0.68677802  0.17716377  0.23933548  1
  O  O1  1  0.97988864  0.15616956  0.09399785  1
  O  O1  1  0.17628092  0.02011136  0.09399785  1
  O  O1  1  0.35344469  0.84294758  0.07266881  1
  O  O1  1  0.82283623  0.50961425  0.23933548  1
  O  O1  1  0.15705242  0.51049711  0.07266881  1
  O  O1  1  0.17716377  0.68677802  0.26066452  1
  Ba  Ba1  1  0.03525660  0.33333333  0.58333333  1
  Ba  Ba1  1  0.33333333  0.29807673  0.41666667  1
  Ba  Ba1  1  0.70192327  0.03525660  0.41666667  1
  Ba  Ba2  1  0.00000000  0.00000000  0.25000000  1
  Ba  Ba2  1  0.00000000  0.00000000  0.75000000  1
  Ba  Ba1  1  0.29807673  0.96474340  0.58333333  1
  Ba  Ba1  1  0.66666667  0.70192327  0.58333333  1
  Ba  Ba1  1  0.96474340  0.66666667  0.41666667  1
  Pd  Pd1  1  -0.00000000  0.00000000  0.50000000  1
  Pd  Pd1  1  0.66666667  0.33333333  0.33333333  1
  O  O1  1  0.15616956  0.97988864  0.40600215  1
  O  O1  1  0.17628092  0.15616956  0.59399785  1
  O  O1  1  0.51049711  0.15705242  0.42733119  1
  O  O1  1  0.15705242  0.64655531  0.57266881  1
  O  O1  1  0.97988864  0.82371908  0.59399785  1
  O  O1  1  0.35344469  0.51049711  0.57266881  1
  O  O1  1  0.64655531  0.48950289  0.42733119  1
  O  O1  1  0.84294758  0.35344469  0.42733119  1
  O  O1  1  0.02011136  0.17628092  0.40600215  1
  O  O1  1  0.48950289  0.84294758  0.57266881  1
  O  O1  1  0.82371908  0.84383044  0.40600215  1
  O  O1  1  0.84383044  0.02011136  0.59399785  1
  Ba  Ba1  1  0.70192327  0.66666667  0.91666667  1
  Ba  Ba1  1  0.00000000  0.63141006  0.75000000  1
  Ba  Ba1  1  0.36858994  0.36858994  0.75000000  1
  Ba  Ba2  1  0.66666667  0.33333333  0.58333333  1
  Ba  Ba2  1  0.66666667  0.33333333  0.08333333  1
  Ba  Ba1  1  0.96474340  0.29807673  0.91666667  1
  Ba  Ba1  1  0.33333333  0.03525660  0.91666667  1
  Ba  Ba1  1  0.63141006  0.00000000  0.75000000  1
  Pd  Pd1  1  0.66666667  0.33333333  0.83333333  1
  Pd  Pd1  1  0.33333333  0.66666667  0.66666667  1
  O  O1  1  0.82283623  0.31322198  0.73933548  1
  O  O1  1  0.84294758  0.48950289  0.92733119  1
  O  O1  1  0.17716377  0.49038575  0.76066452  1
  O  O1  1  0.82371908  0.97988864  0.90600215  1
  O  O1  1  0.64655531  0.15705242  0.92733119  1
  O  O1  1  0.02011136  0.84383044  0.90600215  1
  O  O1  1  0.31322198  0.82283623  0.76066452  1
  O  O1  1  0.50961425  0.68677802  0.76066452  1
  O  O1  1  0.68677802  0.50961425  0.73933548  1
  O  O1  1  0.15616956  0.17628092  0.90600215  1
  O  O1  1  0.49038575  0.17716377  0.73933548  1
  O  O1  1  0.51049711  0.35344469  0.92733119  1
