# generated using pymatgen
data_Ba5Ta4O15
_symmetry_space_group_name_H-M   'P 1'
_cell_length_a   5.78170174
_cell_length_b   5.78170174
_cell_length_c   11.81421256
_cell_angle_alpha   90.00000000
_cell_angle_beta   90.00000000
_cell_angle_gamma   120.00000000
_symmetry_Int_Tables_number   1
_chemical_formula_structural   Ba5Ta4O15
_chemical_formula_sum   'Ba5 Ta4 O15'
_cell_volume   342.01628086
_cell_formula_units_Z   1
loop_
 _symmetry_equiv_pos_site_id
 _symmetry_equiv_pos_as_xyz
  1  'x, y, z'
loop_
 _atom_site_type_symbol
 _atom_site_label
 _atom_site_symmetry_multiplicity
 _atom_site_fract_x
 _atom_site_fract_y
 _atom_site_fract_z
 _atom_site_occupancy
  Ba  Ba1  1  0.66666667  0.33333333  0.78814987  1
  Ba  Ba2  1  0.00000000  0.00000000  0.00000000  1
  Ba  Ba3  1  0.33333333  0.66666667  0.56859134  1
  Ba  Ba3  1  0.66666667  0.33333333  0.43140866  1
  Ba  Ba1  1  0.33333333  0.66666667  0.21185013  1
  Ta  Ta1  1  0.33333333  0.66666667  0.89638989  1
  Ta  Ta1  1  0.66666667  0.33333333  0.10361011  1
  Ta  Ta2  1  0.00000000  0.00000000  0.68646480  1
  Ta  Ta2  1  0.00000000  0.00000000  0.31353520  1
  O  O1  1  0.16444217  0.32888434  0.38681860  1
  O  O2  1  0.16800812  0.83199188  0.80884638  1
  O  O1  1  0.67111566  0.83555783  0.38681860  1
  O  O2  1  0.66398376  0.83199188  0.80884638  1
  O  O1  1  0.83555783  0.16444217  0.61318140  1
  O  O3  1  0.00000000  0.50000000  0.00000000  1
  O  O3  1  0.50000000  0.00000000  0.00000000  1
  O  O1  1  0.16444217  0.83555783  0.38681860  1
  O  O3  1  0.50000000  0.50000000  0.00000000  1
  O  O2  1  0.83199188  0.66398376  0.19115362  1
  O  O2  1  0.16800812  0.33601624  0.80884638  1
  O  O2  1  0.33601624  0.16800812  0.19115362  1
  O  O2  1  0.83199188  0.16800812  0.19115362  1
  O  O1  1  0.32888434  0.16444217  0.61318140  1
  O  O1  1  0.83555783  0.67111566  0.61318140  1
