# generated using pymatgen
data_BaAl2Sb2O7
_symmetry_space_group_name_H-M   'P 1'
_cell_length_a   5.44519750
_cell_length_b   5.44519750
_cell_length_c   24.10790377
_cell_angle_alpha   90.00000000
_cell_angle_beta   90.00000000
_cell_angle_gamma   120.00000000
_symmetry_Int_Tables_number   1
_chemical_formula_structural   BaAl2Sb2O7
_chemical_formula_sum   'Ba3 Al6 Sb6 O21'
_cell_volume   619.03806358
_cell_formula_units_Z   3
loop_
 _symmetry_equiv_pos_site_id
 _symmetry_equiv_pos_as_xyz
  1  'x, y, z'
loop_
 _atom_site_type_symbol
 _atom_site_label
 _atom_site_symmetry_multiplicity
 _atom_site_fract_x
 _atom_site_fract_y
 _atom_site_fract_z
 _atom_site_occupancy
  Ba  Ba1  1  0.66666667  0.33333333  0.83333333  1
  Al  Al1  1  0.00000000  0.00000000  0.92849738  1
  Al  Al1  1  0.33333333  0.66666667  0.73816928  1
  Sb  Sb1  1  0.00000000  0.00000000  0.71998291  1
  Sb  Sb1  1  0.33333333  0.66666667  0.94668375  1
  O  O1  1  0.07027231  0.73667274  0.90239123  1
  O  O1  1  0.26332726  0.33359957  0.90239123  1
  O  O1  1  0.66640043  0.92972769  0.90239123  1
  O  O1  1  0.26306102  0.33306710  0.76427544  1
  O  O1  1  0.66693290  0.92999392  0.76427544  1
  O  O2  1  0.00000000  0.00000000  0.00000000  1
  O  O1  1  0.07000608  0.73693898  0.76427544  1
  Ba  Ba1  1  0.33333333  0.66666667  0.16666667  1
  Al  Al1  1  0.66666667  0.33333333  0.26183072  1
  Al  Al1  1  0.00000000  0.00000000  0.07150262  1
  Sb  Sb1  1  0.66666667  0.33333333  0.05331625  1
  Sb  Sb1  1  0.00000000  0.00000000  0.28001709  1
  O  O1  1  0.73693898  0.07000608  0.23572456  1
  O  O1  1  0.92999392  0.66693290  0.23572456  1
  O  O1  1  0.33306710  0.26306102  0.23572456  1
  O  O1  1  0.92972769  0.66640043  0.09760877  1
  O  O1  1  0.33359957  0.26332726  0.09760877  1
  O  O2  1  0.66666667  0.33333333  0.33333333  1
  O  O1  1  0.73667274  0.07027231  0.09760877  1
  Ba  Ba1  1  0.00000000  0.00000000  0.50000000  1
  Al  Al1  1  0.33333333  0.66666667  0.59516405  1
  Al  Al1  1  0.66666667  0.33333333  0.40483595  1
  Sb  Sb1  1  0.33333333  0.66666667  0.38664958  1
  Sb  Sb1  1  0.66666667  0.33333333  0.61335042  1
  O  O1  1  0.40360565  0.40333941  0.56905790  1
  O  O1  1  0.59666059  0.00026624  0.56905790  1
  O  O1  1  0.99973376  0.59639435  0.56905790  1
  O  O1  1  0.59639435  0.99973376  0.43094210  1
  O  O1  1  0.00026624  0.59666059  0.43094210  1
  O  O2  1  0.33333333  0.66666667  0.66666667  1
  O  O1  1  0.40333941  0.40360565  0.43094210  1
