# generated using pymatgen
data_BaBAsO5
_symmetry_space_group_name_H-M   'P 1'
_cell_length_a   7.33309780
_cell_length_b   7.33309780
_cell_length_c   7.12727665
_cell_angle_alpha   90.00000000
_cell_angle_beta   90.00000000
_cell_angle_gamma   120.00000000
_symmetry_Int_Tables_number   1
_chemical_formula_structural   BaBAsO5
_chemical_formula_sum   'Ba3 B3 As3 O15'
_cell_volume   331.91677485
_cell_formula_units_Z   3
loop_
 _symmetry_equiv_pos_site_id
 _symmetry_equiv_pos_as_xyz
  1  'x, y, z'
loop_
 _atom_site_type_symbol
 _atom_site_label
 _atom_site_symmetry_multiplicity
 _atom_site_fract_x
 _atom_site_fract_y
 _atom_site_fract_z
 _atom_site_occupancy
  Ba  Ba1  1  0.00000000  0.38926012  0.16666667  1
  Ba  Ba1  1  0.38926012  0.00000000  0.83333333  1
  Ba  Ba1  1  0.61073988  0.61073988  0.50000000  1
  B  B1  1  0.00000000  0.90258930  0.16666667  1
  B  B1  1  0.90258930  0.00000000  0.83333333  1
  B  B1  1  0.09741070  0.09741070  0.50000000  1
  As  As1  1  0.60340936  0.60340936  0.00000000  1
  As  As1  1  0.00000000  0.39659064  0.66666667  1
  As  As1  1  0.39659064  0.00000000  0.33333333  1
  O  O1  1  0.00000000  0.97255056  0.66666667  1
  O  O1  1  0.02744944  0.02744944  0.00000000  1
  O  O1  1  0.97255056  0.00000000  0.33333333  1
  O  O2  1  0.41354718  0.56432840  0.15251177  1
  O  O2  1  0.15078122  0.58645282  0.81917843  1
  O  O2  1  0.43567160  0.84921878  0.48584510  1
  O  O3  1  0.32413202  0.14599582  0.47907497  1
  O  O3  1  0.85400418  0.17813620  0.81240830  1
  O  O3  1  0.82186380  0.67586798  0.14574163  1
  O  O2  1  0.58645282  0.15078122  0.18082157  1
  O  O2  1  0.84921878  0.43567160  0.51415490  1
  O  O2  1  0.56432840  0.41354718  0.84748823  1
  O  O3  1  0.17813620  0.85400418  0.18759170  1
  O  O3  1  0.14599582  0.32413202  0.52092503  1
  O  O3  1  0.67586798  0.82186380  0.85425837  1
