# generated using pymatgen
data_BaBe2(BO3)2
_symmetry_space_group_name_H-M   'P 1'
_cell_length_a   6.27756122
_cell_length_b   11.71341579
_cell_length_c   13.03140103
_cell_angle_alpha   90.00000000
_cell_angle_beta   90.00000000
_cell_angle_gamma   90.00000000
_symmetry_Int_Tables_number   1
_chemical_formula_structural   BaBe2(BO3)2
_chemical_formula_sum   'Ba8 Be16 B16 O48'
_cell_volume   958.22087120
_cell_formula_units_Z   8
loop_
 _symmetry_equiv_pos_site_id
 _symmetry_equiv_pos_as_xyz
  1  'x, y, z'
loop_
 _atom_site_type_symbol
 _atom_site_label
 _atom_site_symmetry_multiplicity
 _atom_site_fract_x
 _atom_site_fract_y
 _atom_site_fract_z
 _atom_site_occupancy
  Ba  Ba1  1  0.25000000  0.75000000  0.75000000  1
  Ba  Ba1  1  0.00000000  0.00000000  0.00000000  1
  Be  Be1  1  0.50000000  0.00000000  0.90774647  1
  Be  Be1  1  0.75000000  0.75000000  0.84225353  1
  Be  Be1  1  0.75000000  0.75000000  0.65774647  1
  Be  Be1  1  0.00000000  0.00000000  0.59225353  1
  B  B1  1  0.50000000  0.78437646  0.00000000  1
  B  B1  1  0.75000000  0.53437646  0.75000000  1
  B  B1  1  0.00000000  0.71562354  0.00000000  1
  B  B1  1  0.75000000  0.96562354  0.75000000  1
  O  O1  1  0.00000000  0.59778646  0.00000000  1
  O  O2  1  0.20722270  0.52418430  0.83906196  1
  O  O2  1  0.95722270  0.77418430  0.91093804  1
  O  O2  1  0.20722270  0.97581570  0.66093804  1
  O  O2  1  0.54277730  0.72581570  0.91093804  1
  O  O2  1  0.29277730  0.52418430  0.66093804  1
  O  O1  1  0.50000000  0.90221354  0.00000000  1
  O  O1  1  0.75000000  0.84778646  0.75000000  1
  O  O2  1  0.54277730  0.77418430  0.58906196  1
  O  O2  1  0.95722270  0.72581570  0.58906196  1
  O  O1  1  0.75000000  0.65221354  0.75000000  1
  O  O2  1  0.29277730  0.97581570  0.83906196  1
  Ba  Ba1  1  0.25000000  0.25000000  0.25000000  1
  Ba  Ba1  1  0.00000000  0.50000000  0.50000000  1
  Be  Be1  1  0.50000000  0.50000000  0.40774647  1
  Be  Be1  1  0.75000000  0.25000000  0.34225353  1
  Be  Be1  1  0.75000000  0.25000000  0.15774647  1
  Be  Be1  1  0.00000000  0.50000000  0.09225353  1
  B  B1  1  0.50000000  0.28437646  0.50000000  1
  B  B1  1  0.75000000  0.03437646  0.25000000  1
  B  B1  1  0.00000000  0.21562354  0.50000000  1
  B  B1  1  0.75000000  0.46562354  0.25000000  1
  O  O1  1  0.00000000  0.09778646  0.50000000  1
  O  O2  1  0.20722270  0.02418430  0.33906196  1
  O  O2  1  0.95722270  0.27418430  0.41093804  1
  O  O2  1  0.20722270  0.47581570  0.16093804  1
  O  O2  1  0.54277730  0.22581570  0.41093804  1
  O  O2  1  0.29277730  0.02418430  0.16093804  1
  O  O1  1  0.50000000  0.40221354  0.50000000  1
  O  O1  1  0.75000000  0.34778646  0.25000000  1
  O  O2  1  0.54277730  0.27418430  0.08906196  1
  O  O2  1  0.95722270  0.22581570  0.08906196  1
  O  O1  1  0.75000000  0.15221354  0.25000000  1
  O  O2  1  0.29277730  0.47581570  0.33906196  1
  Ba  Ba1  1  0.75000000  0.75000000  0.25000000  1
  Ba  Ba1  1  0.50000000  0.00000000  0.50000000  1
  Be  Be1  1  0.00000000  0.00000000  0.40774647  1
  Be  Be1  1  0.25000000  0.75000000  0.34225353  1
  Be  Be1  1  0.25000000  0.75000000  0.15774647  1
  Be  Be1  1  0.50000000  0.00000000  0.09225353  1
  B  B1  1  0.00000000  0.78437646  0.50000000  1
  B  B1  1  0.25000000  0.53437646  0.25000000  1
  B  B1  1  0.50000000  0.71562354  0.50000000  1
  B  B1  1  0.25000000  0.96562354  0.25000000  1
  O  O1  1  0.50000000  0.59778646  0.50000000  1
  O  O2  1  0.70722270  0.52418430  0.33906196  1
  O  O2  1  0.45722270  0.77418430  0.41093804  1
  O  O2  1  0.70722270  0.97581570  0.16093804  1
  O  O2  1  0.04277730  0.72581570  0.41093804  1
  O  O2  1  0.79277730  0.52418430  0.16093804  1
  O  O1  1  0.00000000  0.90221354  0.50000000  1
  O  O1  1  0.25000000  0.84778646  0.25000000  1
  O  O2  1  0.04277730  0.77418430  0.08906196  1
  O  O2  1  0.45722270  0.72581570  0.08906196  1
  O  O1  1  0.25000000  0.65221354  0.25000000  1
  O  O2  1  0.79277730  0.97581570  0.33906196  1
  Ba  Ba1  1  0.75000000  0.25000000  0.75000000  1
  Ba  Ba1  1  0.50000000  0.50000000  0.00000000  1
  Be  Be1  1  0.00000000  0.50000000  0.90774647  1
  Be  Be1  1  0.25000000  0.25000000  0.84225353  1
  Be  Be1  1  0.25000000  0.25000000  0.65774647  1
  Be  Be1  1  0.50000000  0.50000000  0.59225353  1
  B  B1  1  0.00000000  0.28437646  0.00000000  1
  B  B1  1  0.25000000  0.03437646  0.75000000  1
  B  B1  1  0.50000000  0.21562354  0.00000000  1
  B  B1  1  0.25000000  0.46562354  0.75000000  1
  O  O1  1  0.50000000  0.09778646  0.00000000  1
  O  O2  1  0.70722270  0.02418430  0.83906196  1
  O  O2  1  0.45722270  0.27418430  0.91093804  1
  O  O2  1  0.70722270  0.47581570  0.66093804  1
  O  O2  1  0.04277730  0.22581570  0.91093804  1
  O  O2  1  0.79277730  0.02418430  0.66093804  1
  O  O1  1  0.00000000  0.40221354  0.00000000  1
  O  O1  1  0.25000000  0.34778646  0.75000000  1
  O  O2  1  0.04277730  0.27418430  0.58906196  1
  O  O2  1  0.45722270  0.22581570  0.58906196  1
  O  O1  1  0.25000000  0.15221354  0.75000000  1
  O  O2  1  0.79277730  0.47581570  0.83906196  1
