# generated using pymatgen
data_BaBeSiO4
_symmetry_space_group_name_H-M   'P 1'
_cell_length_a   8.80031983
_cell_length_b   5.24866543
_cell_length_c   5.01853702
_cell_angle_alpha   90.00000000
_cell_angle_beta   124.34757986
_cell_angle_gamma   90.00000000
_symmetry_Int_Tables_number   1
_chemical_formula_structural   BaBeSiO4
_chemical_formula_sum   'Ba2 Be2 Si2 O8'
_cell_volume   191.38591194
_cell_formula_units_Z   2
loop_
 _symmetry_equiv_pos_site_id
 _symmetry_equiv_pos_as_xyz
  1  'x, y, z'
loop_
 _atom_site_type_symbol
 _atom_site_label
 _atom_site_symmetry_multiplicity
 _atom_site_fract_x
 _atom_site_fract_y
 _atom_site_fract_z
 _atom_site_occupancy
  Ba  Ba1  1  0.48025536  0.50000000  0.96669637  1
  Be  Be1  1  0.75299364  0.50000000  0.73689364  1
  Si  Si1  1  0.00144858  0.50000000  0.48558054  1
  O  O1  1  0.12790510  0.75157467  0.55234992  1
  O  O2  1  0.82207428  0.50000000  0.11224155  1
  O  O1  1  0.12790510  0.24842533  0.55234992  1
  O  O3  1  0.93641694  0.50000000  0.73318607  1
  Ba  Ba1  1  0.98025536  0.00000000  0.96669637  1
  Be  Be1  1  0.25299364  0.00000000  0.73689364  1
  Si  Si1  1  0.50144858  0.00000000  0.48558054  1
  O  O1  1  0.62790510  0.25157467  0.55234992  1
  O  O2  1  0.32207428  0.00000000  0.11224155  1
  O  O1  1  0.62790510  0.74842533  0.55234992  1
  O  O3  1  0.43641694  0.00000000  0.73318607  1
