# generated using pymatgen
data_BaBiBO4
_symmetry_space_group_name_H-M   'P 1'
_cell_length_a   8.55027403
_cell_length_b   5.13398435
_cell_length_c   9.68865049
_cell_angle_alpha   90.00000000
_cell_angle_beta   90.00000000
_cell_angle_gamma   90.00000000
_symmetry_Int_Tables_number   1
_chemical_formula_structural   BaBiBO4
_chemical_formula_sum   'Ba4 Bi4 B4 O16'
_cell_volume   425.30242909
_cell_formula_units_Z   4
loop_
 _symmetry_equiv_pos_site_id
 _symmetry_equiv_pos_as_xyz
  1  'x, y, z'
loop_
 _atom_site_type_symbol
 _atom_site_label
 _atom_site_symmetry_multiplicity
 _atom_site_fract_x
 _atom_site_fract_y
 _atom_site_fract_z
 _atom_site_occupancy
  Ba  Ba1  1  0.50688884  0.25000000  0.68279184  1
  Ba  Ba1  1  0.99311116  0.75000000  0.18279184  1
  Ba  Ba1  1  0.49311116  0.75000000  0.31720816  1
  Ba  Ba1  1  0.00688884  0.25000000  0.81720816  1
  Bi  Bi1  1  0.80906410  0.75000000  0.56252696  1
  Bi  Bi1  1  0.19093590  0.25000000  0.43747304  1
  Bi  Bi1  1  0.69093590  0.25000000  0.06252696  1
  Bi  Bi1  1  0.30906410  0.75000000  0.93747304  1
  B  B1  1  0.69971112  0.75000000  0.94095186  1
  B  B1  1  0.30028888  0.25000000  0.05904814  1
  B  B1  1  0.80028888  0.25000000  0.44095186  1
  B  B1  1  0.19971112  0.75000000  0.55904814  1
  O  O1  1  0.20614818  0.98744080  0.62525284  1
  O  O2  1  0.31507150  0.25000000  0.91546154  1
  O  O1  1  0.29385182  0.01255920  0.12525284  1
  O  O1  1  0.20614818  0.51255920  0.62525284  1
  O  O1  1  0.29385182  0.48744080  0.12525284  1
  O  O3  1  0.07297086  0.75000000  0.91385648  1
  O  O2  1  0.18492850  0.75000000  0.41546154  1
  O  O2  1  0.68492850  0.75000000  0.08453846  1
  O  O1  1  0.79385182  0.01255920  0.37474716  1
  O  O1  1  0.70614818  0.51255920  0.87474716  1
  O  O3  1  0.57297086  0.75000000  0.58614352  1
  O  O3  1  0.42702914  0.25000000  0.41385648  1
  O  O1  1  0.70614818  0.98744080  0.87474716  1
  O  O3  1  0.92702914  0.25000000  0.08614352  1
  O  O1  1  0.79385182  0.48744080  0.37474716  1
  O  O2  1  0.81507150  0.25000000  0.58453846  1
