# generated using pymatgen
data_BaCa(GaO2)4
_symmetry_space_group_name_H-M   'P 1'
_cell_length_a   8.20891367
_cell_length_b   9.16640131
_cell_length_c   5.16000458
_cell_angle_alpha   90.00000000
_cell_angle_beta   90.00000000
_cell_angle_gamma   90.00000000
_symmetry_Int_Tables_number   1
_chemical_formula_structural   BaCa(GaO2)4
_chemical_formula_sum   'Ba2 Ca2 Ga8 O16'
_cell_volume   388.27072078
_cell_formula_units_Z   2
loop_
 _symmetry_equiv_pos_site_id
 _symmetry_equiv_pos_as_xyz
  1  'x, y, z'
loop_
 _atom_site_type_symbol
 _atom_site_label
 _atom_site_symmetry_multiplicity
 _atom_site_fract_x
 _atom_site_fract_y
 _atom_site_fract_z
 _atom_site_occupancy
  Ba  Ba1  1  0.00000000  0.00000000  0.98739969  1
  Ca  Ca1  1  0.50000000  0.00000000  0.06974968  1
  Ga  Ga1  1  0.29104214  0.16745812  0.54037929  1
  Ga  Ga1  1  0.29104214  0.83254188  0.54037929  1
  Ga  Ga1  1  0.70895786  0.83254188  0.54037929  1
  Ga  Ga1  1  0.70895786  0.16745812  0.54037929  1
  O  O1  1  0.70418360  0.16384864  0.89920048  1
  O  O1  1  0.29581640  0.83615136  0.89920048  1
  O  O2  1  0.18994214  0.00000000  0.42539797  1
  O  O2  1  0.81005786  0.00000000  0.42539797  1
  O  O1  1  0.70418360  0.83615136  0.89920048  1
  O  O1  1  0.29581640  0.16384864  0.89920048  1
  O  O3  1  0.50000000  0.82536486  0.40711729  1
  O  O3  1  0.50000000  0.17463514  0.40711729  1
  Ba  Ba1  1  0.50000000  0.50000000  0.48739969  1
  Ca  Ca1  1  0.00000000  0.50000000  0.56974968  1
  Ga  Ga1  1  0.79104214  0.66745812  0.04037929  1
  Ga  Ga1  1  0.79104214  0.33254188  0.04037929  1
  Ga  Ga1  1  0.20895786  0.33254188  0.04037929  1
  Ga  Ga1  1  0.20895786  0.66745812  0.04037929  1
  O  O1  1  0.20418360  0.66384864  0.39920048  1
  O  O1  1  0.79581640  0.33615136  0.39920048  1
  O  O2  1  0.68994214  0.50000000  0.92539797  1
  O  O2  1  0.31005786  0.50000000  0.92539797  1
  O  O1  1  0.20418360  0.33615136  0.39920048  1
  O  O1  1  0.79581640  0.66384864  0.39920048  1
  O  O3  1  0.00000000  0.32536486  0.90711729  1
  O  O3  1  0.00000000  0.67463514  0.90711729  1
