# generated using pymatgen
data_BaCeO3
_symmetry_space_group_name_H-M   'P 1'
_cell_length_a   6.25609703
_cell_length_b   8.80225322
_cell_length_c   6.24584131
_cell_angle_alpha   90.00000000
_cell_angle_beta   90.00000000
_cell_angle_gamma   90.00000000
_symmetry_Int_Tables_number   1
_chemical_formula_structural   BaCeO3
_chemical_formula_sum   'Ba4 Ce4 O12'
_cell_volume   343.94442923
_cell_formula_units_Z   4
loop_
 _symmetry_equiv_pos_site_id
 _symmetry_equiv_pos_as_xyz
  1  'x, y, z'
loop_
 _atom_site_type_symbol
 _atom_site_label
 _atom_site_symmetry_multiplicity
 _atom_site_fract_x
 _atom_site_fract_y
 _atom_site_fract_z
 _atom_site_occupancy
  Ba  Ba1  1  0.97258293  0.25000000  0.49091651  1
  Ba  Ba1  1  0.47258293  0.25000000  0.00908349  1
  Ba  Ba1  1  0.02741707  0.75000000  0.50908349  1
  Ba  Ba1  1  0.52741707  0.75000000  0.99091651  1
  Ce  Ce1  1  0.50000000  0.00000000  0.50000000  1
  Ce  Ce1  1  0.00000000  0.50000000  0.00000000  1
  Ce  Ce1  1  0.50000000  0.50000000  0.50000000  1
  Ce  Ce1  1  0.00000000  0.00000000  0.00000000  1
  O  O1  1  0.52197239  0.25000000  0.58344603  1
  O  O1  1  0.02197239  0.25000000  0.91655397  1
  O  O1  1  0.47802761  0.75000000  0.41655397  1
  O  O1  1  0.97802761  0.75000000  0.08344603  1
  O  O2  1  0.71928578  0.04578470  0.22002876  1
  O  O2  1  0.21928578  0.45421530  0.27997124  1
  O  O2  1  0.28071422  0.54578470  0.77997124  1
  O  O2  1  0.78071422  0.95421530  0.72002876  1
  O  O2  1  0.28071422  0.95421530  0.77997124  1
  O  O2  1  0.78071422  0.54578470  0.72002876  1
  O  O2  1  0.71928578  0.45421530  0.22002876  1
  O  O2  1  0.21928578  0.04578470  0.27997124  1
