# generated using pymatgen
data_BaGa2B2O7
_symmetry_space_group_name_H-M   'P 1'
_cell_length_a   11.74181667
_cell_length_b   8.71362279
_cell_length_c   5.79980681
_cell_angle_alpha   90.00000000
_cell_angle_beta   90.00000000
_cell_angle_gamma   90.00000000
_symmetry_Int_Tables_number   1
_chemical_formula_structural   BaGa2B2O7
_chemical_formula_sum   'Ba4 Ga8 B8 O28'
_cell_volume   593.40004973
_cell_formula_units_Z   4
loop_
 _symmetry_equiv_pos_site_id
 _symmetry_equiv_pos_as_xyz
  1  'x, y, z'
loop_
 _atom_site_type_symbol
 _atom_site_label
 _atom_site_symmetry_multiplicity
 _atom_site_fract_x
 _atom_site_fract_y
 _atom_site_fract_z
 _atom_site_occupancy
  Ba  Ba1  1  0.00000000  0.80607892  0.25000000  1
  Ba  Ba1  1  0.00000000  0.19392108  0.75000000  1
  Ga  Ga1  1  0.29103963  0.58112184  0.25000000  1
  Ga  Ga1  1  0.29103963  0.41887816  0.75000000  1
  Ga  Ga1  1  0.70896037  0.58112184  0.25000000  1
  Ga  Ga1  1  0.70896037  0.41887816  0.75000000  1
  B  B1  1  0.88879195  0.60619557  0.75000000  1
  B  B1  1  0.11120805  0.39380443  0.25000000  1
  B  B1  1  0.88879195  0.39380443  0.25000000  1
  B  B1  1  0.11120805  0.60619557  0.75000000  1
  O  O1  1  0.36715691  0.50000000  0.50000000  1
  O  O2  1  0.00000000  0.33343210  0.25000000  1
  O  O1  1  0.63284309  0.50000000  0.00000000  1
  O  O3  1  0.13299999  0.54877930  0.25000000  1
  O  O1  1  0.63284309  0.50000000  0.50000000  1
  O  O1  1  0.36715691  0.50000000  0.00000000  1
  O  O2  1  0.00000000  0.66656790  0.75000000  1
  O  O4  1  0.19956468  0.70707117  0.75000000  1
  O  O3  1  0.86700001  0.45122070  0.75000000  1
  O  O4  1  0.19956468  0.29292883  0.25000000  1
  O  O4  1  0.80043532  0.29292883  0.25000000  1
  O  O3  1  0.86700001  0.54877930  0.25000000  1
  O  O3  1  0.13299999  0.45122070  0.75000000  1
  O  O4  1  0.80043532  0.70707117  0.75000000  1
  Ba  Ba1  1  0.50000000  0.30607892  0.25000000  1
  Ba  Ba1  1  0.50000000  0.69392108  0.75000000  1
  Ga  Ga1  1  0.79103963  0.08112184  0.25000000  1
  Ga  Ga1  1  0.79103963  0.91887816  0.75000000  1
  Ga  Ga1  1  0.20896037  0.08112184  0.25000000  1
  Ga  Ga1  1  0.20896037  0.91887816  0.75000000  1
  B  B1  1  0.38879195  0.10619557  0.75000000  1
  B  B1  1  0.61120805  0.89380443  0.25000000  1
  B  B1  1  0.38879195  0.89380443  0.25000000  1
  B  B1  1  0.61120805  0.10619557  0.75000000  1
  O  O1  1  0.86715691  0.00000000  0.50000000  1
  O  O2  1  0.50000000  0.83343210  0.25000000  1
  O  O1  1  0.13284309  0.00000000  0.00000000  1
  O  O3  1  0.63299999  0.04877930  0.25000000  1
  O  O1  1  0.13284309  0.00000000  0.50000000  1
  O  O1  1  0.86715691  0.00000000  0.00000000  1
  O  O2  1  0.50000000  0.16656790  0.75000000  1
  O  O4  1  0.69956468  0.20707117  0.75000000  1
  O  O3  1  0.36700001  0.95122070  0.75000000  1
  O  O4  1  0.69956468  0.79292883  0.25000000  1
  O  O4  1  0.30043532  0.79292883  0.25000000  1
  O  O3  1  0.36700001  0.04877930  0.25000000  1
  O  O3  1  0.63299999  0.95122070  0.75000000  1
  O  O4  1  0.30043532  0.20707117  0.75000000  1
