# generated using pymatgen
data_BaGa4O7
_symmetry_space_group_name_H-M   'P 1'
_cell_length_a   13.69034223
_cell_length_b   9.40284055
_cell_length_c   5.79031628
_cell_angle_alpha   90.00000000
_cell_angle_beta   104.67275882
_cell_angle_gamma   90.00000000
_symmetry_Int_Tables_number   1
_chemical_formula_structural   BaGa4O7
_chemical_formula_sum   'Ba4 Ga16 O28'
_cell_volume   721.06844330
_cell_formula_units_Z   4
loop_
 _symmetry_equiv_pos_site_id
 _symmetry_equiv_pos_as_xyz
  1  'x, y, z'
loop_
 _atom_site_type_symbol
 _atom_site_label
 _atom_site_symmetry_multiplicity
 _atom_site_fract_x
 _atom_site_fract_y
 _atom_site_fract_z
 _atom_site_occupancy
  Ba  Ba1  1  0.00000000  0.31063184  0.25000000  1
  Ba  Ba1  1  0.00000000  0.68936816  0.75000000  1
  Ga  Ga1  1  0.62056267  0.43626420  0.27722271  1
  Ga  Ga1  1  0.62056267  0.56373580  0.77722271  1
  Ga  Ga2  1  0.82628352  0.58735722  0.20516606  1
  Ga  Ga2  1  0.82628352  0.41264278  0.70516606  1
  Ga  Ga2  1  0.17371648  0.58735722  0.29483394  1
  Ga  Ga2  1  0.17371648  0.41264278  0.79483394  1
  Ga  Ga1  1  0.37943733  0.43626420  0.22277729  1
  Ga  Ga1  1  0.37943733  0.56373580  0.72277729  1
  O  O1  1  0.68581055  0.56089270  0.10715523  1
  O  O1  1  0.68581055  0.43910730  0.60715523  1
  O  O2  1  0.87860965  0.46310128  0.45448563  1
  O  O3  1  0.87341300  0.75835836  0.33379931  1
  O  O2  1  0.87860965  0.53689872  0.95448563  1
  O  O3  1  0.87341300  0.24164164  0.83379931  1
  O  O4  1  0.00000000  0.02503658  0.25000000  1
  O  O4  1  0.00000000  0.97496342  0.75000000  1
  O  O3  1  0.12658700  0.75835836  0.16620069  1
  O  O2  1  0.12139035  0.46310128  0.04551437  1
  O  O3  1  0.12658700  0.24164164  0.66620069  1
  O  O2  1  0.12139035  0.53689872  0.54551437  1
  O  O1  1  0.31418945  0.56089270  0.39284477  1
  O  O1  1  0.31418945  0.43910730  0.89284477  1
  Ba  Ba1  1  0.50000000  0.81063184  0.25000000  1
  Ba  Ba1  1  0.50000000  0.18936816  0.75000000  1
  Ga  Ga1  1  0.12056267  0.93626420  0.27722271  1
  Ga  Ga1  1  0.12056267  0.06373580  0.77722271  1
  Ga  Ga2  1  0.32628352  0.08735722  0.20516606  1
  Ga  Ga2  1  0.32628352  0.91264278  0.70516606  1
  Ga  Ga2  1  0.67371648  0.08735722  0.29483394  1
  Ga  Ga2  1  0.67371648  0.91264278  0.79483394  1
  Ga  Ga1  1  0.87943733  0.93626420  0.22277729  1
  Ga  Ga1  1  0.87943733  0.06373580  0.72277729  1
  O  O1  1  0.18581055  0.06089270  0.10715523  1
  O  O1  1  0.18581055  0.93910730  0.60715523  1
  O  O2  1  0.37860965  0.96310128  0.45448563  1
  O  O3  1  0.37341300  0.25835836  0.33379931  1
  O  O2  1  0.37860965  0.03689872  0.95448563  1
  O  O3  1  0.37341300  0.74164164  0.83379931  1
  O  O4  1  0.50000000  0.52503658  0.25000000  1
  O  O4  1  0.50000000  0.47496342  0.75000000  1
  O  O3  1  0.62658700  0.25835836  0.16620069  1
  O  O2  1  0.62139035  0.96310128  0.04551437  1
  O  O3  1  0.62658700  0.74164164  0.66620069  1
  O  O2  1  0.62139035  0.03689872  0.54551437  1
  O  O1  1  0.81418945  0.06089270  0.39284477  1
  O  O1  1  0.81418945  0.93910730  0.89284477  1
