# generated using pymatgen
data_BaGePbO4
_symmetry_space_group_name_H-M   'P 1'
_cell_length_a   6.27297745
_cell_length_b   7.56239090
_cell_length_c   10.24390239
_cell_angle_alpha   90.00000000
_cell_angle_beta   90.00000000
_cell_angle_gamma   90.00000000
_symmetry_Int_Tables_number   1
_chemical_formula_structural   BaGePbO4
_chemical_formula_sum   'Ba4 Ge4 Pb4 O16'
_cell_volume   485.95749030
_cell_formula_units_Z   4
loop_
 _symmetry_equiv_pos_site_id
 _symmetry_equiv_pos_as_xyz
  1  'x, y, z'
loop_
 _atom_site_type_symbol
 _atom_site_label
 _atom_site_symmetry_multiplicity
 _atom_site_fract_x
 _atom_site_fract_y
 _atom_site_fract_z
 _atom_site_occupancy
  Ba  Ba1  1  0.47440737  0.74776062  0.79046912  1
  Ba  Ba1  1  0.97440737  0.75223938  0.20953088  1
  Ba  Ba1  1  0.02559263  0.25223938  0.29046912  1
  Ba  Ba1  1  0.52559263  0.24776062  0.70953088  1
  Ge  Ge1  1  0.51971441  0.96081810  0.08942834  1
  Ge  Ge1  1  0.01971441  0.53918190  0.91057166  1
  Ge  Ge1  1  0.98028559  0.03918190  0.58942834  1
  Ge  Ge1  1  0.48028559  0.46081810  0.41057166  1
  Pb  Pb1  1  0.42657075  0.94090178  0.40737020  1
  Pb  Pb1  1  0.92657075  0.55909822  0.59262980  1
  Pb  Pb1  1  0.07342925  0.05909822  0.90737020  1
  Pb  Pb1  1  0.57342925  0.44090178  0.09262980  1
  O  O1  1  0.43773149  0.05765272  0.93700840  1
  O  O1  1  0.93773149  0.44234728  0.06299160  1
  O  O1  1  0.06226851  0.94234728  0.43700840  1
  O  O1  1  0.56226851  0.55765272  0.56299160  1
  O  O2  1  0.74329475  0.05739934  0.16742362  1
  O  O2  1  0.24329475  0.44260066  0.83257638  1
  O  O2  1  0.75670525  0.94260066  0.66742362  1
  O  O2  1  0.25670525  0.55739934  0.33257638  1
  O  O3  1  0.59596400  0.73658144  0.05173518  1
  O  O3  1  0.09596400  0.76341856  0.94826482  1
  O  O3  1  0.90403600  0.26341856  0.55173518  1
  O  O3  1  0.40403600  0.23658144  0.44826482  1
  O  O4  1  0.29637603  0.98564914  0.19872928  1
  O  O4  1  0.79637603  0.51435086  0.80127072  1
  O  O4  1  0.20362397  0.01435086  0.69872928  1
  O  O4  1  0.70362397  0.48564914  0.30127072  1
