# generated using pymatgen
data_BaHf(SiO3)3
_symmetry_space_group_name_H-M   'P 1'
_cell_length_a   6.75979069
_cell_length_b   6.75979069
_cell_length_c   10.04454504
_cell_angle_alpha   90.00000000
_cell_angle_beta   90.00000000
_cell_angle_gamma   120.00000000
_symmetry_Int_Tables_number   1
_chemical_formula_structural   BaHf(SiO3)3
_chemical_formula_sum   'Ba2 Hf2 Si6 O18'
_cell_volume   397.49109127
_cell_formula_units_Z   2
loop_
 _symmetry_equiv_pos_site_id
 _symmetry_equiv_pos_as_xyz
  1  'x, y, z'
loop_
 _atom_site_type_symbol
 _atom_site_label
 _atom_site_symmetry_multiplicity
 _atom_site_fract_x
 _atom_site_fract_y
 _atom_site_fract_z
 _atom_site_occupancy
  Ba  Ba1  1  0.00000000  0.00000000  0.00000000  1
  Ba  Ba1  1  0.00000000  0.00000000  0.50000000  1
  Hf  Hf1  1  0.33333333  0.66666667  0.00000000  1
  Hf  Hf1  1  0.33333333  0.66666667  0.50000000  1
  Si  Si1  1  0.94872478  0.39185902  0.75000000  1
  Si  Si1  1  0.60814098  0.55686576  0.75000000  1
  Si  Si1  1  0.44313424  0.05127522  0.75000000  1
  Si  Si1  1  0.94872478  0.55686576  0.25000000  1
  Si  Si1  1  0.60814098  0.05127522  0.25000000  1
  Si  Si1  1  0.44313424  0.39185902  0.25000000  1
  O  O1  1  0.86423390  0.58212440  0.75000000  1
  O  O1  1  0.41787560  0.28210950  0.75000000  1
  O  O1  1  0.71789050  0.13576610  0.75000000  1
  O  O1  1  0.86423390  0.28210950  0.25000000  1
  O  O1  1  0.41787560  0.13576610  0.25000000  1
  O  O1  1  0.71789050  0.58212440  0.25000000  1
  O  O2  1  0.08889516  0.40770020  0.88422736  1
  O  O2  1  0.59229980  0.68119496  0.88422736  1
  O  O2  1  0.31880504  0.91110484  0.88422736  1
  O  O2  1  0.08889516  0.40770020  0.61577264  1
  O  O2  1  0.59229980  0.68119496  0.61577264  1
  O  O2  1  0.31880504  0.91110484  0.61577264  1
  O  O2  1  0.08889516  0.68119496  0.38422736  1
  O  O2  1  0.59229980  0.91110484  0.38422736  1
  O  O2  1  0.31880504  0.40770020  0.38422736  1
  O  O2  1  0.08889516  0.68119496  0.11577264  1
  O  O2  1  0.59229980  0.91110484  0.11577264  1
  O  O2  1  0.31880504  0.40770020  0.11577264  1
