# generated using pymatgen
data_BaHf(BO3)2
_symmetry_space_group_name_H-M   'P 1'
_cell_length_a   5.14819381
_cell_length_b   5.14819381
_cell_length_c   33.73118156
_cell_angle_alpha   90.00000000
_cell_angle_beta   90.00000000
_cell_angle_gamma   120.00000000
_symmetry_Int_Tables_number   1
_chemical_formula_structural   BaHf(BO3)2
_chemical_formula_sum   'Ba6 Hf6 B12 O36'
_cell_volume   774.23350605
_cell_formula_units_Z   6
loop_
 _symmetry_equiv_pos_site_id
 _symmetry_equiv_pos_as_xyz
  1  'x, y, z'
loop_
 _atom_site_type_symbol
 _atom_site_label
 _atom_site_symmetry_multiplicity
 _atom_site_fract_x
 _atom_site_fract_y
 _atom_site_fract_z
 _atom_site_occupancy
  Ba  Ba1  1  0.33333333  0.66666667  0.41666667  1
  Ba  Ba1  1  0.00000000  0.00000000  0.25000000  1
  Hf  Hf1  1  0.66666667  0.33333333  0.33333333  1
  Hf  Hf1  1  -0.00000000  0.00000000  0.50000000  1
  B  B1  1  0.66666667  0.33333333  0.20209594  1
  B  B1  1  0.00000000  0.00000000  0.36876261  1
  B  B1  1  0.66666667  0.33333333  0.46457073  1
  B  B1  1  0.33333333  0.66666667  0.29790406  1
  O  O1  1  0.96796757  0.54271179  0.20298631  1
  O  O1  1  0.57474423  0.03203243  0.20298631  1
  O  O1  1  0.45728821  0.42525577  0.20298631  1
  O  O1  1  0.90807756  0.20937846  0.36965298  1
  O  O1  1  0.30130090  0.09192244  0.36965298  1
  O  O1  1  0.79062154  0.69869910  0.36965298  1
  O  O1  1  0.87604513  0.24141089  0.46368035  1
  O  O1  1  0.36536577  0.12395487  0.46368035  1
  O  O1  1  0.75858911  0.63463423  0.46368035  1
  O  O1  1  0.03203243  0.57474423  0.29701369  1
  O  O1  1  0.54271179  0.96796757  0.29701369  1
  O  O1  1  0.42525577  0.45728821  0.29701369  1
  Ba  Ba1  1  0.00000000  0.00000000  0.75000000  1
  Ba  Ba1  1  0.66666667  0.33333333  0.58333333  1
  Hf  Hf1  1  0.33333333  0.66666667  0.66666667  1
  Hf  Hf1  1  0.66666667  0.33333333  0.83333333  1
  B  B1  1  0.33333333  0.66666667  0.53542927  1
  B  B1  1  0.66666667  0.33333333  0.70209594  1
  B  B1  1  0.33333333  0.66666667  0.79790406  1
  B  B1  1  0.00000000  0.00000000  0.63123739  1
  O  O1  1  0.63463423  0.87604513  0.53631965  1
  O  O1  1  0.24141089  0.36536577  0.53631965  1
  O  O1  1  0.12395487  0.75858911  0.53631965  1
  O  O1  1  0.57474423  0.54271179  0.70298631  1
  O  O1  1  0.96796757  0.42525577  0.70298631  1
  O  O1  1  0.45728821  0.03203243  0.70298631  1
  O  O1  1  0.54271179  0.57474423  0.79701369  1
  O  O1  1  0.03203243  0.45728821  0.79701369  1
  O  O1  1  0.42525577  0.96796757  0.79701369  1
  O  O1  1  0.69869910  0.90807756  0.63034702  1
  O  O1  1  0.20937846  0.30130090  0.63034702  1
  O  O1  1  0.09192244  0.79062154  0.63034702  1
  Ba  Ba1  1  0.66666667  0.33333333  0.08333333  1
  Ba  Ba1  1  0.33333333  0.66666667  0.91666667  1
  Hf  Hf1  1  0.00000000  -0.00000000  0.00000000  1
  Hf  Hf1  1  0.33333333  0.66666667  0.16666667  1
  B  B1  1  0.00000000  0.00000000  0.86876261  1
  B  B1  1  0.33333333  0.66666667  0.03542927  1
  B  B1  1  0.00000000  0.00000000  0.13123739  1
  B  B1  1  0.66666667  0.33333333  0.96457073  1
  O  O1  1  0.30130090  0.20937846  0.86965298  1
  O  O1  1  0.90807756  0.69869910  0.86965298  1
  O  O1  1  0.79062154  0.09192244  0.86965298  1
  O  O1  1  0.24141089  0.87604513  0.03631965  1
  O  O1  1  0.63463423  0.75858911  0.03631965  1
  O  O1  1  0.12395487  0.36536577  0.03631965  1
  O  O1  1  0.20937846  0.90807756  0.13034702  1
  O  O1  1  0.69869910  0.79062154  0.13034702  1
  O  O1  1  0.09192244  0.30130090  0.13034702  1
  O  O1  1  0.36536577  0.24141089  0.96368035  1
  O  O1  1  0.87604513  0.63463423  0.96368035  1
  O  O1  1  0.75858911  0.12395487  0.96368035  1
