# generated using pymatgen
data_BaHgO2
_symmetry_space_group_name_H-M   'P 1'
_cell_length_a   4.12744864
_cell_length_b   4.12744864
_cell_length_c   19.38348778
_cell_angle_alpha   90.00000000
_cell_angle_beta   90.00000000
_cell_angle_gamma   120.00000000
_symmetry_Int_Tables_number   1
_chemical_formula_structural   BaHgO2
_chemical_formula_sum   'Ba3 Hg3 O6'
_cell_volume   285.97358024
_cell_formula_units_Z   3
loop_
 _symmetry_equiv_pos_site_id
 _symmetry_equiv_pos_as_xyz
  1  'x, y, z'
loop_
 _atom_site_type_symbol
 _atom_site_label
 _atom_site_symmetry_multiplicity
 _atom_site_fract_x
 _atom_site_fract_y
 _atom_site_fract_z
 _atom_site_occupancy
  Ba  Ba1  1  0.66666667  0.33333333  0.83333333  1
  Hg  Hg1  1  0.00000000  0.00000000  0.00000000  1
  O  O1  1  0.33333333  0.66666667  0.76856876  1
  O  O1  1  0.00000000  0.00000000  0.89809791  1
  Ba  Ba1  1  0.33333333  0.66666667  0.16666667  1
  Hg  Hg1  1  0.66666667  0.33333333  0.33333333  1
  O  O1  1  0.00000000  0.00000000  0.10190209  1
  O  O1  1  0.66666667  0.33333333  0.23143124  1
  Ba  Ba1  1  -0.00000000  -0.00000000  0.50000000  1
  Hg  Hg1  1  0.33333333  0.66666667  0.66666667  1
  O  O1  1  0.66666667  0.33333333  0.43523543  1
  O  O1  1  0.33333333  0.66666667  0.56476457  1
