# generated using pymatgen
data_BaLa2PdO5
_symmetry_space_group_name_H-M   'P 1'
_cell_length_a   6.82862111
_cell_length_b   6.82862111
_cell_length_c   5.89084552
_cell_angle_alpha   90.00000000
_cell_angle_beta   90.00000000
_cell_angle_gamma   90.00000000
_symmetry_Int_Tables_number   1
_chemical_formula_structural   BaLa2PdO5
_chemical_formula_sum   'Ba2 La4 Pd2 O10'
_cell_volume   274.69051717
_cell_formula_units_Z   2
loop_
 _symmetry_equiv_pos_site_id
 _symmetry_equiv_pos_as_xyz
  1  'x, y, z'
loop_
 _atom_site_type_symbol
 _atom_site_label
 _atom_site_symmetry_multiplicity
 _atom_site_fract_x
 _atom_site_fract_y
 _atom_site_fract_z
 _atom_site_occupancy
  Ba  Ba1  1  0.50000000  0.50000000  0.00000000  1
  Ba  Ba1  1  0.00000000  0.00000000  0.00000000  1
  La  La1  1  0.67460096  0.82539904  0.50000000  1
  La  La1  1  0.32539904  0.17460096  0.50000000  1
  La  La1  1  0.17460096  0.67460096  0.50000000  1
  La  La1  1  0.82539904  0.32539904  0.50000000  1
  Pd  Pd1  1  0.50000000  0.00000000  0.00000000  1
  Pd  Pd1  1  0.00000000  0.50000000  0.00000000  1
  O  O1  1  0.85795890  0.64204110  0.24505222  1
  O  O1  1  0.14204110  0.35795890  0.24505222  1
  O  O1  1  0.35795890  0.85795890  0.24505222  1
  O  O1  1  0.64204110  0.14204110  0.24505222  1
  O  O1  1  0.14204110  0.35795890  0.75494778  1
  O  O1  1  0.85795890  0.64204110  0.75494778  1
  O  O1  1  0.64204110  0.14204110  0.75494778  1
  O  O1  1  0.35795890  0.85795890  0.75494778  1
  O  O2  1  0.50000000  0.50000000  0.50000000  1
  O  O2  1  0.00000000  0.00000000  0.50000000  1
