# generated using pymatgen
data_BaLa2O4
_symmetry_space_group_name_H-M   'P 1'
_cell_length_a   10.41950962
_cell_length_b   10.41950962
_cell_length_c   10.41950962
_cell_angle_alpha   90.00000000
_cell_angle_beta   90.00000000
_cell_angle_gamma   90.00000000
_symmetry_Int_Tables_number   1
_chemical_formula_structural   BaLa2O4
_chemical_formula_sum   'Ba8 La16 O32'
_cell_volume   1131.20636280
_cell_formula_units_Z   8
loop_
 _symmetry_equiv_pos_site_id
 _symmetry_equiv_pos_as_xyz
  1  'x, y, z'
loop_
 _atom_site_type_symbol
 _atom_site_label
 _atom_site_symmetry_multiplicity
 _atom_site_fract_x
 _atom_site_fract_y
 _atom_site_fract_z
 _atom_site_occupancy
  Ba  Ba1  1  0.00000000  0.00000000  0.00000000  1
  Ba  Ba1  1  0.25000000  0.25000000  0.25000000  1
  La  La1  1  0.12500000  0.12500000  0.62500000  1
  La  La1  1  0.37500000  0.12500000  0.87500000  1
  La  La1  1  0.12500000  0.87500000  0.37500000  1
  La  La1  1  0.37500000  0.87500000  0.12500000  1
  O  O1  1  0.14345046  0.64345046  0.35654954  1
  O  O1  1  0.35654954  0.64345046  0.14345046  1
  O  O1  1  0.14345046  0.85654954  0.14345046  1
  O  O1  1  0.39345046  0.89345046  0.89345046  1
  O  O1  1  0.35654954  0.85654954  0.35654954  1
  O  O1  1  0.10654954  0.89345046  0.60654954  1
  O  O1  1  0.39345046  0.10654954  0.10654954  1
  O  O1  1  0.10654954  0.10654954  0.39345046  1
  Ba  Ba1  1  0.00000000  0.50000000  0.50000000  1
  Ba  Ba1  1  0.25000000  0.75000000  0.75000000  1
  La  La1  1  0.12500000  0.62500000  0.12500000  1
  La  La1  1  0.37500000  0.62500000  0.37500000  1
  La  La1  1  0.12500000  0.37500000  0.87500000  1
  La  La1  1  0.37500000  0.37500000  0.62500000  1
  O  O1  1  0.14345046  0.14345046  0.85654954  1
  O  O1  1  0.35654954  0.14345046  0.64345046  1
  O  O1  1  0.14345046  0.35654954  0.64345046  1
  O  O1  1  0.39345046  0.39345046  0.39345046  1
  O  O1  1  0.35654954  0.35654954  0.85654954  1
  O  O1  1  0.10654954  0.39345046  0.10654954  1
  O  O1  1  0.39345046  0.60654954  0.60654954  1
  O  O1  1  0.10654954  0.60654954  0.89345046  1
  Ba  Ba1  1  0.50000000  0.00000000  0.50000000  1
  Ba  Ba1  1  0.75000000  0.25000000  0.75000000  1
  La  La1  1  0.62500000  0.12500000  0.12500000  1
  La  La1  1  0.87500000  0.12500000  0.37500000  1
  La  La1  1  0.62500000  0.87500000  0.87500000  1
  La  La1  1  0.87500000  0.87500000  0.62500000  1
  O  O1  1  0.64345046  0.64345046  0.85654954  1
  O  O1  1  0.85654954  0.64345046  0.64345046  1
  O  O1  1  0.64345046  0.85654954  0.64345046  1
  O  O1  1  0.89345046  0.89345046  0.39345046  1
  O  O1  1  0.85654954  0.85654954  0.85654954  1
  O  O1  1  0.60654954  0.89345046  0.10654954  1
  O  O1  1  0.89345046  0.10654954  0.60654954  1
  O  O1  1  0.60654954  0.10654954  0.89345046  1
  Ba  Ba1  1  0.50000000  0.50000000  0.00000000  1
  Ba  Ba1  1  0.75000000  0.75000000  0.25000000  1
  La  La1  1  0.62500000  0.62500000  0.62500000  1
  La  La1  1  0.87500000  0.62500000  0.87500000  1
  La  La1  1  0.62500000  0.37500000  0.37500000  1
  La  La1  1  0.87500000  0.37500000  0.12500000  1
  O  O1  1  0.64345046  0.14345046  0.35654954  1
  O  O1  1  0.85654954  0.14345046  0.14345046  1
  O  O1  1  0.64345046  0.35654954  0.14345046  1
  O  O1  1  0.89345046  0.39345046  0.89345046  1
  O  O1  1  0.85654954  0.35654954  0.35654954  1
  O  O1  1  0.60654954  0.39345046  0.60654954  1
  O  O1  1  0.89345046  0.60654954  0.10654954  1
  O  O1  1  0.60654954  0.60654954  0.39345046  1
