# generated using pymatgen
data_BaLiBO3
_symmetry_space_group_name_H-M   'P 1'
_cell_length_a   6.45056395
_cell_length_b   7.10908728
_cell_length_c   7.38836091
_cell_angle_alpha   90.00000000
_cell_angle_beta   117.53104223
_cell_angle_gamma   90.00000000
_symmetry_Int_Tables_number   1
_chemical_formula_structural   BaLiBO3
_chemical_formula_sum   'Ba4 Li4 B4 O12'
_cell_volume   300.44569771
_cell_formula_units_Z   4
loop_
 _symmetry_equiv_pos_site_id
 _symmetry_equiv_pos_as_xyz
  1  'x, y, z'
loop_
 _atom_site_type_symbol
 _atom_site_label
 _atom_site_symmetry_multiplicity
 _atom_site_fract_x
 _atom_site_fract_y
 _atom_site_fract_z
 _atom_site_occupancy
  Ba  Ba1  1  0.82267012  0.86103308  0.16474110  1
  Ba  Ba1  1  0.17732988  0.36103308  0.33525890  1
  Ba  Ba1  1  0.17732988  0.13896692  0.83525890  1
  Ba  Ba1  1  0.82267012  0.63896692  0.66474110  1
  Li  Li1  1  0.40248778  0.92881668  0.30172970  1
  Li  Li1  1  0.59751222  0.42881668  0.19827030  1
  Li  Li1  1  0.59751222  0.07118332  0.69827030  1
  Li  Li1  1  0.40248778  0.57118332  0.80172970  1
  B  B1  1  0.71235582  0.16253476  0.41765858  1
  B  B1  1  0.28764418  0.66253476  0.08234142  1
  B  B1  1  0.28764418  0.83746524  0.58234142  1
  B  B1  1  0.71235582  0.33746524  0.91765858  1
  O  O1  1  0.14372908  0.68137628  0.52270352  1
  O  O2  1  0.48532420  0.66147320  0.27324496  1
  O  O2  1  0.51467580  0.33852680  0.72675504  1
  O  O2  1  0.48532420  0.83852680  0.77324496  1
  O  O3  1  0.24110764  0.50292796  0.96153648  1
  O  O3  1  0.75889236  0.00292796  0.53846352  1
  O  O3  1  0.75889236  0.49707204  0.03846352  1
  O  O3  1  0.24110764  0.99707204  0.46153648  1
  O  O1  1  0.85627092  0.31862372  0.47729648  1
  O  O1  1  0.14372908  0.81862372  0.02270352  1
  O  O2  1  0.51467580  0.16147320  0.22675504  1
  O  O1  1  0.85627092  0.18137628  0.97729648  1
