# generated using pymatgen
data_BaMoO4
_symmetry_space_group_name_H-M   'P 1'
_cell_length_a   5.60628396
_cell_length_b   5.60628396
_cell_length_c   12.75236169
_cell_angle_alpha   90.00000000
_cell_angle_beta   90.00000000
_cell_angle_gamma   90.00000000
_symmetry_Int_Tables_number   1
_chemical_formula_structural   BaMoO4
_chemical_formula_sum   'Ba4 Mo4 O16'
_cell_volume   400.81208116
_cell_formula_units_Z   4
loop_
 _symmetry_equiv_pos_site_id
 _symmetry_equiv_pos_as_xyz
  1  'x, y, z'
loop_
 _atom_site_type_symbol
 _atom_site_label
 _atom_site_symmetry_multiplicity
 _atom_site_fract_x
 _atom_site_fract_y
 _atom_site_fract_z
 _atom_site_occupancy
  Ba  Ba1  1  0.50000000  0.50000000  0.50000000  1
  Ba  Ba1  1  0.00000000  0.50000000  0.25000000  1
  Mo  Mo1  1  0.00000000  0.00000000  0.50000000  1
  Mo  Mo1  1  0.50000000  0.00000000  0.25000000  1
  O  O1  1  0.76549862  0.12386494  0.57849854  1
  O  O1  1  0.23450138  0.87613506  0.57849854  1
  O  O1  1  0.37613506  0.76549862  0.32849854  1
  O  O1  1  0.62386494  0.23450138  0.32849854  1
  O  O1  1  0.23450138  0.37613506  0.67150146  1
  O  O1  1  0.76549862  0.62386494  0.67150146  1
  O  O1  1  0.12386494  0.23450138  0.42150146  1
  O  O1  1  0.87613506  0.76549862  0.42150146  1
  Ba  Ba1  1  0.00000000  0.00000000  0.00000000  1
  Ba  Ba1  1  0.50000000  0.00000000  0.75000000  1
  Mo  Mo1  1  0.50000000  0.50000000  0.00000000  1
  Mo  Mo1  1  0.00000000  0.50000000  0.75000000  1
  O  O1  1  0.26549862  0.62386494  0.07849854  1
  O  O1  1  0.73450138  0.37613506  0.07849854  1
  O  O1  1  0.87613506  0.26549862  0.82849854  1
  O  O1  1  0.12386494  0.73450138  0.82849854  1
  O  O1  1  0.73450138  0.87613506  0.17150146  1
  O  O1  1  0.26549862  0.12386494  0.17150146  1
  O  O1  1  0.62386494  0.73450138  0.92150146  1
  O  O1  1  0.37613506  0.26549862  0.92150146  1
