# generated using pymatgen
data_BaNaSc(BO3)2
_symmetry_space_group_name_H-M   'P 1'
_cell_length_a   5.22674264
_cell_length_b   5.22674264
_cell_length_c   34.39763522
_cell_angle_alpha   90.00000000
_cell_angle_beta   90.00000000
_cell_angle_gamma   120.00000000
_symmetry_Int_Tables_number   1
_chemical_formula_structural   BaNaSc(BO3)2
_chemical_formula_sum   'Ba6 Na6 Sc6 B12 O36'
_cell_volume   813.80705440
_cell_formula_units_Z   6
loop_
 _symmetry_equiv_pos_site_id
 _symmetry_equiv_pos_as_xyz
  1  'x, y, z'
loop_
 _atom_site_type_symbol
 _atom_site_label
 _atom_site_symmetry_multiplicity
 _atom_site_fract_x
 _atom_site_fract_y
 _atom_site_fract_z
 _atom_site_occupancy
  Ba  Ba1  1  0.66666667  0.33333333  0.23021937  1
  Ba  Ba1  1  0.00000000  0.00000000  0.10311396  1
  Na  Na1  1  0.33333333  0.66666667  0.29054286  1
  Na  Na1  1  0.33333333  0.66666667  0.04279047  1
  Sc  Sc1  1  0.00000000  0.00000000  0.00000000  1
  Sc  Sc2  1  0.33333333  0.66666667  0.16666667  1
  B  B1  1  0.00000000  0.00000000  0.29602148  1
  B  B1  1  0.66666667  0.33333333  0.03731185  1
  B  B2  1  0.00000000  0.00000000  0.20285730  1
  B  B2  1  0.66666667  0.33333333  0.13047603  1
  O  O1  1  0.90133397  0.69895167  0.29649433  1
  O  O1  1  0.30104833  0.20238230  0.29649433  1
  O  O1  1  0.79761770  0.09866603  0.29649433  1
  O  O1  1  0.76533269  0.63438166  0.03683900  1
  O  O1  1  0.36561834  0.13095103  0.03683900  1
  O  O1  1  0.86904897  0.23466731  0.03683900  1
  O  O2  1  0.15201327  0.30433545  0.20346625  1
  O  O2  1  0.69566455  0.84767781  0.20346625  1
  O  O2  1  0.15232219  0.84798673  0.20346625  1
  O  O2  1  0.51465340  0.02899788  0.12986708  1
  O  O2  1  0.97100212  0.48565552  0.12986708  1
  O  O2  1  0.51434448  0.48534660  0.12986708  1
  Ba  Ba1  1  0.33333333  0.66666667  0.56355271  1
  Ba  Ba1  1  0.66666667  0.33333333  0.43644729  1
  Na  Na1  1  0.00000000  0.00000000  0.62387619  1
  Na  Na1  1  0.00000000  0.00000000  0.37612381  1
  Sc  Sc1  1  0.66666667  0.33333333  0.33333333  1
  Sc  Sc2  1  -0.00000000  0.00000000  0.50000000  1
  B  B1  1  0.66666667  0.33333333  0.62935481  1
  B  B1  1  0.33333333  0.66666667  0.37064519  1
  B  B2  1  0.66666667  0.33333333  0.53619064  1
  B  B2  1  0.33333333  0.66666667  0.46380936  1
  O  O1  1  0.56800064  0.03228501  0.62982767  1
  O  O1  1  0.96771499  0.53571563  0.62982767  1
  O  O1  1  0.46428437  0.43199936  0.62982767  1
  O  O1  1  0.43199936  0.96771499  0.37017233  1
  O  O1  1  0.03228501  0.46428437  0.37017233  1
  O  O1  1  0.53571563  0.56800064  0.37017233  1
  O  O2  1  0.81867993  0.63766879  0.53679958  1
  O  O2  1  0.36233121  0.18101115  0.53679958  1
  O  O2  1  0.81898885  0.18132007  0.53679958  1
  O  O2  1  0.18132007  0.36233121  0.46320042  1
  O  O2  1  0.63766879  0.81898885  0.46320042  1
  O  O2  1  0.18101115  0.81867993  0.46320042  1
  Ba  Ba1  1  0.00000000  0.00000000  0.89688604  1
  Ba  Ba1  1  0.33333333  0.66666667  0.76978063  1
  Na  Na1  1  0.66666667  0.33333333  0.95720953  1
  Na  Na1  1  0.66666667  0.33333333  0.70945714  1
  Sc  Sc1  1  0.33333333  0.66666667  0.66666667  1
  Sc  Sc2  1  0.66666667  0.33333333  0.83333333  1
  B  B1  1  0.33333333  0.66666667  0.96268815  1
  B  B1  1  0.00000000  0.00000000  0.70397852  1
  B  B2  1  0.33333333  0.66666667  0.86952397  1
  B  B2  1  0.00000000  0.00000000  0.79714270  1
  O  O1  1  0.23466731  0.36561834  0.96316100  1
  O  O1  1  0.63438166  0.86904897  0.96316100  1
  O  O1  1  0.13095103  0.76533269  0.96316100  1
  O  O1  1  0.09866603  0.30104833  0.70350567  1
  O  O1  1  0.69895167  0.79761770  0.70350567  1
  O  O1  1  0.20238230  0.90133397  0.70350567  1
  O  O2  1  0.48534660  0.97100212  0.87013292  1
  O  O2  1  0.02899788  0.51434448  0.87013292  1
  O  O2  1  0.48565552  0.51465340  0.87013292  1
  O  O2  1  0.84798673  0.69566455  0.79653375  1
  O  O2  1  0.30433545  0.15232219  0.79653375  1
  O  O2  1  0.84767781  0.15201327  0.79653375  1
