# generated using pymatgen
data_BaNaBO3
_symmetry_space_group_name_H-M   'P 1'
_cell_length_a   9.54256175
_cell_length_b   5.54343159
_cell_length_c   6.11249131
_cell_angle_alpha   90.00000000
_cell_angle_beta   99.06384839
_cell_angle_gamma   90.00000000
_symmetry_Int_Tables_number   1
_chemical_formula_structural   BaNaBO3
_chemical_formula_sum   'Ba4 Na4 B4 O12'
_cell_volume   319.30441608
_cell_formula_units_Z   4
loop_
 _symmetry_equiv_pos_site_id
 _symmetry_equiv_pos_as_xyz
  1  'x, y, z'
loop_
 _atom_site_type_symbol
 _atom_site_label
 _atom_site_symmetry_multiplicity
 _atom_site_fract_x
 _atom_site_fract_y
 _atom_site_fract_z
 _atom_site_occupancy
  Ba  Ba1  1  0.33377518  0.50000000  0.75765139  1
  Ba  Ba1  1  0.66622482  0.50000000  0.24234861  1
  Na  Na1  1  0.00000000  0.50000000  0.50000000  1
  Na  Na2  1  0.00000000  0.50000000  0.00000000  1
  B  B1  1  0.33196136  0.50000000  0.24830106  1
  B  B1  1  0.66803864  0.50000000  0.75169894  1
  O  O1  1  0.10198872  0.21597690  0.79071637  1
  O  O1  1  0.89801128  0.21597690  0.20928363  1
  O  O1  1  0.89801128  0.78402310  0.20928363  1
  O  O1  1  0.10198872  0.78402310  0.79071637  1
  O  O2  1  0.20061316  0.50000000  0.32087017  1
  O  O2  1  0.79938684  0.50000000  0.67912983  1
  Ba  Ba1  1  0.83377518  0.00000000  0.75765139  1
  Ba  Ba1  1  0.16622482  0.00000000  0.24234861  1
  Na  Na1  1  0.50000000  0.00000000  0.50000000  1
  Na  Na2  1  0.50000000  0.00000000  0.00000000  1
  B  B1  1  0.83196136  0.00000000  0.24830106  1
  B  B1  1  0.16803864  0.00000000  0.75169894  1
  O  O1  1  0.60198872  0.71597690  0.79071637  1
  O  O1  1  0.39801128  0.71597690  0.20928363  1
  O  O1  1  0.39801128  0.28402310  0.20928363  1
  O  O1  1  0.60198872  0.28402310  0.79071637  1
  O  O2  1  0.70061316  0.00000000  0.32087017  1
  O  O2  1  0.29938684  0.00000000  0.67912983  1
