# generated using pymatgen
data_BaNb2O6
_symmetry_space_group_name_H-M   'P 1'
_cell_length_a   6.12911897
_cell_length_b   10.47509554
_cell_length_c   3.92274384
_cell_angle_alpha   90.00000000
_cell_angle_beta   90.00000000
_cell_angle_gamma   90.00000000
_symmetry_Int_Tables_number   1
_chemical_formula_structural   BaNb2O6
_chemical_formula_sum   'Ba2 Nb4 O12'
_cell_volume   251.85234186
_cell_formula_units_Z   2
loop_
 _symmetry_equiv_pos_site_id
 _symmetry_equiv_pos_as_xyz
  1  'x, y, z'
loop_
 _atom_site_type_symbol
 _atom_site_label
 _atom_site_symmetry_multiplicity
 _atom_site_fract_x
 _atom_site_fract_y
 _atom_site_fract_z
 _atom_site_occupancy
  Ba  Ba1  1  0.00000000  0.00000000  0.00000000  1
  Ba  Ba1  1  0.50000000  0.50000000  0.00000000  1
  Nb  Nb1  1  0.54930008  0.15123964  0.50000000  1
  Nb  Nb1  1  0.04930008  0.34876036  0.50000000  1
  Nb  Nb1  1  0.45069992  0.84876036  0.50000000  1
  Nb  Nb1  1  0.95069992  0.65123964  0.50000000  1
  O  O1  1  0.59617640  0.15179630  0.00000000  1
  O  O1  1  0.09617640  0.34820370  0.00000000  1
  O  O1  1  0.40382360  0.84820370  0.00000000  1
  O  O1  1  0.90382360  0.65179630  0.00000000  1
  O  O2  1  0.88997796  0.19318491  0.50000000  1
  O  O2  1  0.38997796  0.30681509  0.50000000  1
  O  O3  1  0.80271310  0.46024493  0.50000000  1
  O  O3  1  0.30271310  0.03975507  0.50000000  1
  O  O3  1  0.19728690  0.53975507  0.50000000  1
  O  O3  1  0.69728690  0.96024493  0.50000000  1
  O  O2  1  0.61002204  0.69318491  0.50000000  1
  O  O2  1  0.11002204  0.80681509  0.50000000  1
