# generated using pymatgen
data_BaSi3SnO9
_symmetry_space_group_name_H-M   'P 1'
_cell_length_a   6.75917047
_cell_length_b   6.75917047
_cell_length_c   9.93318960
_cell_angle_alpha   90.00000000
_cell_angle_beta   90.00000000
_cell_angle_gamma   120.00000000
_symmetry_Int_Tables_number   1
_chemical_formula_structural   BaSi3SnO9
_chemical_formula_sum   'Ba2 Si6 Sn2 O18'
_cell_volume   393.01231184
_cell_formula_units_Z   2
loop_
 _symmetry_equiv_pos_site_id
 _symmetry_equiv_pos_as_xyz
  1  'x, y, z'
loop_
 _atom_site_type_symbol
 _atom_site_label
 _atom_site_symmetry_multiplicity
 _atom_site_fract_x
 _atom_site_fract_y
 _atom_site_fract_z
 _atom_site_occupancy
  Ba  Ba1  1  0.00000000  0.00000000  0.50000000  1
  Ba  Ba1  1  0.00000000  0.00000000  0.00000000  1
  Si  Si1  1  0.39737648  0.44702840  0.75000000  1
  Si  Si1  1  0.55297160  0.95034808  0.75000000  1
  Si  Si1  1  0.04965192  0.60262352  0.75000000  1
  Si  Si1  1  0.04965192  0.44702840  0.25000000  1
  Si  Si1  1  0.55297160  0.60262352  0.25000000  1
  Si  Si1  1  0.39737648  0.95034808  0.25000000  1
  Sn  Sn1  1  0.66666667  0.33333333  0.50000000  1
  Sn  Sn1  1  0.66666667  0.33333333  0.00000000  1
  O  O1  1  0.91268580  0.59267016  0.61384510  1
  O  O1  1  0.40732984  0.08731420  0.38615490  1
  O  O1  1  0.40732984  0.32001564  0.61384510  1
  O  O1  1  0.67998436  0.08731420  0.61384510  1
  O  O1  1  0.40732984  0.32001564  0.88615490  1
  O  O1  1  0.67998436  0.08731420  0.88615490  1
  O  O1  1  0.91268580  0.59267016  0.88615490  1
  O  O1  1  0.67998436  0.59267016  0.11384510  1
  O  O1  1  0.91268580  0.32001564  0.11384510  1
  O  O1  1  0.91268580  0.32001564  0.38615490  1
  O  O2  1  0.58419178  0.86170522  0.25000000  1
  O  O2  1  0.27751344  0.41580822  0.25000000  1
  O  O2  1  0.13829478  0.72248656  0.25000000  1
  O  O2  1  0.13829478  0.41580822  0.75000000  1
  O  O2  1  0.27751344  0.86170522  0.75000000  1
  O  O2  1  0.58419178  0.72248656  0.75000000  1
  O  O1  1  0.40732984  0.08731420  0.11384510  1
  O  O1  1  0.67998436  0.59267016  0.38615490  1
