# generated using pymatgen
data_BaSn(GeO3)3
_symmetry_space_group_name_H-M   'P 1'
_cell_length_a   6.95421825
_cell_length_b   6.95421825
_cell_length_c   10.40516169
_cell_angle_alpha   90.00000000
_cell_angle_beta   90.00000000
_cell_angle_gamma   120.00000000
_symmetry_Int_Tables_number   1
_chemical_formula_structural   BaSn(GeO3)3
_chemical_formula_sum   'Ba2 Sn2 Ge6 O18'
_cell_volume   435.78883340
_cell_formula_units_Z   2
loop_
 _symmetry_equiv_pos_site_id
 _symmetry_equiv_pos_as_xyz
  1  'x, y, z'
loop_
 _atom_site_type_symbol
 _atom_site_label
 _atom_site_symmetry_multiplicity
 _atom_site_fract_x
 _atom_site_fract_y
 _atom_site_fract_z
 _atom_site_occupancy
  Ba  Ba1  1  0.33333333  0.66666667  0.00000000  1
  Ba  Ba1  1  0.33333333  0.66666667  0.50000000  1
  Sn  Sn1  1  0.00000000  0.00000000  0.00000000  1
  Sn  Sn1  1  0.00000000  0.00000000  0.50000000  1
  Ge  Ge1  1  0.74089779  0.62974507  0.25000000  1
  Ge  Ge1  1  0.88884728  0.25910221  0.25000000  1
  Ge  Ge1  1  0.37025493  0.11115272  0.25000000  1
  Ge  Ge1  1  0.37025493  0.25910221  0.75000000  1
  Ge  Ge1  1  0.88884728  0.62974507  0.75000000  1
  Ge  Ge1  1  0.74089779  0.11115272  0.75000000  1
  O  O1  1  0.94180165  0.54105605  0.25000000  1
  O  O1  1  0.59925440  0.05819835  0.25000000  1
  O  O1  1  0.45894395  0.40074560  0.25000000  1
  O  O1  1  0.45894395  0.05819835  0.75000000  1
  O  O1  1  0.59925440  0.54105605  0.75000000  1
  O  O1  1  0.94180165  0.40074560  0.75000000  1
  O  O2  1  0.73916701  0.76719317  0.10781620  1
  O  O2  1  0.02802616  0.26083299  0.39218380  1
  O  O2  1  0.23280683  0.97197384  0.39218380  1
  O  O2  1  0.23280683  0.97197384  0.10781620  1
  O  O2  1  0.02802616  0.26083299  0.10781620  1
  O  O2  1  0.23280683  0.26083299  0.89218380  1
  O  O2  1  0.02802616  0.76719317  0.89218380  1
  O  O2  1  0.73916701  0.97197384  0.89218380  1
  O  O2  1  0.02802616  0.76719317  0.60781620  1
  O  O2  1  0.73916701  0.97197384  0.60781620  1
  O  O2  1  0.73916701  0.76719317  0.39218380  1
  O  O2  1  0.23280683  0.26083299  0.60781620  1
