# generated using pymatgen
data_BAsO4
_symmetry_space_group_name_H-M   'P 1'
_cell_length_a   4.52339038
_cell_length_b   4.52339038
_cell_length_c   6.80957037
_cell_angle_alpha   90.00000000
_cell_angle_beta   90.00000000
_cell_angle_gamma   90.00000000
_symmetry_Int_Tables_number   1
_chemical_formula_structural   BAsO4
_chemical_formula_sum   'B2 As2 O8'
_cell_volume   139.33103142
_cell_formula_units_Z   2
loop_
 _symmetry_equiv_pos_site_id
 _symmetry_equiv_pos_as_xyz
  1  'x, y, z'
loop_
 _atom_site_type_symbol
 _atom_site_label
 _atom_site_symmetry_multiplicity
 _atom_site_fract_x
 _atom_site_fract_y
 _atom_site_fract_z
 _atom_site_occupancy
  B  B1  1  0.50000000  0.00000000  0.25000000  1
  As  As1  1  0.00000000  0.00000000  0.00000000  1
  O  O1  1  0.66034803  0.77767473  0.36682608  1
  O  O1  1  0.72232527  0.16034803  0.13317392  1
  O  O1  1  0.33965197  0.22232527  0.36682608  1
  O  O1  1  0.27767473  0.83965197  0.13317392  1
  B  B1  1  0.00000000  0.50000000  0.75000000  1
  As  As1  1  0.50000000  0.50000000  0.50000000  1
  O  O1  1  0.16034803  0.27767473  0.86682608  1
  O  O1  1  0.22232527  0.66034803  0.63317392  1
  O  O1  1  0.83965197  0.72232527  0.86682608  1
  O  O1  1  0.77767473  0.33965197  0.63317392  1
