# generated using pymatgen
data_BaSr2Mg(SiO4)2
_symmetry_space_group_name_H-M   'P 1'
_cell_length_a   5.48554783
_cell_length_b   5.48554783
_cell_length_c   7.00682510
_cell_angle_alpha   90.00000000
_cell_angle_beta   90.00000000
_cell_angle_gamma   120.00000000
_symmetry_Int_Tables_number   1
_chemical_formula_structural   BaSr2Mg(SiO4)2
_chemical_formula_sum   'Ba1 Sr2 Mg1 Si2 O8'
_cell_volume   182.59627848
_cell_formula_units_Z   1
loop_
 _symmetry_equiv_pos_site_id
 _symmetry_equiv_pos_as_xyz
  1  'x, y, z'
loop_
 _atom_site_type_symbol
 _atom_site_label
 _atom_site_symmetry_multiplicity
 _atom_site_fract_x
 _atom_site_fract_y
 _atom_site_fract_z
 _atom_site_occupancy
  Ba  Ba1  1  0.00000000  0.00000000  0.50000000  1
  Sr  Sr1  1  0.33333333  0.66666667  0.16009982  1
  Sr  Sr1  1  0.66666667  0.33333333  0.83990018  1
  Mg  Mg1  1  0.00000000  0.00000000  0.00000000  1
  Si  Si1  1  0.33333333  0.66666667  0.72786834  1
  Si  Si1  1  0.66666667  0.33333333  0.27213166  1
  O  O1  1  0.33333333  0.66666667  0.49775436  1
  O  O1  1  0.66666667  0.33333333  0.50224564  1
  O  O2  1  0.17414713  0.34829425  0.82272950  1
  O  O2  1  0.17414713  0.82585287  0.82272950  1
  O  O2  1  0.65170575  0.82585287  0.82272950  1
  O  O2  1  0.82585287  0.65170575  0.17727050  1
  O  O2  1  0.82585287  0.17414713  0.17727050  1
  O  O2  1  0.34829425  0.17414713  0.17727050  1
