# generated using pymatgen
data_BaTi(SiO3)3
_symmetry_space_group_name_H-M   'P 1'
_cell_length_a   6.65059320
_cell_length_b   6.65059320
_cell_length_c   9.84904012
_cell_angle_alpha   90.00000000
_cell_angle_beta   90.00000000
_cell_angle_gamma   120.00000000
_symmetry_Int_Tables_number   1
_chemical_formula_structural   BaTi(SiO3)3
_chemical_formula_sum   'Ba2 Ti2 Si6 O18'
_cell_volume   377.26394878
_cell_formula_units_Z   2
loop_
 _symmetry_equiv_pos_site_id
 _symmetry_equiv_pos_as_xyz
  1  'x, y, z'
loop_
 _atom_site_type_symbol
 _atom_site_label
 _atom_site_symmetry_multiplicity
 _atom_site_fract_x
 _atom_site_fract_y
 _atom_site_fract_z
 _atom_site_occupancy
  Ba  Ba1  1  0.33333333  0.66666667  0.50000000  1
  Ba  Ba1  1  0.33333333  0.66666667  0.00000000  1
  Ti  Ti1  1  0.00000000  0.00000000  0.50000000  1
  Ti  Ti1  1  0.00000000  0.00000000  0.00000000  1
  Si  Si1  1  0.88670661  0.26332343  0.25000000  1
  Si  Si1  1  0.88670661  0.62338318  0.75000000  1
  Si  Si1  1  0.37661682  0.26332343  0.75000000  1
  Si  Si1  1  0.37661682  0.11329339  0.25000000  1
  Si  Si1  1  0.73667657  0.62338318  0.25000000  1
  Si  Si1  1  0.73667657  0.11329339  0.75000000  1
  O  O1  1  0.75209229  0.98770539  0.61269738  1
  O  O1  1  0.01229461  0.24790771  0.38730262  1
  O  O1  1  0.23561310  0.24790771  0.61269738  1
  O  O1  1  0.01229461  0.76438690  0.88730262  1
  O  O1  1  0.23561310  0.24790771  0.88730262  1
  O  O1  1  0.75209229  0.98770539  0.88730262  1
  O  O1  1  0.23561310  0.98770539  0.11269738  1
  O  O1  1  0.75209229  0.76438690  0.11269738  1
  O  O2  1  0.92278913  0.52853005  0.25000000  1
  O  O2  1  0.60574092  0.07721087  0.25000000  1
  O  O2  1  0.47146995  0.39425908  0.25000000  1
  O  O2  1  0.47146995  0.07721087  0.75000000  1
  O  O1  1  0.23561310  0.98770539  0.38730262  1
  O  O2  1  0.92278913  0.39425908  0.75000000  1
  O  O2  1  0.60574092  0.52853005  0.75000000  1
  O  O1  1  0.75209229  0.76438690  0.38730262  1
  O  O1  1  0.01229461  0.24790771  0.11269738  1
  O  O1  1  0.01229461  0.76438690  0.61269738  1
