# generated using pymatgen
data_BaTi(AsO4)2
_symmetry_space_group_name_H-M   'P 1'
_cell_length_a   8.38569790
_cell_length_b   5.46796667
_cell_length_c   7.80014440
_cell_angle_alpha   90.00000000
_cell_angle_beta   94.31657438
_cell_angle_gamma   90.00000000
_symmetry_Int_Tables_number   1
_chemical_formula_structural   BaTi(AsO4)2
_chemical_formula_sum   'Ba2 Ti2 As4 O16'
_cell_volume   356.64327961
_cell_formula_units_Z   2
loop_
 _symmetry_equiv_pos_site_id
 _symmetry_equiv_pos_as_xyz
  1  'x, y, z'
loop_
 _atom_site_type_symbol
 _atom_site_label
 _atom_site_symmetry_multiplicity
 _atom_site_fract_x
 _atom_site_fract_y
 _atom_site_fract_z
 _atom_site_occupancy
  Ba  Ba1  1  0.00000000  0.00000000  0.50000000  1
  Ti  Ti1  1  0.00000000  0.00000000  0.00000000  1
  As  As1  1  0.87050366  0.50000000  0.20575620  1
  As  As1  1  0.12949634  0.50000000  0.79424380  1
  O  O1  1  0.81097936  0.50000000  0.40680604  1
  O  O1  1  0.18902064  0.50000000  0.59319396  1
  O  O2  1  0.98943138  0.75403299  0.18452900  1
  O  O2  1  0.01056862  0.24596701  0.81547100  1
  O  O2  1  0.01056862  0.75403299  0.81547100  1
  O  O2  1  0.98943138  0.24596701  0.18452900  1
  O  O3  1  0.72740782  0.50000000  0.03859410  1
  O  O3  1  0.27259218  0.50000000  0.96140590  1
  Ba  Ba1  1  0.50000000  0.50000000  0.50000000  1
  Ti  Ti1  1  0.50000000  0.50000000  0.00000000  1
  As  As1  1  0.37050366  0.00000000  0.20575620  1
  As  As1  1  0.62949634  0.00000000  0.79424380  1
  O  O1  1  0.31097936  0.00000000  0.40680604  1
  O  O1  1  0.68902064  0.00000000  0.59319396  1
  O  O2  1  0.48943138  0.25403299  0.18452900  1
  O  O2  1  0.51056862  0.74596701  0.81547100  1
  O  O2  1  0.51056862  0.25403299  0.81547100  1
  O  O2  1  0.48943138  0.74596701  0.18452900  1
  O  O3  1  0.22740782  0.00000000  0.03859410  1
  O  O3  1  0.77259218  0.00000000  0.96140590  1
