# generated using pymatgen
data_BaWO4
_symmetry_space_group_name_H-M   'P 1'
_cell_length_a   5.63048169
_cell_length_b   5.63048169
_cell_length_c   12.64281712
_cell_angle_alpha   90.00000000
_cell_angle_beta   90.00000000
_cell_angle_gamma   90.00000000
_symmetry_Int_Tables_number   1
_chemical_formula_structural   BaWO4
_chemical_formula_sum   'Ba4 W4 O16'
_cell_volume   400.80668468
_cell_formula_units_Z   4
loop_
 _symmetry_equiv_pos_site_id
 _symmetry_equiv_pos_as_xyz
  1  'x, y, z'
loop_
 _atom_site_type_symbol
 _atom_site_label
 _atom_site_symmetry_multiplicity
 _atom_site_fract_x
 _atom_site_fract_y
 _atom_site_fract_z
 _atom_site_occupancy
  Ba  Ba1  1  0.50000000  0.00000000  0.25000000  1
  Ba  Ba1  1  0.00000000  0.00000000  0.50000000  1
  W  W1  1  0.00000000  0.50000000  0.25000000  1
  W  W1  1  0.50000000  0.50000000  0.50000000  1
  O  O1  1  0.37191396  0.73146434  0.42058629  1
  O  O1  1  0.73146434  0.12808604  0.67058629  1
  O  O1  1  0.26853566  0.87191396  0.67058629  1
  O  O1  1  0.62808604  0.26853566  0.42058629  1
  O  O1  1  0.87191396  0.73146434  0.32941371  1
  O  O1  1  0.73146434  0.62808604  0.57941371  1
  O  O1  1  0.26853566  0.37191396  0.57941371  1
  O  O1  1  0.12808604  0.26853566  0.32941371  1
  Ba  Ba1  1  0.00000000  0.50000000  0.75000000  1
  Ba  Ba1  1  0.50000000  0.50000000  0.00000000  1
  W  W1  1  0.50000000  0.00000000  0.75000000  1
  W  W1  1  0.00000000  0.00000000  0.00000000  1
  O  O1  1  0.87191396  0.23146434  0.92058629  1
  O  O1  1  0.23146434  0.62808604  0.17058629  1
  O  O1  1  0.76853566  0.37191396  0.17058629  1
  O  O1  1  0.12808604  0.76853566  0.92058629  1
  O  O1  1  0.37191396  0.23146434  0.82941371  1
  O  O1  1  0.23146434  0.12808604  0.07941371  1
  O  O1  1  0.76853566  0.87191396  0.07941371  1
  O  O1  1  0.62808604  0.76853566  0.82941371  1
