# generated using pymatgen
data_BaY2O4
_symmetry_space_group_name_H-M   'P 1'
_cell_length_a   10.34485852
_cell_length_b   3.43988792
_cell_length_c   12.04977964
_cell_angle_alpha   90.00000000
_cell_angle_beta   90.00000000
_cell_angle_gamma   90.00000000
_symmetry_Int_Tables_number   1
_chemical_formula_structural   BaY2O4
_chemical_formula_sum   'Ba4 Y8 O16'
_cell_volume   428.79326243
_cell_formula_units_Z   4
loop_
 _symmetry_equiv_pos_site_id
 _symmetry_equiv_pos_as_xyz
  1  'x, y, z'
loop_
 _atom_site_type_symbol
 _atom_site_label
 _atom_site_symmetry_multiplicity
 _atom_site_fract_x
 _atom_site_fract_y
 _atom_site_fract_z
 _atom_site_occupancy
  Ba  Ba1  1  0.75288610  0.25000000  0.35043993  1
  Ba  Ba1  1  0.24711390  0.75000000  0.64956007  1
  Ba  Ba1  1  0.25288610  0.25000000  0.14956007  1
  Ba  Ba1  1  0.74711390  0.75000000  0.85043993  1
  Y  Y1  1  0.42560895  0.25000000  0.38931164  1
  Y  Y1  1  0.57439105  0.75000000  0.61068836  1
  Y  Y1  1  0.92560895  0.25000000  0.11068836  1
  Y  Y1  1  0.07439105  0.75000000  0.88931164  1
  Y  Y2  1  0.07742097  0.75000000  0.39087649  1
  Y  Y2  1  0.92257903  0.25000000  0.60912351  1
  Y  Y2  1  0.57742097  0.75000000  0.10912351  1
  Y  Y2  1  0.42257903  0.25000000  0.89087649  1
  O  O1  1  0.29017850  0.75000000  0.34025426  1
  O  O1  1  0.70982150  0.25000000  0.65974574  1
  O  O1  1  0.79017850  0.75000000  0.15974574  1
  O  O1  1  0.20982150  0.25000000  0.84025426  1
  O  O2  1  0.38396629  0.75000000  0.01768739  1
  O  O2  1  0.61603371  0.25000000  0.98231261  1
  O  O2  1  0.88396629  0.75000000  0.48231261  1
  O  O2  1  0.11603371  0.25000000  0.51768739  1
  O  O3  1  0.98183674  0.75000000  0.71720951  1
  O  O3  1  0.01816326  0.25000000  0.28279049  1
  O  O3  1  0.48183674  0.75000000  0.78279049  1
  O  O3  1  0.51816326  0.25000000  0.21720951  1
  O  O4  1  0.06985959  0.75000000  0.07452472  1
  O  O4  1  0.93014041  0.25000000  0.92547528  1
  O  O4  1  0.56985959  0.75000000  0.42547528  1
  O  O4  1  0.43014041  0.25000000  0.57452472  1
