# generated using pymatgen
data_BaZn2Si2O7
_symmetry_space_group_name_H-M   'P 1'
_cell_length_a   12.83952237
_cell_length_b   7.88678755
_cell_length_c   6.53740187
_cell_angle_alpha   90.00000000
_cell_angle_beta   90.00000000
_cell_angle_gamma   90.00000000
_symmetry_Int_Tables_number   1
_chemical_formula_structural   BaZn2Si2O7
_chemical_formula_sum   'Ba4 Zn8 Si8 O28'
_cell_volume   661.99421369
_cell_formula_units_Z   4
loop_
 _symmetry_equiv_pos_site_id
 _symmetry_equiv_pos_as_xyz
  1  'x, y, z'
loop_
 _atom_site_type_symbol
 _atom_site_label
 _atom_site_symmetry_multiplicity
 _atom_site_fract_x
 _atom_site_fract_y
 _atom_site_fract_z
 _atom_site_occupancy
  Ba  Ba1  1  0.00000000  0.22526386  0.25000000  1
  Ba  Ba1  1  0.00000000  0.77473614  0.75000000  1
  Zn  Zn1  1  0.77561251  0.50000000  0.50000000  1
  Zn  Zn1  1  0.22438749  0.50000000  0.50000000  1
  Zn  Zn1  1  0.77561251  0.50000000  0.00000000  1
  Zn  Zn1  1  0.22438749  0.50000000  0.00000000  1
  Si  Si1  1  0.87924659  0.20621166  0.75000000  1
  Si  Si1  1  0.12075341  0.20621166  0.75000000  1
  Si  Si1  1  0.87924659  0.79378834  0.25000000  1
  Si  Si1  1  0.12075341  0.79378834  0.25000000  1
  O  O1  1  0.30520020  0.46573756  0.25000000  1
  O  O2  1  0.13357959  0.68735074  0.45951108  1
  O  O1  1  0.30520020  0.53426244  0.75000000  1
  O  O2  1  0.13357959  0.68735074  0.04048892  1
  O  O1  1  0.69479980  0.53426244  0.75000000  1
  O  O3  1  0.00000000  0.12126310  0.75000000  1
  O  O2  1  0.86642041  0.31264926  0.54048892  1
  O  O2  1  0.86642041  0.68735074  0.45951108  1
  O  O2  1  0.86642041  0.31264926  0.95951108  1
  O  O2  1  0.13357959  0.31264926  0.95951108  1
  O  O3  1  0.00000000  0.87873690  0.25000000  1
  O  O2  1  0.86642041  0.68735074  0.04048892  1
  O  O2  1  0.13357959  0.31264926  0.54048892  1
  O  O1  1  0.69479980  0.46573756  0.25000000  1
  Ba  Ba1  1  0.50000000  0.72526386  0.25000000  1
  Ba  Ba1  1  0.50000000  0.27473614  0.75000000  1
  Zn  Zn1  1  0.27561251  0.00000000  0.50000000  1
  Zn  Zn1  1  0.72438749  0.00000000  0.50000000  1
  Zn  Zn1  1  0.27561251  0.00000000  0.00000000  1
  Zn  Zn1  1  0.72438749  0.00000000  0.00000000  1
  Si  Si1  1  0.37924659  0.70621166  0.75000000  1
  Si  Si1  1  0.62075341  0.70621166  0.75000000  1
  Si  Si1  1  0.37924659  0.29378834  0.25000000  1
  Si  Si1  1  0.62075341  0.29378834  0.25000000  1
  O  O1  1  0.80520020  0.96573756  0.25000000  1
  O  O2  1  0.63357959  0.18735074  0.45951108  1
  O  O1  1  0.80520020  0.03426244  0.75000000  1
  O  O2  1  0.63357959  0.18735074  0.04048892  1
  O  O1  1  0.19479980  0.03426244  0.75000000  1
  O  O3  1  0.50000000  0.62126310  0.75000000  1
  O  O2  1  0.36642041  0.81264926  0.54048892  1
  O  O2  1  0.36642041  0.18735074  0.45951108  1
  O  O2  1  0.36642041  0.81264926  0.95951108  1
  O  O2  1  0.63357959  0.81264926  0.95951108  1
  O  O3  1  0.50000000  0.37873690  0.25000000  1
  O  O2  1  0.36642041  0.18735074  0.04048892  1
  O  O2  1  0.63357959  0.81264926  0.54048892  1
  O  O1  1  0.19479980  0.96573756  0.25000000  1
