# generated using pymatgen
data_BaZnO2
_symmetry_space_group_name_H-M   'P 1'
_cell_length_a   5.82774506
_cell_length_b   5.82774506
_cell_length_c   6.65864313
_cell_angle_alpha   90.00000000
_cell_angle_beta   90.00000000
_cell_angle_gamma   120.00000000
_symmetry_Int_Tables_number   1
_chemical_formula_structural   BaZnO2
_chemical_formula_sum   'Ba3 Zn3 O6'
_cell_volume   195.84724232
_cell_formula_units_Z   3
loop_
 _symmetry_equiv_pos_site_id
 _symmetry_equiv_pos_as_xyz
  1  'x, y, z'
loop_
 _atom_site_type_symbol
 _atom_site_label
 _atom_site_symmetry_multiplicity
 _atom_site_fract_x
 _atom_site_fract_y
 _atom_site_fract_z
 _atom_site_occupancy
  Ba  Ba1  1  0.65281649  0.65281649  0.50000000  1
  Ba  Ba1  1  0.34718351  0.00000000  0.83333333  1
  Ba  Ba1  1  0.00000000  0.34718351  0.16666667  1
  Zn  Zn1  1  0.00000000  0.42272420  0.66666667  1
  Zn  Zn1  1  0.42272420  0.00000000  0.33333333  1
  Zn  Zn1  1  0.57727580  0.57727580  0.00000000  1
  O  O1  1  0.70874927  0.13466016  0.53834961  1
  O  O1  1  0.86533984  0.57408911  0.87168294  1
  O  O1  1  0.42591089  0.29125073  0.20501627  1
  O  O1  1  0.13466016  0.70874927  0.46165039  1
  O  O1  1  0.29125073  0.42591089  0.79498373  1
  O  O1  1  0.57408911  0.86533984  0.12831706  1
