# generated using pymatgen
data_BaZr(BO3)2
_symmetry_space_group_name_H-M   'P 1'
_cell_length_a   5.16998189
_cell_length_b   5.16998188
_cell_length_c   33.85913154
_cell_angle_alpha   90.00000000
_cell_angle_beta   90.00000000
_cell_angle_gamma   120.00000000
_symmetry_Int_Tables_number   1
_chemical_formula_structural   BaZr(BO3)2
_chemical_formula_sum   'Ba6 Zr6 B12 O36'
_cell_volume   783.76251576
_cell_formula_units_Z   6
loop_
 _symmetry_equiv_pos_site_id
 _symmetry_equiv_pos_as_xyz
  1  'x, y, z'
loop_
 _atom_site_type_symbol
 _atom_site_label
 _atom_site_symmetry_multiplicity
 _atom_site_fract_x
 _atom_site_fract_y
 _atom_site_fract_z
 _atom_site_occupancy
  Ba  Ba1  1  0.00000000  0.00000000  0.25000000  1
  Ba  Ba1  1  0.33333333  0.66666667  0.41666667  1
  Zr  Zr1  1  0.00000000  0.00000000  0.50000000  1
  Zr  Zr1  1  0.66666667  0.33333333  0.33333333  1
  B  B1  1  0.66666667  0.33333333  0.46421355  1
  B  B1  1  0.00000000  0.00000000  0.36911979  1
  B  B1  1  0.66666667  0.33333333  0.20245312  1
  B  B1  1  0.33333333  0.66666667  0.29754688  1
  O  O1  1  0.54326621  0.57685966  0.29676780  1
  O  O1  1  0.36692678  0.24352633  0.46343447  1
  O  O1  1  0.45673379  0.03359345  0.20323220  1
  O  O1  1  0.75647367  0.12340045  0.46343447  1
  O  O1  1  0.79006712  0.08980701  0.36989887  1
  O  O1  1  0.57685966  0.54326621  0.20323220  1
  O  O1  1  0.96640655  0.42314034  0.20323220  1
  O  O1  1  0.03359345  0.45673379  0.29676780  1
  O  O1  1  0.29973989  0.20993288  0.36989887  1
  O  O1  1  0.91019299  0.70026011  0.36989887  1
  O  O1  1  0.42314034  0.96640655  0.29676780  1
  O  O1  1  0.87659955  0.63307322  0.46343447  1
  Ba  Ba1  1  0.66666667  0.33333333  0.58333333  1
  Ba  Ba1  1  0.00000000  0.00000000  0.75000000  1
  Zr  Zr1  1  0.66666667  0.33333333  0.83333333  1
  Zr  Zr1  1  0.33333333  0.66666667  0.66666667  1
  B  B1  1  0.33333333  0.66666667  0.79754688  1
  B  B1  1  0.66666667  0.33333333  0.70245312  1
  B  B1  1  0.33333333  0.66666667  0.53578645  1
  B  B1  1  0.00000000  0.00000000  0.63088021  1
  O  O1  1  0.20993288  0.91019299  0.63010113  1
  O  O1  1  0.03359345  0.57685966  0.79676780  1
  O  O1  1  0.12340045  0.36692678  0.53656553  1
  O  O1  1  0.42314034  0.45673379  0.79676780  1
  O  O1  1  0.45673379  0.42314034  0.70323220  1
  O  O1  1  0.24352633  0.87659955  0.53656553  1
  O  O1  1  0.63307322  0.75647367  0.53656553  1
  O  O1  1  0.70026011  0.79006712  0.63010113  1
  O  O1  1  0.96640655  0.54326621  0.70323220  1
  O  O1  1  0.57685966  0.03359345  0.70323220  1
  O  O1  1  0.08980701  0.29973989  0.63010113  1
  O  O1  1  0.54326621  0.96640655  0.79676780  1
  Ba  Ba1  1  0.33333333  0.66666667  0.91666667  1
  Ba  Ba1  1  0.66666667  0.33333333  0.08333333  1
  Zr  Zr1  1  0.33333333  0.66666667  0.16666667  1
  Zr  Zr1  1  0.00000000  0.00000000  0.00000000  1
  B  B1  1  0.00000000  0.00000000  0.13088021  1
  B  B1  1  0.33333333  0.66666667  0.03578645  1
  B  B1  1  0.00000000  0.00000000  0.86911979  1
  B  B1  1  0.66666667  0.33333333  0.96421355  1
  O  O1  1  0.87659955  0.24352633  0.96343447  1
  O  O1  1  0.70026011  0.91019299  0.13010113  1
  O  O1  1  0.79006712  0.70026011  0.86989887  1
  O  O1  1  0.08980701  0.79006712  0.13010113  1
  O  O1  1  0.12340045  0.75647367  0.03656553  1
  O  O1  1  0.91019299  0.20993288  0.86989887  1
  O  O1  1  0.29973989  0.08980701  0.86989887  1
  O  O1  1  0.36692678  0.12340045  0.96343447  1
  O  O1  1  0.63307322  0.87659955  0.03656553  1
  O  O1  1  0.24352633  0.36692678  0.03656553  1
  O  O1  1  0.75647367  0.63307322  0.96343447  1
  O  O1  1  0.20993288  0.29973989  0.13010113  1
