# generated using pymatgen
data_BaZr(SiO3)3
_symmetry_space_group_name_H-M   'P 1'
_cell_length_a   6.77522751
_cell_length_b   6.77522751
_cell_length_c   10.09259728
_cell_angle_alpha   90.00000000
_cell_angle_beta   90.00000000
_cell_angle_gamma   120.00000000
_symmetry_Int_Tables_number   1
_chemical_formula_structural   BaZr(SiO3)3
_chemical_formula_sum   'Ba2 Zr2 Si6 O18'
_cell_volume   401.21886197
_cell_formula_units_Z   2
loop_
 _symmetry_equiv_pos_site_id
 _symmetry_equiv_pos_as_xyz
  1  'x, y, z'
loop_
 _atom_site_type_symbol
 _atom_site_label
 _atom_site_symmetry_multiplicity
 _atom_site_fract_x
 _atom_site_fract_y
 _atom_site_fract_z
 _atom_site_occupancy
  Ba  Ba1  1  0.00000000  0.00000000  0.00000000  1
  Ba  Ba1  1  0.00000000  0.00000000  0.50000000  1
  Zr  Zr1  1  0.66666667  0.33333333  0.00000000  1
  Zr  Zr1  1  0.66666667  0.33333333  0.50000000  1
  Si  Si1  1  0.38966716  0.44225266  0.25000000  1
  Si  Si1  1  0.55774734  0.94741450  0.25000000  1
  Si  Si1  1  0.38966716  0.94741450  0.75000000  1
  Si  Si1  1  0.05258550  0.61033284  0.25000000  1
  Si  Si1  1  0.55774734  0.61033284  0.75000000  1
  Si  Si1  1  0.05258550  0.44225266  0.75000000  1
  O  O1  1  0.91245952  0.59455740  0.11641016  1
  O  O1  1  0.40544260  0.31790212  0.11641016  1
  O  O1  1  0.91245952  0.59455740  0.38358984  1
  O  O1  1  0.91245952  0.31790212  0.61641016  1
  O  O1  1  0.68209788  0.08754048  0.11641016  1
  O  O1  1  0.40544260  0.31790212  0.38358984  1
  O  O1  1  0.40544260  0.08754048  0.61641016  1
  O  O1  1  0.91245952  0.31790212  0.88358984  1
  O  O1  1  0.68209788  0.08754048  0.38358984  1
  O  O1  1  0.40544260  0.08754048  0.88358984  1
  O  O1  1  0.68209788  0.59455740  0.61641016  1
  O  O1  1  0.68209788  0.59455740  0.88358984  1
  O  O2  1  0.13512218  0.41914600  0.25000000  1
  O  O2  1  0.58085400  0.71597618  0.25000000  1
  O  O2  1  0.13512218  0.71597618  0.75000000  1
  O  O2  1  0.28402382  0.86487782  0.25000000  1
  O  O2  1  0.58085400  0.86487782  0.75000000  1
  O  O2  1  0.28402382  0.41914600  0.75000000  1
