# generated using pymatgen
data_BeAl2O4
_symmetry_space_group_name_H-M   'P 1'
_cell_length_a   9.42358940
_cell_length_b   5.48735922
_cell_length_c   4.43530174
_cell_angle_alpha   90.00000000
_cell_angle_beta   90.00000000
_cell_angle_gamma   90.00000000
_symmetry_Int_Tables_number   1
_chemical_formula_structural   BeAl2O4
_chemical_formula_sum   'Be4 Al8 O16'
_cell_volume   229.35220366
_cell_formula_units_Z   4
loop_
 _symmetry_equiv_pos_site_id
 _symmetry_equiv_pos_as_xyz
  1  'x, y, z'
loop_
 _atom_site_type_symbol
 _atom_site_label
 _atom_site_symmetry_multiplicity
 _atom_site_fract_x
 _atom_site_fract_y
 _atom_site_fract_z
 _atom_site_occupancy
  Be  Be1  1  0.09254648  0.75000000  0.56693990  1
  Be  Be1  1  0.90745352  0.25000000  0.43306010  1
  Be  Be1  1  0.59254648  0.75000000  0.93306010  1
  Be  Be1  1  0.40745352  0.25000000  0.06693990  1
  Al  Al1  1  0.72745308  0.25000000  0.99471738  1
  Al  Al1  1  0.77254692  0.75000000  0.49471738  1
  Al  Al1  1  0.27254692  0.75000000  0.00528262  1
  Al  Al1  1  0.22745308  0.25000000  0.50528262  1
  Al  Al2  1  0.00000000  0.00000000  0.00000000  1
  Al  Al2  1  0.50000000  0.00000000  0.50000000  1
  Al  Al2  1  0.00000000  0.50000000  0.00000000  1
  Al  Al2  1  0.50000000  0.50000000  0.50000000  1
  O  O1  1  0.83650041  0.01564192  0.25644288  1
  O  O1  1  0.66349959  0.98435808  0.75644288  1
  O  O1  1  0.16349959  0.51564192  0.74355712  1
  O  O1  1  0.33650041  0.48435808  0.24355712  1
  O  O1  1  0.66349959  0.51564192  0.75644288  1
  O  O1  1  0.16349959  0.98435808  0.74355712  1
  O  O1  1  0.83650041  0.48435808  0.25644288  1
  O  O1  1  0.33650041  0.01564192  0.24355712  1
  O  O2  1  0.40958113  0.25000000  0.71317282  1
  O  O2  1  0.09041887  0.75000000  0.21317282  1
  O  O2  1  0.59041887  0.75000000  0.28682718  1
  O  O2  1  0.90958113  0.25000000  0.78682718  1
  O  O3  1  0.06669445  0.25000000  0.25952452  1
  O  O3  1  0.43330555  0.75000000  0.75952452  1
  O  O3  1  0.93330555  0.75000000  0.74047548  1
  O  O3  1  0.56669445  0.25000000  0.24047548  1
