# generated using pymatgen
data_BeTlAsO4
_symmetry_space_group_name_H-M   'P 1'
_cell_length_a   9.99489149
_cell_length_b   8.14237843
_cell_length_c   4.93463140
_cell_angle_alpha   90.00000000
_cell_angle_beta   90.00000000
_cell_angle_gamma   90.00000000
_symmetry_Int_Tables_number   1
_chemical_formula_structural   BeTlAsO4
_chemical_formula_sum   'Be4 Tl4 As4 O16'
_cell_volume   401.59110399
_cell_formula_units_Z   4
loop_
 _symmetry_equiv_pos_site_id
 _symmetry_equiv_pos_as_xyz
  1  'x, y, z'
loop_
 _atom_site_type_symbol
 _atom_site_label
 _atom_site_symmetry_multiplicity
 _atom_site_fract_x
 _atom_site_fract_y
 _atom_site_fract_z
 _atom_site_occupancy
  Be  Be1  1  0.86016368  0.87306910  0.03181952  1
  Be  Be1  1  0.13983632  0.12693090  0.53181952  1
  Be  Be1  1  0.63983632  0.37306910  0.53181952  1
  Be  Be1  1  0.36016368  0.62693090  0.03181952  1
  Tl  Tl1  1  0.55773650  0.13226608  0.02308848  1
  Tl  Tl1  1  0.44226350  0.86773392  0.52308848  1
  Tl  Tl1  1  0.94226350  0.63226608  0.52308848  1
  Tl  Tl1  1  0.05773650  0.36773392  0.02308848  1
  As  As1  1  0.83672026  0.07851306  0.53213620  1
  As  As1  1  0.16327974  0.92148694  0.03213620  1
  As  As1  1  0.66327974  0.57851306  0.03213620  1
  As  As1  1  0.33672026  0.42148694  0.53213620  1
  O  O1  1  0.70982286  0.20258416  0.42781364  1
  O  O1  1  0.29017714  0.79741584  0.92781364  1
  O  O1  1  0.79017714  0.70258416  0.92781364  1
  O  O1  1  0.20982286  0.29741584  0.42781364  1
  O  O2  1  0.81297900  0.03587764  0.86783404  1
  O  O2  1  0.18702100  0.96412236  0.36783404  1
  O  O2  1  0.68702100  0.53587764  0.36783404  1
  O  O2  1  0.31297900  0.46412236  0.86783404  1
  O  O3  1  0.98379432  0.17867868  0.47472988  1
  O  O3  1  0.01620568  0.82132132  0.97472988  1
  O  O3  1  0.51620568  0.67867868  0.97472988  1
  O  O3  1  0.48379432  0.32132132  0.47472988  1
  O  O4  1  0.82676714  0.89900178  0.35157824  1
  O  O4  1  0.17323286  0.10099822  0.85157824  1
  O  O4  1  0.67323286  0.39900178  0.85157824  1
  O  O4  1  0.32676714  0.60099822  0.35157824  1
