# generated using pymatgen
data_BiBO3
_symmetry_space_group_name_H-M   'P 1'
_cell_length_a   6.56417384
_cell_length_b   5.03098257
_cell_length_c   8.33926715
_cell_angle_alpha   90.00000000
_cell_angle_beta   110.19597868
_cell_angle_gamma   90.00000000
_symmetry_Int_Tables_number   1
_chemical_formula_structural   BiBO3
_chemical_formula_sum   'Bi4 B4 O12'
_cell_volume   258.46576991
_cell_formula_units_Z   4
loop_
 _symmetry_equiv_pos_site_id
 _symmetry_equiv_pos_as_xyz
  1  'x, y, z'
loop_
 _atom_site_type_symbol
 _atom_site_label
 _atom_site_symmetry_multiplicity
 _atom_site_fract_x
 _atom_site_fract_y
 _atom_site_fract_z
 _atom_site_occupancy
  Bi  Bi1  1  0.74003114  0.24609996  0.12222990  1
  Bi  Bi1  1  0.25996886  0.74609996  0.37777010  1
  Bi  Bi1  1  0.25996886  0.75390004  0.87777010  1
  Bi  Bi1  1  0.74003114  0.25390004  0.62222990  1
  B  B1  1  0.21383904  0.25607376  0.11171536  1
  B  B1  1  0.78616096  0.75607376  0.38828464  1
  B  B1  1  0.78616096  0.74392624  0.88828464  1
  B  B1  1  0.21383904  0.24392624  0.61171536  1
  O  O1  1  0.23783990  0.97087952  0.63351924  1
  O  O1  1  0.76216010  0.47087952  0.86648076  1
  O  O1  1  0.76216010  0.02912048  0.36648076  1
  O  O1  1  0.23783990  0.52912048  0.13351924  1
  O  O2  1  0.07731085  0.38598104  0.67433096  1
  O  O2  1  0.92268915  0.88598104  0.82566904  1
  O  O2  1  0.92268915  0.61401896  0.32566904  1
  O  O2  1  0.07731085  0.11401896  0.17433096  1
  O  O3  1  0.33991274  0.37143284  0.53285364  1
  O  O3  1  0.66008726  0.87143284  0.96714636  1
  O  O3  1  0.66008726  0.62856716  0.46714636  1
  O  O3  1  0.33991274  0.12856716  0.03285364  1
