# generated using pymatgen
data_BiO2
_symmetry_space_group_name_H-M   'P 1'
_cell_length_a   12.31091926
_cell_length_b   5.23453499
_cell_length_c   5.57675089
_cell_angle_alpha   90.00000000
_cell_angle_beta   109.06981489
_cell_angle_gamma   90.00000000
_symmetry_Int_Tables_number   1
_chemical_formula_structural   BiO2
_chemical_formula_sum   'Bi8 O16'
_cell_volume   339.65446383
_cell_formula_units_Z   8
loop_
 _symmetry_equiv_pos_site_id
 _symmetry_equiv_pos_as_xyz
  1  'x, y, z'
loop_
 _atom_site_type_symbol
 _atom_site_label
 _atom_site_symmetry_multiplicity
 _atom_site_fract_x
 _atom_site_fract_y
 _atom_site_fract_z
 _atom_site_occupancy
  Bi  Bi1  1  0.00000000  0.26005188  0.25000000  1
  Bi  Bi1  1  0.00000000  0.73994812  0.75000000  1
  Bi  Bi2  1  0.25000000  0.75000000  0.50000000  1
  Bi  Bi2  1  0.25000000  0.25000000  0.00000000  1
  O  O1  1  0.09407284  0.57992380  0.48528830  1
  O  O2  1  0.32852628  0.56042088  0.85542224  1
  O  O2  1  0.17147372  0.93957912  0.14457776  1
  O  O2  1  0.17147372  0.06042088  0.64457776  1
  O  O2  1  0.32852628  0.43957912  0.35542224  1
  O  O1  1  0.09407284  0.42007620  0.98528830  1
  O  O1  1  0.40592716  0.07992380  0.01471170  1
  O  O1  1  0.40592716  0.92007620  0.51471170  1
  Bi  Bi1  1  0.50000000  0.76005188  0.25000000  1
  Bi  Bi1  1  0.50000000  0.23994812  0.75000000  1
  Bi  Bi2  1  0.75000000  0.25000000  0.50000000  1
  Bi  Bi2  1  0.75000000  0.75000000  0.00000000  1
  O  O1  1  0.59407284  0.07992380  0.48528830  1
  O  O2  1  0.82852628  0.06042088  0.85542224  1
  O  O2  1  0.67147372  0.43957912  0.14457776  1
  O  O2  1  0.67147372  0.56042088  0.64457776  1
  O  O2  1  0.82852628  0.93957912  0.35542224  1
  O  O1  1  0.59407284  0.92007620  0.98528830  1
  O  O1  1  0.90592716  0.57992380  0.01471170  1
  O  O1  1  0.90592716  0.42007620  0.51471170  1
