# generated using pymatgen
data_BiSbO4
_symmetry_space_group_name_H-M   'P 1'
_cell_length_a   11.98485968
_cell_length_b   4.94175427
_cell_length_c   5.48821200
_cell_angle_alpha   90.00000000
_cell_angle_beta   105.90041252
_cell_angle_gamma   90.00000000
_symmetry_Int_Tables_number   1
_chemical_formula_structural   BiSbO4
_chemical_formula_sum   'Bi4 Sb4 O16'
_cell_volume   312.60963432
_cell_formula_units_Z   4
loop_
 _symmetry_equiv_pos_site_id
 _symmetry_equiv_pos_as_xyz
  1  'x, y, z'
loop_
 _atom_site_type_symbol
 _atom_site_label
 _atom_site_symmetry_multiplicity
 _atom_site_fract_x
 _atom_site_fract_y
 _atom_site_fract_z
 _atom_site_occupancy
  Bi  Bi1  1  0.00000000  0.74652416  0.25000000  1
  Bi  Bi1  1  0.00000000  0.25347584  0.75000000  1
  Sb  Sb1  1  0.25000000  0.25000000  0.50000000  1
  Sb  Sb1  1  0.25000000  0.75000000  0.00000000  1
  O  O1  1  0.09556576  0.59235634  0.96429962  1
  O  O1  1  0.40443424  0.09235634  0.53570038  1
  O  O1  1  0.40443424  0.90764366  0.03570038  1
  O  O1  1  0.09556576  0.40764366  0.46429962  1
  O  O2  1  0.18379557  0.95349232  0.67324050  1
  O  O2  1  0.31620443  0.45349232  0.82675950  1
  O  O2  1  0.31620443  0.54650768  0.32675950  1
  O  O2  1  0.18379557  0.04650768  0.17324050  1
  Bi  Bi1  1  0.50000000  0.24652416  0.25000000  1
  Bi  Bi1  1  0.50000000  0.75347584  0.75000000  1
  Sb  Sb1  1  0.75000000  0.75000000  0.50000000  1
  Sb  Sb1  1  0.75000000  0.25000000  0.00000000  1
  O  O1  1  0.59556576  0.09235634  0.96429962  1
  O  O1  1  0.90443424  0.59235634  0.53570038  1
  O  O1  1  0.90443424  0.40764366  0.03570038  1
  O  O1  1  0.59556576  0.90764366  0.46429962  1
  O  O2  1  0.68379557  0.45349232  0.67324050  1
  O  O2  1  0.81620443  0.95349232  0.82675950  1
  O  O2  1  0.81620443  0.04650768  0.32675950  1
  O  O2  1  0.68379557  0.54650768  0.17324050  1
