# generated using pymatgen
data_Ca(AsO3)2
_symmetry_space_group_name_H-M   'P 1'
_cell_length_a   4.86894592
_cell_length_b   4.86894592
_cell_length_c   5.07345853
_cell_angle_alpha   90.00000000
_cell_angle_beta   90.00000000
_cell_angle_gamma   120.00000000
_symmetry_Int_Tables_number   1
_chemical_formula_structural   Ca(AsO3)2
_chemical_formula_sum   'Ca1 As2 O6'
_cell_volume   104.16088180
_cell_formula_units_Z   1
loop_
 _symmetry_equiv_pos_site_id
 _symmetry_equiv_pos_as_xyz
  1  'x, y, z'
loop_
 _atom_site_type_symbol
 _atom_site_label
 _atom_site_symmetry_multiplicity
 _atom_site_fract_x
 _atom_site_fract_y
 _atom_site_fract_z
 _atom_site_occupancy
  Ca  Ca1  1  0.00000000  0.00000000  0.00000000  1
  As  As1  1  0.33333333  0.66666667  0.50000000  1
  As  As1  1  0.66666667  0.33333333  0.50000000  1
  O  O1  1  0.37615250  0.37615250  0.70548481  1
  O  O1  1  0.62384750  0.00000000  0.70548481  1
  O  O1  1  0.00000000  0.62384750  0.70548481  1
  O  O1  1  0.37615250  0.00000000  0.29451519  1
  O  O1  1  0.00000000  0.37615250  0.29451519  1
  O  O1  1  0.62384750  0.62384750  0.29451519  1
