# generated using pymatgen
data_Ca(AuO2)2
_symmetry_space_group_name_H-M   'P 1'
_cell_length_a   5.98026340
_cell_length_b   5.98026340
_cell_length_c   10.03672474
_cell_angle_alpha   90.00000000
_cell_angle_beta   90.00000000
_cell_angle_gamma   90.00000000
_symmetry_Int_Tables_number   1
_chemical_formula_structural   Ca(AuO2)2
_chemical_formula_sum   'Ca4 Au8 O16'
_cell_volume   358.94891102
_cell_formula_units_Z   4
loop_
 _symmetry_equiv_pos_site_id
 _symmetry_equiv_pos_as_xyz
  1  'x, y, z'
loop_
 _atom_site_type_symbol
 _atom_site_label
 _atom_site_symmetry_multiplicity
 _atom_site_fract_x
 _atom_site_fract_y
 _atom_site_fract_z
 _atom_site_occupancy
  Ca  Ca1  1  0.50000000  0.50000000  0.50000000  1
  Ca  Ca1  1  0.00000000  0.50000000  0.25000000  1
  Au  Au1  1  0.00000000  0.25000000  0.62500000  1
  Au  Au1  1  0.75000000  0.00000000  0.37500000  1
  Au  Au1  1  0.00000000  0.75000000  0.62500000  1
  Au  Au1  1  0.25000000  0.00000000  0.37500000  1
  O  O1  1  0.29595184  0.84282644  0.54956171  1
  O  O1  1  0.65717356  0.29595184  0.29956171  1
  O  O1  1  0.34282644  0.70404816  0.29956171  1
  O  O1  1  0.70404816  0.15717356  0.54956171  1
  O  O1  1  0.70404816  0.65717356  0.70043829  1
  O  O1  1  0.84282644  0.70404816  0.45043829  1
  O  O1  1  0.29595184  0.34282644  0.70043829  1
  O  O1  1  0.15717356  0.29595184  0.45043829  1
  Ca  Ca1  1  0.00000000  0.00000000  0.00000000  1
  Ca  Ca1  1  0.50000000  0.00000000  0.75000000  1
  Au  Au1  1  0.50000000  0.75000000  0.12500000  1
  Au  Au1  1  0.25000000  0.50000000  0.87500000  1
  Au  Au1  1  0.50000000  0.25000000  0.12500000  1
  Au  Au1  1  0.75000000  0.50000000  0.87500000  1
  O  O1  1  0.79595184  0.34282644  0.04956171  1
  O  O1  1  0.15717356  0.79595184  0.79956171  1
  O  O1  1  0.84282644  0.20404816  0.79956171  1
  O  O1  1  0.20404816  0.65717356  0.04956171  1
  O  O1  1  0.20404816  0.15717356  0.20043829  1
  O  O1  1  0.34282644  0.20404816  0.95043829  1
  O  O1  1  0.79595184  0.84282644  0.20043829  1
  O  O1  1  0.65717356  0.79595184  0.95043829  1
