# generated using pymatgen
data_Ca(AgO2)2
_symmetry_space_group_name_H-M   'P 1'
_cell_length_a   5.90949883
_cell_length_b   5.90949883
_cell_length_c   9.99791047
_cell_angle_alpha   90.00000000
_cell_angle_beta   90.00000000
_cell_angle_gamma   90.00000000
_symmetry_Int_Tables_number   1
_chemical_formula_structural   Ca(AgO2)2
_chemical_formula_sum   'Ca4 Ag8 O16'
_cell_volume   349.14879328
_cell_formula_units_Z   4
loop_
 _symmetry_equiv_pos_site_id
 _symmetry_equiv_pos_as_xyz
  1  'x, y, z'
loop_
 _atom_site_type_symbol
 _atom_site_label
 _atom_site_symmetry_multiplicity
 _atom_site_fract_x
 _atom_site_fract_y
 _atom_site_fract_z
 _atom_site_occupancy
  Ca  Ca1  1  0.50000000  0.50000000  0.50000000  1
  Ca  Ca1  1  0.00000000  0.50000000  0.25000000  1
  Ag  Ag1  1  0.75000000  0.00000000  0.37500000  1
  Ag  Ag1  1  0.25000000  0.00000000  0.37500000  1
  Ag  Ag1  1  0.00000000  0.75000000  0.62500000  1
  Ag  Ag1  1  0.00000000  0.25000000  0.62500000  1
  O  O1  1  0.70361034  0.85018928  0.55184523  1
  O  O1  1  0.85018928  0.29638966  0.44815477  1
  O  O1  1  0.14981072  0.70361034  0.44815477  1
  O  O1  1  0.70361034  0.35018928  0.69815477  1
  O  O1  1  0.35018928  0.29638966  0.30184523  1
  O  O1  1  0.64981072  0.70361034  0.30184523  1
  O  O1  1  0.29638966  0.14981072  0.55184523  1
  O  O1  1  0.29638966  0.64981072  0.69815477  1
  Ca  Ca1  1  0.00000000  0.00000000  0.00000000  1
  Ca  Ca1  1  0.50000000  0.00000000  0.75000000  1
  Ag  Ag1  1  0.25000000  0.50000000  0.87500000  1
  Ag  Ag1  1  0.75000000  0.50000000  0.87500000  1
  Ag  Ag1  1  0.50000000  0.25000000  0.12500000  1
  Ag  Ag1  1  0.50000000  0.75000000  0.12500000  1
  O  O1  1  0.20361034  0.35018928  0.05184523  1
  O  O1  1  0.35018928  0.79638966  0.94815477  1
  O  O1  1  0.64981072  0.20361034  0.94815477  1
  O  O1  1  0.20361034  0.85018928  0.19815477  1
  O  O1  1  0.85018928  0.79638966  0.80184523  1
  O  O1  1  0.14981072  0.20361034  0.80184523  1
  O  O1  1  0.79638966  0.64981072  0.05184523  1
  O  O1  1  0.79638966  0.14981072  0.19815477  1
