# generated using pymatgen
data_Ca2BiAsO6
_symmetry_space_group_name_H-M   'P 1'
_cell_length_a   8.86608458
_cell_length_b   11.77701434
_cell_length_c   5.54908852
_cell_angle_alpha   90.00000000
_cell_angle_beta   90.00000000
_cell_angle_gamma   90.00000000
_symmetry_Int_Tables_number   1
_chemical_formula_structural   Ca2BiAsO6
_chemical_formula_sum   'Ca8 Bi4 As4 O24'
_cell_volume   579.41365597
_cell_formula_units_Z   4
loop_
 _symmetry_equiv_pos_site_id
 _symmetry_equiv_pos_as_xyz
  1  'x, y, z'
loop_
 _atom_site_type_symbol
 _atom_site_label
 _atom_site_symmetry_multiplicity
 _atom_site_fract_x
 _atom_site_fract_y
 _atom_site_fract_z
 _atom_site_occupancy
  Ca  Ca1  1  0.19738889  0.10487876  0.23747792  1
  Ca  Ca1  1  0.80261111  0.10487876  0.23747792  1
  Ca  Ca1  1  0.19738889  0.89512124  0.73747792  1
  Ca  Ca1  1  0.80261111  0.89512124  0.73747792  1
  Bi  Bi1  1  0.50000000  0.09224109  0.75167324  1
  Bi  Bi1  1  0.50000000  0.90775891  0.25167324  1
  As  As1  1  0.50000000  0.31709959  0.19451624  1
  As  As1  1  0.50000000  0.68290041  0.69451624  1
  O  O1  1  0.34574947  0.00411925  0.49075868  1
  O  O2  1  0.34200769  0.25411423  0.07518452  1
  O  O2  1  0.34200769  0.74588577  0.57518452  1
  O  O1  1  0.65425053  0.00411925  0.49075868  1
  O  O3  1  0.50000000  0.68754724  0.00272468  1
  O  O1  1  0.65425053  0.99588075  0.99075868  1
  O  O3  1  0.50000000  0.31245276  0.50272468  1
  O  O1  1  0.34574947  0.99588075  0.99075868  1
  O  O4  1  0.50000000  0.54834745  0.57024558  1
  O  O2  1  0.65799231  0.74588577  0.57518452  1
  O  O4  1  0.50000000  0.45165255  0.07024558  1
  O  O2  1  0.65799231  0.25411423  0.07518452  1
  Ca  Ca1  1  0.69738889  0.60487876  0.23747792  1
  Ca  Ca1  1  0.30261111  0.60487876  0.23747792  1
  Ca  Ca1  1  0.69738889  0.39512124  0.73747792  1
  Ca  Ca1  1  0.30261111  0.39512124  0.73747792  1
  Bi  Bi1  1  0.00000000  0.59224109  0.75167324  1
  Bi  Bi1  1  0.00000000  0.40775891  0.25167324  1
  As  As1  1  0.00000000  0.81709959  0.19451624  1
  As  As1  1  0.00000000  0.18290041  0.69451624  1
  O  O1  1  0.84574947  0.50411925  0.49075868  1
  O  O2  1  0.84200769  0.75411423  0.07518452  1
  O  O2  1  0.84200769  0.24588577  0.57518452  1
  O  O1  1  0.15425053  0.50411925  0.49075868  1
  O  O3  1  0.00000000  0.18754724  0.00272468  1
  O  O1  1  0.15425053  0.49588075  0.99075868  1
  O  O3  1  0.00000000  0.81245276  0.50272468  1
  O  O1  1  0.84574947  0.49588075  0.99075868  1
  O  O4  1  0.00000000  0.04834745  0.57024558  1
  O  O2  1  0.15799231  0.24588577  0.57518452  1
  O  O4  1  0.00000000  0.95165255  0.07024558  1
  O  O2  1  0.15799231  0.75411423  0.07518452  1
