# generated using pymatgen
data_Ca2GeO4
_symmetry_space_group_name_H-M   'P 1'
_cell_length_a   11.37113232
_cell_length_b   6.75119991
_cell_length_c   5.25072509
_cell_angle_alpha   90.00000000
_cell_angle_beta   90.00000000
_cell_angle_gamma   90.00000000
_symmetry_Int_Tables_number   1
_chemical_formula_structural   Ca2GeO4
_chemical_formula_sum   'Ca8 Ge4 O16'
_cell_volume   403.09179893
_cell_formula_units_Z   4
loop_
 _symmetry_equiv_pos_site_id
 _symmetry_equiv_pos_as_xyz
  1  'x, y, z'
loop_
 _atom_site_type_symbol
 _atom_site_label
 _atom_site_symmetry_multiplicity
 _atom_site_fract_x
 _atom_site_fract_y
 _atom_site_fract_z
 _atom_site_occupancy
  Ca  Ca1  1  0.77922832  0.25000000  0.50698118  1
  Ca  Ca1  1  0.22077168  0.75000000  0.49301882  1
  Ca  Ca1  1  0.72077168  0.75000000  0.00698118  1
  Ca  Ca1  1  0.27922832  0.25000000  0.99301882  1
  Ca  Ca2  1  0.00000000  0.00000000  0.00000000  1
  Ca  Ca2  1  0.50000000  0.50000000  0.50000000  1
  Ca  Ca2  1  0.50000000  0.00000000  0.50000000  1
  Ca  Ca2  1  0.00000000  0.50000000  0.00000000  1
  Ge  Ge1  1  0.40414677  0.75000000  0.93100992  1
  Ge  Ge1  1  0.09585323  0.25000000  0.43100992  1
  Ge  Ge1  1  0.59585323  0.25000000  0.06899008  1
  Ge  Ge1  1  0.90414677  0.75000000  0.56899008  1
  O  O1  1  0.95144227  0.25000000  0.28421308  1
  O  O2  1  0.16429013  0.04015028  0.27972722  1
  O  O2  1  0.66429013  0.04015028  0.22027278  1
  O  O3  1  0.90716206  0.75000000  0.23088548  1
  O  O1  1  0.45144227  0.25000000  0.21578692  1
  O  O2  1  0.33570987  0.95984972  0.77972722  1
  O  O2  1  0.83570987  0.95984972  0.72027278  1
  O  O3  1  0.09283794  0.25000000  0.76911452  1
  O  O2  1  0.16429013  0.45984972  0.27972722  1
  O  O3  1  0.59283794  0.25000000  0.73088548  1
  O  O1  1  0.04855773  0.75000000  0.71578692  1
  O  O2  1  0.66429013  0.45984972  0.22027278  1
  O  O2  1  0.83570987  0.54015028  0.72027278  1
  O  O1  1  0.54855773  0.75000000  0.78421308  1
  O  O2  1  0.33570987  0.54015028  0.77972722  1
  O  O3  1  0.40716206  0.75000000  0.26911452  1
