# generated using pymatgen
data_Ca2PbO4
_symmetry_space_group_name_H-M   'P 1'
_cell_length_a   5.81790385
_cell_length_b   9.77776345
_cell_length_c   3.37339307
_cell_angle_alpha   90.00000000
_cell_angle_beta   90.00000000
_cell_angle_gamma   90.00000000
_symmetry_Int_Tables_number   1
_chemical_formula_structural   Ca2PbO4
_chemical_formula_sum   'Ca4 Pb2 O8'
_cell_volume   191.89913353
_cell_formula_units_Z   2
loop_
 _symmetry_equiv_pos_site_id
 _symmetry_equiv_pos_as_xyz
  1  'x, y, z'
loop_
 _atom_site_type_symbol
 _atom_site_label
 _atom_site_symmetry_multiplicity
 _atom_site_fract_x
 _atom_site_fract_y
 _atom_site_fract_z
 _atom_site_occupancy
  Ca  Ca1  1  0.42776102  0.81807598  0.50000000  1
  Ca  Ca1  1  0.57223898  0.18192402  0.50000000  1
  Ca  Ca1  1  0.92776102  0.68192402  0.50000000  1
  Ca  Ca1  1  0.07223898  0.31807598  0.50000000  1
  Pb  Pb1  1  0.50000000  0.50000000  0.00000000  1
  Pb  Pb1  1  0.00000000  0.00000000  0.00000000  1
  O  O1  1  0.14184325  0.79642968  0.00000000  1
  O  O1  1  0.85815675  0.20357032  0.00000000  1
  O  O1  1  0.64184325  0.70357032  0.00000000  1
  O  O1  1  0.35815675  0.29642968  0.00000000  1
  O  O2  1  0.25769225  0.54729364  0.50000000  1
  O  O2  1  0.74230775  0.45270636  0.50000000  1
  O  O2  1  0.24230775  0.04729364  0.50000000  1
  O  O2  1  0.75769225  0.95270636  0.50000000  1
