# generated using pymatgen
data_Ca2Pt3O8
_symmetry_space_group_name_H-M   'P 1'
_cell_length_a   6.22814282
_cell_length_b   6.22814282
_cell_length_c   15.20373689
_cell_angle_alpha   90.00000000
_cell_angle_beta   90.00000000
_cell_angle_gamma   120.00000000
_symmetry_Int_Tables_number   1
_chemical_formula_structural   Ca2Pt3O8
_chemical_formula_sum   'Ca6 Pt9 O24'
_cell_volume   510.73791883
_cell_formula_units_Z   3
loop_
 _symmetry_equiv_pos_site_id
 _symmetry_equiv_pos_as_xyz
  1  'x, y, z'
loop_
 _atom_site_type_symbol
 _atom_site_label
 _atom_site_symmetry_multiplicity
 _atom_site_fract_x
 _atom_site_fract_y
 _atom_site_fract_z
 _atom_site_occupancy
  Ca  Ca1  1  0.66666667  0.33333333  0.47792288  1
  Ca  Ca1  1  0.66666667  0.33333333  0.18874378  1
  Pt  Pt1  1  0.83333333  0.16666667  0.66666667  1
  Pt  Pt1  1  0.00000000  0.50000000  0.00000000  1
  Pt  Pt1  1  0.50000000  0.00000000  0.00000000  1
  O  O1  1  0.66666667  0.33333333  0.72877451  1
  O  O1  1  0.66666667  0.33333333  0.93789216  1
  O  O2  1  0.81535103  0.63070206  0.07150504  1
  O  O2  1  0.81535103  0.18464897  0.07150504  1
  O  O2  1  0.36929794  0.18464897  0.07150504  1
  O  O2  1  0.51798230  0.48201770  0.59516163  1
  O  O2  1  0.51798230  0.03596461  0.59516163  1
  O  O2  1  0.96403539  0.48201770  0.59516163  1
  Ca  Ca1  1  0.33333333  0.66666667  0.81125622  1
  Ca  Ca1  1  0.33333333  0.66666667  0.52207712  1
  Pt  Pt1  1  0.50000000  0.50000000  0.00000000  1
  Pt  Pt1  1  0.66666667  0.83333333  0.33333333  1
  Pt  Pt1  1  0.16666667  0.33333333  0.33333333  1
  O  O1  1  0.33333333  0.66666667  0.06210784  1
  O  O1  1  0.33333333  0.66666667  0.27122549  1
  O  O2  1  0.48201770  0.96403539  0.40483837  1
  O  O2  1  0.48201770  0.51798230  0.40483837  1
  O  O2  1  0.03596461  0.51798230  0.40483837  1
  O  O2  1  0.18464897  0.81535103  0.92849496  1
  O  O2  1  0.18464897  0.36929794  0.92849496  1
  O  O2  1  0.63070206  0.81535103  0.92849496  1
  Ca  Ca1  1  0.00000000  0.00000000  0.14458955  1
  Ca  Ca1  1  0.00000000  0.00000000  0.85541045  1
  Pt  Pt1  1  0.16666667  0.83333333  0.33333333  1
  Pt  Pt1  1  0.33333333  0.16666667  0.66666667  1
  Pt  Pt1  1  0.83333333  0.66666667  0.66666667  1
  O  O1  1  0.00000000  0.00000000  0.39544117  1
  O  O1  1  0.00000000  0.00000000  0.60455883  1
  O  O2  1  0.14868436  0.29736873  0.73817171  1
  O  O2  1  0.14868436  0.85131564  0.73817171  1
  O  O2  1  0.70263127  0.85131564  0.73817171  1
  O  O2  1  0.85131564  0.14868436  0.26182829  1
  O  O2  1  0.85131564  0.70263127  0.26182829  1
  O  O2  1  0.29736873  0.14868436  0.26182829  1
