# generated using pymatgen
data_Ca2SiO4
_symmetry_space_group_name_H-M   'P 1'
_cell_length_a   11.17376003
_cell_length_b   6.71409564
_cell_length_c   5.06436518
_cell_angle_alpha   90.00000000
_cell_angle_beta   90.00000000
_cell_angle_gamma   90.00000000
_symmetry_Int_Tables_number   1
_chemical_formula_structural   Ca2SiO4
_chemical_formula_sum   'Ca8 Si4 O16'
_cell_volume   379.93725256
_cell_formula_units_Z   4
loop_
 _symmetry_equiv_pos_site_id
 _symmetry_equiv_pos_as_xyz
  1  'x, y, z'
loop_
 _atom_site_type_symbol
 _atom_site_label
 _atom_site_symmetry_multiplicity
 _atom_site_fract_x
 _atom_site_fract_y
 _atom_site_fract_z
 _atom_site_occupancy
  Ca  Ca1  1  0.71967876  0.25000000  0.99115895  1
  Ca  Ca1  1  0.78032124  0.75000000  0.49115895  1
  Ca  Ca1  1  0.28032124  0.75000000  0.00884105  1
  Ca  Ca1  1  0.21967876  0.25000000  0.50884105  1
  Ca  Ca2  1  0.00000000  0.00000000  0.00000000  1
  Ca  Ca2  1  0.50000000  0.00000000  0.50000000  1
  Ca  Ca2  1  0.00000000  0.50000000  0.00000000  1
  Ca  Ca2  1  0.50000000  0.50000000  0.50000000  1
  Si  Si1  1  0.90390066  0.25000000  0.42736270  1
  Si  Si1  1  0.59609934  0.75000000  0.92736270  1
  Si  Si1  1  0.09609934  0.75000000  0.57263730  1
  Si  Si1  1  0.40390066  0.25000000  0.07263730  1
  O  O1  1  0.16257556  0.94649512  0.70498797  1
  O  O1  1  0.33742444  0.05350488  0.20498797  1
  O  O1  1  0.83742444  0.44649512  0.29501203  1
  O  O1  1  0.66257556  0.55350488  0.79501203  1
  O  O1  1  0.83742444  0.05350488  0.29501203  1
  O  O1  1  0.66257556  0.94649512  0.79501203  1
  O  O1  1  0.16257556  0.55350488  0.70498797  1
  O  O1  1  0.33742444  0.44649512  0.20498797  1
  O  O2  1  0.04050694  0.25000000  0.29564166  1
  O  O2  1  0.45949306  0.75000000  0.79564166  1
  O  O2  1  0.95949306  0.75000000  0.70435834  1
  O  O2  1  0.54050694  0.25000000  0.20435834  1
  O  O3  1  0.40731464  0.25000000  0.74965999  1
  O  O3  1  0.09268536  0.75000000  0.24965999  1
  O  O3  1  0.59268536  0.75000000  0.25034001  1
  O  O3  1  0.90731464  0.25000000  0.75034001  1
