# generated using pymatgen
data_Ca2Sn3O8
_symmetry_space_group_name_H-M   'P 1'
_cell_length_a   11.32977844
_cell_length_b   6.35063590
_cell_length_c   5.34478634
_cell_angle_alpha   90.00000000
_cell_angle_beta   110.50615363
_cell_angle_gamma   90.00000000
_symmetry_Int_Tables_number   1
_chemical_formula_structural   Ca2Sn3O8
_chemical_formula_sum   'Ca4 Sn6 O16'
_cell_volume   360.19623043
_cell_formula_units_Z   2
loop_
 _symmetry_equiv_pos_site_id
 _symmetry_equiv_pos_as_xyz
  1  'x, y, z'
loop_
 _atom_site_type_symbol
 _atom_site_label
 _atom_site_symmetry_multiplicity
 _atom_site_fract_x
 _atom_site_fract_y
 _atom_site_fract_z
 _atom_site_occupancy
  Ca  Ca1  1  0.71947247  0.00000000  0.65330606  1
  Ca  Ca1  1  0.78052753  0.50000000  0.34669394  1
  Sn  Sn1  1  0.00000000  0.00000000  0.50000000  1
  Sn  Sn2  1  0.00000000  0.73821036  0.00000000  1
  Sn  Sn2  1  0.00000000  0.26178964  0.00000000  1
  O  O1  1  0.89093357  0.50000000  0.06076940  1
  O  O1  1  0.60906643  0.00000000  0.93923060  1
  O  O2  1  0.89735090  0.00000000  0.08552062  1
  O  O2  1  0.60264910  0.50000000  0.91447938  1
  O  O3  1  0.61067987  0.72102902  0.39828120  1
  O  O3  1  0.61067987  0.27897098  0.39828120  1
  O  O3  1  0.88932013  0.22102902  0.60171880  1
  O  O3  1  0.88932013  0.77897098  0.60171880  1
  Ca  Ca1  1  0.21947247  0.50000000  0.65330606  1
  Ca  Ca1  1  0.28052753  0.00000000  0.34669394  1
  Sn  Sn1  1  0.50000000  0.50000000  0.50000000  1
  Sn  Sn2  1  0.50000000  0.23821036  0.00000000  1
  Sn  Sn2  1  0.50000000  0.76178964  0.00000000  1
  O  O1  1  0.39093357  0.00000000  0.06076940  1
  O  O1  1  0.10906643  0.50000000  0.93923060  1
  O  O2  1  0.39735090  0.50000000  0.08552062  1
  O  O2  1  0.10264910  0.00000000  0.91447938  1
  O  O3  1  0.11067987  0.22102902  0.39828120  1
  O  O3  1  0.11067987  0.77897098  0.39828120  1
  O  O3  1  0.38932013  0.72102902  0.60171880  1
  O  O3  1  0.38932013  0.27897098  0.60171880  1
