# generated using pymatgen
data_Ca2ScSbO6
_symmetry_space_group_name_H-M   'P 1'
_cell_length_a   5.46986881
_cell_length_b   5.63307574
_cell_length_c   9.55030085
_cell_angle_alpha   90.00000000
_cell_angle_beta   124.92403495
_cell_angle_gamma   90.00000000
_symmetry_Int_Tables_number   1
_chemical_formula_structural   Ca2ScSbO6
_chemical_formula_sum   'Ca4 Sc2 Sb2 O12'
_cell_volume   241.27186864
_cell_formula_units_Z   2
loop_
 _symmetry_equiv_pos_site_id
 _symmetry_equiv_pos_as_xyz
  1  'x, y, z'
loop_
 _atom_site_type_symbol
 _atom_site_label
 _atom_site_symmetry_multiplicity
 _atom_site_fract_x
 _atom_site_fract_y
 _atom_site_fract_z
 _atom_site_occupancy
  Ca  Ca1  1  0.26364382  0.44840468  0.75021532  1
  Ca  Ca1  1  0.26364382  0.05159532  0.25021532  1
  Ca  Ca1  1  0.73635618  0.55159532  0.24978468  1
  Ca  Ca1  1  0.73635618  0.94840468  0.74978468  1
  Sc  Sc1  1  0.50000000  0.50000000  0.50000000  1
  Sc  Sc1  1  0.50000000  0.00000000  0.00000000  1
  Sb  Sb1  1  0.00000000  0.00000000  0.50000000  1
  Sb  Sb1  1  0.00000000  0.50000000  0.00000000  1
  O  O1  1  0.34425690  0.19785516  0.55084250  1
  O  O1  1  0.34425690  0.30214484  0.05084250  1
  O  O1  1  0.65574310  0.80214484  0.44915750  1
  O  O1  1  0.65574310  0.69785516  0.94915750  1
  O  O2  1  0.75271444  0.20865738  0.94672336  1
  O  O2  1  0.75271444  0.29134262  0.44672336  1
  O  O2  1  0.24728556  0.79134262  0.05327664  1
  O  O2  1  0.24728556  0.70865738  0.55327664  1
  O  O3  1  0.14493369  0.03475800  0.74398262  1
  O  O3  1  0.14493369  0.46524200  0.24398262  1
  O  O3  1  0.85506631  0.96524200  0.25601738  1
  O  O3  1  0.85506631  0.53475800  0.75601738  1
