# generated using pymatgen
data_Ca2Sb2O7
_symmetry_space_group_name_H-M   'P 1'
_cell_length_a   7.33063294
_cell_length_b   10.23430468
_cell_length_c   7.46905219
_cell_angle_alpha   90.00000000
_cell_angle_beta   90.00000000
_cell_angle_gamma   90.00000000
_symmetry_Int_Tables_number   1
_chemical_formula_structural   Ca2Sb2O7
_chemical_formula_sum   'Ca8 Sb8 O28'
_cell_volume   560.35765655
_cell_formula_units_Z   4
loop_
 _symmetry_equiv_pos_site_id
 _symmetry_equiv_pos_as_xyz
  1  'x, y, z'
loop_
 _atom_site_type_symbol
 _atom_site_label
 _atom_site_symmetry_multiplicity
 _atom_site_fract_x
 _atom_site_fract_y
 _atom_site_fract_z
 _atom_site_occupancy
  Ca  Ca1  1  0.75000000  0.75000000  0.25000000  1
  Ca  Ca1  1  0.25000000  0.75000000  0.25000000  1
  Ca  Ca2  1  0.00000000  0.50000000  0.00000000  1
  Ca  Ca2  1  0.00000000  0.00000000  0.00000000  1
  Sb  Sb1  1  0.75000000  0.75000000  0.75000000  1
  Sb  Sb1  1  0.75000000  0.25000000  0.25000000  1
  Sb  Sb2  1  0.00000000  0.50000000  0.50000000  1
  Sb  Sb2  1  0.50000000  0.50000000  0.00000000  1
  O  O1  1  0.71096734  0.88191512  0.93922420  1
  O  O1  1  0.71096734  0.11808488  0.06077580  1
  O  O1  1  0.28903266  0.61808488  0.93922420  1
  O  O1  1  0.78903266  0.88191512  0.56077580  1
  O  O1  1  0.78903266  0.61808488  0.56077580  1
  O  O1  1  0.78903266  0.38191512  0.43922420  1
  O  O1  1  0.21096734  0.88191512  0.56077580  1
  O  O1  1  0.71096734  0.61808488  0.93922420  1
  O  O2  1  0.00000000  0.25000000  0.15008764  1
  O  O2  1  0.50000000  0.25000000  0.34991236  1
  O  O3  1  0.50000000  0.90539070  0.23033370  1
  O  O3  1  0.00000000  0.59460930  0.26966630  1
  O  O3  1  0.50000000  0.59460930  0.23033370  1
  O  O3  1  0.00000000  0.90539070  0.26966630  1
  Ca  Ca1  1  0.25000000  0.25000000  0.75000000  1
  Ca  Ca1  1  0.75000000  0.25000000  0.75000000  1
  Ca  Ca2  1  0.50000000  0.00000000  0.50000000  1
  Ca  Ca2  1  0.50000000  0.50000000  0.50000000  1
  Sb  Sb1  1  0.25000000  0.25000000  0.25000000  1
  Sb  Sb1  1  0.25000000  0.75000000  0.75000000  1
  Sb  Sb2  1  0.50000000  0.00000000  0.00000000  1
  Sb  Sb2  1  0.00000000  0.00000000  0.50000000  1
  O  O1  1  0.21096734  0.38191512  0.43922420  1
  O  O1  1  0.21096734  0.61808488  0.56077580  1
  O  O1  1  0.78903266  0.11808488  0.43922420  1
  O  O1  1  0.28903266  0.38191512  0.06077580  1
  O  O1  1  0.28903266  0.11808488  0.06077580  1
  O  O1  1  0.28903266  0.88191512  0.93922420  1
  O  O1  1  0.71096734  0.38191512  0.06077580  1
  O  O1  1  0.21096734  0.11808488  0.43922420  1
  O  O2  1  0.50000000  0.75000000  0.65008764  1
  O  O2  1  0.00000000  0.75000000  0.84991236  1
  O  O3  1  0.00000000  0.40539070  0.73033370  1
  O  O3  1  0.50000000  0.09460930  0.76966630  1
  O  O3  1  0.00000000  0.09460930  0.73033370  1
  O  O3  1  0.50000000  0.40539070  0.76966630  1
