# generated using pymatgen
data_Ca2VBiO6
_symmetry_space_group_name_H-M   'P 1'
_cell_length_a   8.85593379
_cell_length_b   11.76176826
_cell_length_c   5.52883507
_cell_angle_alpha   90.00000000
_cell_angle_beta   90.00000000
_cell_angle_gamma   90.00000000
_symmetry_Int_Tables_number   1
_chemical_formula_structural   Ca2VBiO6
_chemical_formula_sum   'Ca8 V4 Bi4 O24'
_cell_volume   575.89142774
_cell_formula_units_Z   4
loop_
 _symmetry_equiv_pos_site_id
 _symmetry_equiv_pos_as_xyz
  1  'x, y, z'
loop_
 _atom_site_type_symbol
 _atom_site_label
 _atom_site_symmetry_multiplicity
 _atom_site_fract_x
 _atom_site_fract_y
 _atom_site_fract_z
 _atom_site_occupancy
  Ca  Ca1  1  0.19617025  0.10535158  0.24125396  1
  Ca  Ca1  1  0.80382975  0.89464842  0.74125396  1
  Ca  Ca1  1  0.19617025  0.89464842  0.74125396  1
  Ca  Ca1  1  0.80382975  0.10535158  0.24125396  1
  V  V1  1  0.50000000  0.68474480  0.69415272  1
  V  V1  1  0.50000000  0.31525520  0.19415272  1
  Bi  Bi1  1  0.50000000  0.90730180  0.26090018  1
  Bi  Bi1  1  0.50000000  0.09269820  0.76090018  1
  O  O1  1  0.65462415  0.99373371  0.99853816  1
  O  O2  1  0.50000000  0.68792764  0.00681100  1
  O  O3  1  0.65604637  0.74935782  0.56854154  1
  O  O3  1  0.34395363  0.25064218  0.06854154  1
  O  O1  1  0.65462415  0.00626629  0.49853816  1
  O  O4  1  0.50000000  0.55003072  0.56946980  1
  O  O1  1  0.34537585  0.99373371  0.99853816  1
  O  O1  1  0.34537585  0.00626629  0.49853816  1
  O  O4  1  0.50000000  0.44996928  0.06946980  1
  O  O2  1  0.50000000  0.31207236  0.50681100  1
  O  O3  1  0.65604637  0.25064218  0.06854154  1
  O  O3  1  0.34395363  0.74935782  0.56854154  1
  Ca  Ca1  1  0.69617025  0.60535158  0.24125396  1
  Ca  Ca1  1  0.30382975  0.39464842  0.74125396  1
  Ca  Ca1  1  0.69617025  0.39464842  0.74125396  1
  Ca  Ca1  1  0.30382975  0.60535158  0.24125396  1
  V  V1  1  0.00000000  0.18474480  0.69415272  1
  V  V1  1  0.00000000  0.81525520  0.19415272  1
  Bi  Bi1  1  0.00000000  0.40730180  0.26090018  1
  Bi  Bi1  1  0.00000000  0.59269820  0.76090018  1
  O  O1  1  0.15462415  0.49373371  0.99853816  1
  O  O2  1  0.00000000  0.18792764  0.00681100  1
  O  O3  1  0.15604637  0.24935782  0.56854154  1
  O  O3  1  0.84395363  0.75064218  0.06854154  1
  O  O1  1  0.15462415  0.50626629  0.49853816  1
  O  O4  1  0.00000000  0.05003072  0.56946980  1
  O  O1  1  0.84537585  0.49373371  0.99853816  1
  O  O1  1  0.84537585  0.50626629  0.49853816  1
  O  O4  1  0.00000000  0.94996928  0.06946980  1
  O  O2  1  0.00000000  0.81207236  0.50681100  1
  O  O3  1  0.15604637  0.75064218  0.06854154  1
  O  O3  1  0.84395363  0.24935782  0.56854154  1
