# generated using pymatgen
data_Ca3(BO3)2
_symmetry_space_group_name_H-M   'P 1'
_cell_length_a   8.59665746
_cell_length_b   8.59665746
_cell_length_c   11.65784389
_cell_angle_alpha   90.00000000
_cell_angle_beta   90.00000000
_cell_angle_gamma   120.00000000
_symmetry_Int_Tables_number   1
_chemical_formula_structural   Ca3(BO3)2
_chemical_formula_sum   'Ca18 B12 O36'
_cell_volume   746.11902099
_cell_formula_units_Z   6
loop_
 _symmetry_equiv_pos_site_id
 _symmetry_equiv_pos_as_xyz
  1  'x, y, z'
loop_
 _atom_site_type_symbol
 _atom_site_label
 _atom_site_symmetry_multiplicity
 _atom_site_fract_x
 _atom_site_fract_y
 _atom_site_fract_z
 _atom_site_occupancy
  Ca  Ca1  1  0.02554749  0.33333333  0.08333333  1
  Ca  Ca1  1  0.66666667  0.69221416  0.08333333  1
  Ca  Ca1  1  0.30778584  0.97445251  0.08333333  1
  Ca  Ca1  1  0.64111918  0.00000000  0.25000000  1
  Ca  Ca1  1  0.00000000  0.64111918  0.25000000  1
  Ca  Ca1  1  0.35888082  0.35888082  0.25000000  1
  B  B1  1  0.33333333  0.66666667  0.04959171  1
  B  B1  1  0.33333333  0.66666667  0.28374163  1
  B  B1  1  0.33333333  0.66666667  0.54959171  1
  B  B1  1  0.33333333  0.66666667  0.78374163  1
  O  O1  1  0.67997380  0.50103082  0.21856276  1
  O  O1  1  0.49896918  0.17894298  0.21856276  1
  O  O1  1  0.82105702  0.32002620  0.21856276  1
  O  O1  1  0.50103082  0.67997380  0.28143724  1
  O  O1  1  0.17894298  0.49896918  0.28143724  1
  O  O1  1  0.32002620  0.82105702  0.28143724  1
  O  O1  1  0.16769749  0.15439035  0.11477057  1
  O  O1  1  0.98669287  0.83230251  0.11477057  1
  O  O1  1  0.84560965  0.01330713  0.11477057  1
  O  O1  1  0.48772369  0.83436415  0.05189610  1
  O  O1  1  0.34664047  0.51227631  0.05189610  1
  O  O1  1  0.16563585  0.65335953  0.05189610  1
  Ca  Ca1  1  0.69221416  0.66666667  0.41666667  1
  Ca  Ca1  1  0.33333333  0.02554749  0.41666667  1
  Ca  Ca1  1  0.97445251  0.30778584  0.41666667  1
  Ca  Ca1  1  0.30778584  0.33333333  0.58333333  1
  Ca  Ca1  1  0.66666667  0.97445251  0.58333333  1
  Ca  Ca1  1  0.02554749  0.69221416  0.58333333  1
  B  B1  1  0.00000000  0.00000000  0.38292504  1
  B  B1  1  0.00000000  0.00000000  0.61707496  1
  B  B1  1  0.00000000  0.00000000  0.88292504  1
  B  B1  1  -0.00000000  0.00000000  0.11707496  1
  O  O1  1  0.34664047  0.83436415  0.55189610  1
  O  O1  1  0.16563585  0.51227631  0.55189610  1
  O  O1  1  0.48772369  0.65335953  0.55189610  1
  O  O1  1  0.16769749  0.01330713  0.61477057  1
  O  O1  1  0.84560965  0.83230251  0.61477057  1
  O  O1  1  0.98669287  0.15439035  0.61477057  1
  O  O1  1  0.83436415  0.48772369  0.44810390  1
  O  O1  1  0.65335953  0.16563585  0.44810390  1
  O  O1  1  0.51227631  0.34664047  0.44810390  1
  O  O1  1  0.15439035  0.16769749  0.38522943  1
  O  O1  1  0.01330713  0.84560965  0.38522943  1
  O  O1  1  0.83230251  0.98669287  0.38522943  1
  Ca  Ca1  1  0.35888082  0.00000000  0.75000000  1
  Ca  Ca1  1  0.00000000  0.35888082  0.75000000  1
  Ca  Ca1  1  0.64111918  0.64111918  0.75000000  1
  Ca  Ca1  1  0.97445251  0.66666667  0.91666667  1
  Ca  Ca1  1  0.33333333  0.30778584  0.91666667  1
  Ca  Ca1  1  0.69221416  0.02554749  0.91666667  1
  B  B1  1  0.66666667  0.33333333  0.71625837  1
  B  B1  1  0.66666667  0.33333333  0.95040829  1
  B  B1  1  0.66666667  0.33333333  0.21625837  1
  B  B1  1  0.66666667  0.33333333  0.45040829  1
  O  O1  1  0.01330713  0.16769749  0.88522943  1
  O  O1  1  0.83230251  0.84560965  0.88522943  1
  O  O1  1  0.15439035  0.98669287  0.88522943  1
  O  O1  1  0.83436415  0.34664047  0.94810390  1
  O  O1  1  0.51227631  0.16563585  0.94810390  1
  O  O1  1  0.65335953  0.48772369  0.94810390  1
  O  O1  1  0.50103082  0.82105702  0.78143724  1
  O  O1  1  0.32002620  0.49896918  0.78143724  1
  O  O1  1  0.17894298  0.67997380  0.78143724  1
  O  O1  1  0.82105702  0.50103082  0.71856276  1
  O  O1  1  0.67997380  0.17894298  0.71856276  1
  O  O1  1  0.49896918  0.32002620  0.71856276  1
