# generated using pymatgen
data_Ca3CdO4
_symmetry_space_group_name_H-M   'P 1'
_cell_length_a   6.67810025
_cell_length_b   9.49275545
_cell_length_c   3.36954017
_cell_angle_alpha   90.00000000
_cell_angle_beta   90.00000000
_cell_angle_gamma   90.00000000
_symmetry_Int_Tables_number   1
_chemical_formula_structural   Ca3CdO4
_chemical_formula_sum   'Ca6 Cd2 O8'
_cell_volume   213.60718957
_cell_formula_units_Z   2
loop_
 _symmetry_equiv_pos_site_id
 _symmetry_equiv_pos_as_xyz
  1  'x, y, z'
loop_
 _atom_site_type_symbol
 _atom_site_label
 _atom_site_symmetry_multiplicity
 _atom_site_fract_x
 _atom_site_fract_y
 _atom_site_fract_z
 _atom_site_occupancy
  Ca  Ca1  1  0.00000000  0.50000000  0.00000000  1
  Ca  Ca2  1  0.25000000  0.25000000  0.50000000  1
  Ca  Ca2  1  0.75000000  0.25000000  0.50000000  1
  Cd  Cd1  1  0.00000000  0.00000000  0.00000000  1
  O  O1  1  0.00000000  0.74627096  0.00000000  1
  O  O2  1  0.24624978  0.50000000  0.50000000  1
  O  O2  1  0.75375022  0.50000000  0.50000000  1
  O  O1  1  0.00000000  0.25372904  0.00000000  1
  Ca  Ca1  1  0.50000000  0.00000000  0.00000000  1
  Ca  Ca2  1  0.75000000  0.75000000  0.50000000  1
  Ca  Ca2  1  0.25000000  0.75000000  0.50000000  1
  Cd  Cd1  1  0.50000000  0.50000000  0.00000000  1
  O  O1  1  0.50000000  0.24627096  0.00000000  1
  O  O2  1  0.74624978  0.00000000  0.50000000  1
  O  O2  1  0.25375022  0.00000000  0.50000000  1
  O  O1  1  0.50000000  0.75372904  0.00000000  1
