# generated using pymatgen
data_Ca3TaGa3(SiO7)2
_symmetry_space_group_name_H-M   'P 1'
_cell_length_a   8.08527942
_cell_length_b   8.08527942
_cell_length_c   4.97365047
_cell_angle_alpha   90.00000000
_cell_angle_beta   90.00000000
_cell_angle_gamma   120.00000000
_symmetry_Int_Tables_number   1
_chemical_formula_structural   Ca3TaGa3(SiO7)2
_chemical_formula_sum   'Ca3 Ta1 Ga3 Si2 O14'
_cell_volume   281.57621060
_cell_formula_units_Z   1
loop_
 _symmetry_equiv_pos_site_id
 _symmetry_equiv_pos_as_xyz
  1  'x, y, z'
loop_
 _atom_site_type_symbol
 _atom_site_label
 _atom_site_symmetry_multiplicity
 _atom_site_fract_x
 _atom_site_fract_y
 _atom_site_fract_z
 _atom_site_occupancy
  Ca  Ca1  1  0.57646288  0.00000000  0.00000000  1
  Ca  Ca1  1  0.00000000  0.57646288  0.00000000  1
  Ca  Ca1  1  0.42353712  0.42353712  0.00000000  1
  Ta  Ta1  1  0.00000000  0.00000000  0.00000000  1
  Ga  Ga1  1  0.00000000  0.25381552  0.50000000  1
  Ga  Ga1  1  0.74618448  0.74618448  0.50000000  1
  Ga  Ga1  1  0.25381552  0.00000000  0.50000000  1
  Si  Si1  1  0.66666667  0.33333333  0.55145330  1
  Si  Si1  1  0.33333333  0.66666667  0.44854670  1
  O  O1  1  0.85609794  0.08169466  0.23682005  1
  O  O1  1  0.91830534  0.77440328  0.23682005  1
  O  O1  1  0.22559672  0.14390206  0.23682005  1
  O  O1  1  0.08169466  0.85609794  0.76317995  1
  O  O1  1  0.77440328  0.91830534  0.76317995  1
  O  O1  1  0.14390206  0.22559672  0.76317995  1
  O  O2  1  0.84615142  0.32190642  0.69366514  1
  O  O2  1  0.67809358  0.52424500  0.69366514  1
  O  O2  1  0.47575500  0.15384858  0.69366514  1
  O  O3  1  0.66666667  0.33333333  0.22812049  1
  O  O3  1  0.33333333  0.66666667  0.77187951  1
  O  O2  1  0.15384858  0.47575500  0.30633486  1
  O  O2  1  0.52424500  0.67809358  0.30633486  1
  O  O2  1  0.32190642  0.84615142  0.30633486  1
