# generated using pymatgen
data_Ca3WO6
_symmetry_space_group_name_H-M   'P 1'
_cell_length_a   9.31854680
_cell_length_b   9.31854680
_cell_length_c   10.92270971
_cell_angle_alpha   90.00000000
_cell_angle_beta   90.00000000
_cell_angle_gamma   120.00000000
_symmetry_Int_Tables_number   1
_chemical_formula_structural   Ca3WO6
_chemical_formula_sum   'Ca18 W6 O36'
_cell_volume   821.40511842
_cell_formula_units_Z   6
loop_
 _symmetry_equiv_pos_site_id
 _symmetry_equiv_pos_as_xyz
  1  'x, y, z'
loop_
 _atom_site_type_symbol
 _atom_site_label
 _atom_site_symmetry_multiplicity
 _atom_site_fract_x
 _atom_site_fract_y
 _atom_site_fract_z
 _atom_site_occupancy
  Ca  Ca1  1  0.73023207  0.77230009  0.70518584  1
  Ca  Ca1  1  0.22769991  0.95793198  0.70518584  1
  Ca  Ca1  1  0.95793198  0.73023207  0.29481416  1
  Ca  Ca1  1  0.04206802  0.26976793  0.70518584  1
  Ca  Ca1  1  0.77230009  0.04206802  0.29481416  1
  Ca  Ca1  1  0.26976793  0.22769991  0.29481416  1
  W  W1  1  0.00000000  0.00000000  0.00000000  1
  W  W2  1  0.00000000  0.00000000  0.50000000  1
  O  O1  1  0.85336199  0.49235231  0.43009483  1
  O  O1  1  0.49235231  0.63899032  0.56990517  1
  O  O2  1  0.97352807  0.82128536  0.60476476  1
  O  O1  1  0.36100968  0.85336199  0.56990517  1
  O  O2  1  0.84775729  0.02647193  0.60476476  1
  O  O2  1  0.82128536  0.84775729  0.39523524  1
  O  O2  1  0.17871464  0.15224271  0.60476476  1
  O  O2  1  0.15224271  0.97352807  0.39523524  1
  O  O1  1  0.63899032  0.14663801  0.43009483  1
  O  O2  1  0.02647193  0.17871464  0.39523524  1
  O  O1  1  0.50764769  0.36100968  0.43009483  1
  O  O1  1  0.14663801  0.50764769  0.56990517  1
  Ca  Ca1  1  0.39689873  0.10563342  0.03851917  1
  Ca  Ca1  1  0.89436658  0.29126531  0.03851917  1
  Ca  Ca1  1  0.62459865  0.06356540  0.62814750  1
  Ca  Ca1  1  0.70873469  0.60310127  0.03851917  1
  Ca  Ca1  1  0.43896675  0.37540135  0.62814750  1
  Ca  Ca1  1  0.93643460  0.56103325  0.62814750  1
  W  W1  1  0.66666667  0.33333333  0.33333333  1
  W  W2  1  0.66666667  0.33333333  0.83333333  1
  O  O1  1  0.52002866  0.82568564  0.76342817  1
  O  O1  1  0.15901898  0.97232365  0.90323850  1
  O  O2  1  0.64019474  0.15461869  0.93809810  1
  O  O1  1  0.02767635  0.18669532  0.90323850  1
  O  O2  1  0.51442395  0.35980526  0.93809810  1
  O  O2  1  0.48795203  0.18109062  0.72856857  1
  O  O2  1  0.84538131  0.48557605  0.93809810  1
  O  O2  1  0.81890938  0.30686141  0.72856857  1
  O  O1  1  0.30565699  0.47997134  0.76342817  1
  O  O2  1  0.69313859  0.51204797  0.72856857  1
  O  O1  1  0.17431436  0.69434301  0.76342817  1
  O  O1  1  0.81330468  0.84098102  0.90323850  1
  Ca  Ca1  1  0.06356540  0.43896675  0.37185250  1
  Ca  Ca1  1  0.56103325  0.62459865  0.37185250  1
  Ca  Ca1  1  0.29126531  0.39689873  0.96148083  1
  Ca  Ca1  1  0.37540135  0.93643460  0.37185250  1
  Ca  Ca1  1  0.10563342  0.70873469  0.96148083  1
  Ca  Ca1  1  0.60310127  0.89436658  0.96148083  1
  W  W1  1  0.33333333  0.66666667  0.66666667  1
  W  W2  1  0.33333333  0.66666667  0.16666667  1
  O  O1  1  0.18669532  0.15901898  0.09676150  1
  O  O1  1  0.82568564  0.30565699  0.23657183  1
  O  O2  1  0.30686141  0.48795203  0.27143143  1
  O  O1  1  0.69434301  0.52002866  0.23657183  1
  O  O2  1  0.18109062  0.69313859  0.27143143  1
  O  O2  1  0.15461869  0.51442395  0.06190190  1
  O  O2  1  0.51204797  0.81890938  0.27143143  1
  O  O2  1  0.48557605  0.64019474  0.06190190  1
  O  O1  1  0.97232365  0.81330468  0.09676150  1
  O  O2  1  0.35980526  0.84538131  0.06190190  1
  O  O1  1  0.84098102  0.02767635  0.09676150  1
  O  O1  1  0.47997134  0.17431436  0.23657183  1
