# generated using pymatgen
data_Ca4As2O
_symmetry_space_group_name_H-M   'P 1'
_cell_length_a   4.50111484
_cell_length_b   4.50111484
_cell_length_c   15.26779393
_cell_angle_alpha   90.00000000
_cell_angle_beta   90.00000000
_cell_angle_gamma   90.00000000
_symmetry_Int_Tables_number   1
_chemical_formula_structural   Ca4As2O
_chemical_formula_sum   'Ca8 As4 O2'
_cell_volume   309.32603684
_cell_formula_units_Z   2
loop_
 _symmetry_equiv_pos_site_id
 _symmetry_equiv_pos_as_xyz
  1  'x, y, z'
loop_
 _atom_site_type_symbol
 _atom_site_label
 _atom_site_symmetry_multiplicity
 _atom_site_fract_x
 _atom_site_fract_y
 _atom_site_fract_z
 _atom_site_occupancy
  Ca  Ca1  1  0.00000000  0.00000000  0.67112164  1
  Ca  Ca1  1  0.50000000  0.50000000  0.82887836  1
  Ca  Ca2  1  0.50000000  0.00000000  0.00000000  1
  Ca  Ca2  1  0.00000000  0.50000000  0.00000000  1
  As  As1  1  0.00000000  0.00000000  0.86295755  1
  As  As1  1  0.50000000  0.50000000  0.63704245  1
  O  O1  1  0.50000000  0.50000000  0.00000000  1
  Ca  Ca1  1  0.50000000  0.50000000  0.17112164  1
  Ca  Ca1  1  0.00000000  0.00000000  0.32887836  1
  Ca  Ca2  1  0.00000000  0.50000000  0.50000000  1
  Ca  Ca2  1  0.50000000  0.00000000  0.50000000  1
  As  As1  1  0.50000000  0.50000000  0.36295755  1
  As  As1  1  0.00000000  0.00000000  0.13704245  1
  O  O1  1  0.00000000  0.00000000  0.50000000  1
