# generated using pymatgen
data_Ca4PdO6
_symmetry_space_group_name_H-M   'P 1'
_cell_length_a   9.22239301
_cell_length_b   9.22239301
_cell_length_c   11.12316707
_cell_angle_alpha   90.00000000
_cell_angle_beta   90.00000000
_cell_angle_gamma   120.00000000
_symmetry_Int_Tables_number   1
_chemical_formula_structural   Ca4PdO6
_chemical_formula_sum   'Ca24 Pd6 O36'
_cell_volume   819.30639240
_cell_formula_units_Z   6
loop_
 _symmetry_equiv_pos_site_id
 _symmetry_equiv_pos_as_xyz
  1  'x, y, z'
loop_
 _atom_site_type_symbol
 _atom_site_label
 _atom_site_symmetry_multiplicity
 _atom_site_fract_x
 _atom_site_fract_y
 _atom_site_fract_z
 _atom_site_occupancy
  Ca  Ca1  1  0.00000000  0.00000000  0.25000000  1
  Ca  Ca1  1  0.00000000  0.00000000  0.75000000  1
  Ca  Ca2  1  0.69951344  0.66666667  0.41666667  1
  Ca  Ca2  1  0.33333333  0.03284677  0.41666667  1
  Ca  Ca2  1  0.96715323  0.30048656  0.41666667  1
  Ca  Ca2  1  0.30048656  0.33333333  0.58333333  1
  Ca  Ca2  1  0.66666667  0.96715323  0.58333333  1
  Ca  Ca2  1  0.03284677  0.69951344  0.58333333  1
  Pd  Pd1  1  0.00000000  0.00000000  0.00000000  1
  Pd  Pd1  1  0.00000000  0.00000000  0.50000000  1
  O  O1  1  0.19226160  0.03317554  0.60445247  1
  O  O1  1  0.96682446  0.15908606  0.60445247  1
  O  O1  1  0.84091394  0.80773840  0.60445247  1
  O  O1  1  0.49241939  0.63349112  0.56221420  1
  O  O1  1  0.36650888  0.85892827  0.56221420  1
  O  O1  1  0.14107173  0.50758061  0.56221420  1
  O  O1  1  0.80773840  0.96682446  0.39554753  1
  O  O1  1  0.03317554  0.84091394  0.39554753  1
  O  O1  1  0.15908606  0.19226160  0.39554753  1
  O  O1  1  0.50758061  0.36650888  0.43778580  1
  O  O1  1  0.85892827  0.49241939  0.43778580  1
  O  O1  1  0.63349112  0.14107173  0.43778580  1
  Ca  Ca1  1  0.66666667  0.33333333  0.58333333  1
  Ca  Ca1  1  0.66666667  0.33333333  0.08333333  1
  Ca  Ca2  1  0.36618010  0.00000000  0.75000000  1
  Ca  Ca2  1  0.00000000  0.36618010  0.75000000  1
  Ca  Ca2  1  0.63381990  0.63381990  0.75000000  1
  Ca  Ca2  1  0.96715323  0.66666667  0.91666667  1
  Ca  Ca2  1  0.33333333  0.30048656  0.91666667  1
  Ca  Ca2  1  0.69951344  0.03284677  0.91666667  1
  Pd  Pd1  1  0.66666667  0.33333333  0.33333333  1
  Pd  Pd1  1  0.66666667  0.33333333  0.83333333  1
  O  O1  1  0.85892827  0.36650888  0.93778580  1
  O  O1  1  0.63349112  0.49241939  0.93778580  1
  O  O1  1  0.50758061  0.14107173  0.93778580  1
  O  O1  1  0.15908606  0.96682446  0.89554753  1
  O  O1  1  0.03317554  0.19226160  0.89554753  1
  O  O1  1  0.80773840  0.84091394  0.89554753  1
  O  O1  1  0.47440507  0.30015779  0.72888087  1
  O  O1  1  0.69984221  0.17424728  0.72888087  1
  O  O1  1  0.82575272  0.52559493  0.72888087  1
  O  O1  1  0.17424728  0.69984221  0.77111913  1
  O  O1  1  0.52559493  0.82575272  0.77111913  1
  O  O1  1  0.30015779  0.47440507  0.77111913  1
  Ca  Ca1  1  0.33333333  0.66666667  0.91666667  1
  Ca  Ca1  1  0.33333333  0.66666667  0.41666667  1
  Ca  Ca2  1  0.03284677  0.33333333  0.08333333  1
  Ca  Ca2  1  0.66666667  0.69951344  0.08333333  1
  Ca  Ca2  1  0.30048656  0.96715323  0.08333333  1
  Ca  Ca2  1  0.63381990  0.00000000  0.25000000  1
  Ca  Ca2  1  0.00000000  0.63381990  0.25000000  1
  Ca  Ca2  1  0.36618010  0.36618010  0.25000000  1
  Pd  Pd1  1  0.33333333  0.66666667  0.66666667  1
  Pd  Pd1  1  0.33333333  0.66666667  0.16666667  1
  O  O1  1  0.52559493  0.69984221  0.27111913  1
  O  O1  1  0.30015779  0.82575272  0.27111913  1
  O  O1  1  0.17424728  0.47440507  0.27111913  1
  O  O1  1  0.82575272  0.30015779  0.22888087  1
  O  O1  1  0.69984221  0.52559493  0.22888087  1
  O  O1  1  0.47440507  0.17424728  0.22888087  1
  O  O1  1  0.14107173  0.63349112  0.06221420  1
  O  O1  1  0.36650888  0.50758061  0.06221420  1
  O  O1  1  0.49241939  0.85892827  0.06221420  1
  O  O1  1  0.84091394  0.03317554  0.10445247  1
  O  O1  1  0.19226160  0.15908606  0.10445247  1
  O  O1  1  0.96682446  0.80773840  0.10445247  1
