# generated using pymatgen
data_CaAgAsO4
_symmetry_space_group_name_H-M   'P 1'
_cell_length_a   5.84143437
_cell_length_b   9.40020699
_cell_length_c   6.99984004
_cell_angle_alpha   90.00000000
_cell_angle_beta   90.00000000
_cell_angle_gamma   90.00000000
_symmetry_Int_Tables_number   1
_chemical_formula_structural   CaAgAsO4
_chemical_formula_sum   'Ca4 Ag4 As4 O16'
_cell_volume   384.36606137
_cell_formula_units_Z   4
loop_
 _symmetry_equiv_pos_site_id
 _symmetry_equiv_pos_as_xyz
  1  'x, y, z'
loop_
 _atom_site_type_symbol
 _atom_site_label
 _atom_site_symmetry_multiplicity
 _atom_site_fract_x
 _atom_site_fract_y
 _atom_site_fract_z
 _atom_site_occupancy
  Ca  Ca1  1  0.00000000  0.00000000  0.50000000  1
  Ca  Ca1  1  0.00000000  0.00000000  0.00000000  1
  Ag  Ag1  1  0.00000000  0.68740678  0.75000000  1
  Ag  Ag1  1  0.00000000  0.31259322  0.25000000  1
  As  As1  1  0.00000000  0.34847218  0.75000000  1
  As  As1  1  0.00000000  0.65152782  0.25000000  1
  O  O1  1  0.00000000  0.24124706  0.55362472  1
  O  O1  1  0.00000000  0.75875294  0.44637528  1
  O  O1  1  0.00000000  0.75875294  0.05362472  1
  O  O1  1  0.00000000  0.24124706  0.94637528  1
  O  O2  1  0.23499910  0.46052892  0.75000000  1
  O  O2  1  0.76500090  0.53947108  0.25000000  1
  O  O2  1  0.76500090  0.46052892  0.75000000  1
  O  O2  1  0.23499910  0.53947108  0.25000000  1
  Ca  Ca1  1  0.50000000  0.50000000  0.50000000  1
  Ca  Ca1  1  0.50000000  0.50000000  0.00000000  1
  Ag  Ag1  1  0.50000000  0.18740678  0.75000000  1
  Ag  Ag1  1  0.50000000  0.81259322  0.25000000  1
  As  As1  1  0.50000000  0.84847218  0.75000000  1
  As  As1  1  0.50000000  0.15152782  0.25000000  1
  O  O1  1  0.50000000  0.74124706  0.55362472  1
  O  O1  1  0.50000000  0.25875294  0.44637528  1
  O  O1  1  0.50000000  0.25875294  0.05362472  1
  O  O1  1  0.50000000  0.74124706  0.94637528  1
  O  O2  1  0.73499910  0.96052892  0.75000000  1
  O  O2  1  0.26500090  0.03947108  0.25000000  1
  O  O2  1  0.26500090  0.96052892  0.75000000  1
  O  O2  1  0.73499910  0.03947108  0.25000000  1
