# generated using pymatgen
data_CaAl2(SiO4)2
_symmetry_space_group_name_H-M   'P 1'
_cell_length_a   5.11456255
_cell_length_b   5.11456255
_cell_length_c   14.72927788
_cell_angle_alpha   90.00000000
_cell_angle_beta   90.00000000
_cell_angle_gamma   120.00000000
_symmetry_Int_Tables_number   1
_chemical_formula_structural   CaAl2(SiO4)2
_chemical_formula_sum   'Ca2 Al4 Si4 O16'
_cell_volume   333.67915410
_cell_formula_units_Z   2
loop_
 _symmetry_equiv_pos_site_id
 _symmetry_equiv_pos_as_xyz
  1  'x, y, z'
loop_
 _atom_site_type_symbol
 _atom_site_label
 _atom_site_symmetry_multiplicity
 _atom_site_fract_x
 _atom_site_fract_y
 _atom_site_fract_z
 _atom_site_occupancy
  Ca  Ca1  1  0.00000000  0.00000000  0.00000000  1
  Ca  Ca1  1  0.00000000  0.00000000  0.50000000  1
  Al  Al1  1  0.66666667  0.33333333  0.85952486  1
  Al  Al1  1  0.33333333  0.66666667  0.14047514  1
  Al  Al1  1  0.66666667  0.33333333  0.35952486  1
  Al  Al1  1  0.33333333  0.66666667  0.64047514  1
  Si  Si1  1  0.33333333  0.66666667  0.86458182  1
  Si  Si1  1  0.66666667  0.33333333  0.13541818  1
  Si  Si1  1  0.33333333  0.66666667  0.36458182  1
  Si  Si1  1  0.66666667  0.33333333  0.63541818  1
  O  O1  1  0.37433441  0.98688354  0.90427335  1
  O  O1  1  0.01311646  0.38745087  0.90427335  1
  O  O1  1  0.61254913  0.62566559  0.90427335  1
  O  O1  1  0.62566559  0.01311646  0.09572665  1
  O  O1  1  0.98688354  0.61254913  0.09572665  1
  O  O1  1  0.38745087  0.37433441  0.09572665  1
  O  O1  1  0.61254913  0.98688354  0.40427335  1
  O  O1  1  0.01311646  0.62566559  0.40427335  1
  O  O1  1  0.37433441  0.38745087  0.40427335  1
  O  O1  1  0.38745087  0.01311646  0.59572665  1
  O  O1  1  0.98688354  0.37433441  0.59572665  1
  O  O1  1  0.62566559  0.61254913  0.59572665  1
  O  O2  1  0.66666667  0.33333333  0.74354637  1
  O  O2  1  0.33333333  0.66666667  0.75645363  1
  O  O2  1  0.33333333  0.66666667  0.25645363  1
  O  O2  1  0.66666667  0.33333333  0.24354637  1
