# generated using pymatgen
data_CaAlBO4
_symmetry_space_group_name_H-M   'P 1'
_cell_length_a   8.21697729
_cell_length_b   15.21444838
_cell_length_c   5.75990412
_cell_angle_alpha   90.00000000
_cell_angle_beta   90.00000000
_cell_angle_gamma   90.00000000
_symmetry_Int_Tables_number   1
_chemical_formula_structural   CaAlBO4
_chemical_formula_sum   'Ca8 Al8 B8 O32'
_cell_volume   720.08464787
_cell_formula_units_Z   8
loop_
 _symmetry_equiv_pos_site_id
 _symmetry_equiv_pos_as_xyz
  1  'x, y, z'
loop_
 _atom_site_type_symbol
 _atom_site_label
 _atom_site_symmetry_multiplicity
 _atom_site_fract_x
 _atom_site_fract_y
 _atom_site_fract_z
 _atom_site_occupancy
  Ca  Ca1  1  0.64261360  0.40762417  0.01216993  1
  Ca  Ca1  1  0.14261360  0.09237583  0.51216993  1
  Ca  Ca1  1  0.85738640  0.09237583  0.01216993  1
  Ca  Ca1  1  0.35738640  0.40762417  0.51216993  1
  Al  Al1  1  0.51525852  0.20710122  0.73900182  1
  Al  Al1  1  0.98474148  0.29289878  0.73900182  1
  Al  Al1  1  0.01525852  0.29289878  0.23900182  1
  Al  Al1  1  0.48474148  0.20710122  0.23900182  1
  B  B1  1  0.73796266  0.11039046  0.47493599  1
  B  B1  1  0.26203734  0.11039046  0.97493599  1
  B  B1  1  0.23796266  0.38960954  0.97493599  1
  B  B1  1  0.76203734  0.38960954  0.47493599  1
  O  O1  1  0.15039274  0.36671985  0.77813974  1
  O  O2  1  0.96816620  0.23142746  0.99274071  1
  O  O3  1  0.19116332  0.36070714  0.19400162  1
  O  O3  1  0.30883668  0.13929286  0.19400162  1
  O  O3  1  0.69116332  0.13929286  0.69400162  1
  O  O3  1  0.80883668  0.36070714  0.69400162  1
  O  O2  1  0.03183380  0.23142746  0.49274071  1
  O  O4  1  0.62963664  0.44270981  0.44271017  1
  O  O1  1  0.65039274  0.13328015  0.27813974  1
  O  O2  1  0.53183380  0.26857254  0.99274071  1
  O  O4  1  0.87036336  0.05729019  0.44271017  1
  O  O2  1  0.46816620  0.26857254  0.49274071  1
  O  O4  1  0.12963664  0.05729019  0.94271017  1
  O  O1  1  0.34960726  0.13328015  0.77813974  1
  O  O1  1  0.84960726  0.36671985  0.27813974  1
  O  O4  1  0.37036336  0.44270981  0.94271017  1
  Ca  Ca1  1  0.14261360  0.90762417  0.01216993  1
  Ca  Ca1  1  0.64261360  0.59237583  0.51216993  1
  Ca  Ca1  1  0.35738640  0.59237583  0.01216993  1
  Ca  Ca1  1  0.85738640  0.90762417  0.51216993  1
  Al  Al1  1  0.01525852  0.70710122  0.73900182  1
  Al  Al1  1  0.48474148  0.79289878  0.73900182  1
  Al  Al1  1  0.51525852  0.79289878  0.23900182  1
  Al  Al1  1  0.98474148  0.70710122  0.23900182  1
  B  B1  1  0.23796266  0.61039046  0.47493599  1
  B  B1  1  0.76203734  0.61039046  0.97493599  1
  B  B1  1  0.73796266  0.88960954  0.97493599  1
  B  B1  1  0.26203734  0.88960954  0.47493599  1
  O  O1  1  0.65039274  0.86671985  0.77813974  1
  O  O2  1  0.46816620  0.73142746  0.99274071  1
  O  O3  1  0.69116332  0.86070714  0.19400162  1
  O  O3  1  0.80883668  0.63929286  0.19400162  1
  O  O3  1  0.19116332  0.63929286  0.69400162  1
  O  O3  1  0.30883668  0.86070714  0.69400162  1
  O  O2  1  0.53183380  0.73142746  0.49274071  1
  O  O4  1  0.12963664  0.94270981  0.44271017  1
  O  O1  1  0.15039274  0.63328015  0.27813974  1
  O  O2  1  0.03183380  0.76857254  0.99274071  1
  O  O4  1  0.37036336  0.55729019  0.44271017  1
  O  O2  1  0.96816620  0.76857254  0.49274071  1
  O  O4  1  0.62963664  0.55729019  0.94271017  1
  O  O1  1  0.84960726  0.63328015  0.77813974  1
  O  O1  1  0.34960726  0.86671985  0.27813974  1
  O  O4  1  0.87036336  0.94270981  0.94271017  1
