# generated using pymatgen
data_CaAl4O7
_symmetry_space_group_name_H-M   'P 1'
_cell_length_a   12.88940348
_cell_length_b   8.90921100
_cell_length_c   5.43948597
_cell_angle_alpha   90.00000000
_cell_angle_beta   107.01932884
_cell_angle_gamma   90.00000000
_symmetry_Int_Tables_number   1
_chemical_formula_structural   CaAl4O7
_chemical_formula_sum   'Ca4 Al16 O28'
_cell_volume   597.28474119
_cell_formula_units_Z   4
loop_
 _symmetry_equiv_pos_site_id
 _symmetry_equiv_pos_as_xyz
  1  'x, y, z'
loop_
 _atom_site_type_symbol
 _atom_site_label
 _atom_site_symmetry_multiplicity
 _atom_site_fract_x
 _atom_site_fract_y
 _atom_site_fract_z
 _atom_site_occupancy
  Ca  Ca1  1  0.00000000  0.80922864  0.25000000  1
  Ca  Ca1  1  0.00000000  0.19077136  0.75000000  1
  Al  Al1  1  0.11911704  0.44072000  0.23420787  1
  Al  Al1  1  0.88088296  0.44072000  0.26579213  1
  Al  Al1  1  0.88088296  0.55928000  0.76579213  1
  Al  Al1  1  0.11911704  0.55928000  0.73420787  1
  Al  Al2  1  0.66300720  0.58644780  0.30613772  1
  Al  Al2  1  0.33699280  0.58644780  0.19386228  1
  Al  Al2  1  0.33699280  0.41355220  0.69386228  1
  Al  Al2  1  0.66300720  0.41355220  0.80613772  1
  O  O1  1  0.19280062  0.44342616  0.57435676  1
  O  O1  1  0.80719938  0.44342616  0.92564324  1
  O  O1  1  0.80719938  0.55657384  0.42564324  1
  O  O1  1  0.19280062  0.55657384  0.07435676  1
  O  O2  1  0.11749058  0.25385550  0.14468729  1
  O  O2  1  0.88250942  0.25385550  0.35531271  1
  O  O2  1  0.88250942  0.74614450  0.85531271  1
  O  O2  1  0.11749058  0.74614450  0.64468729  1
  O  O3  1  0.61435925  0.55427184  0.57112927  1
  O  O3  1  0.38564075  0.55427184  0.92887073  1
  O  O4  1  0.00000000  0.46565304  0.75000000  1
  O  O4  1  0.00000000  0.53434696  0.25000000  1
  O  O3  1  0.61435925  0.44572816  0.07112927  1
  O  O3  1  0.38564075  0.44572816  0.42887073  1
  Ca  Ca1  1  0.50000000  0.30922864  0.25000000  1
  Ca  Ca1  1  0.50000000  0.69077136  0.75000000  1
  Al  Al1  1  0.61911704  0.94072000  0.23420787  1
  Al  Al1  1  0.38088296  0.94072000  0.26579213  1
  Al  Al1  1  0.38088296  0.05928000  0.76579213  1
  Al  Al1  1  0.61911704  0.05928000  0.73420787  1
  Al  Al2  1  0.16300720  0.08644780  0.30613772  1
  Al  Al2  1  0.83699280  0.08644780  0.19386228  1
  Al  Al2  1  0.83699280  0.91355220  0.69386228  1
  Al  Al2  1  0.16300720  0.91355220  0.80613772  1
  O  O1  1  0.69280062  0.94342616  0.57435676  1
  O  O1  1  0.30719938  0.94342616  0.92564324  1
  O  O1  1  0.30719938  0.05657384  0.42564324  1
  O  O1  1  0.69280062  0.05657384  0.07435676  1
  O  O2  1  0.61749058  0.75385550  0.14468729  1
  O  O2  1  0.38250942  0.75385550  0.35531271  1
  O  O2  1  0.38250942  0.24614450  0.85531271  1
  O  O2  1  0.61749058  0.24614450  0.64468729  1
  O  O3  1  0.11435925  0.05427184  0.57112927  1
  O  O3  1  0.88564075  0.05427184  0.92887073  1
  O  O4  1  0.50000000  0.96565304  0.75000000  1
  O  O4  1  0.50000000  0.03434696  0.25000000  1
  O  O3  1  0.11435925  0.94572816  0.07112927  1
  O  O3  1  0.88564075  0.94572816  0.42887073  1
