# generated using pymatgen
data_CaGaBO4
_symmetry_space_group_name_H-M   'P 1'
_cell_length_a   8.27895533
_cell_length_b   15.44946820
_cell_length_c   5.84456147
_cell_angle_alpha   90.00000000
_cell_angle_beta   90.00000000
_cell_angle_gamma   90.00000000
_symmetry_Int_Tables_number   1
_chemical_formula_structural   CaGaBO4
_chemical_formula_sum   'Ca8 Ga8 B8 O32'
_cell_volume   747.55130637
_cell_formula_units_Z   8
loop_
 _symmetry_equiv_pos_site_id
 _symmetry_equiv_pos_as_xyz
  1  'x, y, z'
loop_
 _atom_site_type_symbol
 _atom_site_label
 _atom_site_symmetry_multiplicity
 _atom_site_fract_x
 _atom_site_fract_y
 _atom_site_fract_z
 _atom_site_occupancy
  Ca  Ca1  1  0.14182888  0.40953790  0.90039682  1
  Ca  Ca1  1  0.85817112  0.40953790  0.40039682  1
  Ca  Ca1  1  0.35817112  0.09046210  0.90039682  1
  Ca  Ca1  1  0.64182888  0.09046210  0.40039682  1
  Ga  Ga1  1  0.48157822  0.29363133  0.62663600  1
  Ga  Ga1  1  0.98157822  0.20636867  0.12663600  1
  Ga  Ga1  1  0.51842178  0.29363133  0.12663600  1
  Ga  Ga1  1  0.01842178  0.20636867  0.62663600  1
  B  B1  1  0.74085644  0.39160342  0.85886119  1
  B  B1  1  0.25914356  0.39160342  0.35886119  1
  B  B1  1  0.75914356  0.10839658  0.85886119  1
  B  B1  1  0.24085644  0.10839658  0.35886119  1
  O  O1  1  0.34687632  0.37013716  0.16482317  1
  O  O2  1  0.12749082  0.44359386  0.32382909  1
  O  O3  1  0.03648208  0.27244878  0.88160898  1
  O  O2  1  0.62749082  0.05640614  0.82382909  1
  O  O2  1  0.37250918  0.05640614  0.32382909  1
  O  O4  1  0.69864976  0.36432697  0.07784477  1
  O  O3  1  0.96351792  0.27244878  0.38160898  1
  O  O3  1  0.53648208  0.22755122  0.38160898  1
  O  O4  1  0.30135024  0.36432697  0.57784477  1
  O  O1  1  0.65312368  0.37013716  0.66482317  1
  O  O4  1  0.80135024  0.13567303  0.07784477  1
  O  O3  1  0.46351792  0.22755122  0.88160898  1
  O  O1  1  0.84687632  0.12986284  0.66482317  1
  O  O1  1  0.15312368  0.12986284  0.16482317  1
  O  O2  1  0.87250918  0.44359386  0.82382909  1
  O  O4  1  0.19864976  0.13567303  0.57784477  1
  Ca  Ca1  1  0.64182888  0.90953790  0.90039682  1
  Ca  Ca1  1  0.35817112  0.90953790  0.40039682  1
  Ca  Ca1  1  0.85817112  0.59046210  0.90039682  1
  Ca  Ca1  1  0.14182888  0.59046210  0.40039682  1
  Ga  Ga1  1  0.98157822  0.79363133  0.62663600  1
  Ga  Ga1  1  0.48157822  0.70636867  0.12663600  1
  Ga  Ga1  1  0.01842178  0.79363133  0.12663600  1
  Ga  Ga1  1  0.51842178  0.70636867  0.62663600  1
  B  B1  1  0.24085644  0.89160342  0.85886119  1
  B  B1  1  0.75914356  0.89160342  0.35886119  1
  B  B1  1  0.25914356  0.60839658  0.85886119  1
  B  B1  1  0.74085644  0.60839658  0.35886119  1
  O  O1  1  0.84687632  0.87013716  0.16482317  1
  O  O2  1  0.62749082  0.94359386  0.32382909  1
  O  O3  1  0.53648208  0.77244878  0.88160898  1
  O  O2  1  0.12749082  0.55640614  0.82382909  1
  O  O2  1  0.87250918  0.55640614  0.32382909  1
  O  O4  1  0.19864976  0.86432697  0.07784477  1
  O  O3  1  0.46351792  0.77244878  0.38160898  1
  O  O3  1  0.03648208  0.72755122  0.38160898  1
  O  O4  1  0.80135024  0.86432697  0.57784477  1
  O  O1  1  0.15312368  0.87013716  0.66482317  1
  O  O4  1  0.30135024  0.63567303  0.07784477  1
  O  O3  1  0.96351792  0.72755122  0.88160898  1
  O  O1  1  0.34687632  0.62986284  0.66482317  1
  O  O1  1  0.65312368  0.62986284  0.16482317  1
  O  O2  1  0.37250918  0.94359386  0.82382909  1
  O  O4  1  0.69864976  0.63567303  0.57784477  1
