# generated using pymatgen
data_CaGa4O7
_symmetry_space_group_name_H-M   'P 1'
_cell_length_a   13.10193224
_cell_length_b   9.12650779
_cell_length_c   5.61505536
_cell_angle_alpha   90.00000000
_cell_angle_beta   104.77216704
_cell_angle_gamma   90.00000000
_symmetry_Int_Tables_number   1
_chemical_formula_structural   CaGa4O7
_chemical_formula_sum   'Ca4 Ga16 O28'
_cell_volume   649.22742040
_cell_formula_units_Z   4
loop_
 _symmetry_equiv_pos_site_id
 _symmetry_equiv_pos_as_xyz
  1  'x, y, z'
loop_
 _atom_site_type_symbol
 _atom_site_label
 _atom_site_symmetry_multiplicity
 _atom_site_fract_x
 _atom_site_fract_y
 _atom_site_fract_z
 _atom_site_occupancy
  Ca  Ca1  1  0.00000000  0.70734353  0.75000000  1
  Ca  Ca1  1  0.00000000  0.29265647  0.25000000  1
  Ga  Ga1  1  0.15934308  0.41486702  0.81522122  1
  Ga  Ga1  1  0.84065692  0.41486702  0.68477878  1
  Ga  Ga2  1  0.62074073  0.56395704  0.74154174  1
  Ga  Ga2  1  0.37925927  0.56395704  0.75845826  1
  Ga  Ga2  1  0.37925927  0.43604296  0.25845826  1
  Ga  Ga2  1  0.62074073  0.43604296  0.24154174  1
  Ga  Ga1  1  0.15934308  0.58513298  0.31522122  1
  Ga  Ga1  1  0.84065692  0.58513298  0.18477878  1
  O  O1  1  0.00000000  0.03732799  0.25000000  1
  O  O1  1  0.00000000  0.96267201  0.75000000  1
  O  O2  1  0.11255139  0.25109886  0.63313358  1
  O  O2  1  0.88744861  0.25109886  0.86686642  1
  O  O2  1  0.88744861  0.74890114  0.36686642  1
  O  O2  1  0.11255139  0.74890114  0.13313358  1
  O  O3  1  0.88654449  0.56745544  0.90321126  1
  O  O3  1  0.11345551  0.56745544  0.59678874  1
  O  O3  1  0.11345551  0.43254456  0.09678874  1
  O  O3  1  0.88654449  0.43254456  0.40321126  1
  O  O4  1  0.69289558  0.43764802  0.57811012  1
  O  O4  1  0.30710442  0.43764802  0.92188988  1
  O  O4  1  0.30710442  0.56235198  0.42188988  1
  O  O4  1  0.69289558  0.56235198  0.07811012  1
  Ca  Ca1  1  0.50000000  0.20734353  0.75000000  1
  Ca  Ca1  1  0.50000000  0.79265647  0.25000000  1
  Ga  Ga1  1  0.65934308  0.91486702  0.81522122  1
  Ga  Ga1  1  0.34065692  0.91486702  0.68477878  1
  Ga  Ga2  1  0.12074073  0.06395704  0.74154174  1
  Ga  Ga2  1  0.87925927  0.06395704  0.75845826  1
  Ga  Ga2  1  0.87925927  0.93604296  0.25845826  1
  Ga  Ga2  1  0.12074073  0.93604296  0.24154174  1
  Ga  Ga1  1  0.65934308  0.08513298  0.31522122  1
  Ga  Ga1  1  0.34065692  0.08513298  0.18477878  1
  O  O1  1  0.50000000  0.53732799  0.25000000  1
  O  O1  1  0.50000000  0.46267201  0.75000000  1
  O  O2  1  0.61255139  0.75109886  0.63313358  1
  O  O2  1  0.38744861  0.75109886  0.86686642  1
  O  O2  1  0.38744861  0.24890114  0.36686642  1
  O  O2  1  0.61255139  0.24890114  0.13313358  1
  O  O3  1  0.38654449  0.06745544  0.90321126  1
  O  O3  1  0.61345551  0.06745544  0.59678874  1
  O  O3  1  0.61345551  0.93254456  0.09678874  1
  O  O3  1  0.38654449  0.93254456  0.40321126  1
  O  O4  1  0.19289558  0.93764802  0.57811012  1
  O  O4  1  0.80710442  0.93764802  0.92188988  1
  O  O4  1  0.80710442  0.06235198  0.42188988  1
  O  O4  1  0.19289558  0.06235198  0.07811012  1
