# generated using pymatgen
data_CaHfO3
_symmetry_space_group_name_H-M   'P 1'
_cell_length_a   5.70741729
_cell_length_b   7.92424063
_cell_length_c   5.52362712
_cell_angle_alpha   90.00000000
_cell_angle_beta   90.00000000
_cell_angle_gamma   90.00000000
_symmetry_Int_Tables_number   1
_chemical_formula_structural   CaHfO3
_chemical_formula_sum   'Ca4 Hf4 O12'
_cell_volume   249.81679612
_cell_formula_units_Z   4
loop_
 _symmetry_equiv_pos_site_id
 _symmetry_equiv_pos_as_xyz
  1  'x, y, z'
loop_
 _atom_site_type_symbol
 _atom_site_label
 _atom_site_symmetry_multiplicity
 _atom_site_fract_x
 _atom_site_fract_y
 _atom_site_fract_z
 _atom_site_occupancy
  Ca  Ca1  1  0.94901717  0.75000000  0.01339100  1
  Ca  Ca1  1  0.44901717  0.75000000  0.48660900  1
  Ca  Ca1  1  0.55098283  0.25000000  0.51339100  1
  Ca  Ca1  1  0.05098283  0.25000000  0.98660900  1
  Hf  Hf1  1  0.50000000  0.00000000  0.00000000  1
  Hf  Hf1  1  0.50000000  0.50000000  0.00000000  1
  Hf  Hf1  1  0.00000000  0.00000000  0.50000000  1
  Hf  Hf1  1  0.00000000  0.50000000  0.50000000  1
  O  O1  1  0.46105092  0.25000000  0.10543933  1
  O  O2  1  0.20100445  0.55588114  0.19838308  1
  O  O2  1  0.20100445  0.94411886  0.19838308  1
  O  O2  1  0.70100445  0.55588114  0.30161692  1
  O  O2  1  0.70100445  0.94411886  0.30161692  1
  O  O1  1  0.96105092  0.25000000  0.39456067  1
  O  O1  1  0.03894908  0.75000000  0.60543933  1
  O  O2  1  0.29899555  0.05588114  0.69838308  1
  O  O2  1  0.29899555  0.44411886  0.69838308  1
  O  O2  1  0.79899555  0.05588114  0.80161692  1
  O  O2  1  0.79899555  0.44411886  0.80161692  1
  O  O1  1  0.53894908  0.75000000  0.89456067  1
