# generated using pymatgen
data_CaIn2O4
_symmetry_space_group_name_H-M   'P 1'
_cell_length_a   9.31733734
_cell_length_b   9.31733734
_cell_length_c   9.31733734
_cell_angle_alpha   90.00000000
_cell_angle_beta   90.00000000
_cell_angle_gamma   90.00000000
_symmetry_Int_Tables_number   1
_chemical_formula_structural   CaIn2O4
_chemical_formula_sum   'Ca8 In16 O32'
_cell_volume   808.86391110
_cell_formula_units_Z   8
loop_
 _symmetry_equiv_pos_site_id
 _symmetry_equiv_pos_as_xyz
  1  'x, y, z'
loop_
 _atom_site_type_symbol
 _atom_site_label
 _atom_site_symmetry_multiplicity
 _atom_site_fract_x
 _atom_site_fract_y
 _atom_site_fract_z
 _atom_site_occupancy
  Ca  Ca1  1  0.25000000  0.75000000  0.25000000  1
  Ca  Ca1  1  0.00000000  0.00000000  0.50000000  1
  In  In1  1  0.12500000  0.12500000  0.12500000  1
  In  In1  1  0.37500000  0.12500000  0.37500000  1
  In  In1  1  0.37500000  0.37500000  0.12500000  1
  In  In1  1  0.12500000  0.37500000  0.37500000  1
  O  O1  1  0.36229728  0.13770272  0.13770272  1
  O  O1  1  0.13770272  0.13770272  0.36229728  1
  O  O1  1  0.36229728  0.86229728  0.86229728  1
  O  O1  1  0.38770272  0.61229728  0.11229728  1
  O  O1  1  0.11229728  0.88770272  0.11229728  1
  O  O1  1  0.11229728  0.61229728  0.38770272  1
  O  O1  1  0.13770272  0.86229728  0.63770272  1
  O  O1  1  0.38770272  0.88770272  0.38770272  1
  Ca  Ca1  1  0.25000000  0.25000000  0.75000000  1
  Ca  Ca1  1  0.00000000  0.50000000  0.00000000  1
  In  In1  1  0.12500000  0.62500000  0.62500000  1
  In  In1  1  0.37500000  0.62500000  0.87500000  1
  In  In1  1  0.37500000  0.87500000  0.62500000  1
  In  In1  1  0.12500000  0.87500000  0.87500000  1
  O  O1  1  0.36229728  0.63770272  0.63770272  1
  O  O1  1  0.13770272  0.63770272  0.86229728  1
  O  O1  1  0.36229728  0.36229728  0.36229728  1
  O  O1  1  0.38770272  0.11229728  0.61229728  1
  O  O1  1  0.11229728  0.38770272  0.61229728  1
  O  O1  1  0.11229728  0.11229728  0.88770272  1
  O  O1  1  0.13770272  0.36229728  0.13770272  1
  O  O1  1  0.38770272  0.38770272  0.88770272  1
  Ca  Ca1  1  0.75000000  0.75000000  0.75000000  1
  Ca  Ca1  1  0.50000000  0.00000000  0.00000000  1
  In  In1  1  0.62500000  0.12500000  0.62500000  1
  In  In1  1  0.87500000  0.12500000  0.87500000  1
  In  In1  1  0.87500000  0.37500000  0.62500000  1
  In  In1  1  0.62500000  0.37500000  0.87500000  1
  O  O1  1  0.86229728  0.13770272  0.63770272  1
  O  O1  1  0.63770272  0.13770272  0.86229728  1
  O  O1  1  0.86229728  0.86229728  0.36229728  1
  O  O1  1  0.88770272  0.61229728  0.61229728  1
  O  O1  1  0.61229728  0.88770272  0.61229728  1
  O  O1  1  0.61229728  0.61229728  0.88770272  1
  O  O1  1  0.63770272  0.86229728  0.13770272  1
  O  O1  1  0.88770272  0.88770272  0.88770272  1
  Ca  Ca1  1  0.75000000  0.25000000  0.25000000  1
  Ca  Ca1  1  0.50000000  0.50000000  0.50000000  1
  In  In1  1  0.62500000  0.62500000  0.12500000  1
  In  In1  1  0.87500000  0.62500000  0.37500000  1
  In  In1  1  0.87500000  0.87500000  0.12500000  1
  In  In1  1  0.62500000  0.87500000  0.37500000  1
  O  O1  1  0.86229728  0.63770272  0.13770272  1
  O  O1  1  0.63770272  0.63770272  0.36229728  1
  O  O1  1  0.86229728  0.36229728  0.86229728  1
  O  O1  1  0.88770272  0.11229728  0.11229728  1
  O  O1  1  0.61229728  0.38770272  0.11229728  1
  O  O1  1  0.61229728  0.11229728  0.38770272  1
  O  O1  1  0.63770272  0.36229728  0.63770272  1
  O  O1  1  0.88770272  0.38770272  0.38770272  1
