# generated using pymatgen
data_CaLaGaO4
_symmetry_space_group_name_H-M   'P 1'
_cell_length_a   11.74172125
_cell_length_b   6.81822202
_cell_length_c   5.31949210
_cell_angle_alpha   90.00000000
_cell_angle_beta   90.00000000
_cell_angle_gamma   90.00000000
_symmetry_Int_Tables_number   1
_chemical_formula_structural   CaLaGaO4
_chemical_formula_sum   'Ca4 La4 Ga4 O16'
_cell_volume   425.86610248
_cell_formula_units_Z   4
loop_
 _symmetry_equiv_pos_site_id
 _symmetry_equiv_pos_as_xyz
  1  'x, y, z'
loop_
 _atom_site_type_symbol
 _atom_site_label
 _atom_site_symmetry_multiplicity
 _atom_site_fract_x
 _atom_site_fract_y
 _atom_site_fract_z
 _atom_site_occupancy
  Ca  Ca1  1  0.50000000  0.50000000  0.50000000  1
  Ca  Ca1  1  0.00000000  0.50000000  0.00000000  1
  Ca  Ca1  1  0.50000000  0.00000000  0.50000000  1
  Ca  Ca1  1  0.00000000  0.00000000  0.00000000  1
  La  La1  1  0.72056337  0.25000000  0.01144920  1
  La  La1  1  0.22056337  0.25000000  0.48855080  1
  La  La1  1  0.77943663  0.75000000  0.51144920  1
  La  La1  1  0.27943663  0.75000000  0.98855080  1
  Ga  Ga1  1  0.41045366  0.25000000  0.93240526  1
  Ga  Ga1  1  0.58954634  0.75000000  0.06759474  1
  Ga  Ga1  1  0.08954634  0.75000000  0.43240526  1
  Ga  Ga1  1  0.91045366  0.25000000  0.56759474  1
  O  O1  1  0.33820165  0.46179928  0.76876234  1
  O  O1  1  0.33820165  0.03820072  0.76876234  1
  O  O2  1  0.44706092  0.75000000  0.22698538  1
  O  O3  1  0.90902949  0.25000000  0.22591326  1
  O  O1  1  0.83820165  0.03820072  0.73123766  1
  O  O2  1  0.05293908  0.25000000  0.72698538  1
  O  O1  1  0.16179835  0.53820072  0.26876234  1
  O  O3  1  0.09097051  0.75000000  0.77408674  1
  O  O1  1  0.83820165  0.46179928  0.73123766  1
  O  O3  1  0.40902949  0.25000000  0.27408674  1
  O  O3  1  0.59097051  0.75000000  0.72591326  1
  O  O1  1  0.66179835  0.53820072  0.23123766  1
  O  O1  1  0.16179835  0.96179928  0.26876234  1
  O  O1  1  0.66179835  0.96179928  0.23123766  1
  O  O2  1  0.55293908  0.25000000  0.77301462  1
  O  O2  1  0.94706092  0.75000000  0.27301462  1
