# generated using pymatgen
data_CaMgSiO4
_symmetry_space_group_name_H-M   'P 1'
_cell_length_a   11.06445674
_cell_length_b   6.34711100
_cell_length_c   4.82088821
_cell_angle_alpha   90.00000000
_cell_angle_beta   90.00000000
_cell_angle_gamma   90.00000000
_symmetry_Int_Tables_number   1
_chemical_formula_structural   CaMgSiO4
_chemical_formula_sum   'Ca4 Mg4 Si4 O16'
_cell_volume   338.55813146
_cell_formula_units_Z   4
loop_
 _symmetry_equiv_pos_site_id
 _symmetry_equiv_pos_as_xyz
  1  'x, y, z'
loop_
 _atom_site_type_symbol
 _atom_site_label
 _atom_site_symmetry_multiplicity
 _atom_site_fract_x
 _atom_site_fract_y
 _atom_site_fract_z
 _atom_site_occupancy
  Ca  Ca1  1  0.22381573  0.25000000  0.51990552  1
  Ca  Ca1  1  0.77618427  0.75000000  0.48009448  1
  Ca  Ca1  1  0.72381573  0.25000000  0.98009448  1
  Ca  Ca1  1  0.27618427  0.75000000  0.01990552  1
  Mg  Mg1  1  0.50000000  0.50000000  0.50000000  1
  Mg  Mg1  1  0.50000000  0.00000000  0.50000000  1
  Mg  Mg1  1  0.00000000  0.50000000  0.00000000  1
  Mg  Mg1  1  0.00000000  0.00000000  0.00000000  1
  Si  Si1  1  0.08092217  0.75000000  0.58703575  1
  Si  Si1  1  0.58092217  0.75000000  0.91296425  1
  Si  Si1  1  0.91907783  0.25000000  0.41296425  1
  Si  Si1  1  0.41907783  0.25000000  0.08703575  1
  O  O1  1  0.14779571  0.95688928  0.72718094  1
  O  O1  1  0.35220429  0.04311072  0.22718094  1
  O  O1  1  0.85220429  0.45688928  0.27281906  1
  O  O1  1  0.64779571  0.54311072  0.77281906  1
  O  O1  1  0.85220429  0.04311072  0.27281906  1
  O  O1  1  0.64779571  0.95688928  0.77281906  1
  O  O1  1  0.14779571  0.54311072  0.72718094  1
  O  O1  1  0.35220429  0.45688928  0.22718094  1
  O  O2  1  0.55266692  0.25000000  0.24689763  1
  O  O2  1  0.94733308  0.75000000  0.74689763  1
  O  O2  1  0.44733308  0.75000000  0.75310237  1
  O  O2  1  0.05266692  0.25000000  0.25310237  1
  O  O3  1  0.42252997  0.25000000  0.74914946  1
  O  O3  1  0.07747003  0.75000000  0.24914946  1
  O  O3  1  0.57747003  0.75000000  0.25085054  1
  O  O3  1  0.92252997  0.25000000  0.75085054  1
