# generated using pymatgen
data_CaMg(SiO3)2
_symmetry_space_group_name_H-M   'P 1'
_cell_length_a   9.77326248
_cell_length_b   8.88740533
_cell_length_c   5.26507400
_cell_angle_alpha   90.00000000
_cell_angle_beta   106.00069176
_cell_angle_gamma   90.00000000
_symmetry_Int_Tables_number   1
_chemical_formula_structural   CaMg(SiO3)2
_chemical_formula_sum   'Ca4 Mg4 Si8 O24'
_cell_volume   439.60149765
_cell_formula_units_Z   4
loop_
 _symmetry_equiv_pos_site_id
 _symmetry_equiv_pos_as_xyz
  1  'x, y, z'
loop_
 _atom_site_type_symbol
 _atom_site_label
 _atom_site_symmetry_multiplicity
 _atom_site_fract_x
 _atom_site_fract_y
 _atom_site_fract_z
 _atom_site_occupancy
  Ca  Ca1  1  0.00000000  0.69915113  0.75000000  1
  Ca  Ca1  1  0.00000000  0.30084887  0.25000000  1
  Mg  Mg1  1  0.00000000  0.09083104  0.75000000  1
  Mg  Mg1  1  0.00000000  0.90916896  0.25000000  1
  Si  Si1  1  0.78638096  0.59438792  0.23138694  1
  Si  Si1  1  0.21361904  0.40561208  0.76861306  1
  Si  Si1  1  0.21361904  0.59438792  0.26861306  1
  Si  Si1  1  0.78638096  0.40561208  0.73138694  1
  O  O1  1  0.14846716  0.51825295  0.50276112  1
  O  O1  1  0.85153284  0.51825295  0.99723888  1
  O  O1  1  0.85153284  0.48174705  0.49723888  1
  O  O1  1  0.14846716  0.48174705  0.00276112  1
  O  O2  1  0.13752890  0.75235156  0.17655834  1
  O  O2  1  0.86247110  0.75235156  0.32344166  1
  O  O2  1  0.86247110  0.24764844  0.82344166  1
  O  O2  1  0.13752890  0.24764844  0.67655834  1
  O  O3  1  0.38533133  0.41117901  0.85747664  1
  O  O3  1  0.61466867  0.41117901  0.64252336  1
  O  O3  1  0.61466867  0.58882099  0.14252336  1
  O  O3  1  0.38533133  0.58882099  0.35747664  1
  Ca  Ca1  1  0.50000000  0.19915113  0.75000000  1
  Ca  Ca1  1  0.50000000  0.80084887  0.25000000  1
  Mg  Mg1  1  0.50000000  0.59083104  0.75000000  1
  Mg  Mg1  1  0.50000000  0.40916896  0.25000000  1
  Si  Si1  1  0.28638096  0.09438792  0.23138694  1
  Si  Si1  1  0.71361904  0.90561208  0.76861306  1
  Si  Si1  1  0.71361904  0.09438792  0.26861306  1
  Si  Si1  1  0.28638096  0.90561208  0.73138694  1
  O  O1  1  0.64846716  0.01825295  0.50276112  1
  O  O1  1  0.35153284  0.01825295  0.99723888  1
  O  O1  1  0.35153284  0.98174705  0.49723888  1
  O  O1  1  0.64846716  0.98174705  0.00276112  1
  O  O2  1  0.63752890  0.25235156  0.17655834  1
  O  O2  1  0.36247110  0.25235156  0.32344166  1
  O  O2  1  0.36247110  0.74764844  0.82344166  1
  O  O2  1  0.63752890  0.74764844  0.67655834  1
  O  O3  1  0.88533133  0.91117901  0.85747664  1
  O  O3  1  0.11466867  0.91117901  0.64252336  1
  O  O3  1  0.11466867  0.08882099  0.14252336  1
  O  O3  1  0.88533133  0.08882099  0.35747664  1
