# generated using pymatgen
data_CaMgGeO4
_symmetry_space_group_name_H-M   'P 1'
_cell_length_a   11.22585557
_cell_length_b   6.36481032
_cell_length_c   5.02548593
_cell_angle_alpha   90.00000000
_cell_angle_beta   90.00000000
_cell_angle_gamma   90.00000000
_symmetry_Int_Tables_number   1
_chemical_formula_structural   CaMgGeO4
_chemical_formula_sum   'Ca4 Mg4 Ge4 O16'
_cell_volume   359.07318850
_cell_formula_units_Z   4
loop_
 _symmetry_equiv_pos_site_id
 _symmetry_equiv_pos_as_xyz
  1  'x, y, z'
loop_
 _atom_site_type_symbol
 _atom_site_label
 _atom_site_symmetry_multiplicity
 _atom_site_fract_x
 _atom_site_fract_y
 _atom_site_fract_z
 _atom_site_occupancy
  Ca  Ca1  1  0.72586536  0.75000000  0.00886924  1
  Ca  Ca1  1  0.22586536  0.75000000  0.49113076  1
  Ca  Ca1  1  0.27413464  0.25000000  0.99113076  1
  Ca  Ca1  1  0.77413464  0.25000000  0.50886924  1
  Mg  Mg1  1  0.50000000  0.00000000  0.50000000  1
  Mg  Mg1  1  0.00000000  0.50000000  0.00000000  1
  Mg  Mg1  1  0.00000000  0.00000000  0.00000000  1
  Mg  Mg1  1  0.50000000  0.50000000  0.50000000  1
  Ge  Ge1  1  0.91988915  0.75000000  0.57541406  1
  Ge  Ge1  1  0.41988915  0.75000000  0.92458594  1
  Ge  Ge1  1  0.58011085  0.25000000  0.07541406  1
  Ge  Ge1  1  0.08011085  0.25000000  0.42458594  1
  O  O1  1  0.35157586  0.97168210  0.76358766  1
  O  O1  1  0.14842414  0.02831790  0.26358766  1
  O  O2  1  0.44049736  0.25000000  0.25708836  1
  O  O1  1  0.85157586  0.52831790  0.73641234  1
  O  O1  1  0.85157586  0.97168210  0.73641234  1
  O  O3  1  0.91985030  0.75000000  0.22330288  1
  O  O1  1  0.14842414  0.47168210  0.26358766  1
  O  O3  1  0.58014970  0.25000000  0.72330288  1
  O  O2  1  0.94049736  0.25000000  0.24291164  1
  O  O1  1  0.35157586  0.52831790  0.76358766  1
  O  O1  1  0.64842414  0.02831790  0.23641234  1
  O  O3  1  0.08014970  0.25000000  0.77669712  1
  O  O3  1  0.41985030  0.75000000  0.27669712  1
  O  O1  1  0.64842414  0.47168210  0.23641234  1
  O  O2  1  0.55950264  0.75000000  0.74291164  1
  O  O2  1  0.05950264  0.75000000  0.75708836  1
