# generated using pymatgen
data_CaMoO4
_symmetry_space_group_name_H-M   'P 1'
_cell_length_a   5.21728783
_cell_length_b   5.21728783
_cell_length_c   11.32223677
_cell_angle_alpha   90.00000000
_cell_angle_beta   90.00000000
_cell_angle_gamma   90.00000000
_symmetry_Int_Tables_number   1
_chemical_formula_structural   CaMoO4
_chemical_formula_sum   'Ca4 Mo4 O16'
_cell_volume   308.19233052
_cell_formula_units_Z   4
loop_
 _symmetry_equiv_pos_site_id
 _symmetry_equiv_pos_as_xyz
  1  'x, y, z'
loop_
 _atom_site_type_symbol
 _atom_site_label
 _atom_site_symmetry_multiplicity
 _atom_site_fract_x
 _atom_site_fract_y
 _atom_site_fract_z
 _atom_site_occupancy
  Ca  Ca1  1  0.00000000  0.00000000  0.50000000  1
  Ca  Ca1  1  0.50000000  0.00000000  0.25000000  1
  Mo  Mo1  1  0.50000000  0.50000000  0.50000000  1
  Mo  Mo1  1  0.00000000  0.50000000  0.25000000  1
  O  O1  1  0.25551790  0.65402752  0.58646502  1
  O  O1  1  0.74448210  0.34597248  0.58646502  1
  O  O1  1  0.84597248  0.25551790  0.33646502  1
  O  O1  1  0.15402752  0.74448210  0.33646502  1
  O  O1  1  0.74448210  0.84597248  0.66353498  1
  O  O1  1  0.25551790  0.15402752  0.66353498  1
  O  O1  1  0.65402752  0.74448210  0.41353498  1
  O  O1  1  0.34597248  0.25551790  0.41353498  1
  Ca  Ca1  1  0.50000000  0.50000000  0.00000000  1
  Ca  Ca1  1  0.00000000  0.50000000  0.75000000  1
  Mo  Mo1  1  0.00000000  0.00000000  0.00000000  1
  Mo  Mo1  1  0.50000000  0.00000000  0.75000000  1
  O  O1  1  0.75551790  0.15402752  0.08646502  1
  O  O1  1  0.24448210  0.84597248  0.08646502  1
  O  O1  1  0.34597248  0.75551790  0.83646502  1
  O  O1  1  0.65402752  0.24448210  0.83646502  1
  O  O1  1  0.24448210  0.34597248  0.16353498  1
  O  O1  1  0.75551790  0.65402752  0.16353498  1
  O  O1  1  0.15402752  0.24448210  0.91353498  1
  O  O1  1  0.84597248  0.75551790  0.91353498  1
