# generated using pymatgen
data_CaNb2O4
_symmetry_space_group_name_H-M   'P 1'
_cell_length_a   5.06381877
_cell_length_b   11.83318365
_cell_length_c   5.85147085
_cell_angle_alpha   90.00000000
_cell_angle_beta   90.00000000
_cell_angle_gamma   90.00000000
_symmetry_Int_Tables_number   1
_chemical_formula_structural   CaNb2O4
_chemical_formula_sum   'Ca4 Nb8 O16'
_cell_volume   350.62655583
_cell_formula_units_Z   4
loop_
 _symmetry_equiv_pos_site_id
 _symmetry_equiv_pos_as_xyz
  1  'x, y, z'
loop_
 _atom_site_type_symbol
 _atom_site_label
 _atom_site_symmetry_multiplicity
 _atom_site_fract_x
 _atom_site_fract_y
 _atom_site_fract_z
 _atom_site_occupancy
  Ca  Ca1  1  0.69044454  0.00439153  0.75000000  1
  Ca  Ca1  1  0.69044454  0.49560847  0.25000000  1
  Ca  Ca1  1  0.30955546  0.99560847  0.25000000  1
  Ca  Ca1  1  0.30955546  0.50439153  0.75000000  1
  Nb  Nb1  1  0.84426456  0.25000000  0.50000000  1
  Nb  Nb1  1  0.15573544  0.75000000  0.00000000  1
  Nb  Nb1  1  0.15573544  0.75000000  0.50000000  1
  Nb  Nb1  1  0.84426456  0.25000000  0.00000000  1
  Nb  Nb2  1  0.65905806  0.75364997  0.25000000  1
  Nb  Nb2  1  0.65905806  0.74635003  0.75000000  1
  Nb  Nb2  1  0.34094194  0.24635003  0.75000000  1
  Nb  Nb2  1  0.34094194  0.25364997  0.25000000  1
  O  O1  1  0.98545284  0.64217014  0.25000000  1
  O  O1  1  0.98545284  0.85782986  0.75000000  1
  O  O1  1  0.01454716  0.35782986  0.75000000  1
  O  O1  1  0.01454716  0.14217014  0.25000000  1
  O  O2  1  0.99359256  0.86113861  0.25000000  1
  O  O2  1  0.99359256  0.63886139  0.75000000  1
  O  O2  1  0.00640744  0.13886139  0.75000000  1
  O  O2  1  0.00640744  0.36113861  0.25000000  1
  O  O3  1  0.50776866  0.13677289  0.49522056  1
  O  O3  1  0.50776866  0.36322711  0.50477944  1
  O  O3  1  0.49223134  0.86322711  0.99522056  1
  O  O3  1  0.49223134  0.63677289  0.00477944  1
  O  O3  1  0.50776866  0.36322711  0.99522056  1
  O  O3  1  0.50776866  0.13677289  0.00477944  1
  O  O3  1  0.49223134  0.63677289  0.49522056  1
  O  O3  1  0.49223134  0.86322711  0.50477944  1
