# generated using pymatgen
data_CaSc2O4
_symmetry_space_group_name_H-M   'P 1'
_cell_length_a   9.34955821
_cell_length_b   3.11608493
_cell_length_c   11.02389273
_cell_angle_alpha   90.00000000
_cell_angle_beta   90.00000000
_cell_angle_gamma   90.00000000
_symmetry_Int_Tables_number   1
_chemical_formula_structural   CaSc2O4
_chemical_formula_sum   'Ca4 Sc8 O16'
_cell_volume   321.17028271
_cell_formula_units_Z   4
loop_
 _symmetry_equiv_pos_site_id
 _symmetry_equiv_pos_as_xyz
  1  'x, y, z'
loop_
 _atom_site_type_symbol
 _atom_site_label
 _atom_site_symmetry_multiplicity
 _atom_site_fract_x
 _atom_site_fract_y
 _atom_site_fract_z
 _atom_site_occupancy
  Ca  Ca1  1  0.25534094  0.75000000  0.84665888  1
  Ca  Ca1  1  0.74465906  0.25000000  0.15334112  1
  Ca  Ca1  1  0.75534094  0.75000000  0.65334112  1
  Ca  Ca1  1  0.24465906  0.25000000  0.34665888  1
  Sc  Sc1  1  0.57982920  0.25000000  0.89322146  1
  Sc  Sc1  1  0.42017080  0.75000000  0.10677854  1
  Sc  Sc1  1  0.07982920  0.25000000  0.60677854  1
  Sc  Sc1  1  0.92017080  0.75000000  0.39322146  1
  Sc  Sc2  1  0.92865439  0.75000000  0.88824775  1
  Sc  Sc2  1  0.07134561  0.25000000  0.11175225  1
  Sc  Sc2  1  0.42865439  0.75000000  0.61175225  1
  Sc  Sc2  1  0.57134561  0.25000000  0.38824775  1
  O  O1  1  0.57938352  0.25000000  0.57642019  1
  O  O1  1  0.42061648  0.75000000  0.42357981  1
  O  O1  1  0.07938352  0.25000000  0.92357981  1
  O  O1  1  0.92061648  0.75000000  0.07642019  1
  O  O2  1  0.47896874  0.25000000  0.21610954  1
  O  O2  1  0.52103126  0.75000000  0.78389046  1
  O  O2  1  0.97896874  0.25000000  0.28389046  1
  O  O2  1  0.02103126  0.75000000  0.71610954  1
  O  O3  1  0.87549106  0.25000000  0.52353820  1
  O  O3  1  0.12450894  0.75000000  0.47646180  1
  O  O3  1  0.37549106  0.25000000  0.97646180  1
  O  O3  1  0.62450894  0.75000000  0.02353820  1
  O  O4  1  0.70814082  0.75000000  0.32738081  1
  O  O4  1  0.29185918  0.25000000  0.67261919  1
  O  O4  1  0.20814082  0.75000000  0.17261919  1
  O  O4  1  0.79185918  0.25000000  0.82738081  1
