# generated using pymatgen
data_CaSn(BO3)2
_symmetry_space_group_name_H-M   'P 1'
_cell_length_a   4.87369065
_cell_length_b   4.87369065
_cell_length_c   16.04412087
_cell_angle_alpha   90.00000000
_cell_angle_beta   90.00000000
_cell_angle_gamma   120.00000000
_symmetry_Int_Tables_number   1
_chemical_formula_structural   CaSn(BO3)2
_chemical_formula_sum   'Ca3 Sn3 B6 O18'
_cell_volume   330.03688232
_cell_formula_units_Z   3
loop_
 _symmetry_equiv_pos_site_id
 _symmetry_equiv_pos_as_xyz
  1  'x, y, z'
loop_
 _atom_site_type_symbol
 _atom_site_label
 _atom_site_symmetry_multiplicity
 _atom_site_fract_x
 _atom_site_fract_y
 _atom_site_fract_z
 _atom_site_occupancy
  Ca  Ca1  1  0.00000000  0.00000000  0.00000000  1
  Sn  Sn1  1  0.33333333  0.66666667  0.16666667  1
  B  B1  1  0.00000000  0.00000000  0.23957307  1
  B  B1  1  0.66666667  0.33333333  0.09376026  1
  O  O1  1  0.02533406  0.29535772  0.24230492  1
  O  O1  1  0.70464228  0.72997635  0.24230492  1
  O  O1  1  0.39664301  0.35866740  0.09102841  1
  O  O1  1  0.64133260  0.03797562  0.09102841  1
  O  O1  1  0.96202438  0.60335699  0.09102841  1
  O  O1  1  0.27002365  0.97466594  0.24230492  1
  Ca  Ca1  1  0.66666667  0.33333333  0.33333333  1
  Sn  Sn1  1  -0.00000000  0.00000000  0.50000000  1
  B  B1  1  0.66666667  0.33333333  0.57290640  1
  B  B1  1  0.33333333  0.66666667  0.42709360  1
  O  O1  1  0.69200073  0.62869105  0.57563825  1
  O  O1  1  0.37130895  0.06330968  0.57563825  1
  O  O1  1  0.06330968  0.69200073  0.42436175  1
  O  O1  1  0.30799927  0.37130895  0.42436175  1
  O  O1  1  0.62869105  0.93669032  0.42436175  1
  O  O1  1  0.93669032  0.30799927  0.57563825  1
  Ca  Ca1  1  0.33333333  0.66666667  0.66666667  1
  Sn  Sn1  1  0.66666667  0.33333333  0.83333333  1
  B  B1  1  0.33333333  0.66666667  0.90623974  1
  B  B1  1  0.00000000  0.00000000  0.76042693  1
  O  O1  1  0.35866740  0.96202438  0.90897159  1
  O  O1  1  0.03797562  0.39664301  0.90897159  1
  O  O1  1  0.72997635  0.02533406  0.75769508  1
  O  O1  1  0.97466594  0.70464228  0.75769508  1
  O  O1  1  0.29535772  0.27002365  0.75769508  1
  O  O1  1  0.60335699  0.64133260  0.90897159  1
