# generated using pymatgen
data_CaSnO3
_symmetry_space_group_name_H-M   'P 1'
_cell_length_a   5.50695931
_cell_length_b   5.50695931
_cell_length_c   15.23743158
_cell_angle_alpha   90.00000000
_cell_angle_beta   90.00000000
_cell_angle_gamma   120.00000000
_symmetry_Int_Tables_number   1
_chemical_formula_structural   CaSnO3
_chemical_formula_sum   'Ca6 Sn6 O18'
_cell_volume   400.18991122
_cell_formula_units_Z   6
loop_
 _symmetry_equiv_pos_site_id
 _symmetry_equiv_pos_as_xyz
  1  'x, y, z'
loop_
 _atom_site_type_symbol
 _atom_site_label
 _atom_site_symmetry_multiplicity
 _atom_site_fract_x
 _atom_site_fract_y
 _atom_site_fract_z
 _atom_site_occupancy
  Ca  Ca1  1  0.33333333  0.66666667  0.30414548  1
  Ca  Ca1  1  0.33333333  0.66666667  0.02918786  1
  Sn  Sn1  1  0.66666667  0.33333333  0.17924496  1
  Sn  Sn1  1  0.00000000  0.00000000  0.15408837  1
  O  O1  1  0.96624155  0.27873681  0.24354874  1
  O  O1  1  0.31249526  0.03375845  0.24354874  1
  O  O1  1  0.72126319  0.68750474  0.24354874  1
  O  O1  1  0.70042512  0.05459652  0.08978459  1
  O  O1  1  0.94540348  0.64582860  0.08978459  1
  O  O1  1  0.35417140  0.29957488  0.08978459  1
  Ca  Ca1  1  0.00000000  0.00000000  0.63747881  1
  Ca  Ca1  1  0.00000000  0.00000000  0.36252119  1
  Sn  Sn1  1  0.33333333  0.66666667  0.51257830  1
  Sn  Sn1  1  0.66666667  0.33333333  0.48742170  1
  O  O1  1  0.63290821  0.61207014  0.57688208  1
  O  O1  1  0.97916193  0.36709179  0.57688208  1
  O  O1  1  0.38792986  0.02083807  0.57688208  1
  O  O1  1  0.36709179  0.38792986  0.42311792  1
  O  O1  1  0.61207014  0.97916193  0.42311792  1
  O  O1  1  0.02083807  0.63290821  0.42311792  1
  Ca  Ca1  1  0.66666667  0.33333333  0.97081214  1
  Ca  Ca1  1  0.66666667  0.33333333  0.69585452  1
  Sn  Sn1  1  0.00000000  0.00000000  0.84591163  1
  Sn  Sn1  1  0.33333333  0.66666667  0.82075504  1
  O  O1  1  0.29957488  0.94540348  0.91021541  1
  O  O1  1  0.64582860  0.70042512  0.91021541  1
  O  O1  1  0.05459652  0.35417140  0.91021541  1
  O  O1  1  0.03375845  0.72126319  0.75645126  1
  O  O1  1  0.27873681  0.31249526  0.75645126  1
  O  O1  1  0.68750474  0.96624155  0.75645126  1
