# generated using pymatgen
data_CaTaAlO5
_symmetry_space_group_name_H-M   'P 1'
_cell_length_a   6.70370977
_cell_length_b   8.92856249
_cell_length_c   7.37306491
_cell_angle_alpha   90.00000000
_cell_angle_beta   114.42885506
_cell_angle_gamma   90.00000000
_symmetry_Int_Tables_number   1
_chemical_formula_structural   CaTaAlO5
_chemical_formula_sum   'Ca4 Ta4 Al4 O20'
_cell_volume   401.80289991
_cell_formula_units_Z   4
loop_
 _symmetry_equiv_pos_site_id
 _symmetry_equiv_pos_as_xyz
  1  'x, y, z'
loop_
 _atom_site_type_symbol
 _atom_site_label
 _atom_site_symmetry_multiplicity
 _atom_site_fract_x
 _atom_site_fract_y
 _atom_site_fract_z
 _atom_site_occupancy
  Ca  Ca1  1  0.50000000  0.83261350  0.75000000  1
  Ca  Ca1  1  0.50000000  0.16738650  0.25000000  1
  Ta  Ta1  1  0.00000000  0.00000000  0.00000000  1
  Ta  Ta1  1  0.00000000  0.00000000  0.50000000  1
  Al  Al1  1  0.50000000  0.18387440  0.75000000  1
  Al  Al1  1  0.50000000  0.81612560  0.25000000  1
  O  O1  1  0.50000000  0.57535392  0.75000000  1
  O  O1  1  0.50000000  0.42464608  0.25000000  1
  O  O2  1  0.39406283  0.70371500  0.38686398  1
  O  O2  1  0.60593717  0.70371500  0.11313602  1
  O  O2  1  0.60593717  0.29628500  0.61313602  1
  O  O2  1  0.39406283  0.29628500  0.88686398  1
  O  O3  1  0.30952337  0.05755700  0.58572038  1
  O  O3  1  0.69047663  0.05755700  0.91427962  1
  O  O3  1  0.69047663  0.94244300  0.41427962  1
  O  O3  1  0.30952337  0.94244300  0.08572038  1
  Ca  Ca1  1  0.00000000  0.33261350  0.75000000  1
  Ca  Ca1  1  0.00000000  0.66738650  0.25000000  1
  Ta  Ta1  1  0.50000000  0.50000000  0.00000000  1
  Ta  Ta1  1  0.50000000  0.50000000  0.50000000  1
  Al  Al1  1  0.00000000  0.68387440  0.75000000  1
  Al  Al1  1  0.00000000  0.31612560  0.25000000  1
  O  O1  1  0.00000000  0.07535392  0.75000000  1
  O  O1  1  0.00000000  0.92464608  0.25000000  1
  O  O2  1  0.89406283  0.20371500  0.38686398  1
  O  O2  1  0.10593717  0.20371500  0.11313602  1
  O  O2  1  0.10593717  0.79628500  0.61313602  1
  O  O2  1  0.89406283  0.79628500  0.88686398  1
  O  O3  1  0.80952337  0.55755700  0.58572038  1
  O  O3  1  0.19047663  0.55755700  0.91427962  1
  O  O3  1  0.19047663  0.44244300  0.41427962  1
  O  O3  1  0.80952337  0.44244300  0.08572038  1
