# generated using pymatgen
data_CaV2O6
_symmetry_space_group_name_H-M   'P 1'
_cell_length_a   10.35108812
_cell_length_b   3.61862246
_cell_length_c   7.17398591
_cell_angle_alpha   90.00000000
_cell_angle_beta   102.43928545
_cell_angle_gamma   90.00000000
_symmetry_Int_Tables_number   1
_chemical_formula_structural   CaV2O6
_chemical_formula_sum   'Ca2 V4 O12'
_cell_volume   262.40559015
_cell_formula_units_Z   2
loop_
 _symmetry_equiv_pos_site_id
 _symmetry_equiv_pos_as_xyz
  1  'x, y, z'
loop_
 _atom_site_type_symbol
 _atom_site_label
 _atom_site_symmetry_multiplicity
 _atom_site_fract_x
 _atom_site_fract_y
 _atom_site_fract_z
 _atom_site_occupancy
  Ca  Ca1  1  0.00000000  0.00000000  0.00000000  1
  V  V1  1  0.74299544  0.50000000  0.67346920  1
  V  V1  1  0.75700456  0.00000000  0.32653080  1
  O  O1  1  0.75769964  0.00000000  0.60315188  1
  O  O1  1  0.74230036  0.50000000  0.39684812  1
  O  O2  1  0.86881579  0.50000000  0.86818434  1
  O  O3  1  0.60207786  0.50000000  0.74409364  1
  O  O2  1  0.63118421  0.00000000  0.13181566  1
  O  O3  1  0.89792214  0.00000000  0.25590636  1
  Ca  Ca1  1  0.50000000  0.50000000  0.00000000  1
  V  V1  1  0.24299544  0.00000000  0.67346920  1
  V  V1  1  0.25700456  0.50000000  0.32653080  1
  O  O1  1  0.25769964  0.50000000  0.60315188  1
  O  O1  1  0.24230036  0.00000000  0.39684812  1
  O  O2  1  0.36881579  0.00000000  0.86818434  1
  O  O3  1  0.10207786  0.00000000  0.74409364  1
  O  O2  1  0.13118421  0.50000000  0.13181566  1
  O  O3  1  0.39792214  0.50000000  0.25590636  1
