# generated using pymatgen
data_CaWO4
_symmetry_space_group_name_H-M   'P 1'
_cell_length_a   5.22668666
_cell_length_b   5.22668666
_cell_length_c   11.24273663
_cell_angle_alpha   90.00000000
_cell_angle_beta   90.00000000
_cell_angle_gamma   90.00000000
_symmetry_Int_Tables_number   1
_chemical_formula_structural   CaWO4
_chemical_formula_sum   'Ca4 W4 O16'
_cell_volume   307.13192923
_cell_formula_units_Z   4
loop_
 _symmetry_equiv_pos_site_id
 _symmetry_equiv_pos_as_xyz
  1  'x, y, z'
loop_
 _atom_site_type_symbol
 _atom_site_label
 _atom_site_symmetry_multiplicity
 _atom_site_fract_x
 _atom_site_fract_y
 _atom_site_fract_z
 _atom_site_occupancy
  Ca  Ca1  1  0.00000000  0.00000000  0.50000000  1
  Ca  Ca1  1  0.50000000  0.00000000  0.25000000  1
  W  W1  1  0.50000000  0.50000000  0.50000000  1
  W  W1  1  0.00000000  0.50000000  0.25000000  1
  O  O1  1  0.74212172  0.15733824  0.66240382  1
  O  O1  1  0.65733824  0.25787828  0.41240382  1
  O  O1  1  0.34266176  0.74212172  0.41240382  1
  O  O1  1  0.25787828  0.84266176  0.66240382  1
  O  O1  1  0.74212172  0.65733824  0.58759618  1
  O  O1  1  0.15733824  0.25787828  0.33759618  1
  O  O1  1  0.25787828  0.34266176  0.58759618  1
  O  O1  1  0.84266176  0.74212172  0.33759618  1
  Ca  Ca1  1  0.50000000  0.50000000  0.00000000  1
  Ca  Ca1  1  0.00000000  0.50000000  0.75000000  1
  W  W1  1  0.00000000  0.00000000  0.00000000  1
  W  W1  1  0.50000000  0.00000000  0.75000000  1
  O  O1  1  0.24212172  0.65733824  0.16240382  1
  O  O1  1  0.15733824  0.75787828  0.91240382  1
  O  O1  1  0.84266176  0.24212172  0.91240382  1
  O  O1  1  0.75787828  0.34266176  0.16240382  1
  O  O1  1  0.24212172  0.15733824  0.08759618  1
  O  O1  1  0.65733824  0.75787828  0.83759618  1
  O  O1  1  0.75787828  0.84266176  0.08759618  1
  O  O1  1  0.34266176  0.24212172  0.83759618  1
