# generated using pymatgen
data_CaYBO4
_symmetry_space_group_name_H-M   'P 1'
_cell_length_a   10.38602616
_cell_length_b   3.55815957
_cell_length_c   9.57741206
_cell_angle_alpha   90.00000000
_cell_angle_beta   90.00000000
_cell_angle_gamma   90.00000000
_symmetry_Int_Tables_number   1
_chemical_formula_structural   CaYBO4
_chemical_formula_sum   'Ca4 Y4 B4 O16'
_cell_volume   353.93458829
_cell_formula_units_Z   4
loop_
 _symmetry_equiv_pos_site_id
 _symmetry_equiv_pos_as_xyz
  1  'x, y, z'
loop_
 _atom_site_type_symbol
 _atom_site_label
 _atom_site_symmetry_multiplicity
 _atom_site_fract_x
 _atom_site_fract_y
 _atom_site_fract_z
 _atom_site_occupancy
  Ca  Ca1  1  0.08343205  0.25000000  0.67117299  1
  Ca  Ca1  1  0.91656795  0.75000000  0.32882701  1
  Ca  Ca1  1  0.41656795  0.75000000  0.17117299  1
  Ca  Ca1  1  0.58343205  0.25000000  0.82882701  1
  Y  Y1  1  0.11252958  0.25000000  0.08789037  1
  Y  Y1  1  0.88747042  0.75000000  0.91210963  1
  Y  Y1  1  0.38747042  0.75000000  0.58789037  1
  Y  Y1  1  0.61252958  0.25000000  0.41210963  1
  B  B1  1  0.19999641  0.25000000  0.36803395  1
  B  B1  1  0.80000359  0.75000000  0.63196605  1
  B  B1  1  0.30000359  0.75000000  0.86803395  1
  B  B1  1  0.69999641  0.25000000  0.13196605  1
  O  O1  1  0.25094230  0.25000000  0.50148821  1
  O  O1  1  0.74905770  0.75000000  0.49851179  1
  O  O1  1  0.24905770  0.75000000  0.00148821  1
  O  O1  1  0.75094230  0.25000000  0.99851179  1
  O  O2  1  0.27748262  0.25000000  0.24932129  1
  O  O2  1  0.72251738  0.75000000  0.75067871  1
  O  O2  1  0.22251738  0.75000000  0.74932129  1
  O  O2  1  0.77748262  0.25000000  0.25067871  1
  O  O3  1  0.06673633  0.25000000  0.34897073  1
  O  O3  1  0.93326367  0.75000000  0.65102927  1
  O  O3  1  0.43326367  0.75000000  0.84897073  1
  O  O3  1  0.56673633  0.25000000  0.15102927  1
  O  O4  1  0.50704782  0.25000000  0.61377128  1
  O  O4  1  0.49295218  0.75000000  0.38622872  1
  O  O4  1  0.99295218  0.75000000  0.11377128  1
  O  O4  1  0.00704782  0.25000000  0.88622872  1
