# generated using pymatgen
data_CaZrO3
_symmetry_space_group_name_H-M   'P 1'
_cell_length_a   5.74792743
_cell_length_b   7.97524012
_cell_length_c   5.55067447
_cell_angle_alpha   90.00000000
_cell_angle_beta   90.00000000
_cell_angle_gamma   90.00000000
_symmetry_Int_Tables_number   1
_chemical_formula_structural   CaZrO3
_chemical_formula_sum   'Ca4 Zr4 O12'
_cell_volume   254.44903147
_cell_formula_units_Z   4
loop_
 _symmetry_equiv_pos_site_id
 _symmetry_equiv_pos_as_xyz
  1  'x, y, z'
loop_
 _atom_site_type_symbol
 _atom_site_label
 _atom_site_symmetry_multiplicity
 _atom_site_fract_x
 _atom_site_fract_y
 _atom_site_fract_z
 _atom_site_occupancy
  Ca  Ca1  1  0.94785208  0.25000000  0.01406897  1
  Ca  Ca1  1  0.55214792  0.75000000  0.51406897  1
  Ca  Ca1  1  0.44785208  0.25000000  0.48593103  1
  Ca  Ca1  1  0.05214792  0.75000000  0.98593103  1
  Zr  Zr1  1  0.50000000  0.00000000  0.00000000  1
  Zr  Zr1  1  0.00000000  0.00000000  0.50000000  1
  Zr  Zr1  1  0.00000000  0.50000000  0.50000000  1
  Zr  Zr1  1  0.50000000  0.50000000  0.00000000  1
  O  O1  1  0.69962460  0.44162834  0.30304847  1
  O  O1  1  0.80037540  0.55837166  0.80304847  1
  O  O1  1  0.19962460  0.05837166  0.19695153  1
  O  O1  1  0.30037540  0.94162834  0.69695153  1
  O  O1  1  0.30037540  0.55837166  0.69695153  1
  O  O1  1  0.19962460  0.44162834  0.19695153  1
  O  O1  1  0.80037540  0.94162834  0.80304847  1
  O  O1  1  0.69962460  0.05837166  0.30304847  1
  O  O2  1  0.04264469  0.25000000  0.60972568  1
  O  O2  1  0.45735531  0.75000000  0.10972568  1
  O  O2  1  0.54264469  0.25000000  0.89027432  1
  O  O2  1  0.95735531  0.75000000  0.39027432  1
