# generated using pymatgen
data_Cd(SbO3)2
_symmetry_space_group_name_H-M   'P 1'
_cell_length_a   5.27915505
_cell_length_b   5.27915504
_cell_length_c   4.81634027
_cell_angle_alpha   90.00000000
_cell_angle_beta   90.00000000
_cell_angle_gamma   120.00000000
_symmetry_Int_Tables_number   1
_chemical_formula_structural   Cd(SbO3)2
_chemical_formula_sum   'Cd1 Sb2 O6'
_cell_volume   116.24562780
_cell_formula_units_Z   1
loop_
 _symmetry_equiv_pos_site_id
 _symmetry_equiv_pos_as_xyz
  1  'x, y, z'
loop_
 _atom_site_type_symbol
 _atom_site_label
 _atom_site_symmetry_multiplicity
 _atom_site_fract_x
 _atom_site_fract_y
 _atom_site_fract_z
 _atom_site_occupancy
  Cd  Cd1  1  0.00000000  0.00000000  0.00000000  1
  Sb  Sb1  1  0.33333333  0.66666667  0.50000000  1
  Sb  Sb1  1  0.66666667  0.33333333  0.50000000  1
  O  O1  1  0.36532610  0.36532610  0.72659708  1
  O  O1  1  0.63467390  0.00000000  0.72659708  1
  O  O1  1  0.00000000  0.63467390  0.72659708  1
  O  O1  1  0.36532610  0.00000000  0.27340292  1
  O  O1  1  0.00000000  0.36532610  0.27340292  1
  O  O1  1  0.63467390  0.63467390  0.27340292  1
