# generated using pymatgen
data_Cd2BiAsO6
_symmetry_space_group_name_H-M   'P 1'
_cell_length_a   8.68643531
_cell_length_b   11.47676530
_cell_length_c   5.63120208
_cell_angle_alpha   90.00000000
_cell_angle_beta   90.00000000
_cell_angle_gamma   90.00000000
_symmetry_Int_Tables_number   1
_chemical_formula_structural   Cd2BiAsO6
_chemical_formula_sum   'Cd8 Bi4 As4 O24'
_cell_volume   561.38680720
_cell_formula_units_Z   4
loop_
 _symmetry_equiv_pos_site_id
 _symmetry_equiv_pos_as_xyz
  1  'x, y, z'
loop_
 _atom_site_type_symbol
 _atom_site_label
 _atom_site_symmetry_multiplicity
 _atom_site_fract_x
 _atom_site_fract_y
 _atom_site_fract_z
 _atom_site_occupancy
  Cd  Cd1  1  0.29645169  0.11107255  0.63090930  1
  Cd  Cd1  1  0.70354831  0.11107255  0.63090930  1
  Cd  Cd1  1  0.70354831  0.88892745  0.13090930  1
  Cd  Cd1  1  0.29645169  0.88892745  0.13090930  1
  Bi  Bi1  1  0.50000000  0.40344670  0.62281830  1
  Bi  Bi1  1  0.50000000  0.59655330  0.12281830  1
  As  As1  1  0.50000000  0.83345107  0.64555240  1
  As  As1  1  0.50000000  0.16654893  0.14555240  1
  O  O1  1  0.15546776  0.00259345  0.37853756  1
  O  O2  1  0.34020773  0.77464191  0.78373782  1
  O  O1  1  0.15546776  0.99740655  0.87853756  1
  O  O1  1  0.84453224  0.00259345  0.37853756  1
  O  O1  1  0.84453224  0.99740655  0.87853756  1
  O  O3  1  0.50000000  0.01969105  0.18668692  1
  O  O4  1  0.50000000  0.79744912  0.34716302  1
  O  O2  1  0.65979227  0.22535809  0.28373782  1
  O  O2  1  0.34020773  0.22535809  0.28373782  1
  O  O3  1  0.50000000  0.98030895  0.68668692  1
  O  O4  1  0.50000000  0.20255088  0.84716302  1
  O  O2  1  0.65979227  0.77464191  0.78373782  1
  Cd  Cd1  1  0.79645169  0.61107255  0.63090930  1
  Cd  Cd1  1  0.20354831  0.61107255  0.63090930  1
  Cd  Cd1  1  0.20354831  0.38892745  0.13090930  1
  Cd  Cd1  1  0.79645169  0.38892745  0.13090930  1
  Bi  Bi1  1  0.00000000  0.90344670  0.62281830  1
  Bi  Bi1  1  0.00000000  0.09655330  0.12281830  1
  As  As1  1  0.00000000  0.33345107  0.64555240  1
  As  As1  1  0.00000000  0.66654893  0.14555240  1
  O  O1  1  0.65546776  0.50259345  0.37853756  1
  O  O2  1  0.84020773  0.27464191  0.78373782  1
  O  O1  1  0.65546776  0.49740655  0.87853756  1
  O  O1  1  0.34453224  0.50259345  0.37853756  1
  O  O1  1  0.34453224  0.49740655  0.87853756  1
  O  O3  1  0.00000000  0.51969105  0.18668692  1
  O  O4  1  0.00000000  0.29744912  0.34716302  1
  O  O2  1  0.15979227  0.72535809  0.28373782  1
  O  O2  1  0.84020773  0.72535809  0.28373782  1
  O  O3  1  0.00000000  0.48030895  0.68668692  1
  O  O4  1  0.00000000  0.70255088  0.84716302  1
  O  O2  1  0.15979227  0.27464191  0.78373782  1
