# generated using pymatgen
data_Cd2GeO4
_symmetry_space_group_name_H-M   'P 1'
_cell_length_a   11.22646646
_cell_length_b   6.59740751
_cell_length_c   5.24718540
_cell_angle_alpha   90.00000000
_cell_angle_beta   90.00000000
_cell_angle_gamma   90.00000000
_symmetry_Int_Tables_number   1
_chemical_formula_structural   Cd2GeO4
_chemical_formula_sum   'Cd8 Ge4 O16'
_cell_volume   388.63579953
_cell_formula_units_Z   4
loop_
 _symmetry_equiv_pos_site_id
 _symmetry_equiv_pos_as_xyz
  1  'x, y, z'
loop_
 _atom_site_type_symbol
 _atom_site_label
 _atom_site_symmetry_multiplicity
 _atom_site_fract_x
 _atom_site_fract_y
 _atom_site_fract_z
 _atom_site_occupancy
  Cd  Cd1  1  0.72027223  0.25000000  0.98944228  1
  Cd  Cd1  1  0.77972777  0.75000000  0.48944228  1
  Cd  Cd1  1  0.27972777  0.75000000  0.01055772  1
  Cd  Cd1  1  0.22027223  0.25000000  0.51055772  1
  Cd  Cd2  1  0.00000000  0.00000000  0.00000000  1
  Cd  Cd2  1  0.50000000  0.00000000  0.50000000  1
  Cd  Cd2  1  0.00000000  0.50000000  0.00000000  1
  Cd  Cd2  1  0.50000000  0.50000000  0.50000000  1
  Ge  Ge1  1  0.90193893  0.25000000  0.43371798  1
  Ge  Ge1  1  0.59806107  0.75000000  0.93371798  1
  Ge  Ge1  1  0.09806107  0.75000000  0.56628202  1
  Ge  Ge1  1  0.40193893  0.25000000  0.06628202  1
  O  O1  1  0.16544301  0.96402972  0.72401398  1
  O  O1  1  0.33455699  0.03597028  0.22401398  1
  O  O1  1  0.83455699  0.46402972  0.27598602  1
  O  O1  1  0.66544301  0.53597028  0.77598602  1
  O  O1  1  0.83455699  0.03597028  0.27598602  1
  O  O1  1  0.66544301  0.96402972  0.77598602  1
  O  O1  1  0.16544301  0.53597028  0.72401398  1
  O  O1  1  0.33455699  0.46402972  0.22401398  1
  O  O2  1  0.04914100  0.25000000  0.28785838  1
  O  O2  1  0.45085900  0.75000000  0.78785838  1
  O  O2  1  0.95085900  0.75000000  0.71214162  1
  O  O2  1  0.54914100  0.25000000  0.21214162  1
  O  O3  1  0.40303860  0.25000000  0.72800542  1
  O  O3  1  0.09696140  0.75000000  0.22800542  1
  O  O3  1  0.59696140  0.75000000  0.27199458  1
  O  O3  1  0.90303860  0.25000000  0.77199458  1
