# generated using pymatgen
data_Cd2SiO4
_symmetry_space_group_name_H-M   'P 1'
_cell_length_a   6.01113101
_cell_length_b   9.84441952
_cell_length_c   11.87861737
_cell_angle_alpha   90.00000000
_cell_angle_beta   90.00000000
_cell_angle_gamma   90.00000000
_symmetry_Int_Tables_number   1
_chemical_formula_structural   Cd2SiO4
_chemical_formula_sum   'Cd16 Si8 O32'
_cell_volume   702.93019474
_cell_formula_units_Z   8
loop_
 _symmetry_equiv_pos_site_id
 _symmetry_equiv_pos_as_xyz
  1  'x, y, z'
loop_
 _atom_site_type_symbol
 _atom_site_label
 _atom_site_symmetry_multiplicity
 _atom_site_fract_x
 _atom_site_fract_y
 _atom_site_fract_z
 _atom_site_occupancy
  Cd  Cd1  1  0.75000000  0.06503159  0.25000000  1
  Cd  Cd1  1  0.75000000  0.43496841  0.25000000  1
  Cd  Cd1  1  0.50000000  0.18496841  0.00000000  1
  Cd  Cd1  1  0.50000000  0.81503159  0.00000000  1
  Si  Si1  1  0.75000000  0.75000000  0.25000000  1
  Si  Si1  1  0.00000000  0.00000000  0.00000000  1
  O  O1  1  0.90607272  0.85500007  0.32423151  1
  O  O1  1  0.40607272  0.14499993  0.17576849  1
  O  O1  1  0.59392728  0.85500007  0.17576849  1
  O  O1  1  0.09392728  0.14499993  0.32423151  1
  O  O1  1  0.84392728  0.39499993  0.42576849  1
  O  O1  1  0.84392728  0.10500007  0.07423151  1
  O  O1  1  0.65607272  0.10500007  0.42576849  1
  O  O1  1  0.65607272  0.39499993  0.07423151  1
  Cd  Cd1  1  0.75000000  0.56503159  0.75000000  1
  Cd  Cd1  1  0.75000000  0.93496841  0.75000000  1
  Cd  Cd1  1  0.50000000  0.68496841  0.50000000  1
  Cd  Cd1  1  0.50000000  0.31503159  0.50000000  1
  Si  Si1  1  0.75000000  0.25000000  0.75000000  1
  Si  Si1  1  0.00000000  0.50000000  0.50000000  1
  O  O1  1  0.90607272  0.35500007  0.82423151  1
  O  O1  1  0.40607272  0.64499993  0.67576849  1
  O  O1  1  0.59392728  0.35500007  0.67576849  1
  O  O1  1  0.09392728  0.64499993  0.82423151  1
  O  O1  1  0.84392728  0.89499993  0.92576849  1
  O  O1  1  0.84392728  0.60500007  0.57423151  1
  O  O1  1  0.65607272  0.60500007  0.92576849  1
  O  O1  1  0.65607272  0.89499993  0.57423151  1
  Cd  Cd1  1  0.25000000  0.06503159  0.75000000  1
  Cd  Cd1  1  0.25000000  0.43496841  0.75000000  1
  Cd  Cd1  1  0.00000000  0.18496841  0.50000000  1
  Cd  Cd1  1  0.00000000  0.81503159  0.50000000  1
  Si  Si1  1  0.25000000  0.75000000  0.75000000  1
  Si  Si1  1  0.50000000  0.00000000  0.50000000  1
  O  O1  1  0.40607272  0.85500007  0.82423151  1
  O  O1  1  0.90607272  0.14499993  0.67576849  1
  O  O1  1  0.09392728  0.85500007  0.67576849  1
  O  O1  1  0.59392728  0.14499993  0.82423151  1
  O  O1  1  0.34392728  0.39499993  0.92576849  1
  O  O1  1  0.34392728  0.10500007  0.57423151  1
  O  O1  1  0.15607272  0.10500007  0.92576849  1
  O  O1  1  0.15607272  0.39499993  0.57423151  1
  Cd  Cd1  1  0.25000000  0.56503159  0.25000000  1
  Cd  Cd1  1  0.25000000  0.93496841  0.25000000  1
  Cd  Cd1  1  0.00000000  0.68496841  0.00000000  1
  Cd  Cd1  1  0.00000000  0.31503159  0.00000000  1
  Si  Si1  1  0.25000000  0.25000000  0.25000000  1
  Si  Si1  1  0.50000000  0.50000000  0.00000000  1
  O  O1  1  0.40607272  0.35500007  0.32423151  1
  O  O1  1  0.90607272  0.64499993  0.17576849  1
  O  O1  1  0.09392728  0.35500007  0.17576849  1
  O  O1  1  0.59392728  0.64499993  0.32423151  1
  O  O1  1  0.34392728  0.89499993  0.42576849  1
  O  O1  1  0.34392728  0.60500007  0.07423151  1
  O  O1  1  0.15607272  0.60500007  0.42576849  1
  O  O1  1  0.15607272  0.89499993  0.07423151  1
