# generated using pymatgen
data_Cd2Sb2O7
_symmetry_space_group_name_H-M   'P 1'
_cell_length_a   10.32574730
_cell_length_b   10.32574730
_cell_length_c   10.32574730
_cell_angle_alpha   90.00000000
_cell_angle_beta   90.00000000
_cell_angle_gamma   90.00000000
_symmetry_Int_Tables_number   1
_chemical_formula_structural   Cd2Sb2O7
_chemical_formula_sum   'Cd16 Sb16 O56'
_cell_volume   1100.94209457
_cell_formula_units_Z   8
loop_
 _symmetry_equiv_pos_site_id
 _symmetry_equiv_pos_as_xyz
  1  'x, y, z'
loop_
 _atom_site_type_symbol
 _atom_site_label
 _atom_site_symmetry_multiplicity
 _atom_site_fract_x
 _atom_site_fract_y
 _atom_site_fract_z
 _atom_site_occupancy
  Cd  Cd1  1  0.12500000  0.87500000  0.37500000  1
  Cd  Cd1  1  0.37500000  0.12500000  0.87500000  1
  Cd  Cd1  1  0.37500000  0.87500000  0.12500000  1
  Cd  Cd1  1  0.12500000  0.12500000  0.62500000  1
  Sb  Sb1  1  0.12500000  0.87500000  0.87500000  1
  Sb  Sb1  1  0.37500000  0.62500000  0.87500000  1
  Sb  Sb1  1  0.37500000  0.87500000  0.62500000  1
  Sb  Sb1  1  0.12500000  0.62500000  0.62500000  1
  O  O1  1  0.00000000  0.00000000  0.19980216  1
  O  O1  1  0.00000000  0.00000000  0.80019784  1
  O  O1  1  0.00000000  0.69980216  0.50000000  1
  O  O1  1  0.00000000  0.30019784  0.50000000  1
  O  O1  1  0.19980216  0.00000000  0.00000000  1
  O  O1  1  0.30019784  0.00000000  0.50000000  1
  O  O1  1  0.25000000  0.75000000  0.55019784  1
  O  O1  1  0.25000000  0.75000000  0.94980216  1
  O  O1  1  0.25000000  0.55019784  0.75000000  1
  O  O1  1  0.25000000  0.94980216  0.75000000  1
  O  O1  1  0.05019784  0.75000000  0.75000000  1
  O  O1  1  0.44980216  0.75000000  0.75000000  1
  O  O2  1  0.25000000  0.25000000  0.75000000  1
  O  O2  1  0.00000000  0.00000000  0.50000000  1
  Cd  Cd1  1  0.12500000  0.37500000  0.87500000  1
  Cd  Cd1  1  0.37500000  0.62500000  0.37500000  1
  Cd  Cd1  1  0.37500000  0.37500000  0.62500000  1
  Cd  Cd1  1  0.12500000  0.62500000  0.12500000  1
  Sb  Sb1  1  0.12500000  0.37500000  0.37500000  1
  Sb  Sb1  1  0.37500000  0.12500000  0.37500000  1
  Sb  Sb1  1  0.37500000  0.37500000  0.12500000  1
  Sb  Sb1  1  0.12500000  0.12500000  0.12500000  1
  O  O1  1  0.00000000  0.50000000  0.69980216  1
  O  O1  1  0.00000000  0.50000000  0.30019784  1
  O  O1  1  0.00000000  0.19980216  0.00000000  1
  O  O1  1  0.00000000  0.80019784  0.00000000  1
  O  O1  1  0.19980216  0.50000000  0.50000000  1
  O  O1  1  0.30019784  0.50000000  0.00000000  1
  O  O1  1  0.25000000  0.25000000  0.05019784  1
  O  O1  1  0.25000000  0.25000000  0.44980216  1
  O  O1  1  0.25000000  0.05019784  0.25000000  1
  O  O1  1  0.25000000  0.44980216  0.25000000  1
  O  O1  1  0.05019784  0.25000000  0.25000000  1
  O  O1  1  0.44980216  0.25000000  0.25000000  1
  O  O2  1  0.25000000  0.75000000  0.25000000  1
  O  O2  1  0.00000000  0.50000000  0.00000000  1
  Cd  Cd1  1  0.62500000  0.87500000  0.87500000  1
  Cd  Cd1  1  0.87500000  0.12500000  0.37500000  1
  Cd  Cd1  1  0.87500000  0.87500000  0.62500000  1
  Cd  Cd1  1  0.62500000  0.12500000  0.12500000  1
  Sb  Sb1  1  0.62500000  0.87500000  0.37500000  1
  Sb  Sb1  1  0.87500000  0.62500000  0.37500000  1
  Sb  Sb1  1  0.87500000  0.87500000  0.12500000  1
  Sb  Sb1  1  0.62500000  0.62500000  0.12500000  1
  O  O1  1  0.50000000  0.00000000  0.69980216  1
  O  O1  1  0.50000000  0.00000000  0.30019784  1
  O  O1  1  0.50000000  0.69980216  0.00000000  1
  O  O1  1  0.50000000  0.30019784  0.00000000  1
  O  O1  1  0.69980216  0.00000000  0.50000000  1
  O  O1  1  0.80019784  0.00000000  0.00000000  1
  O  O1  1  0.75000000  0.75000000  0.05019784  1
  O  O1  1  0.75000000  0.75000000  0.44980216  1
  O  O1  1  0.75000000  0.55019784  0.25000000  1
  O  O1  1  0.75000000  0.94980216  0.25000000  1
  O  O1  1  0.55019784  0.75000000  0.25000000  1
  O  O1  1  0.94980216  0.75000000  0.25000000  1
  O  O2  1  0.75000000  0.25000000  0.25000000  1
  O  O2  1  0.50000000  0.00000000  0.00000000  1
  Cd  Cd1  1  0.62500000  0.37500000  0.37500000  1
  Cd  Cd1  1  0.87500000  0.62500000  0.87500000  1
  Cd  Cd1  1  0.87500000  0.37500000  0.12500000  1
  Cd  Cd1  1  0.62500000  0.62500000  0.62500000  1
  Sb  Sb1  1  0.62500000  0.37500000  0.87500000  1
  Sb  Sb1  1  0.87500000  0.12500000  0.87500000  1
  Sb  Sb1  1  0.87500000  0.37500000  0.62500000  1
  Sb  Sb1  1  0.62500000  0.12500000  0.62500000  1
  O  O1  1  0.50000000  0.50000000  0.19980216  1
  O  O1  1  0.50000000  0.50000000  0.80019784  1
  O  O1  1  0.50000000  0.19980216  0.50000000  1
  O  O1  1  0.50000000  0.80019784  0.50000000  1
  O  O1  1  0.69980216  0.50000000  0.00000000  1
  O  O1  1  0.80019784  0.50000000  0.50000000  1
  O  O1  1  0.75000000  0.25000000  0.55019784  1
  O  O1  1  0.75000000  0.25000000  0.94980216  1
  O  O1  1  0.75000000  0.05019784  0.75000000  1
  O  O1  1  0.75000000  0.44980216  0.75000000  1
  O  O1  1  0.55019784  0.25000000  0.75000000  1
  O  O1  1  0.94980216  0.25000000  0.75000000  1
  O  O2  1  0.75000000  0.75000000  0.75000000  1
  O  O2  1  0.50000000  0.50000000  0.50000000  1
