# generated using pymatgen
data_Cd3SiO5
_symmetry_space_group_name_H-M   'P 1'
_cell_length_a   6.81632098
_cell_length_b   6.81632098
_cell_length_c   5.01994971
_cell_angle_alpha   90.00000000
_cell_angle_beta   90.00000000
_cell_angle_gamma   90.00000000
_symmetry_Int_Tables_number   1
_chemical_formula_structural   Cd3SiO5
_chemical_formula_sum   'Cd6 Si2 O10'
_cell_volume   233.23806655
_cell_formula_units_Z   2
loop_
 _symmetry_equiv_pos_site_id
 _symmetry_equiv_pos_as_xyz
  1  'x, y, z'
loop_
 _atom_site_type_symbol
 _atom_site_label
 _atom_site_symmetry_multiplicity
 _atom_site_fract_x
 _atom_site_fract_y
 _atom_site_fract_z
 _atom_site_occupancy
  Cd  Cd1  1  0.50000000  0.00000000  0.96889338  1
  Cd  Cd1  1  0.00000000  0.50000000  0.03110662  1
  Cd  Cd2  1  0.75000000  0.25000000  0.50000000  1
  Cd  Cd2  1  0.75000000  0.75000000  0.50000000  1
  Cd  Cd2  1  0.25000000  0.25000000  0.50000000  1
  Cd  Cd2  1  0.25000000  0.75000000  0.50000000  1
  Si  Si1  1  0.50000000  0.50000000  0.00000000  1
  Si  Si1  1  0.00000000  0.00000000  0.00000000  1
  O  O1  1  0.50000000  0.00000000  0.39519574  1
  O  O1  1  0.00000000  0.50000000  0.60480426  1
  O  O2  1  0.80932206  0.00000000  0.79978324  1
  O  O2  1  0.19067794  0.00000000  0.79978324  1
  O  O2  1  0.50000000  0.30932206  0.79978324  1
  O  O2  1  0.50000000  0.69067794  0.79978324  1
  O  O2  1  0.00000000  0.19067794  0.20021676  1
  O  O2  1  0.69067794  0.50000000  0.20021676  1
  O  O2  1  0.00000000  0.80932206  0.20021676  1
  O  O2  1  0.30932206  0.50000000  0.20021676  1
