# generated using pymatgen
data_CdAuO2
_symmetry_space_group_name_H-M   'P 1'
_cell_length_a   4.05186382
_cell_length_b   5.48222245
_cell_length_c   5.97560163
_cell_angle_alpha   64.10222677
_cell_angle_beta   74.08363928
_cell_angle_gamma   86.66006748
_symmetry_Int_Tables_number   1
_chemical_formula_structural   CdAuO2
_chemical_formula_sum   'Cd2 Au2 O4'
_cell_volume   114.53876485
_cell_formula_units_Z   2
loop_
 _symmetry_equiv_pos_site_id
 _symmetry_equiv_pos_as_xyz
  1  'x, y, z'
loop_
 _atom_site_type_symbol
 _atom_site_label
 _atom_site_symmetry_multiplicity
 _atom_site_fract_x
 _atom_site_fract_y
 _atom_site_fract_z
 _atom_site_occupancy
  Cd  Cd1  1  0.72762158  0.72903548  0.53441438  1
  Cd  Cd1  1  0.27237842  0.27096452  0.46558562  1
  Au  Au1  1  0.50000000  0.00000000  0.00000000  1
  Au  Au2  1  0.00000000  0.50000000  0.00000000  1
  O  O1  1  0.31745780  0.83824960  0.80985382  1
  O  O1  1  0.68254220  0.16175040  0.19014618  1
  O  O2  1  0.28241579  0.72082542  0.36019836  1
  O  O2  1  0.71758421  0.27917458  0.63980164  1
