# generated using pymatgen
data_CdBiO3
_symmetry_space_group_name_H-M   'P 1'
_cell_length_a   5.82343193
_cell_length_b   5.82343193
_cell_length_c   14.79998299
_cell_angle_alpha   90.00000000
_cell_angle_beta   90.00000000
_cell_angle_gamma   120.00000000
_symmetry_Int_Tables_number   1
_chemical_formula_structural   CdBiO3
_chemical_formula_sum   'Cd6 Bi6 O18'
_cell_volume   434.66017918
_cell_formula_units_Z   6
loop_
 _symmetry_equiv_pos_site_id
 _symmetry_equiv_pos_as_xyz
  1  'x, y, z'
loop_
 _atom_site_type_symbol
 _atom_site_label
 _atom_site_symmetry_multiplicity
 _atom_site_fract_x
 _atom_site_fract_y
 _atom_site_fract_z
 _atom_site_occupancy
  Cd  Cd1  1  0.33333333  0.66666667  0.30399249  1
  Cd  Cd2  1  0.33333333  0.66666667  0.03339807  1
  Bi  Bi1  1  0.66666667  0.33333333  0.19418978  1
  Bi  Bi2  1  0.00000000  0.00000000  0.14947553  1
  O  O1  1  0.01894158  0.28846488  0.24505690  1
  O  O1  1  0.71153512  0.73047669  0.24505690  1
  O  O1  1  0.26952331  0.98105842  0.24505690  1
  O  O2  1  0.35027704  0.30076282  0.08362337  1
  O  O2  1  0.95048578  0.64972296  0.08362337  1
  O  O2  1  0.69923718  0.04951422  0.08362337  1
  Cd  Cd1  1  0.00000000  0.00000000  0.63732582  1
  Cd  Cd2  1  0.00000000  0.00000000  0.36673140  1
  Bi  Bi1  1  0.33333333  0.66666667  0.52752311  1
  Bi  Bi2  1  0.66666667  0.33333333  0.48280886  1
  O  O1  1  0.68560824  0.62179822  0.57839024  1
  O  O1  1  0.37820178  0.06381003  0.57839024  1
  O  O1  1  0.93618997  0.31439176  0.57839024  1
  O  O2  1  0.01694371  0.63409616  0.41695670  1
  O  O2  1  0.61715245  0.98305629  0.41695670  1
  O  O2  1  0.36590384  0.38284755  0.41695670  1
  Cd  Cd1  1  0.66666667  0.33333333  0.97065916  1
  Cd  Cd2  1  0.66666667  0.33333333  0.70006473  1
  Bi  Bi1  1  0.00000000  0.00000000  0.86085644  1
  Bi  Bi2  1  0.33333333  0.66666667  0.81614219  1
  O  O1  1  0.35227491  0.95513155  0.91172357  1
  O  O1  1  0.04486845  0.39714336  0.91172357  1
  O  O1  1  0.60285664  0.64772509  0.91172357  1
  O  O2  1  0.68361038  0.96742949  0.75029003  1
  O  O2  1  0.28381911  0.31638962  0.75029003  1
  O  O2  1  0.03257051  0.71618089  0.75029003  1
