# generated using pymatgen
data_CdWO4
_symmetry_space_group_name_H-M   'P 1'
_cell_length_a   5.02920526
_cell_length_b   5.90109883
_cell_length_c   5.07359073
_cell_angle_alpha   90.00000000
_cell_angle_beta   91.26591347
_cell_angle_gamma   90.00000000
_symmetry_Int_Tables_number   1
_chemical_formula_structural   CdWO4
_chemical_formula_sum   'Cd2 W2 O8'
_cell_volume   150.53644990
_cell_formula_units_Z   2
loop_
 _symmetry_equiv_pos_site_id
 _symmetry_equiv_pos_as_xyz
  1  'x, y, z'
loop_
 _atom_site_type_symbol
 _atom_site_label
 _atom_site_symmetry_multiplicity
 _atom_site_fract_x
 _atom_site_fract_y
 _atom_site_fract_z
 _atom_site_occupancy
  Cd  Cd1  1  0.50000000  0.69013506  0.25000000  1
  Cd  Cd1  1  0.50000000  0.30986494  0.75000000  1
  W  W1  1  0.00000000  0.17527206  0.25000000  1
  W  W1  1  0.00000000  0.82472794  0.75000000  1
  O  O1  1  0.79904488  0.09569450  0.55440504  1
  O  O1  1  0.20095512  0.09569450  0.94559496  1
  O  O1  1  0.20095512  0.90430550  0.44559496  1
  O  O1  1  0.79904488  0.90430550  0.05440504  1
  O  O2  1  0.75560384  0.36922788  0.11653838  1
  O  O2  1  0.24439616  0.36922788  0.38346162  1
  O  O2  1  0.24439616  0.63077212  0.88346162  1
  O  O2  1  0.75560384  0.63077212  0.61653838  1
