data_image0
_chemical_formula_structural       OCo2O5Ti2
_chemical_formula_sum              "O6 Co2 Ti2"
_cell_length_a       5.12451
_cell_length_b       5.12452
_cell_length_c       5.53467
_cell_angle_alpha    62.4224
_cell_angle_beta     62.4226
_cell_angle_gamma    60.0001

_space_group_name_H-M_alt    "P 1"
_space_group_IT_number       1

loop_
  _space_group_symop_operation_xyz
  'x, y, z'

loop_
  _atom_site_type_symbol
  _atom_site_label
  _atom_site_symmetry_multiplicity
  _atom_site_fract_x
  _atom_site_fract_y
  _atom_site_fract_z
  _atom_site_occupancy
  O   O1        1.0  0.05007  0.43929  0.73850  1.0000
  Co  Co1       1.0  0.35617  0.35617  0.93148  1.0000
  Co  Co1       1.0  0.64383  0.64383  0.06852  1.0000
  O   O1        1.0  0.77213  0.05007  0.73850  1.0000
  O   O1        1.0  0.43929  0.77213  0.73851  1.0000
  O   O1        1.0  0.94993  0.56070  0.26150  1.0000
  O   O1        1.0  0.22787  0.94993  0.26150  1.0000
  O   O1        1.0  0.56071  0.22787  0.26150  1.0000
  Ti  Ti1       1.0  0.85397  0.85397  0.43809  1.0000
  Ti  Ti1       1.0  0.14603  0.14603  0.56192  1.0000
