# generated using pymatgen
data_CrCdO4
_symmetry_space_group_name_H-M   'P 1'
_cell_length_a   5.67796360
_cell_length_b   8.75344837
_cell_length_c   6.96886955
_cell_angle_alpha   90.00000000
_cell_angle_beta   90.00000000
_cell_angle_gamma   90.00000000
_symmetry_Int_Tables_number   1
_chemical_formula_structural   CrCdO4
_chemical_formula_sum   'Cr4 Cd4 O16'
_cell_volume   346.36509071
_cell_formula_units_Z   4
loop_
 _symmetry_equiv_pos_site_id
 _symmetry_equiv_pos_as_xyz
  1  'x, y, z'
loop_
 _atom_site_type_symbol
 _atom_site_label
 _atom_site_symmetry_multiplicity
 _atom_site_fract_x
 _atom_site_fract_y
 _atom_site_fract_z
 _atom_site_occupancy
  Cr  Cr1  1  0.00000000  0.35947792  0.25000000  1
  Cr  Cr1  1  0.00000000  0.64052208  0.75000000  1
  Cd  Cd1  1  0.00000000  0.00000000  0.50000000  1
  Cd  Cd1  1  0.00000000  0.00000000  0.00000000  1
  O  O1  1  0.24445088  0.53032208  0.75000000  1
  O  O1  1  0.75554912  0.46967792  0.25000000  1
  O  O1  1  0.24445088  0.46967792  0.25000000  1
  O  O1  1  0.75554912  0.53032208  0.75000000  1
  O  O2  1  0.00000000  0.74692322  0.94243735  1
  O  O2  1  0.00000000  0.25307678  0.44243735  1
  O  O2  1  0.00000000  0.25307678  0.05756265  1
  O  O2  1  0.00000000  0.74692322  0.55756265  1
  Cr  Cr1  1  0.50000000  0.85947792  0.25000000  1
  Cr  Cr1  1  0.50000000  0.14052208  0.75000000  1
  Cd  Cd1  1  0.50000000  0.50000000  0.50000000  1
  Cd  Cd1  1  0.50000000  0.50000000  0.00000000  1
  O  O1  1  0.74445088  0.03032208  0.75000000  1
  O  O1  1  0.25554912  0.96967792  0.25000000  1
  O  O1  1  0.74445088  0.96967792  0.25000000  1
  O  O1  1  0.25554912  0.03032208  0.75000000  1
  O  O2  1  0.50000000  0.24692322  0.94243735  1
  O  O2  1  0.50000000  0.75307678  0.44243735  1
  O  O2  1  0.50000000  0.75307678  0.05756265  1
  O  O2  1  0.50000000  0.24692322  0.55756265  1
