# generated using pymatgen
data_CrHgO4
_symmetry_space_group_name_H-M   'P 1'
_cell_length_a   5.73589920
_cell_length_b   8.85103972
_cell_length_c   7.13149801
_cell_angle_alpha   90.00000000
_cell_angle_beta   90.00000000
_cell_angle_gamma   90.00000000
_symmetry_Int_Tables_number   1
_chemical_formula_structural   CrHgO4
_chemical_formula_sum   'Cr4 Hg4 O16'
_cell_volume   362.05668104
_cell_formula_units_Z   4
loop_
 _symmetry_equiv_pos_site_id
 _symmetry_equiv_pos_as_xyz
  1  'x, y, z'
loop_
 _atom_site_type_symbol
 _atom_site_label
 _atom_site_symmetry_multiplicity
 _atom_site_fract_x
 _atom_site_fract_y
 _atom_site_fract_z
 _atom_site_occupancy
  Cr  Cr1  1  0.00000000  0.35908936  0.75000000  1
  Cr  Cr1  1  0.00000000  0.64091064  0.25000000  1
  Hg  Hg1  1  0.00000000  0.00000000  0.00000000  1
  Hg  Hg1  1  0.00000000  0.00000000  0.50000000  1
  O  O1  1  0.24200471  0.53142522  0.25000000  1
  O  O1  1  0.75799529  0.46857478  0.75000000  1
  O  O1  1  0.24200471  0.46857478  0.75000000  1
  O  O1  1  0.75799529  0.53142522  0.25000000  1
  O  O2  1  0.00000000  0.74620144  0.43868230  1
  O  O2  1  0.00000000  0.25379856  0.93868230  1
  O  O2  1  0.00000000  0.25379856  0.56131770  1
  O  O2  1  0.00000000  0.74620144  0.06131770  1
  Cr  Cr1  1  0.50000000  0.85908936  0.75000000  1
  Cr  Cr1  1  0.50000000  0.14091064  0.25000000  1
  Hg  Hg1  1  0.50000000  0.50000000  0.00000000  1
  Hg  Hg1  1  0.50000000  0.50000000  0.50000000  1
  O  O1  1  0.74200471  0.03142522  0.25000000  1
  O  O1  1  0.25799529  0.96857478  0.75000000  1
  O  O1  1  0.74200471  0.96857478  0.75000000  1
  O  O1  1  0.25799529  0.03142522  0.25000000  1
  O  O2  1  0.50000000  0.24620144  0.43868230  1
  O  O2  1  0.50000000  0.75379856  0.93868230  1
  O  O2  1  0.50000000  0.75379856  0.56131770  1
  O  O2  1  0.50000000  0.24620144  0.06131770  1
