# generated using pymatgen
data_CrPb2O5
_symmetry_space_group_name_H-M   'P 1'
_cell_length_a   13.83589559
_cell_length_b   5.63594792
_cell_length_c   7.08858551
_cell_angle_alpha   90.00000000
_cell_angle_beta   113.89419461
_cell_angle_gamma   90.00000000
_symmetry_Int_Tables_number   1
_chemical_formula_structural   CrPb2O5
_chemical_formula_sum   'Cr4 Pb8 O20'
_cell_volume   505.38247131
_cell_formula_units_Z   4
loop_
 _symmetry_equiv_pos_site_id
 _symmetry_equiv_pos_as_xyz
  1  'x, y, z'
loop_
 _atom_site_type_symbol
 _atom_site_label
 _atom_site_symmetry_multiplicity
 _atom_site_fract_x
 _atom_site_fract_y
 _atom_site_fract_z
 _atom_site_occupancy
  Cr  Cr1  1  0.32927731  0.50000000  0.83777240  1
  Cr  Cr1  1  0.17072269  0.00000000  0.16222760  1
  Pb  Pb1  1  0.01728478  0.50000000  0.76686242  1
  Pb  Pb1  1  0.48271522  0.00000000  0.23313758  1
  Pb  Pb2  1  0.35604862  0.50000000  0.39029212  1
  Pb  Pb2  1  0.14395138  0.00000000  0.60970788  1
  O  O1  1  0.00000000  0.25150170  0.50000000  1
  O  O1  1  0.00000000  0.74849830  0.50000000  1
  O  O2  1  0.14720631  0.23703150  0.27680180  1
  O  O2  1  0.35279369  0.73703150  0.72319820  1
  O  O2  1  0.35279369  0.26296850  0.72319820  1
  O  O2  1  0.14720631  0.76296850  0.27680180  1
  O  O3  1  0.09557403  0.00000000  0.90941096  1
  O  O3  1  0.40442597  0.50000000  0.09058904  1
  O  O4  1  0.20221421  0.50000000  0.79649992  1
  O  O4  1  0.29778579  0.00000000  0.20350008  1
  Cr  Cr1  1  0.82927731  0.00000000  0.83777240  1
  Cr  Cr1  1  0.67072269  0.50000000  0.16222760  1
  Pb  Pb1  1  0.51728478  0.00000000  0.76686242  1
  Pb  Pb1  1  0.98271522  0.50000000  0.23313758  1
  Pb  Pb2  1  0.85604862  0.00000000  0.39029212  1
  Pb  Pb2  1  0.64395138  0.50000000  0.60970788  1
  O  O1  1  0.50000000  0.75150170  0.50000000  1
  O  O1  1  0.50000000  0.24849830  0.50000000  1
  O  O2  1  0.64720631  0.73703150  0.27680180  1
  O  O2  1  0.85279369  0.23703150  0.72319820  1
  O  O2  1  0.85279369  0.76296850  0.72319820  1
  O  O2  1  0.64720631  0.26296850  0.27680180  1
  O  O3  1  0.59557403  0.50000000  0.90941096  1
  O  O3  1  0.90442597  0.00000000  0.09058904  1
  O  O4  1  0.70221421  0.00000000  0.79649992  1
  O  O4  1  0.79778579  0.50000000  0.20350008  1
