# generated using pymatgen
data_Cs2BeO2
_symmetry_space_group_name_H-M   'P 1'
_cell_length_a   8.16993850
_cell_length_b   6.02319092
_cell_length_c   11.79187610
_cell_angle_alpha   90.00000000
_cell_angle_beta   131.92329476
_cell_angle_gamma   90.00000000
_symmetry_Int_Tables_number   1
_chemical_formula_structural   Cs2BeO2
_chemical_formula_sum   'Cs8 Be4 O8'
_cell_volume   431.74228655
_cell_formula_units_Z   4
loop_
 _symmetry_equiv_pos_site_id
 _symmetry_equiv_pos_as_xyz
  1  'x, y, z'
loop_
 _atom_site_type_symbol
 _atom_site_label
 _atom_site_symmetry_multiplicity
 _atom_site_fract_x
 _atom_site_fract_y
 _atom_site_fract_z
 _atom_site_occupancy
  Cs  Cs1  1  0.88207765  0.95964100  0.77576994  1
  Cs  Cs2  1  0.30306107  0.59069512  0.12112286  1
  Cs  Cs2  1  0.69693893  0.09069512  0.37887714  1
  Cs  Cs1  1  0.11792235  0.45964100  0.72423006  1
  Cs  Cs1  1  0.88207765  0.54035900  0.27576994  1
  Cs  Cs2  1  0.30306107  0.90930488  0.62112286  1
  Cs  Cs2  1  0.69693893  0.40930488  0.87887714  1
  Cs  Cs1  1  0.11792235  0.04035900  0.22423006  1
  Be  Be1  1  0.59198463  0.55671192  0.47580208  1
  Be  Be1  1  0.40801537  0.05671192  0.02419792  1
  Be  Be1  1  0.59198463  0.94328808  0.97580208  1
  Be  Be1  1  0.40801537  0.44328808  0.52419792  1
  O  O1  1  0.66605304  0.41540160  0.61834610  1
  O  O2  1  0.27578454  0.12487200  0.06534992  1
  O  O2  1  0.72421546  0.62487200  0.43465008  1
  O  O1  1  0.33394696  0.91540160  0.88165390  1
  O  O1  1  0.66605304  0.08459840  0.11834610  1
  O  O2  1  0.27578454  0.37512800  0.56534992  1
  O  O2  1  0.72421546  0.87512800  0.93465008  1
  O  O1  1  0.33394696  0.58459840  0.38165390  1
