# generated using pymatgen
data_Cs2CrO4
_symmetry_space_group_name_H-M   'P 1'
_cell_length_a   8.38623867
_cell_length_b   6.22894517
_cell_length_c   11.13053738
_cell_angle_alpha   90.00000000
_cell_angle_beta   90.00000000
_cell_angle_gamma   90.00000000
_symmetry_Int_Tables_number   1
_chemical_formula_structural   Cs2CrO4
_chemical_formula_sum   'Cs8 Cr4 O16'
_cell_volume   581.43056553
_cell_formula_units_Z   4
loop_
 _symmetry_equiv_pos_site_id
 _symmetry_equiv_pos_as_xyz
  1  'x, y, z'
loop_
 _atom_site_type_symbol
 _atom_site_label
 _atom_site_symmetry_multiplicity
 _atom_site_fract_x
 _atom_site_fract_y
 _atom_site_fract_z
 _atom_site_occupancy
  Cs  Cs1  1  0.01578732  0.25000000  0.19402130  1
  Cs  Cs1  1  0.48421268  0.75000000  0.69402130  1
  Cs  Cs1  1  0.98421268  0.75000000  0.80597870  1
  Cs  Cs1  1  0.51578732  0.25000000  0.30597870  1
  Cs  Cs2  1  0.16793146  0.75000000  0.41127878  1
  Cs  Cs2  1  0.83206854  0.25000000  0.58872122  1
  Cs  Cs2  1  0.66793146  0.75000000  0.08872122  1
  Cs  Cs2  1  0.33206854  0.25000000  0.91127878  1
  Cr  Cr1  1  0.23472862  0.75000000  0.07932454  1
  Cr  Cr1  1  0.76527138  0.25000000  0.92067546  1
  Cr  Cr1  1  0.73472862  0.75000000  0.42067546  1
  Cr  Cr1  1  0.26527138  0.25000000  0.57932454  1
  O  O1  1  0.03742288  0.75000000  0.08723036  1
  O  O1  1  0.96257712  0.25000000  0.91276964  1
  O  O1  1  0.46257712  0.25000000  0.58723036  1
  O  O1  1  0.53742288  0.75000000  0.41276964  1
  O  O2  1  0.29182408  0.75000000  0.93610266  1
  O  O2  1  0.20817592  0.25000000  0.43610266  1
  O  O2  1  0.70817592  0.25000000  0.06389734  1
  O  O2  1  0.79182408  0.75000000  0.56389734  1
  O  O3  1  0.19396918  0.46859864  0.64578116  1
  O  O3  1  0.80603082  0.96859864  0.35421884  1
  O  O3  1  0.80603082  0.53140136  0.35421884  1
  O  O3  1  0.69396918  0.46859864  0.85421884  1
  O  O3  1  0.69396918  0.03140136  0.85421884  1
  O  O3  1  0.19396918  0.03140136  0.64578116  1
  O  O3  1  0.30603082  0.53140136  0.14578116  1
  O  O3  1  0.30603082  0.96859864  0.14578116  1
