# generated using pymatgen
data_Cs2HgO2
_symmetry_space_group_name_H-M   'P 1'
_cell_length_a   4.38679152
_cell_length_b   4.38679152
_cell_length_c   14.42243800
_cell_angle_alpha   90.00000000
_cell_angle_beta   90.00000000
_cell_angle_gamma   90.00000000
_symmetry_Int_Tables_number   1
_chemical_formula_structural   Cs2HgO2
_chemical_formula_sum   'Cs4 Hg2 O4'
_cell_volume   277.54452880
_cell_formula_units_Z   2
loop_
 _symmetry_equiv_pos_site_id
 _symmetry_equiv_pos_as_xyz
  1  'x, y, z'
loop_
 _atom_site_type_symbol
 _atom_site_label
 _atom_site_symmetry_multiplicity
 _atom_site_fract_x
 _atom_site_fract_y
 _atom_site_fract_z
 _atom_site_occupancy
  Cs  Cs1  1  0.00000000  0.00000000  0.66473623  1
  Cs  Cs1  1  0.50000000  0.50000000  0.83526377  1
  Hg  Hg1  1  0.00000000  0.00000000  0.00000000  1
  O  O1  1  0.00000000  0.00000000  0.86281152  1
  O  O1  1  0.50000000  0.50000000  0.63718848  1
  Cs  Cs1  1  0.50000000  0.50000000  0.16473623  1
  Cs  Cs1  1  0.00000000  0.00000000  0.33526377  1
  Hg  Hg1  1  0.50000000  0.50000000  0.50000000  1
  O  O1  1  0.50000000  0.50000000  0.36281152  1
  O  O1  1  0.00000000  0.00000000  0.13718848  1
