# generated using pymatgen
data_Cs2LiAsO4
_symmetry_space_group_name_H-M   'P 1'
_cell_length_a   5.96182729
_cell_length_b   12.18962879
_cell_length_c   8.15383165
_cell_angle_alpha   90.00000000
_cell_angle_beta   90.00000000
_cell_angle_gamma   90.00000000
_symmetry_Int_Tables_number   1
_chemical_formula_structural   Cs2LiAsO4
_chemical_formula_sum   'Cs8 Li4 As4 O16'
_cell_volume   592.55901714
_cell_formula_units_Z   4
loop_
 _symmetry_equiv_pos_site_id
 _symmetry_equiv_pos_as_xyz
  1  'x, y, z'
loop_
 _atom_site_type_symbol
 _atom_site_label
 _atom_site_symmetry_multiplicity
 _atom_site_fract_x
 _atom_site_fract_y
 _atom_site_fract_z
 _atom_site_occupancy
  Cs  Cs1  1  0.50000000  0.43529003  0.14748998  1
  Cs  Cs1  1  0.00000000  0.06470997  0.64748998  1
  Cs  Cs2  1  0.00000000  0.39578712  0.50276874  1
  Cs  Cs2  1  0.50000000  0.10421288  0.00276874  1
  Li  Li1  1  0.00000000  0.20590606  0.23140180  1
  Li  Li1  1  0.50000000  0.29409394  0.73140180  1
  As  As1  1  0.00000000  0.30466256  0.94551640  1
  As  As1  1  0.50000000  0.19533744  0.44551640  1
  O  O1  1  0.76489552  0.34459329  0.84013816  1
  O  O1  1  0.73510448  0.15540671  0.34013816  1
  O  O2  1  0.00000000  0.36308513  0.13826122  1
  O  O2  1  0.50000000  0.13691487  0.63826122  1
  O  O1  1  0.23510448  0.34459329  0.84013816  1
  O  O1  1  0.26489552  0.15540671  0.34013816  1
  O  O3  1  0.50000000  0.33444850  0.48578452  1
  O  O3  1  0.00000000  0.16555150  0.98578452  1
  Cs  Cs1  1  0.00000000  0.93529003  0.14748998  1
  Cs  Cs1  1  0.50000000  0.56470997  0.64748998  1
  Cs  Cs2  1  0.50000000  0.89578712  0.50276874  1
  Cs  Cs2  1  0.00000000  0.60421288  0.00276874  1
  Li  Li1  1  0.50000000  0.70590606  0.23140180  1
  Li  Li1  1  0.00000000  0.79409394  0.73140180  1
  As  As1  1  0.50000000  0.80466256  0.94551640  1
  As  As1  1  0.00000000  0.69533744  0.44551640  1
  O  O1  1  0.26489552  0.84459329  0.84013816  1
  O  O1  1  0.23510448  0.65540671  0.34013816  1
  O  O2  1  0.50000000  0.86308513  0.13826122  1
  O  O2  1  0.00000000  0.63691487  0.63826122  1
  O  O1  1  0.73510448  0.84459329  0.84013816  1
  O  O1  1  0.76489552  0.65540671  0.34013816  1
  O  O3  1  0.00000000  0.83444850  0.48578452  1
  O  O3  1  0.50000000  0.66555150  0.98578452  1
