# generated using pymatgen
data_Cs2Li2TiO4
_symmetry_space_group_name_H-M   'P 1'
_cell_length_a   5.79087056
_cell_length_b   5.88998450
_cell_length_c   9.27272356
_cell_angle_alpha   83.33603785
_cell_angle_beta   73.86782113
_cell_angle_gamma   86.31132866
_symmetry_Int_Tables_number   1
_chemical_formula_structural   Cs2Li2TiO4
_chemical_formula_sum   'Cs4 Li4 Ti2 O8'
_cell_volume   301.59803936
_cell_formula_units_Z   2
loop_
 _symmetry_equiv_pos_site_id
 _symmetry_equiv_pos_as_xyz
  1  'x, y, z'
loop_
 _atom_site_type_symbol
 _atom_site_label
 _atom_site_symmetry_multiplicity
 _atom_site_fract_x
 _atom_site_fract_y
 _atom_site_fract_z
 _atom_site_occupancy
  Cs  Cs1  1  0.46889059  0.85213947  0.71938330  1
  Cs  Cs1  1  0.53110941  0.14786053  0.28061670  1
  Cs  Cs2  1  0.78264983  0.72426688  0.01582064  1
  Cs  Cs2  1  0.21735017  0.27573312  0.98417936  1
  Li  Li1  1  0.92656443  0.18134308  0.44124028  1
  Li  Li1  1  0.07343557  0.81865692  0.55875972  1
  Li  Li2  1  0.69337214  0.58666086  0.42355002  1
  Li  Li2  1  0.30662786  0.41333914  0.57644998  1
  Ti  Ti1  1  0.14017501  0.68306868  0.28619074  1
  Ti  Ti1  1  0.85982499  0.31693132  0.71380926  1
  O  O1  1  0.02484025  0.57384237  0.71316510  1
  O  O1  1  0.97515975  0.42615763  0.28683490  1
  O  O2  1  0.89914191  0.86517697  0.40171832  1
  O  O2  1  0.10085809  0.13482303  0.59828168  1
  O  O3  1  0.26372933  0.79820743  0.09180962  1
  O  O3  1  0.73627067  0.20179257  0.90819038  1
  O  O4  1  0.37074565  0.63972691  0.39395756  1
  O  O4  1  0.62925435  0.36027309  0.60604244  1
