# generated using pymatgen
data_Cs2LiVO4
_symmetry_space_group_name_H-M   'P 1'
_cell_length_a   6.00803617
_cell_length_b   12.12358179
_cell_length_c   8.14532740
_cell_angle_alpha   90.00000000
_cell_angle_beta   90.00000000
_cell_angle_gamma   90.00000000
_symmetry_Int_Tables_number   1
_chemical_formula_structural   Cs2LiVO4
_chemical_formula_sum   'Cs8 Li4 V4 O16'
_cell_volume   593.29683366
_cell_formula_units_Z   4
loop_
 _symmetry_equiv_pos_site_id
 _symmetry_equiv_pos_as_xyz
  1  'x, y, z'
loop_
 _atom_site_type_symbol
 _atom_site_label
 _atom_site_symmetry_multiplicity
 _atom_site_fract_x
 _atom_site_fract_y
 _atom_site_fract_z
 _atom_site_occupancy
  Cs  Cs1  1  0.00000000  0.39351362  0.45713396  1
  Cs  Cs1  1  0.50000000  0.10648638  0.95713396  1
  Cs  Cs2  1  0.00000000  0.07044782  0.58939170  1
  Cs  Cs2  1  0.50000000  0.42955218  0.08939170  1
  Li  Li1  1  0.00000000  0.20355171  0.17625256  1
  Li  Li1  1  0.50000000  0.29644829  0.67625256  1
  V  V1  1  0.50000000  0.19842453  0.39538204  1
  V  V1  1  0.00000000  0.30157547  0.89538204  1
  O  O1  1  0.76392390  0.33942204  0.78891338  1
  O  O1  1  0.73607610  0.16057796  0.28891338  1
  O  O2  1  0.00000000  0.36241390  0.08693788  1
  O  O2  1  0.50000000  0.13758610  0.58693788  1
  O  O1  1  0.23607610  0.33942204  0.78891338  1
  O  O1  1  0.26392390  0.16057796  0.28891338  1
  O  O3  1  0.50000000  0.33830027  0.43807510  1
  O  O3  1  0.00000000  0.16169973  0.93807510  1
  Cs  Cs1  1  0.50000000  0.89351362  0.45713396  1
  Cs  Cs1  1  0.00000000  0.60648638  0.95713396  1
  Cs  Cs2  1  0.50000000  0.57044782  0.58939170  1
  Cs  Cs2  1  0.00000000  0.92955218  0.08939170  1
  Li  Li1  1  0.50000000  0.70355171  0.17625256  1
  Li  Li1  1  0.00000000  0.79644829  0.67625256  1
  V  V1  1  0.00000000  0.69842453  0.39538204  1
  V  V1  1  0.50000000  0.80157547  0.89538204  1
  O  O1  1  0.26392390  0.83942204  0.78891338  1
  O  O1  1  0.23607610  0.66057796  0.28891338  1
  O  O2  1  0.50000000  0.86241390  0.08693788  1
  O  O2  1  0.00000000  0.63758610  0.58693788  1
  O  O1  1  0.73607610  0.83942204  0.78891338  1
  O  O1  1  0.76392390  0.66057796  0.28891338  1
  O  O3  1  0.00000000  0.83830027  0.43807510  1
  O  O3  1  0.50000000  0.66169973  0.93807510  1
