# generated using pymatgen
data_Cs2Li3GaO4
_symmetry_space_group_name_H-M   'P 1'
_cell_length_a   5.01169780
_cell_length_b   9.96652943
_cell_length_c   11.71617602
_cell_angle_alpha   90.00000000
_cell_angle_beta   90.00000000
_cell_angle_gamma   90.00000000
_symmetry_Int_Tables_number   1
_chemical_formula_structural   Cs2Li3GaO4
_chemical_formula_sum   'Cs8 Li12 Ga4 O16'
_cell_volume   585.21401313
_cell_formula_units_Z   4
loop_
 _symmetry_equiv_pos_site_id
 _symmetry_equiv_pos_as_xyz
  1  'x, y, z'
loop_
 _atom_site_type_symbol
 _atom_site_label
 _atom_site_symmetry_multiplicity
 _atom_site_fract_x
 _atom_site_fract_y
 _atom_site_fract_z
 _atom_site_occupancy
  Cs  Cs1  1  0.23873234  0.37232858  0.50000000  1
  Cs  Cs1  1  0.76126766  0.62767142  0.50000000  1
  Cs  Cs1  1  0.26126766  0.87232858  0.50000000  1
  Cs  Cs1  1  0.73873234  0.12767142  0.50000000  1
  Li  Li1  1  0.00000000  0.74044373  0.25000000  1
  Li  Li1  1  0.00000000  0.74044373  0.75000000  1
  Li  Li1  1  0.00000000  0.25955627  0.25000000  1
  Li  Li2  1  0.00000000  0.50000000  0.25000000  1
  Li  Li1  1  0.00000000  0.25955627  0.75000000  1
  Li  Li2  1  0.00000000  0.50000000  0.75000000  1
  Ga  Ga1  1  0.50000000  0.50000000  0.75000000  1
  Ga  Ga1  1  0.50000000  0.50000000  0.25000000  1
  O  O1  1  0.26654778  0.38177574  0.17474788  1
  O  O1  1  0.73345222  0.38177574  0.32525212  1
  O  O1  1  0.26654778  0.61822426  0.67474788  1
  O  O1  1  0.73345222  0.38177574  0.67474788  1
  O  O1  1  0.73345222  0.61822426  0.82525212  1
  O  O1  1  0.26654778  0.38177574  0.82525212  1
  O  O1  1  0.26654778  0.61822426  0.32525212  1
  O  O1  1  0.73345222  0.61822426  0.17474788  1
  Cs  Cs1  1  0.73873234  0.87232858  0.00000000  1
  Cs  Cs1  1  0.26126766  0.12767142  0.00000000  1
  Cs  Cs1  1  0.76126766  0.37232858  0.00000000  1
  Cs  Cs1  1  0.23873234  0.62767142  0.00000000  1
  Li  Li1  1  0.50000000  0.24044373  0.75000000  1
  Li  Li1  1  0.50000000  0.24044373  0.25000000  1
  Li  Li1  1  0.50000000  0.75955627  0.75000000  1
  Li  Li2  1  0.50000000  0.00000000  0.75000000  1
  Li  Li1  1  0.50000000  0.75955627  0.25000000  1
  Li  Li2  1  0.50000000  0.00000000  0.25000000  1
  Ga  Ga1  1  0.00000000  0.00000000  0.25000000  1
  Ga  Ga1  1  0.00000000  0.00000000  0.75000000  1
  O  O1  1  0.76654778  0.88177574  0.67474788  1
  O  O1  1  0.23345222  0.88177574  0.82525212  1
  O  O1  1  0.76654778  0.11822426  0.17474788  1
  O  O1  1  0.23345222  0.88177574  0.17474788  1
  O  O1  1  0.23345222  0.11822426  0.32525212  1
  O  O1  1  0.76654778  0.88177574  0.32525212  1
  O  O1  1  0.76654778  0.11822426  0.82525212  1
  O  O1  1  0.23345222  0.11822426  0.67474788  1
