# generated using pymatgen
data_Cs2Pb2O3
_symmetry_space_group_name_H-M   'P 1'
_cell_length_a   9.05294947
_cell_length_b   9.05294947
_cell_length_c   9.05294947
_cell_angle_alpha   90.00000000
_cell_angle_beta   90.00000000
_cell_angle_gamma   90.00000000
_symmetry_Int_Tables_number   1
_chemical_formula_structural   Cs2Pb2O3
_chemical_formula_sum   'Cs8 Pb8 O12'
_cell_volume   741.94256811
_cell_formula_units_Z   4
loop_
 _symmetry_equiv_pos_site_id
 _symmetry_equiv_pos_as_xyz
  1  'x, y, z'
loop_
 _atom_site_type_symbol
 _atom_site_label
 _atom_site_symmetry_multiplicity
 _atom_site_fract_x
 _atom_site_fract_y
 _atom_site_fract_z
 _atom_site_occupancy
  Cs  Cs1  1  0.24063144  0.24063144  0.24063144  1
  Cs  Cs1  1  0.24063144  0.75936856  0.25936856  1
  Cs  Cs1  1  0.25936856  0.24063144  0.75936856  1
  Cs  Cs1  1  0.75936856  0.25936856  0.24063144  1
  Pb  Pb1  1  0.00891984  0.00891984  0.00891984  1
  Pb  Pb1  1  0.00891984  0.99108016  0.49108016  1
  Pb  Pb1  1  0.49108016  0.00891984  0.99108016  1
  Pb  Pb1  1  0.99108016  0.49108016  0.00891984  1
  O  O1  1  0.50000000  0.75000000  0.48521744  1
  O  O1  1  0.50000000  0.25000000  0.01478256  1
  O  O1  1  0.75000000  0.48521744  0.50000000  1
  O  O1  1  0.25000000  0.01478256  0.50000000  1
  O  O1  1  0.48521744  0.50000000  0.75000000  1
  O  O1  1  0.01478256  0.50000000  0.25000000  1
  Cs  Cs1  1  0.74063144  0.74063144  0.74063144  1
  Cs  Cs1  1  0.74063144  0.25936856  0.75936856  1
  Cs  Cs1  1  0.75936856  0.74063144  0.25936856  1
  Cs  Cs1  1  0.25936856  0.75936856  0.74063144  1
  Pb  Pb1  1  0.50891984  0.50891984  0.50891984  1
  Pb  Pb1  1  0.50891984  0.49108016  0.99108016  1
  Pb  Pb1  1  0.99108016  0.50891984  0.49108016  1
  Pb  Pb1  1  0.49108016  0.99108016  0.50891984  1
  O  O1  1  0.00000000  0.25000000  0.98521744  1
  O  O1  1  0.00000000  0.75000000  0.51478256  1
  O  O1  1  0.25000000  0.98521744  0.00000000  1
  O  O1  1  0.75000000  0.51478256  0.00000000  1
  O  O1  1  0.98521744  0.00000000  0.25000000  1
  O  O1  1  0.51478256  0.00000000  0.75000000  1
