# generated using pymatgen
data_Cs2PbO2
_symmetry_space_group_name_H-M   'P 1'
_cell_length_a   7.81506043
_cell_length_b   8.04974407
_cell_length_c   10.85237331
_cell_angle_alpha   84.03497024
_cell_angle_beta   70.05063959
_cell_angle_gamma   61.13841988
_symmetry_Int_Tables_number   1
_chemical_formula_structural   Cs2PbO2
_chemical_formula_sum   'Cs8 Pb4 O8'
_cell_volume   560.50202517
_cell_formula_units_Z   4
loop_
 _symmetry_equiv_pos_site_id
 _symmetry_equiv_pos_as_xyz
  1  'x, y, z'
loop_
 _atom_site_type_symbol
 _atom_site_label
 _atom_site_symmetry_multiplicity
 _atom_site_fract_x
 _atom_site_fract_y
 _atom_site_fract_z
 _atom_site_occupancy
  Cs  Cs1  1  0.24650194  0.25510031  0.49691736  1
  Cs  Cs2  1  0.06421150  0.94158449  0.18273290  1
  Cs  Cs3  1  0.93550324  0.55154389  0.82601486  1
  Cs  Cs2  1  0.93578850  0.05841551  0.81726710  1
  Cs  Cs4  1  0.60106191  0.43260001  0.14101710  1
  Cs  Cs3  1  0.06449676  0.44845611  0.17398514  1
  Cs  Cs4  1  0.39893809  0.56739999  0.85898290  1
  Cs  Cs1  1  0.75349806  0.74489969  0.50308264  1
  Pb  Pb1  1  0.59431196  0.94247359  0.12321324  1
  Pb  Pb2  1  0.30850194  0.69757067  0.47056358  1
  Pb  Pb2  1  0.69149806  0.30242933  0.52943642  1
  Pb  Pb1  1  0.40568804  0.05752641  0.87678676  1
  O  O1  1  0.49160921  0.81368014  0.00873158  1
  O  O2  1  0.79867666  0.41500687  0.64111410  1
  O  O3  1  0.92269724  0.78957390  0.02371622  1
  O  O1  1  0.50839079  0.18631986  0.99126842  1
  O  O3  1  0.07730276  0.21042610  0.97628378  1
  O  O2  1  0.20132334  0.58499313  0.35888590  1
  O  O4  1  0.65318111  0.51401888  0.37589194  1
  O  O4  1  0.34681889  0.48598112  0.62410806  1
