# generated using pymatgen
data_Cs2PbO3
_symmetry_space_group_name_H-M   'P 1'
_cell_length_a   11.33388246
_cell_length_b   7.73401461
_cell_length_c   6.09999284
_cell_angle_alpha   90.00000000
_cell_angle_beta   90.00000000
_cell_angle_gamma   90.00000000
_symmetry_Int_Tables_number   1
_chemical_formula_structural   Cs2PbO3
_chemical_formula_sum   'Cs8 Pb4 O12'
_cell_volume   534.70348831
_cell_formula_units_Z   4
loop_
 _symmetry_equiv_pos_site_id
 _symmetry_equiv_pos_as_xyz
  1  'x, y, z'
loop_
 _atom_site_type_symbol
 _atom_site_label
 _atom_site_symmetry_multiplicity
 _atom_site_fract_x
 _atom_site_fract_y
 _atom_site_fract_z
 _atom_site_occupancy
  Cs  Cs1  1  0.16239714  0.35515707  0.74473435  1
  Cs  Cs1  1  0.16239714  0.64484293  0.24473435  1
  Cs  Cs1  1  0.83760286  0.64484293  0.24473435  1
  Cs  Cs1  1  0.83760286  0.35515707  0.74473435  1
  Pb  Pb1  1  0.00000000  0.08990403  0.26565738  1
  Pb  Pb1  1  0.00000000  0.91009597  0.76565738  1
  O  O1  1  0.00000000  0.35496496  0.30991481  1
  O  O1  1  0.00000000  0.64503504  0.80991481  1
  O  O2  1  0.62621798  0.51306599  0.00897955  1
  O  O2  1  0.37378202  0.48693401  0.50897955  1
  O  O2  1  0.37378202  0.51306599  0.00897955  1
  O  O2  1  0.62621798  0.48693401  0.50897955  1
  Cs  Cs1  1  0.66239714  0.85515707  0.74473435  1
  Cs  Cs1  1  0.66239714  0.14484293  0.24473435  1
  Cs  Cs1  1  0.33760286  0.14484293  0.24473435  1
  Cs  Cs1  1  0.33760286  0.85515707  0.74473435  1
  Pb  Pb1  1  0.50000000  0.58990403  0.26565738  1
  Pb  Pb1  1  0.50000000  0.41009597  0.76565738  1
  O  O1  1  0.50000000  0.85496496  0.30991481  1
  O  O1  1  0.50000000  0.14503504  0.80991481  1
  O  O2  1  0.12621798  0.01306599  0.00897955  1
  O  O2  1  0.87378202  0.98693401  0.50897955  1
  O  O2  1  0.87378202  0.01306599  0.00897955  1
  O  O2  1  0.12621798  0.98693401  0.50897955  1
