# generated using pymatgen
data_Cs2Sn(GeO3)3
_symmetry_space_group_name_H-M   'P 1'
_cell_length_a   7.32379455
_cell_length_b   7.32379455
_cell_length_c   10.58652482
_cell_angle_alpha   90.00000000
_cell_angle_beta   90.00000000
_cell_angle_gamma   120.00000000
_symmetry_Int_Tables_number   1
_chemical_formula_structural   Cs2Sn(GeO3)3
_chemical_formula_sum   'Cs4 Sn2 Ge6 O18'
_cell_volume   491.76357434
_cell_formula_units_Z   2
loop_
 _symmetry_equiv_pos_site_id
 _symmetry_equiv_pos_as_xyz
  1  'x, y, z'
loop_
 _atom_site_type_symbol
 _atom_site_label
 _atom_site_symmetry_multiplicity
 _atom_site_fract_x
 _atom_site_fract_y
 _atom_site_fract_z
 _atom_site_occupancy
  Cs  Cs1  1  0.66666667  0.33333333  0.44248728  1
  Cs  Cs1  1  0.33333333  0.66666667  0.94248728  1
  Cs  Cs1  1  0.33333333  0.66666667  0.55751272  1
  Cs  Cs1  1  0.66666667  0.33333333  0.05751272  1
  Sn  Sn1  1  0.00000000  0.00000000  0.50000000  1
  Sn  Sn1  1  0.00000000  0.00000000  0.00000000  1
  Ge  Ge1  1  0.13716038  0.76509190  0.25000000  1
  Ge  Ge1  1  0.76509190  0.62793152  0.75000000  1
  Ge  Ge1  1  0.37206848  0.13716038  0.75000000  1
  Ge  Ge1  1  0.62793152  0.86283962  0.25000000  1
  Ge  Ge1  1  0.23490810  0.37206848  0.25000000  1
  Ge  Ge1  1  0.86283962  0.23490810  0.75000000  1
  O  O1  1  0.41942952  0.93045034  0.25000000  1
  O  O1  1  0.93045034  0.51102082  0.75000000  1
  O  O1  1  0.48897918  0.41942952  0.75000000  1
  O  O1  1  0.51102082  0.58057048  0.25000000  1
  O  O1  1  0.06954966  0.48897918  0.25000000  1
  O  O1  1  0.58057048  0.06954966  0.75000000  1
  O  O2  1  0.02179106  0.77656988  0.39304970  1
  O  O2  1  0.77656988  0.75477882  0.89304970  1
  O  O2  1  0.24522118  0.02179106  0.89304970  1
  O  O2  1  0.75477882  0.97820894  0.39304970  1
  O  O2  1  0.22343012  0.24522118  0.39304970  1
  O  O2  1  0.97820894  0.22343012  0.89304970  1
  O  O2  1  0.97820894  0.22343012  0.60695030  1
  O  O2  1  0.22343012  0.24522118  0.10695030  1
  O  O2  1  0.75477882  0.97820894  0.10695030  1
  O  O2  1  0.24522118  0.02179106  0.60695030  1
  O  O2  1  0.77656988  0.75477882  0.60695030  1
  O  O2  1  0.02179106  0.77656988  0.10695030  1
