# generated using pymatgen
data_Cs2SnO3
_symmetry_space_group_name_H-M   'P 1'
_cell_length_a   11.17599913
_cell_length_b   7.70831825
_cell_length_c   5.82916589
_cell_angle_alpha   90.00000000
_cell_angle_beta   90.00000000
_cell_angle_gamma   90.00000000
_symmetry_Int_Tables_number   1
_chemical_formula_structural   Cs2SnO3
_chemical_formula_sum   'Cs8 Sn4 O12'
_cell_volume   502.17190442
_cell_formula_units_Z   4
loop_
 _symmetry_equiv_pos_site_id
 _symmetry_equiv_pos_as_xyz
  1  'x, y, z'
loop_
 _atom_site_type_symbol
 _atom_site_label
 _atom_site_symmetry_multiplicity
 _atom_site_fract_x
 _atom_site_fract_y
 _atom_site_fract_z
 _atom_site_occupancy
  Cs  Cs1  1  0.16129770  0.35504488  0.75000000  1
  Cs  Cs1  1  0.16129770  0.64495512  0.25000000  1
  Cs  Cs1  1  0.83870230  0.64495512  0.25000000  1
  Cs  Cs1  1  0.83870230  0.35504488  0.75000000  1
  Sn  Sn1  1  0.00000000  0.08457491  0.25000000  1
  Sn  Sn1  1  0.00000000  0.91542509  0.75000000  1
  O  O1  1  0.37968734  0.50000000  0.00000000  1
  O  O1  1  0.37968734  0.50000000  0.50000000  1
  O  O2  1  0.00000000  0.66181379  0.75000000  1
  O  O2  1  0.00000000  0.33818621  0.25000000  1
  O  O1  1  0.62031266  0.50000000  0.00000000  1
  O  O1  1  0.62031266  0.50000000  0.50000000  1
  Cs  Cs1  1  0.66129770  0.85504488  0.75000000  1
  Cs  Cs1  1  0.66129770  0.14495512  0.25000000  1
  Cs  Cs1  1  0.33870230  0.14495512  0.25000000  1
  Cs  Cs1  1  0.33870230  0.85504488  0.75000000  1
  Sn  Sn1  1  0.50000000  0.58457491  0.25000000  1
  Sn  Sn1  1  0.50000000  0.41542509  0.75000000  1
  O  O1  1  0.87968734  0.00000000  0.00000000  1
  O  O1  1  0.87968734  0.00000000  0.50000000  1
  O  O2  1  0.50000000  0.16181379  0.75000000  1
  O  O2  1  0.50000000  0.83818621  0.25000000  1
  O  O1  1  0.12031266  0.00000000  0.00000000  1
  O  O1  1  0.12031266  0.00000000  0.50000000  1
