# generated using pymatgen
data_Cs2Ti(GeO3)3
_symmetry_space_group_name_H-M   'P 1'
_cell_length_a   7.21327903
_cell_length_b   7.21327903
_cell_length_c   10.50753696
_cell_angle_alpha   90.00000000
_cell_angle_beta   90.00000000
_cell_angle_gamma   120.00000000
_symmetry_Int_Tables_number   1
_chemical_formula_structural   Cs2Ti(GeO3)3
_chemical_formula_sum   'Cs4 Ti2 Ge6 O18'
_cell_volume   473.47496705
_cell_formula_units_Z   2
loop_
 _symmetry_equiv_pos_site_id
 _symmetry_equiv_pos_as_xyz
  1  'x, y, z'
loop_
 _atom_site_type_symbol
 _atom_site_label
 _atom_site_symmetry_multiplicity
 _atom_site_fract_x
 _atom_site_fract_y
 _atom_site_fract_z
 _atom_site_occupancy
  Cs  Cs1  1  0.66666667  0.33333333  0.05530340  1
  Cs  Cs1  1  0.33333333  0.66666667  0.55530340  1
  Cs  Cs1  1  0.33333333  0.66666667  0.94469660  1
  Cs  Cs1  1  0.66666667  0.33333333  0.44469660  1
  Ti  Ti1  1  0.00000000  0.00000000  0.00000000  1
  Ti  Ti1  1  0.00000000  0.00000000  0.50000000  1
  Ge  Ge1  1  0.36685574  0.13535036  0.75000000  1
  Ge  Ge1  1  0.86464964  0.23150538  0.75000000  1
  Ge  Ge1  1  0.76849462  0.63314426  0.75000000  1
  Ge  Ge1  1  0.13535036  0.76849462  0.25000000  1
  Ge  Ge1  1  0.23150538  0.36685574  0.25000000  1
  Ge  Ge1  1  0.63314426  0.86464964  0.25000000  1
  O  O1  1  0.02350310  0.78848024  0.10595597  1
  O  O1  1  0.78848024  0.76497714  0.60595597  1
  O  O1  1  0.23502286  0.02350310  0.60595597  1
  O  O1  1  0.76497714  0.97649690  0.10595597  1
  O  O1  1  0.21151976  0.23502286  0.10595597  1
  O  O1  1  0.97649690  0.21151976  0.60595597  1
  O  O1  1  0.97649690  0.21151976  0.89404403  1
  O  O1  1  0.21151976  0.23502286  0.39404403  1
  O  O1  1  0.76497714  0.97649690  0.39404403  1
  O  O1  1  0.23502286  0.02350310  0.89404403  1
  O  O1  1  0.78848024  0.76497714  0.89404403  1
  O  O1  1  0.02350310  0.78848024  0.39404403  1
  O  O2  1  0.42237444  0.93468996  0.25000000  1
  O  O2  1  0.93468996  0.51231552  0.75000000  1
  O  O2  1  0.48768448  0.42237444  0.75000000  1
  O  O2  1  0.51231552  0.57762556  0.25000000  1
  O  O2  1  0.06531004  0.48768448  0.25000000  1
  O  O2  1  0.57762556  0.06531004  0.75000000  1
