# generated using pymatgen
data_Cs2WO4
_symmetry_space_group_name_H-M   'P 1'
_cell_length_a   13.39899163
_cell_length_b   6.46472886
_cell_length_c   8.21279505
_cell_angle_alpha   90.00000000
_cell_angle_beta   115.97972766
_cell_angle_gamma   90.00000000
_symmetry_Int_Tables_number   1
_chemical_formula_structural   Cs2WO4
_chemical_formula_sum   'Cs8 W4 O16'
_cell_volume   639.51173048
_cell_formula_units_Z   4
loop_
 _symmetry_equiv_pos_site_id
 _symmetry_equiv_pos_as_xyz
  1  'x, y, z'
loop_
 _atom_site_type_symbol
 _atom_site_label
 _atom_site_symmetry_multiplicity
 _atom_site_fract_x
 _atom_site_fract_y
 _atom_site_fract_z
 _atom_site_occupancy
  Cs  Cs1  1  0.98603644  0.50000000  0.75864500  1
  Cs  Cs2  1  0.84297755  0.00000000  0.25645414  1
  Cs  Cs2  1  0.65702245  0.50000000  0.74354586  1
  Cs  Cs1  1  0.51396356  0.00000000  0.24135500  1
  W  W1  1  0.82706552  0.00000000  0.78053768  1
  W  W1  1  0.67293448  0.50000000  0.21946232  1
  O  O1  1  0.90726668  0.00000000  0.65329552  1
  O  O2  1  0.81945083  0.50000000  0.36611728  1
  O  O3  1  0.64154868  0.27269412  0.08026216  1
  O  O3  1  0.64154868  0.72730588  0.08026216  1
  O  O3  1  0.85845132  0.22730588  0.91973784  1
  O  O3  1  0.85845132  0.77269412  0.91973784  1
  O  O2  1  0.68054917  0.00000000  0.63388272  1
  O  O1  1  0.59273332  0.50000000  0.34670448  1
  Cs  Cs1  1  0.48603644  0.00000000  0.75864500  1
  Cs  Cs2  1  0.34297755  0.50000000  0.25645414  1
  Cs  Cs2  1  0.15702245  0.00000000  0.74354586  1
  Cs  Cs1  1  0.01396356  0.50000000  0.24135500  1
  W  W1  1  0.32706552  0.50000000  0.78053768  1
  W  W1  1  0.17293448  0.00000000  0.21946232  1
  O  O1  1  0.40726668  0.50000000  0.65329552  1
  O  O2  1  0.31945083  0.00000000  0.36611728  1
  O  O3  1  0.14154868  0.77269412  0.08026216  1
  O  O3  1  0.14154868  0.22730588  0.08026216  1
  O  O3  1  0.35845132  0.72730588  0.91973784  1
  O  O3  1  0.35845132  0.27269412  0.91973784  1
  O  O2  1  0.18054917  0.50000000  0.63388272  1
  O  O1  1  0.09273332  0.00000000  0.34670448  1
