# generated using pymatgen
data_Cs2Zr(SiO3)3
_symmetry_space_group_name_H-M   'P 1'
_cell_length_a   7.20877265
_cell_length_b   7.20877265
_cell_length_c   10.32546889
_cell_angle_alpha   90.00000000
_cell_angle_beta   90.00000000
_cell_angle_gamma   120.00000000
_symmetry_Int_Tables_number   1
_chemical_formula_structural   Cs2Zr(SiO3)3
_chemical_formula_sum   'Cs4 Zr2 Si6 O18'
_cell_volume   464.68972768
_cell_formula_units_Z   2
loop_
 _symmetry_equiv_pos_site_id
 _symmetry_equiv_pos_as_xyz
  1  'x, y, z'
loop_
 _atom_site_type_symbol
 _atom_site_label
 _atom_site_symmetry_multiplicity
 _atom_site_fract_x
 _atom_site_fract_y
 _atom_site_fract_z
 _atom_site_occupancy
  Cs  Cs1  1  0.66666667  0.33333333  0.06180712  1
  Cs  Cs1  1  0.33333333  0.66666667  0.56180712  1
  Cs  Cs1  1  0.33333333  0.66666667  0.93819288  1
  Cs  Cs1  1  0.66666667  0.33333333  0.43819288  1
  Zr  Zr1  1  0.00000000  0.00000000  0.00000000  1
  Zr  Zr1  1  0.00000000  0.00000000  0.50000000  1
  Si  Si1  1  0.85230496  0.24025594  0.75000000  1
  Si  Si1  1  0.24025594  0.38795098  0.25000000  1
  Si  Si1  1  0.61204902  0.85230496  0.25000000  1
  Si  Si1  1  0.38795098  0.14769504  0.75000000  1
  Si  Si1  1  0.75974406  0.61204902  0.75000000  1
  Si  Si1  1  0.14769504  0.75974406  0.25000000  1
  O  O1  1  0.05233196  0.79489660  0.11702559  1
  O  O1  1  0.79489660  0.74256464  0.61702559  1
  O  O1  1  0.25743536  0.05233196  0.61702559  1
  O  O1  1  0.74256464  0.94766804  0.11702559  1
  O  O1  1  0.20510340  0.25743536  0.11702559  1
  O  O1  1  0.94766804  0.20510340  0.61702559  1
  O  O1  1  0.94766804  0.20510340  0.88297441  1
  O  O1  1  0.20510340  0.25743536  0.38297441  1
  O  O1  1  0.74256464  0.94766804  0.38297441  1
  O  O1  1  0.25743536  0.05233196  0.88297441  1
  O  O1  1  0.79489660  0.74256464  0.88297441  1
  O  O1  1  0.05233196  0.79489660  0.38297441  1
  O  O2  1  0.41299578  0.90751080  0.25000000  1
  O  O2  1  0.90751080  0.49451502  0.75000000  1
  O  O2  1  0.50548498  0.41299578  0.75000000  1
  O  O2  1  0.49451502  0.58700422  0.25000000  1
  O  O2  1  0.09248920  0.50548498  0.25000000  1
  O  O2  1  0.58700422  0.09248920  0.75000000  1
