# generated using pymatgen
data_Cs2ZrO3
_symmetry_space_group_name_H-M   'P 1'
_cell_length_a   11.22598574
_cell_length_b   7.63089197
_cell_length_c   5.91383466
_cell_angle_alpha   90.00000000
_cell_angle_beta   90.00000000
_cell_angle_gamma   90.00000000
_symmetry_Int_Tables_number   1
_chemical_formula_structural   Cs2ZrO3
_chemical_formula_sum   'Cs8 Zr4 O12'
_cell_volume   506.60441444
_cell_formula_units_Z   4
loop_
 _symmetry_equiv_pos_site_id
 _symmetry_equiv_pos_as_xyz
  1  'x, y, z'
loop_
 _atom_site_type_symbol
 _atom_site_label
 _atom_site_symmetry_multiplicity
 _atom_site_fract_x
 _atom_site_fract_y
 _atom_site_fract_z
 _atom_site_occupancy
  Cs  Cs1  1  0.83711934  0.35450892  0.75000000  1
  Cs  Cs1  1  0.16288066  0.64549108  0.25000000  1
  Cs  Cs1  1  0.83711934  0.64549108  0.25000000  1
  Cs  Cs1  1  0.16288066  0.35450892  0.75000000  1
  Zr  Zr1  1  0.00000000  0.91562224  0.75000000  1
  Zr  Zr1  1  0.00000000  0.08437776  0.25000000  1
  O  O1  1  0.00000000  0.33573280  0.25000000  1
  O  O1  1  0.00000000  0.66426720  0.75000000  1
  O  O2  1  0.38117108  0.50000000  0.50000000  1
  O  O2  1  0.38117108  0.50000000  0.00000000  1
  O  O2  1  0.61882892  0.50000000  0.50000000  1
  O  O2  1  0.61882892  0.50000000  0.00000000  1
  Cs  Cs1  1  0.33711934  0.85450892  0.75000000  1
  Cs  Cs1  1  0.66288066  0.14549108  0.25000000  1
  Cs  Cs1  1  0.33711934  0.14549108  0.25000000  1
  Cs  Cs1  1  0.66288066  0.85450892  0.75000000  1
  Zr  Zr1  1  0.50000000  0.41562224  0.75000000  1
  Zr  Zr1  1  0.50000000  0.58437776  0.25000000  1
  O  O1  1  0.50000000  0.83573280  0.25000000  1
  O  O1  1  0.50000000  0.16426720  0.75000000  1
  O  O2  1  0.88117108  0.00000000  0.50000000  1
  O  O2  1  0.88117108  0.00000000  0.00000000  1
  O  O2  1  0.11882892  0.00000000  0.50000000  1
  O  O2  1  0.11882892  0.00000000  0.00000000  1
