# generated using pymatgen
data_Cs3AlO3
_symmetry_space_group_name_H-M   'P 1'
_cell_length_a   7.79506964
_cell_length_b   12.82625362
_cell_length_c   7.08844987
_cell_angle_alpha   90.00000000
_cell_angle_beta   114.05008718
_cell_angle_gamma   90.00000000
_symmetry_Int_Tables_number   1
_chemical_formula_structural   Cs3AlO3
_chemical_formula_sum   'Cs12 Al4 O12'
_cell_volume   647.19033902
_cell_formula_units_Z   4
loop_
 _symmetry_equiv_pos_site_id
 _symmetry_equiv_pos_as_xyz
  1  'x, y, z'
loop_
 _atom_site_type_symbol
 _atom_site_label
 _atom_site_symmetry_multiplicity
 _atom_site_fract_x
 _atom_site_fract_y
 _atom_site_fract_z
 _atom_site_occupancy
  Cs  Cs1  1  0.07347132  0.30184238  0.86769508  1
  Cs  Cs2  1  0.47810898  0.65484664  0.55969052  1
  Cs  Cs1  1  0.92652868  0.69815762  0.13230492  1
  Cs  Cs2  1  0.52189102  0.15484664  0.94030948  1
  Cs  Cs1  1  0.92652868  0.80184238  0.63230492  1
  Cs  Cs3  1  0.72797414  0.44165700  0.01451072  1
  Cs  Cs1  1  0.07347132  0.19815762  0.36769508  1
  Cs  Cs2  1  0.52189102  0.34515336  0.44030948  1
  Cs  Cs3  1  0.27202586  0.94165700  0.48548928  1
  Cs  Cs3  1  0.72797414  0.05834300  0.51451072  1
  Cs  Cs3  1  0.27202586  0.55834300  0.98548928  1
  Cs  Cs2  1  0.47810898  0.84515336  0.05969052  1
  Al  Al1  1  0.85811694  0.54696374  0.51418474  1
  Al  Al1  1  0.14188306  0.45303626  0.48581526  1
  Al  Al1  1  0.85811694  0.95303626  0.01418474  1
  Al  Al1  1  0.14188306  0.04696374  0.98581526  1
  O  O1  1  0.32977576  0.10147131  0.20107002  1
  O  O2  1  0.08949284  0.58823411  0.52781320  1
  O  O2  1  0.08949284  0.91176589  0.02781320  1
  O  O3  1  0.83479342  0.93029295  0.24732882  1
  O  O1  1  0.67022424  0.89852869  0.79892998  1
  O  O1  1  0.67022424  0.60147131  0.29892998  1
  O  O1  1  0.32977576  0.39852869  0.70107002  1
  O  O2  1  0.91050716  0.08823411  0.97218680  1
  O  O3  1  0.16520658  0.43029295  0.25267118  1
  O  O3  1  0.83479342  0.56970705  0.74732882  1
  O  O2  1  0.91050716  0.41176589  0.47218680  1
  O  O3  1  0.16520658  0.06970705  0.75267118  1
