# generated using pymatgen
data_Cs3AlGe2O7
_symmetry_space_group_name_H-M   'P 1'
_cell_length_a   9.65087469
_cell_length_b   17.18972217
_cell_length_c   7.68283826
_cell_angle_alpha   90.00000000
_cell_angle_beta   126.87589478
_cell_angle_gamma   90.00000000
_symmetry_Int_Tables_number   1
_chemical_formula_structural   Cs3AlGe2O7
_chemical_formula_sum   'Cs12 Al4 Ge8 O28'
_cell_volume   1019.56076483
_cell_formula_units_Z   4
loop_
 _symmetry_equiv_pos_site_id
 _symmetry_equiv_pos_as_xyz
  1  'x, y, z'
loop_
 _atom_site_type_symbol
 _atom_site_label
 _atom_site_symmetry_multiplicity
 _atom_site_fract_x
 _atom_site_fract_y
 _atom_site_fract_z
 _atom_site_occupancy
  Cs  Cs1  1  0.21402718  0.80425516  0.23567026  1
  Cs  Cs2  1  0.50000000  0.51165322  0.25000000  1
  Cs  Cs1  1  0.71402718  0.69574484  0.73567026  1
  Cs  Cs2  1  0.00000000  0.98834678  0.75000000  1
  Cs  Cs1  1  0.78597282  0.80425516  0.26432974  1
  Cs  Cs1  1  0.28597282  0.69574484  0.76432974  1
  Al  Al1  1  0.50000000  0.94019657  0.25000000  1
  Al  Al1  1  0.00000000  0.55980343  0.75000000  1
  Ge  Ge1  1  0.83529404  0.59966345  0.25957616  1
  Ge  Ge1  1  0.16470596  0.59966345  0.24042384  1
  Ge  Ge1  1  0.33529404  0.90033655  0.75957616  1
  Ge  Ge1  1  0.66470596  0.90033655  0.74042384  1
  O  O1  1  0.33990518  0.99605829  0.23496162  1
  O  O1  1  0.83990518  0.50394171  0.73496162  1
  O  O2  1  0.10345976  0.62391522  0.97533304  1
  O  O1  1  0.66009482  0.99605829  0.26503838  1
  O  O3  1  0.86751540  0.86351774  0.94752812  1
  O  O2  1  0.39654024  0.87608478  0.02466696  1
  O  O3  1  0.36751540  0.63648226  0.44752812  1
  O  O2  1  0.60345976  0.87608478  0.47533304  1
  O  O4  1  0.50000000  0.85259101  0.75000000  1
  O  O1  1  0.16009482  0.50394171  0.76503838  1
  O  O3  1  0.13248460  0.86351774  0.55247188  1
  O  O4  1  0.00000000  0.64740899  0.25000000  1
  O  O3  1  0.63248460  0.63648226  0.05247188  1
  O  O2  1  0.89654024  0.62391522  0.52466696  1
  Cs  Cs1  1  0.71402718  0.30425516  0.23567026  1
  Cs  Cs2  1  0.00000000  0.01165322  0.25000000  1
  Cs  Cs1  1  0.21402718  0.19574484  0.73567026  1
  Cs  Cs2  1  0.50000000  0.48834678  0.75000000  1
  Cs  Cs1  1  0.28597282  0.30425516  0.26432974  1
  Cs  Cs1  1  0.78597282  0.19574484  0.76432974  1
  Al  Al1  1  0.00000000  0.44019657  0.25000000  1
  Al  Al1  1  0.50000000  0.05980343  0.75000000  1
  Ge  Ge1  1  0.33529404  0.09966345  0.25957616  1
  Ge  Ge1  1  0.66470596  0.09966345  0.24042384  1
  Ge  Ge1  1  0.83529404  0.40033655  0.75957616  1
  Ge  Ge1  1  0.16470596  0.40033655  0.74042384  1
  O  O1  1  0.83990518  0.49605829  0.23496162  1
  O  O1  1  0.33990518  0.00394171  0.73496162  1
  O  O2  1  0.60345976  0.12391522  0.97533304  1
  O  O1  1  0.16009482  0.49605829  0.26503838  1
  O  O3  1  0.36751540  0.36351774  0.94752812  1
  O  O2  1  0.89654024  0.37608478  0.02466696  1
  O  O3  1  0.86751540  0.13648226  0.44752812  1
  O  O2  1  0.10345976  0.37608478  0.47533304  1
  O  O4  1  0.00000000  0.35259101  0.75000000  1
  O  O1  1  0.66009482  0.00394171  0.76503838  1
  O  O3  1  0.63248460  0.36351774  0.55247188  1
  O  O4  1  0.50000000  0.14740899  0.25000000  1
  O  O3  1  0.13248460  0.13648226  0.05247188  1
  O  O2  1  0.39654024  0.12391522  0.52466696  1
