# generated using pymatgen
data_Cs3As5O9
_symmetry_space_group_name_H-M   'P 1'
_cell_length_a   8.46393272
_cell_length_b   8.46393272
_cell_length_c   6.07582992
_cell_angle_alpha   90.00000000
_cell_angle_beta   90.00000000
_cell_angle_gamma   120.00000000
_symmetry_Int_Tables_number   1
_chemical_formula_structural   Cs3As5O9
_chemical_formula_sum   'Cs3 As5 O9'
_cell_volume   376.94730758
_cell_formula_units_Z   1
loop_
 _symmetry_equiv_pos_site_id
 _symmetry_equiv_pos_as_xyz
  1  'x, y, z'
loop_
 _atom_site_type_symbol
 _atom_site_label
 _atom_site_symmetry_multiplicity
 _atom_site_fract_x
 _atom_site_fract_y
 _atom_site_fract_z
 _atom_site_occupancy
  Cs  Cs1  1  0.37454330  0.37454330  0.00065961  1
  Cs  Cs1  1  0.62545670  0.00000000  0.00065961  1
  Cs  Cs1  1  0.00000000  0.62545670  0.00065961  1
  As  As1  1  0.66666667  0.33333333  0.53058528  1
  As  As1  1  0.33333333  0.66666667  0.53058528  1
  As  As2  1  0.74720546  0.74720546  0.50277009  1
  As  As2  1  0.25279454  0.00000000  0.50277009  1
  As  As2  1  0.00000000  0.25279454  0.50277009  1
  O  O1  1  0.81074340  0.27444044  0.37218457  1
  O  O1  1  0.46369704  0.18925660  0.37218457  1
  O  O1  1  0.72555956  0.53630296  0.37218457  1
  O  O1  1  0.27444044  0.81074340  0.37218457  1
  O  O1  1  0.18925660  0.46369704  0.37218457  1
  O  O1  1  0.53630296  0.72555956  0.37218457  1
  O  O2  1  0.68154092  0.68154092  0.76777764  1
  O  O2  1  0.31845908  0.00000000  0.76777764  1
  O  O2  1  0.00000000  0.31845908  0.76777764  1
