# generated using pymatgen
data_Cs3BiO3
_symmetry_space_group_name_H-M   'P 1'
_cell_length_a   9.18540642
_cell_length_b   9.18540642
_cell_length_c   9.18540642
_cell_angle_alpha   90.00000000
_cell_angle_beta   90.00000000
_cell_angle_gamma   90.00000000
_symmetry_Int_Tables_number   1
_chemical_formula_structural   Cs3BiO3
_chemical_formula_sum   'Cs12 Bi4 O12'
_cell_volume   774.98827310
_cell_formula_units_Z   4
loop_
 _symmetry_equiv_pos_site_id
 _symmetry_equiv_pos_as_xyz
  1  'x, y, z'
loop_
 _atom_site_type_symbol
 _atom_site_label
 _atom_site_symmetry_multiplicity
 _atom_site_fract_x
 _atom_site_fract_y
 _atom_site_fract_z
 _atom_site_occupancy
  Cs  Cs1  1  0.72165306  0.72165306  0.72165306  1
  Cs  Cs1  1  0.22165306  0.77834694  0.27834694  1
  Cs  Cs1  1  0.77834694  0.27834694  0.22165306  1
  Cs  Cs1  1  0.27834694  0.22165306  0.77834694  1
  Cs  Cs2  1  0.71805588  0.28194412  0.78194412  1
  Cs  Cs2  1  0.21805588  0.21805588  0.21805588  1
  Cs  Cs3  1  0.01774770  0.48225230  0.51774770  1
  Cs  Cs3  1  0.51774770  0.01774770  0.48225230  1
  Cs  Cs3  1  0.48225230  0.51774770  0.01774770  1
  Cs  Cs3  1  0.98225230  0.98225230  0.98225230  1
  Cs  Cs2  1  0.78194412  0.71805588  0.28194412  1
  Cs  Cs2  1  0.28194412  0.78194412  0.71805588  1
  Bi  Bi1  1  0.50801824  0.99198176  0.00801824  1
  Bi  Bi1  1  0.00801824  0.50801824  0.99198176  1
  Bi  Bi1  1  0.99198176  0.00801824  0.50801824  1
  Bi  Bi1  1  0.49198176  0.49198176  0.49198176  1
  O  O1  1  0.04635950  0.50420400  0.21522838  1
  O  O1  1  0.45364050  0.49579600  0.71522838  1
  O  O1  1  0.95364050  0.00420400  0.28477162  1
  O  O1  1  0.71522838  0.45364050  0.49579600  1
  O  O1  1  0.21522838  0.04635950  0.50420400  1
  O  O1  1  0.50420400  0.21522838  0.04635950  1
  O  O1  1  0.28477162  0.95364050  0.00420400  1
  O  O1  1  0.78477162  0.54635950  0.99579600  1
  O  O1  1  0.99579600  0.78477162  0.54635950  1
  O  O1  1  0.54635950  0.99579600  0.78477162  1
  O  O1  1  0.00420400  0.28477162  0.95364050  1
  O  O1  1  0.49579600  0.71522838  0.45364050  1
