# generated using pymatgen
data_Cs3GaO3
_symmetry_space_group_name_H-M   'P 1'
_cell_length_a   8.04442048
_cell_length_b   7.03563511
_cell_length_c   11.26304675
_cell_angle_alpha   90.00000000
_cell_angle_beta   96.49854847
_cell_angle_gamma   90.00000000
_symmetry_Int_Tables_number   1
_chemical_formula_structural   Cs3GaO3
_chemical_formula_sum   'Cs12 Ga4 O12'
_cell_volume   633.36562856
_cell_formula_units_Z   4
loop_
 _symmetry_equiv_pos_site_id
 _symmetry_equiv_pos_as_xyz
  1  'x, y, z'
loop_
 _atom_site_type_symbol
 _atom_site_label
 _atom_site_symmetry_multiplicity
 _atom_site_fract_x
 _atom_site_fract_y
 _atom_site_fract_z
 _atom_site_occupancy
  Cs  Cs1  1  0.65674192  0.33270422  0.06893927  1
  Cs  Cs2  1  0.04094072  0.62311072  0.15504018  1
  Cs  Cs3  1  0.62789000  0.82496686  0.19813564  1
  Cs  Cs3  1  0.37211000  0.32496686  0.30186436  1
  Cs  Cs2  1  0.95905928  0.12311072  0.34495982  1
  Cs  Cs1  1  0.34325808  0.83270422  0.43106073  1
  Cs  Cs1  1  0.65674192  0.16729578  0.56893927  1
  Cs  Cs2  1  0.04094072  0.87688928  0.65504018  1
  Cs  Cs3  1  0.62789000  0.67503314  0.69813564  1
  Cs  Cs3  1  0.37211000  0.17503314  0.80186436  1
  Cs  Cs2  1  0.95905928  0.37688928  0.84495982  1
  Cs  Cs1  1  0.34325808  0.66729578  0.93106073  1
  Ga  Ga1  1  0.14921818  0.07501652  0.06301608  1
  Ga  Ga1  1  0.85078182  0.57501652  0.43698392  1
  Ga  Ga1  1  0.14921818  0.42498348  0.56301608  1
  Ga  Ga1  1  0.85078182  0.92498348  0.93698392  1
  O  O1  1  0.23767630  0.31206722  0.03708434  1
  O  O2  1  0.91172224  0.06158826  0.08524903  1
  O  O3  1  0.27853228  0.94270134  0.18102528  1
  O  O3  1  0.72146772  0.44270134  0.31897472  1
  O  O2  1  0.08827776  0.56158826  0.41475097  1
  O  O1  1  0.76232370  0.81206722  0.46291566  1
  O  O1  1  0.23767630  0.18793278  0.53708434  1
  O  O2  1  0.91172224  0.43841174  0.58524903  1
  O  O3  1  0.27853228  0.55729866  0.68102528  1
  O  O3  1  0.72146772  0.05729866  0.81897472  1
  O  O2  1  0.08827776  0.93841174  0.91475097  1
  O  O1  1  0.76232370  0.68793278  0.96291566  1
