# generated using pymatgen
data_Cs3InO3
_symmetry_space_group_name_H-M   'P 1'
_cell_length_a   8.10353143
_cell_length_b   7.32101981
_cell_length_c   11.77354585
_cell_angle_alpha   90.00000000
_cell_angle_beta   95.18763260
_cell_angle_gamma   90.00000000
_symmetry_Int_Tables_number   1
_chemical_formula_structural   Cs3InO3
_chemical_formula_sum   'Cs12 In4 O12'
_cell_volume   695.61771356
_cell_formula_units_Z   4
loop_
 _symmetry_equiv_pos_site_id
 _symmetry_equiv_pos_as_xyz
  1  'x, y, z'
loop_
 _atom_site_type_symbol
 _atom_site_label
 _atom_site_symmetry_multiplicity
 _atom_site_fract_x
 _atom_site_fract_y
 _atom_site_fract_z
 _atom_site_occupancy
  Cs  Cs1  1  0.35036808  0.83319934  0.42796675  1
  Cs  Cs2  1  0.62491788  0.81997478  0.19284769  1
  Cs  Cs2  1  0.37508212  0.31997478  0.30715231  1
  Cs  Cs2  1  0.62491788  0.68002522  0.69284769  1
  Cs  Cs3  1  0.04894582  0.62515400  0.15679779  1
  Cs  Cs1  1  0.64963192  0.16680066  0.57203325  1
  Cs  Cs3  1  0.04894582  0.87484600  0.65679779  1
  Cs  Cs2  1  0.37508212  0.18002522  0.80715231  1
  Cs  Cs1  1  0.35036808  0.66680066  0.92796675  1
  Cs  Cs3  1  0.95105418  0.37484600  0.84320221  1
  Cs  Cs3  1  0.95105418  0.12515400  0.34320221  1
  Cs  Cs1  1  0.64963192  0.33319934  0.07203325  1
  In  In1  1  0.15622832  0.41331814  0.56862602  1
  In  In1  1  0.15622832  0.08668186  0.06862602  1
  In  In1  1  0.84377168  0.58668186  0.43137398  1
  In  In1  1  0.84377168  0.91331814  0.93137398  1
  O  O1  1  0.29245808  0.94458522  0.19821230  1
  O  O2  1  0.24757048  0.15204846  0.54221507  1
  O  O3  1  0.89540514  0.44932924  0.59331883  1
  O  O2  1  0.24757048  0.34795154  0.04221507  1
  O  O1  1  0.29245808  0.55541478  0.69821230  1
  O  O3  1  0.10459486  0.55067076  0.40668117  1
  O  O1  1  0.70754192  0.05541478  0.80178770  1
  O  O1  1  0.70754192  0.44458522  0.30178770  1
  O  O2  1  0.75242952  0.84795154  0.45778493  1
  O  O2  1  0.75242952  0.65204846  0.95778493  1
  O  O3  1  0.89540514  0.05067076  0.09331883  1
  O  O3  1  0.10459486  0.94932924  0.90668117  1
