# generated using pymatgen
data_Cs3SbO3
_symmetry_space_group_name_H-M   'P 1'
_cell_length_a   9.11501680
_cell_length_b   9.11501680
_cell_length_c   9.11501680
_cell_angle_alpha   90.00000000
_cell_angle_beta   90.00000000
_cell_angle_gamma   90.00000000
_symmetry_Int_Tables_number   1
_chemical_formula_structural   Cs3SbO3
_chemical_formula_sum   'Cs12 Sb4 O12'
_cell_volume   757.30778452
_cell_formula_units_Z   4
loop_
 _symmetry_equiv_pos_site_id
 _symmetry_equiv_pos_as_xyz
  1  'x, y, z'
loop_
 _atom_site_type_symbol
 _atom_site_label
 _atom_site_symmetry_multiplicity
 _atom_site_fract_x
 _atom_site_fract_y
 _atom_site_fract_z
 _atom_site_occupancy
  Cs  Cs1  1  0.52724324  0.02724324  0.47275676  1
  Cs  Cs2  1  0.23355950  0.76644050  0.26644050  1
  Cs  Cs1  1  0.02724324  0.47275676  0.52724324  1
  Cs  Cs2  1  0.73355950  0.73355950  0.73355950  1
  Cs  Cs3  1  0.02318532  0.52318532  0.97681468  1
  Cs  Cs3  1  0.52318532  0.97681468  0.02318532  1
  Cs  Cs2  1  0.76644050  0.26644050  0.23355950  1
  Cs  Cs2  1  0.26644050  0.23355950  0.76644050  1
  Cs  Cs3  1  0.97681468  0.02318532  0.52318532  1
  Cs  Cs1  1  0.47275676  0.52724324  0.02724324  1
  Cs  Cs1  1  0.97275676  0.97275676  0.97275676  1
  Cs  Cs3  1  0.47681468  0.47681468  0.47681468  1
  Sb  Sb1  1  0.24716632  0.24716632  0.24716632  1
  Sb  Sb1  1  0.74716632  0.25283368  0.75283368  1
  Sb  Sb1  1  0.75283368  0.74716632  0.25283368  1
  Sb  Sb1  1  0.25283368  0.75283368  0.74716632  1
  O  O1  1  0.54104728  0.74485824  0.28869256  1
  O  O1  1  0.75514176  0.71130744  0.04104728  1
  O  O1  1  0.28869256  0.54104728  0.74485824  1
  O  O1  1  0.95895272  0.25514176  0.78869256  1
  O  O1  1  0.04104728  0.75514176  0.71130744  1
  O  O1  1  0.78869256  0.95895272  0.25514176  1
  O  O1  1  0.25514176  0.78869256  0.95895272  1
  O  O1  1  0.74485824  0.28869256  0.54104728  1
  O  O1  1  0.71130744  0.04104728  0.75514176  1
  O  O1  1  0.45895272  0.24485824  0.21130744  1
  O  O1  1  0.24485824  0.21130744  0.45895272  1
  O  O1  1  0.21130744  0.45895272  0.24485824  1
