# generated using pymatgen
data_Cs3ScO3
_symmetry_space_group_name_H-M   'P 1'
_cell_length_a   7.97456811
_cell_length_b   7.29154790
_cell_length_c   11.67490143
_cell_angle_alpha   90.00000000
_cell_angle_beta   95.90639650
_cell_angle_gamma   90.00000000
_symmetry_Int_Tables_number   1
_chemical_formula_structural   Cs3ScO3
_chemical_formula_sum   'Cs12 Sc4 O12'
_cell_volume   675.25601646
_cell_formula_units_Z   4
loop_
 _symmetry_equiv_pos_site_id
 _symmetry_equiv_pos_as_xyz
  1  'x, y, z'
loop_
 _atom_site_type_symbol
 _atom_site_label
 _atom_site_symmetry_multiplicity
 _atom_site_fract_x
 _atom_site_fract_y
 _atom_site_fract_z
 _atom_site_occupancy
  Cs  Cs1  1  0.65068396  0.33767658  0.07490699  1
  Cs  Cs2  1  0.05148980  0.62308116  0.15522898  1
  Cs  Cs3  1  0.62305868  0.82211404  0.19191599  1
  Cs  Cs3  1  0.37694132  0.32211404  0.30808401  1
  Cs  Cs2  1  0.94851020  0.12308116  0.34477102  1
  Cs  Cs1  1  0.34931604  0.83767658  0.42509301  1
  Cs  Cs1  1  0.65068396  0.16232342  0.57490699  1
  Cs  Cs2  1  0.05148980  0.87691884  0.65522898  1
  Cs  Cs3  1  0.62305868  0.67788596  0.69191599  1
  Cs  Cs3  1  0.37694132  0.17788596  0.80808401  1
  Cs  Cs2  1  0.94851020  0.37691884  0.84477102  1
  Cs  Cs1  1  0.34931604  0.66232342  0.92509301  1
  Sc  Sc1  1  0.15034476  0.08324904  0.06694064  1
  Sc  Sc1  1  0.84965524  0.58324904  0.43305936  1
  Sc  Sc1  1  0.15034476  0.41675096  0.56694064  1
  Sc  Sc1  1  0.84965524  0.91675096  0.93305936  1
  O  O1  1  0.23976046  0.33036948  0.04439595  1
  O  O2  1  0.89833554  0.05620674  0.08369205  1
  O  O3  1  0.28501372  0.95196378  0.18995851  1
  O  O3  1  0.71498628  0.45196378  0.31004149  1
  O  O2  1  0.10166446  0.55620674  0.41630795  1
  O  O1  1  0.76023954  0.83036948  0.45560405  1
  O  O1  1  0.23976046  0.16963052  0.54439595  1
  O  O2  1  0.89833554  0.44379326  0.58369205  1
  O  O3  1  0.28501372  0.54803622  0.68995851  1
  O  O3  1  0.71498628  0.04803622  0.81004149  1
  O  O2  1  0.10166446  0.94379326  0.91630795  1
  O  O1  1  0.76023954  0.66963052  0.95560405  1
