# generated using pymatgen
data_Cs3TlO3
_symmetry_space_group_name_H-M   'P 1'
_cell_length_a   8.14934789
_cell_length_b   7.33934488
_cell_length_c   11.85918338
_cell_angle_alpha   90.00000000
_cell_angle_beta   94.77723158
_cell_angle_gamma   90.00000000
_symmetry_Int_Tables_number   1
_chemical_formula_structural   Cs3TlO3
_chemical_formula_sum   'Cs12 Tl4 O12'
_cell_volume   706.84401814
_cell_formula_units_Z   4
loop_
 _symmetry_equiv_pos_site_id
 _symmetry_equiv_pos_as_xyz
  1  'x, y, z'
loop_
 _atom_site_type_symbol
 _atom_site_label
 _atom_site_symmetry_multiplicity
 _atom_site_fract_x
 _atom_site_fract_y
 _atom_site_fract_z
 _atom_site_occupancy
  Cs  Cs1  1  0.64993558  0.32855576  0.07131603  1
  Cs  Cs2  1  0.04860424  0.62918584  0.15721679  1
  Cs  Cs3  1  0.62545334  0.81782980  0.19245803  1
  Cs  Cs3  1  0.37454666  0.31782980  0.30754197  1
  Cs  Cs2  1  0.95139576  0.12918584  0.34278321  1
  Cs  Cs1  1  0.35006442  0.82855576  0.42868397  1
  Cs  Cs1  1  0.64993558  0.17144424  0.57131603  1
  Cs  Cs2  1  0.04860424  0.87081416  0.65721679  1
  Cs  Cs3  1  0.62545334  0.68217020  0.69245803  1
  Cs  Cs3  1  0.37454666  0.18217020  0.80754197  1
  Cs  Cs2  1  0.95139576  0.37081416  0.84278321  1
  Cs  Cs1  1  0.35006442  0.67144424  0.92868397  1
  Tl  Tl1  1  0.16177332  0.09099522  0.07033620  1
  Tl  Tl1  1  0.83822668  0.59099522  0.42966380  1
  Tl  Tl1  1  0.16177332  0.40900478  0.57033620  1
  Tl  Tl1  1  0.83822668  0.90900478  0.92966380  1
  O  O1  1  0.25353016  0.35679196  0.04056845  1
  O  O2  1  0.89425790  0.04310748  0.09775205  1
  O  O3  1  0.29423144  0.94202818  0.20225212  1
  O  O3  1  0.70576856  0.44202818  0.29774788  1
  O  O2  1  0.10574210  0.54310748  0.40224795  1
  O  O1  1  0.74646984  0.85679196  0.45943155  1
  O  O1  1  0.25353016  0.14320804  0.54056845  1
  O  O2  1  0.89425790  0.45689252  0.59775205  1
  O  O3  1  0.29423144  0.55797182  0.70225212  1
  O  O3  1  0.70576856  0.05797182  0.79774788  1
  O  O2  1  0.10574210  0.95689252  0.90224795  1
  O  O1  1  0.74646984  0.64320804  0.95943155  1
