# generated using pymatgen
data_Cs3YO3
_symmetry_space_group_name_H-M   'P 1'
_cell_length_a   8.02372590
_cell_length_b   7.50322131
_cell_length_c   12.12997982
_cell_angle_alpha   90.00000000
_cell_angle_beta   94.82653898
_cell_angle_gamma   90.00000000
_symmetry_Int_Tables_number   1
_chemical_formula_structural   Cs3YO3
_chemical_formula_sum   'Cs12 Y4 O12'
_cell_volume   727.68122592
_cell_formula_units_Z   4
loop_
 _symmetry_equiv_pos_site_id
 _symmetry_equiv_pos_as_xyz
  1  'x, y, z'
loop_
 _atom_site_type_symbol
 _atom_site_label
 _atom_site_symmetry_multiplicity
 _atom_site_fract_x
 _atom_site_fract_y
 _atom_site_fract_z
 _atom_site_occupancy
  Cs  Cs1  1  0.65051680  0.34532814  0.07571029  1
  Cs  Cs2  1  0.05975324  0.62663518  0.15966329  1
  Cs  Cs3  1  0.61631254  0.82273670  0.19040629  1
  Cs  Cs3  1  0.38368746  0.32273670  0.30959371  1
  Cs  Cs2  1  0.94024676  0.12663518  0.34033671  1
  Cs  Cs1  1  0.34948320  0.84532814  0.42428971  1
  Cs  Cs1  1  0.65051680  0.15467186  0.57571029  1
  Cs  Cs2  1  0.05975324  0.87336482  0.65966329  1
  Cs  Cs3  1  0.61631254  0.67726330  0.69040629  1
  Cs  Cs3  1  0.38368746  0.17726330  0.80959371  1
  Cs  Cs2  1  0.94024676  0.37336482  0.84033671  1
  Cs  Cs1  1  0.34948320  0.65467186  0.92428971  1
  Y  Y1  1  0.15465844  0.09267696  0.07195793  1
  Y  Y1  1  0.84534156  0.59267696  0.42804207  1
  Y  Y1  1  0.15465844  0.40732304  0.57195793  1
  Y  Y1  1  0.84534156  0.90732304  0.92804207  1
  O  O1  1  0.24586786  0.35436404  0.05586425  1
  O  O2  1  0.88626242  0.05086114  0.08456798  1
  O  O3  1  0.29005798  0.95659426  0.20114729  1
  O  O3  1  0.70994202  0.45659426  0.29885271  1
  O  O2  1  0.11373758  0.55086114  0.41543202  1
  O  O1  1  0.75413214  0.85436404  0.44413575  1
  O  O1  1  0.24586786  0.14563596  0.55586425  1
  O  O2  1  0.88626242  0.44913886  0.58456798  1
  O  O3  1  0.29005798  0.54340574  0.70114729  1
  O  O3  1  0.70994202  0.04340574  0.79885271  1
  O  O2  1  0.11373758  0.94913886  0.91543202  1
  O  O1  1  0.75413214  0.64563596  0.94413575  1
