# generated using pymatgen
data_Cs6Ge2O7
_symmetry_space_group_name_H-M   'P 1'
_cell_length_a   7.15336749
_cell_length_b   9.78599707
_cell_length_c   12.03681732
_cell_angle_alpha   90.00000000
_cell_angle_beta   125.12865677
_cell_angle_gamma   90.00000000
_symmetry_Int_Tables_number   1
_chemical_formula_structural   Cs6Ge2O7
_chemical_formula_sum   'Cs12 Ge4 O14'
_cell_volume   689.13979633
_cell_formula_units_Z   2
loop_
 _symmetry_equiv_pos_site_id
 _symmetry_equiv_pos_as_xyz
  1  'x, y, z'
loop_
 _atom_site_type_symbol
 _atom_site_label
 _atom_site_symmetry_multiplicity
 _atom_site_fract_x
 _atom_site_fract_y
 _atom_site_fract_z
 _atom_site_occupancy
  Cs  Cs1  1  0.60730600  0.28277712  0.22292458  1
  Cs  Cs2  1  0.96768904  0.14579558  0.58634888  1
  Cs  Cs3  1  0.20816242  0.02626112  0.95639186  1
  Cs  Cs3  1  0.79183758  0.52626112  0.54360814  1
  Cs  Cs1  1  0.39269400  0.78277712  0.27707542  1
  Cs  Cs2  1  0.03231096  0.64579558  0.91365112  1
  Cs  Cs2  1  0.96768904  0.35420442  0.08634888  1
  Cs  Cs1  1  0.60730600  0.21722288  0.72292458  1
  Cs  Cs3  1  0.20816242  0.47373888  0.45639186  1
  Cs  Cs3  1  0.79183758  0.97373888  0.04360814  1
  Cs  Cs2  1  0.03231096  0.85420442  0.41365112  1
  Cs  Cs1  1  0.39269400  0.71722288  0.77707542  1
  Ge  Ge1  1  0.32620833  0.36424478  0.87346594  1
  Ge  Ge1  1  0.67379167  0.86424478  0.62653406  1
  Ge  Ge1  1  0.32620833  0.13575522  0.37346594  1
  Ge  Ge1  1  0.67379167  0.63575522  0.12653406  1
  O  O1  1  0.50000000  0.50000000  0.00000000  1
  O  O2  1  0.73687101  0.58056044  0.28597638  1
  O  O3  1  0.49360113  0.78338204  0.06470782  1
  O  O4  1  0.92389440  0.84140752  0.62861458  1
  O  O4  1  0.07610560  0.34140752  0.87138542  1
  O  O3  1  0.50639887  0.28338204  0.43529218  1
  O  O2  1  0.26312899  0.08056044  0.21402362  1
  O  O1  1  0.50000000  0.00000000  0.50000000  1
  O  O2  1  0.73687101  0.91943956  0.78597638  1
  O  O3  1  0.49360113  0.71661796  0.56470782  1
  O  O4  1  0.92389440  0.65859248  0.12861458  1
  O  O4  1  0.07610560  0.15859248  0.37138542  1
  O  O3  1  0.50639887  0.21661796  0.93529218  1
  O  O2  1  0.26312899  0.41943956  0.71402362  1
