# generated using pymatgen
data_Cs6Si2O7
_symmetry_space_group_name_H-M   'P 1'
_cell_length_a   7.08835230
_cell_length_b   9.49776124
_cell_length_c   11.86825499
_cell_angle_alpha   90.00000000
_cell_angle_beta   126.18451148
_cell_angle_gamma   90.00000000
_symmetry_Int_Tables_number   1
_chemical_formula_structural   Cs6Si2O7
_chemical_formula_sum   'Cs12 Si4 O14'
_cell_volume   644.89867790
_cell_formula_units_Z   2
loop_
 _symmetry_equiv_pos_site_id
 _symmetry_equiv_pos_as_xyz
  1  'x, y, z'
loop_
 _atom_site_type_symbol
 _atom_site_label
 _atom_site_symmetry_multiplicity
 _atom_site_fract_x
 _atom_site_fract_y
 _atom_site_fract_z
 _atom_site_occupancy
  Cs  Cs1  1  0.51731194  0.85417920  0.90422394  1
  Cs  Cs1  1  0.51731194  0.64582080  0.40422394  1
  Cs  Cs1  1  0.48268806  0.14582080  0.09577606  1
  Cs  Cs2  1  0.70650881  0.47392940  0.95559500  1
  Cs  Cs2  1  0.29349119  0.97392940  0.54440500  1
  Cs  Cs2  1  0.29349119  0.52607060  0.04440500  1
  Cs  Cs2  1  0.70650881  0.02607060  0.45559500  1
  Cs  Cs3  1  0.88450679  0.77460694  0.77267122  1
  Cs  Cs3  1  0.11549321  0.27460694  0.72732878  1
  Cs  Cs3  1  0.11549321  0.22539306  0.22732878  1
  Cs  Cs3  1  0.88450679  0.72539306  0.27267122  1
  Cs  Cs1  1  0.48268806  0.35417920  0.59577606  1
  Si  Si1  1  0.83893700  0.12886830  0.87991956  1
  Si  Si1  1  0.83893700  0.37113170  0.37991956  1
  Si  Si1  1  0.16106300  0.87113170  0.12008044  1
  Si  Si1  1  0.16106300  0.62886830  0.62008044  1
  O  O1  1  0.99642363  0.77108374  0.56373840  1
  O  O2  1  0.00000000  0.50000000  0.50000000  1
  O  O2  1  0.00000000  0.00000000  0.00000000  1
  O  O3  1  0.77741191  0.42436820  0.22984284  1
  O  O1  1  0.00357637  0.27108374  0.93626160  1
  O  O1  1  0.00357637  0.22891626  0.43626160  1
  O  O1  1  0.99642363  0.72891626  0.06373840  1
  O  O4  1  0.60179819  0.15360354  0.87250630  1
  O  O4  1  0.39820181  0.65360354  0.62749370  1
  O  O4  1  0.39820181  0.84639646  0.12749370  1
  O  O4  1  0.60179819  0.34639646  0.37250630  1
  O  O3  1  0.77741191  0.07563180  0.72984284  1
  O  O3  1  0.22258809  0.57563180  0.77015716  1
  O  O3  1  0.22258809  0.92436820  0.27015716  1
