# generated using pymatgen
data_CsAgO2
_symmetry_space_group_name_H-M   'P 1'
_cell_length_a   5.07059604
_cell_length_b   12.49181330
_cell_length_c   5.95512364
_cell_angle_alpha   90.00000000
_cell_angle_beta   90.00000000
_cell_angle_gamma   90.00000000
_symmetry_Int_Tables_number   1
_chemical_formula_structural   CsAgO2
_chemical_formula_sum   'Cs4 Ag4 O8'
_cell_volume   377.20312347
_cell_formula_units_Z   4
loop_
 _symmetry_equiv_pos_site_id
 _symmetry_equiv_pos_as_xyz
  1  'x, y, z'
loop_
 _atom_site_type_symbol
 _atom_site_label
 _atom_site_symmetry_multiplicity
 _atom_site_fract_x
 _atom_site_fract_y
 _atom_site_fract_z
 _atom_site_occupancy
  Cs  Cs1  1  0.00000000  0.30475165  0.25000000  1
  Cs  Cs1  1  0.50000000  0.19524835  0.75000000  1
  Ag  Ag1  1  0.50000000  0.49749182  0.75000000  1
  Ag  Ag1  1  0.00000000  0.00250818  0.25000000  1
  O  O1  1  0.50000000  0.39373509  0.00504920  1
  O  O1  1  0.00000000  0.10626491  0.50504920  1
  O  O1  1  0.00000000  0.10626491  0.99495080  1
  O  O1  1  0.50000000  0.39373509  0.49495080  1
  Cs  Cs1  1  0.50000000  0.80475165  0.25000000  1
  Cs  Cs1  1  0.00000000  0.69524835  0.75000000  1
  Ag  Ag1  1  0.00000000  0.99749182  0.75000000  1
  Ag  Ag1  1  0.50000000  0.50250818  0.25000000  1
  O  O1  1  0.00000000  0.89373509  0.00504920  1
  O  O1  1  0.50000000  0.60626491  0.50504920  1
  O  O1  1  0.50000000  0.60626491  0.99495080  1
  O  O1  1  0.00000000  0.89373509  0.49495080  1
