# generated using pymatgen
data_CsAgO
_symmetry_space_group_name_H-M   'P 1'
_cell_length_a   10.13203555
_cell_length_b   10.13203555
_cell_length_c   6.14757171
_cell_angle_alpha   90.00000000
_cell_angle_beta   90.00000000
_cell_angle_gamma   90.00000000
_symmetry_Int_Tables_number   1
_chemical_formula_structural   CsAgO
_chemical_formula_sum   'Cs8 Ag8 O8'
_cell_volume   631.09830361
_cell_formula_units_Z   8
loop_
 _symmetry_equiv_pos_site_id
 _symmetry_equiv_pos_as_xyz
  1  'x, y, z'
loop_
 _atom_site_type_symbol
 _atom_site_label
 _atom_site_symmetry_multiplicity
 _atom_site_fract_x
 _atom_site_fract_y
 _atom_site_fract_z
 _atom_site_occupancy
  Cs  Cs1  1  0.19450310  0.50000000  0.00000000  1
  Cs  Cs1  1  0.00000000  0.30549690  0.50000000  1
  Cs  Cs1  1  0.80549690  0.50000000  0.00000000  1
  Cs  Cs1  1  0.00000000  0.69450310  0.50000000  1
  Ag  Ag1  1  0.35810064  0.35810064  0.50000000  1
  Ag  Ag1  1  0.14189936  0.14189936  0.00000000  1
  Ag  Ag1  1  0.64189936  0.35810064  0.50000000  1
  Ag  Ag1  1  0.85810064  0.14189936  0.00000000  1
  O  O1  1  0.78400218  0.50000000  0.50000000  1
  O  O1  1  0.00000000  0.71599782  0.00000000  1
  O  O1  1  0.00000000  0.28400218  0.00000000  1
  O  O1  1  0.21599782  0.50000000  0.50000000  1
  Cs  Cs1  1  0.69450310  0.00000000  0.50000000  1
  Cs  Cs1  1  0.50000000  0.80549690  0.00000000  1
  Cs  Cs1  1  0.30549690  0.00000000  0.50000000  1
  Cs  Cs1  1  0.50000000  0.19450310  0.00000000  1
  Ag  Ag1  1  0.85810064  0.85810064  0.00000000  1
  Ag  Ag1  1  0.64189936  0.64189936  0.50000000  1
  Ag  Ag1  1  0.14189936  0.85810064  0.00000000  1
  Ag  Ag1  1  0.35810064  0.64189936  0.50000000  1
  O  O1  1  0.28400218  0.00000000  0.00000000  1
  O  O1  1  0.50000000  0.21599782  0.50000000  1
  O  O1  1  0.50000000  0.78400218  0.50000000  1
  O  O1  1  0.71599782  0.00000000  0.00000000  1
