# generated using pymatgen
data_CsAlSiO4
_symmetry_space_group_name_H-M   'P 1'
_cell_length_a   8.95672844
_cell_length_b   9.40028630
_cell_length_c   5.41882732
_cell_angle_alpha   90.00000000
_cell_angle_beta   90.00000000
_cell_angle_gamma   90.00000000
_symmetry_Int_Tables_number   1
_chemical_formula_structural   CsAlSiO4
_chemical_formula_sum   'Cs4 Al4 Si4 O16'
_cell_volume   456.24256516
_cell_formula_units_Z   4
loop_
 _symmetry_equiv_pos_site_id
 _symmetry_equiv_pos_as_xyz
  1  'x, y, z'
loop_
 _atom_site_type_symbol
 _atom_site_label
 _atom_site_symmetry_multiplicity
 _atom_site_fract_x
 _atom_site_fract_y
 _atom_site_fract_z
 _atom_site_occupancy
  Cs  Cs1  1  0.00101372  0.29683158  0.48662687  1
  Cs  Cs1  1  0.99898628  0.70316842  0.98662687  1
  Cs  Cs1  1  0.49898628  0.79683158  0.98662687  1
  Cs  Cs1  1  0.50101372  0.20316842  0.48662687  1
  Al  Al1  1  0.81617652  0.08401080  0.99996877  1
  Al  Al1  1  0.18382348  0.91598920  0.49996877  1
  Al  Al1  1  0.68382348  0.58401080  0.49996877  1
  Al  Al1  1  0.31617652  0.41598920  0.99996877  1
  Si  Si1  1  0.69038796  0.41536456  0.00021732  1
  Si  Si1  1  0.30961204  0.58463544  0.50021732  1
  Si  Si1  1  0.80961204  0.91536456  0.50021732  1
  Si  Si1  1  0.19038796  0.08463544  0.00021732  1
  O  O1  1  0.50967412  0.41146434  0.00038251  1
  O  O1  1  0.49032588  0.58853566  0.50038251  1
  O  O1  1  0.99032588  0.91146434  0.50038251  1
  O  O1  1  0.00967412  0.08853566  0.00038251  1
  O  O2  1  0.75293802  0.47190350  0.73378801  1
  O  O2  1  0.24706198  0.52809650  0.23378801  1
  O  O2  1  0.74706198  0.97190350  0.23378801  1
  O  O2  1  0.25293802  0.02809650  0.73378801  1
  O  O3  1  0.75260070  0.52210412  0.21627912  1
  O  O3  1  0.24739930  0.47789588  0.71627912  1
  O  O3  1  0.74739930  0.02210412  0.71627912  1
  O  O3  1  0.25260070  0.97789588  0.21627912  1
  O  O4  1  0.75274840  0.25615974  0.05579987  1
  O  O4  1  0.24725160  0.74384026  0.55579987  1
  O  O4  1  0.74725160  0.75615974  0.55579987  1
  O  O4  1  0.25274840  0.24384026  0.05579987  1
