# generated using pymatgen
data_CsAuO
_symmetry_space_group_name_H-M   'P 1'
_cell_length_a   10.09134224
_cell_length_b   10.09134224
_cell_length_c   6.15620819
_cell_angle_alpha   90.00000000
_cell_angle_beta   90.00000000
_cell_angle_gamma   90.00000000
_symmetry_Int_Tables_number   1
_chemical_formula_structural   CsAuO
_chemical_formula_sum   'Cs8 Au8 O8'
_cell_volume   626.91862062
_cell_formula_units_Z   8
loop_
 _symmetry_equiv_pos_site_id
 _symmetry_equiv_pos_as_xyz
  1  'x, y, z'
loop_
 _atom_site_type_symbol
 _atom_site_label
 _atom_site_symmetry_multiplicity
 _atom_site_fract_x
 _atom_site_fract_y
 _atom_site_fract_z
 _atom_site_occupancy
  Cs  Cs1  1  0.00000000  0.70073844  0.50000000  1
  Cs  Cs1  1  0.79926156  0.50000000  0.00000000  1
  Cs  Cs1  1  0.20073844  0.50000000  0.00000000  1
  Cs  Cs1  1  0.00000000  0.29926156  0.50000000  1
  Au  Au1  1  0.64606334  0.35393666  0.50000000  1
  Au  Au1  1  0.14606334  0.14606334  0.00000000  1
  Au  Au1  1  0.35393666  0.35393666  0.50000000  1
  Au  Au1  1  0.85393666  0.14606334  0.00000000  1
  O  O1  1  0.00000000  0.71687706  0.00000000  1
  O  O1  1  0.78312294  0.50000000  0.50000000  1
  O  O1  1  0.21687706  0.50000000  0.50000000  1
  O  O1  1  0.00000000  0.28312294  0.00000000  1
  Cs  Cs1  1  0.50000000  0.20073844  0.00000000  1
  Cs  Cs1  1  0.29926156  0.00000000  0.50000000  1
  Cs  Cs1  1  0.70073844  0.00000000  0.50000000  1
  Cs  Cs1  1  0.50000000  0.79926156  0.00000000  1
  Au  Au1  1  0.14606334  0.85393666  0.00000000  1
  Au  Au1  1  0.64606334  0.64606334  0.50000000  1
  Au  Au1  1  0.85393666  0.85393666  0.00000000  1
  Au  Au1  1  0.35393666  0.64606334  0.50000000  1
  O  O1  1  0.50000000  0.21687706  0.50000000  1
  O  O1  1  0.28312294  0.00000000  0.00000000  1
  O  O1  1  0.71687706  0.00000000  0.00000000  1
  O  O1  1  0.50000000  0.78312294  0.50000000  1
