# generated using pymatgen
data_CsBeAsO4
_symmetry_space_group_name_H-M   'P 1'
_cell_length_a   9.41666997
_cell_length_b   8.85642716
_cell_length_c   5.15814770
_cell_angle_alpha   90.00000000
_cell_angle_beta   90.00000000
_cell_angle_gamma   90.00000000
_symmetry_Int_Tables_number   1
_chemical_formula_structural   CsBeAsO4
_chemical_formula_sum   'Cs4 Be4 As4 O16'
_cell_volume   430.17946826
_cell_formula_units_Z   4
loop_
 _symmetry_equiv_pos_site_id
 _symmetry_equiv_pos_as_xyz
  1  'x, y, z'
loop_
 _atom_site_type_symbol
 _atom_site_label
 _atom_site_symmetry_multiplicity
 _atom_site_fract_x
 _atom_site_fract_y
 _atom_site_fract_z
 _atom_site_occupancy
  Cs  Cs1  1  0.50592072  0.68544320  0.50203608  1
  Cs  Cs1  1  0.49407928  0.31455680  0.00203608  1
  Cs  Cs1  1  0.00592072  0.81455680  0.50203608  1
  Cs  Cs1  1  0.99407928  0.18544320  0.00203608  1
  Be  Be1  1  0.67165778  0.90509878  0.00163808  1
  Be  Be1  1  0.82834222  0.40509878  0.50163808  1
  Be  Be1  1  0.17165778  0.59490122  0.00163808  1
  Be  Be1  1  0.32834222  0.09490122  0.50163808  1
  As  As1  1  0.67492458  0.08574348  0.50000800  1
  As  As1  1  0.32507542  0.91425652  0.00000800  1
  As  As1  1  0.17492458  0.41425652  0.50000800  1
  As  As1  1  0.82507542  0.58574348  0.00000800  1
  O  O1  1  0.50130270  0.87578570  0.98311876  1
  O  O1  1  0.99869730  0.37578570  0.48311876  1
  O  O1  1  0.00130270  0.62421430  0.98311876  1
  O  O1  1  0.49869730  0.12421430  0.48311876  1
  O  O2  1  0.77428506  0.54130098  0.30878344  1
  O  O2  1  0.22571494  0.45869902  0.80878344  1
  O  O2  1  0.27428506  0.95869902  0.30878344  1
  O  O2  1  0.72571494  0.04130098  0.80878344  1
  O  O3  1  0.75876868  0.24573632  0.40167904  1
  O  O3  1  0.24123132  0.75426368  0.90167904  1
  O  O3  1  0.25876868  0.25426368  0.40167904  1
  O  O3  1  0.74123132  0.74573632  0.90167904  1
  O  O4  1  0.22455170  0.55785038  0.29673664  1
  O  O4  1  0.77544830  0.44214962  0.79673664  1
  O  O4  1  0.72455170  0.94214962  0.29673664  1
  O  O4  1  0.27544830  0.05785038  0.79673664  1
