# generated using pymatgen
data_CsBi(MoO4)2
_symmetry_space_group_name_H-M   'P 1'
_cell_length_a   5.15365750
_cell_length_b   9.41953405
_cell_length_c   8.16503410
_cell_angle_alpha   90.00000000
_cell_angle_beta   90.00000000
_cell_angle_gamma   90.00000000
_symmetry_Int_Tables_number   1
_chemical_formula_structural   CsBi(MoO4)2
_chemical_formula_sum   'Cs2 Bi2 Mo4 O16'
_cell_volume   396.37200791
_cell_formula_units_Z   2
loop_
 _symmetry_equiv_pos_site_id
 _symmetry_equiv_pos_as_xyz
  1  'x, y, z'
loop_
 _atom_site_type_symbol
 _atom_site_label
 _atom_site_symmetry_multiplicity
 _atom_site_fract_x
 _atom_site_fract_y
 _atom_site_fract_z
 _atom_site_occupancy
  Cs  Cs1  1  0.00000000  0.50000000  0.75000000  1
  Cs  Cs1  1  0.00000000  0.50000000  0.25000000  1
  Bi  Bi1  1  0.00000000  0.00000000  0.75000000  1
  Bi  Bi1  1  0.00000000  0.00000000  0.25000000  1
  Mo  Mo1  1  0.52421467  0.19566606  0.00000000  1
  Mo  Mo1  1  0.47578533  0.80433394  0.00000000  1
  Mo  Mo1  1  0.47578533  0.19566606  0.50000000  1
  Mo  Mo1  1  0.52421467  0.80433394  0.50000000  1
  O  O1  1  0.25913345  0.06039066  0.00000000  1
  O  O1  1  0.74086655  0.93960934  0.00000000  1
  O  O1  1  0.74086655  0.06039066  0.50000000  1
  O  O1  1  0.25913345  0.93960934  0.50000000  1
  O  O2  1  0.26367435  0.19511460  0.67566712  1
  O  O2  1  0.73632565  0.80488540  0.32433288  1
  O  O2  1  0.73632565  0.80488540  0.67566712  1
  O  O2  1  0.73632565  0.19511460  0.82433288  1
  O  O2  1  0.26367435  0.19511460  0.32433288  1
  O  O2  1  0.26367435  0.80488540  0.17566712  1
  O  O2  1  0.26367435  0.80488540  0.82433288  1
  O  O2  1  0.73632565  0.19511460  0.17566712  1
  O  O3  1  0.37416742  0.36121256  0.00000000  1
  O  O3  1  0.62583258  0.63878744  0.00000000  1
  O  O3  1  0.62583258  0.36121256  0.50000000  1
  O  O3  1  0.37416742  0.63878744  0.50000000  1
