# generated using pymatgen
data_CsBO2
_symmetry_space_group_name_H-M   'P 1'
_cell_length_a   13.61030645
_cell_length_b   13.61030645
_cell_length_c   8.28474828
_cell_angle_alpha   90.00000000
_cell_angle_beta   90.00000000
_cell_angle_gamma   120.00000000
_symmetry_Int_Tables_number   1
_chemical_formula_structural   CsBO2
_chemical_formula_sum   'Cs18 B18 O36'
_cell_volume   1329.06358001
_cell_formula_units_Z   18
loop_
 _symmetry_equiv_pos_site_id
 _symmetry_equiv_pos_as_xyz
  1  'x, y, z'
loop_
 _atom_site_type_symbol
 _atom_site_label
 _atom_site_symmetry_multiplicity
 _atom_site_fract_x
 _atom_site_fract_y
 _atom_site_fract_z
 _atom_site_occupancy
  Cs  Cs1  1  0.89248365  0.66666667  0.41666667  1
  Cs  Cs1  1  0.10751635  0.77418302  0.08333333  1
  Cs  Cs1  1  0.44084968  0.00000000  0.25000000  1
  Cs  Cs1  1  0.33333333  0.10751635  0.91666667  1
  Cs  Cs1  1  0.00000000  0.55915032  0.75000000  1
  Cs  Cs1  1  0.22581698  0.89248365  0.58333333  1
  B  B1  1  0.77329389  0.43996056  0.08333333  1
  B  B1  1  0.33333333  0.77329389  0.91666667  1
  B  B1  1  0.10662722  0.00000000  0.25000000  1
  B  B1  1  0.56003944  0.22670611  0.58333333  1
  B  B1  1  0.22670611  0.66666667  0.41666667  1
  B  B1  1  0.00000000  0.89337278  0.75000000  1
  O  O1  1  0.10189552  0.00000000  0.75000000  1
  O  O1  1  0.76856219  0.43522886  0.58333333  1
  O  O1  1  0.23143781  0.66666667  0.91666667  1
  O  O2  1  0.20403012  0.00000000  0.25000000  1
  O  O2  1  0.87069679  0.53736346  0.08333333  1
  O  O2  1  0.00000000  0.79596988  0.75000000  1
  O  O2  1  0.46263654  0.12930321  0.58333333  1
  O  O1  1  0.56477114  0.23143781  0.08333333  1
  O  O1  1  0.00000000  0.89810448  0.25000000  1
  O  O1  1  0.33333333  0.76856219  0.41666667  1
  O  O2  1  0.12930321  0.66666667  0.41666667  1
  O  O2  1  0.33333333  0.87069679  0.91666667  1
  Cs  Cs1  1  0.55915032  0.00000000  0.75000000  1
  Cs  Cs1  1  0.77418302  0.10751635  0.41666667  1
  Cs  Cs1  1  0.10751635  0.33333333  0.58333333  1
  Cs  Cs1  1  0.00000000  0.44084968  0.25000000  1
  Cs  Cs1  1  0.66666667  0.89248365  0.08333333  1
  Cs  Cs1  1  0.89248365  0.22581698  0.91666667  1
  B  B1  1  0.43996056  0.77329389  0.41666667  1
  B  B1  1  0.00000000  0.10662722  0.25000000  1
  B  B1  1  0.77329389  0.33333333  0.58333333  1
  B  B1  1  0.22670611  0.56003944  0.91666667  1
  B  B1  1  0.89337278  0.00000000  0.75000000  1
  B  B1  1  0.66666667  0.22670611  0.08333333  1
  O  O1  1  0.76856219  0.33333333  0.08333333  1
  O  O1  1  0.43522886  0.76856219  0.91666667  1
  O  O1  1  0.89810448  0.00000000  0.25000000  1
  O  O2  1  0.87069679  0.33333333  0.58333333  1
  O  O2  1  0.53736346  0.87069679  0.41666667  1
  O  O2  1  0.66666667  0.12930321  0.08333333  1
  O  O2  1  0.12930321  0.46263654  0.91666667  1
  O  O1  1  0.23143781  0.56477114  0.41666667  1
  O  O1  1  0.66666667  0.23143781  0.58333333  1
  O  O1  1  0.00000000  0.10189552  0.75000000  1
  O  O2  1  0.79596988  0.00000000  0.75000000  1
  O  O2  1  0.00000000  0.20403012  0.25000000  1
  Cs  Cs1  1  0.22581698  0.33333333  0.08333333  1
  Cs  Cs1  1  0.44084968  0.44084968  0.75000000  1
  Cs  Cs1  1  0.77418302  0.66666667  0.91666667  1
  Cs  Cs1  1  0.66666667  0.77418302  0.58333333  1
  Cs  Cs1  1  0.33333333  0.22581698  0.41666667  1
  Cs  Cs1  1  0.55915032  0.55915032  0.25000000  1
  B  B1  1  0.10662722  0.10662722  0.75000000  1
  B  B1  1  0.66666667  0.43996056  0.58333333  1
  B  B1  1  0.43996056  0.66666667  0.91666667  1
  B  B1  1  0.89337278  0.89337278  0.25000000  1
  B  B1  1  0.56003944  0.33333333  0.08333333  1
  B  B1  1  0.33333333  0.56003944  0.41666667  1
  O  O1  1  0.43522886  0.66666667  0.41666667  1
  O  O1  1  0.10189552  0.10189552  0.25000000  1
  O  O1  1  0.56477114  0.33333333  0.58333333  1
  O  O2  1  0.53736346  0.66666667  0.91666667  1
  O  O2  1  0.20403012  0.20403012  0.75000000  1
  O  O2  1  0.33333333  0.46263654  0.41666667  1
  O  O2  1  0.79596988  0.79596988  0.25000000  1
  O  O1  1  0.89810448  0.89810448  0.75000000  1
  O  O1  1  0.33333333  0.56477114  0.91666667  1
  O  O1  1  0.66666667  0.43522886  0.08333333  1
  O  O2  1  0.46263654  0.33333333  0.08333333  1
  O  O2  1  0.66666667  0.53736346  0.58333333  1
