# generated using pymatgen
data_CsCdBO3
_symmetry_space_group_name_H-M   'P 1'
_cell_length_a   7.49193138
_cell_length_b   7.49193138
_cell_length_c   7.49193138
_cell_angle_alpha   90.00000000
_cell_angle_beta   90.00000000
_cell_angle_gamma   90.00000000
_symmetry_Int_Tables_number   1
_chemical_formula_structural   CsCdBO3
_chemical_formula_sum   'Cs4 Cd4 B4 O12'
_cell_volume   420.51488382
_cell_formula_units_Z   4
loop_
 _symmetry_equiv_pos_site_id
 _symmetry_equiv_pos_as_xyz
  1  'x, y, z'
loop_
 _atom_site_type_symbol
 _atom_site_label
 _atom_site_symmetry_multiplicity
 _atom_site_fract_x
 _atom_site_fract_y
 _atom_site_fract_z
 _atom_site_occupancy
  Cs  Cs1  1  0.38726376  0.61273624  0.11273624  1
  Cs  Cs1  1  0.11273624  0.38726376  0.61273624  1
  Cs  Cs1  1  0.61273624  0.11273624  0.38726376  1
  Cs  Cs1  1  0.88726376  0.88726376  0.88726376  1
  Cd  Cd1  1  0.89664048  0.39664048  0.10335952  1
  Cd  Cd1  1  0.60335952  0.60335952  0.60335952  1
  Cd  Cd1  1  0.39664048  0.10335952  0.89664048  1
  Cd  Cd1  1  0.10335952  0.89664048  0.39664048  1
  B  B1  1  0.15470998  0.15470998  0.15470998  1
  B  B1  1  0.84529002  0.65470998  0.34529002  1
  B  B1  1  0.34529002  0.84529002  0.65470998  1
  B  B1  1  0.65470998  0.34529002  0.84529002  1
  O  O1  1  0.98337442  0.66589984  0.22192010  1
  O  O1  1  0.33410016  0.72192010  0.51662558  1
  O  O1  1  0.27807990  0.01662558  0.16589984  1
  O  O1  1  0.51662558  0.33410016  0.72192010  1
  O  O1  1  0.16589984  0.27807990  0.01662558  1
  O  O1  1  0.22192010  0.98337442  0.66589984  1
  O  O1  1  0.01662558  0.16589984  0.27807990  1
  O  O1  1  0.66589984  0.22192010  0.98337442  1
  O  O1  1  0.72192010  0.51662558  0.33410016  1
  O  O1  1  0.48337442  0.83410016  0.77807990  1
  O  O1  1  0.83410016  0.77807990  0.48337442  1
  O  O1  1  0.77807990  0.48337442  0.83410016  1
