# generated using pymatgen
data_CsCuO2
_symmetry_space_group_name_H-M   'P 1'
_cell_length_a   5.25365325
_cell_length_b   11.98928128
_cell_length_c   5.39663877
_cell_angle_alpha   90.00000000
_cell_angle_beta   90.00000000
_cell_angle_gamma   90.00000000
_symmetry_Int_Tables_number   1
_chemical_formula_structural   CsCuO2
_chemical_formula_sum   'Cs4 Cu4 O8'
_cell_volume   339.92092787
_cell_formula_units_Z   4
loop_
 _symmetry_equiv_pos_site_id
 _symmetry_equiv_pos_as_xyz
  1  'x, y, z'
loop_
 _atom_site_type_symbol
 _atom_site_label
 _atom_site_symmetry_multiplicity
 _atom_site_fract_x
 _atom_site_fract_y
 _atom_site_fract_z
 _atom_site_occupancy
  Cs  Cs1  1  0.50000000  0.18513469  0.25000000  1
  Cs  Cs1  1  0.00000000  0.31486531  0.75000000  1
  Cu  Cu1  1  0.50000000  0.49816336  0.25000000  1
  Cu  Cu1  1  0.00000000  0.00183664  0.75000000  1
  O  O1  1  0.50000000  0.39927764  0.50359472  1
  O  O1  1  0.00000000  0.10072236  0.49640528  1
  O  O1  1  0.00000000  0.10072236  0.00359472  1
  O  O1  1  0.50000000  0.39927764  0.99640528  1
  Cs  Cs1  1  0.00000000  0.68513469  0.25000000  1
  Cs  Cs1  1  0.50000000  0.81486531  0.75000000  1
  Cu  Cu1  1  0.00000000  0.99816336  0.25000000  1
  Cu  Cu1  1  0.50000000  0.50183664  0.75000000  1
  O  O1  1  0.00000000  0.89927764  0.50359472  1
  O  O1  1  0.50000000  0.60072236  0.49640528  1
  O  O1  1  0.50000000  0.60072236  0.00359472  1
  O  O1  1  0.00000000  0.89927764  0.99640528  1
