# generated using pymatgen
data_CsCuO
_symmetry_space_group_name_H-M   'P 1'
_cell_length_a   5.88348758
_cell_length_b   10.40670606
_cell_length_c   4.94013677
_cell_angle_alpha   90.00000000
_cell_angle_beta   90.00000000
_cell_angle_gamma   90.00000000
_symmetry_Int_Tables_number   1
_chemical_formula_structural   CsCuO
_chemical_formula_sum   'Cs4 Cu4 O4'
_cell_volume   302.47333985
_cell_formula_units_Z   4
loop_
 _symmetry_equiv_pos_site_id
 _symmetry_equiv_pos_as_xyz
  1  'x, y, z'
loop_
 _atom_site_type_symbol
 _atom_site_label
 _atom_site_symmetry_multiplicity
 _atom_site_fract_x
 _atom_site_fract_y
 _atom_site_fract_z
 _atom_site_occupancy
  Cs  Cs1  1  0.50000000  0.68965612  0.75000000  1
  Cs  Cs1  1  0.00000000  0.81034388  0.25000000  1
  Cu  Cu1  1  0.50000000  0.00000000  0.00000000  1
  Cu  Cu1  1  0.50000000  0.00000000  0.50000000  1
  O  O1  1  0.00000000  0.62658438  0.75000000  1
  O  O1  1  0.50000000  0.87341562  0.25000000  1
  Cs  Cs1  1  0.00000000  0.18965612  0.75000000  1
  Cs  Cs1  1  0.50000000  0.31034388  0.25000000  1
  Cu  Cu1  1  0.00000000  0.50000000  0.00000000  1
  Cu  Cu1  1  0.00000000  0.50000000  0.50000000  1
  O  O1  1  0.50000000  0.12658438  0.75000000  1
  O  O1  1  0.00000000  0.37341562  0.25000000  1
