# generated using pymatgen
data_CsLa(WO4)2
_symmetry_space_group_name_H-M   'P 1'
_cell_length_a   10.90618507
_cell_length_b   10.90569419
_cell_length_c   7.64368868
_cell_angle_alpha   90.00000000
_cell_angle_beta   130.12897651
_cell_angle_gamma   90.00000000
_symmetry_Int_Tables_number   1
_chemical_formula_structural   CsLa(WO4)2
_chemical_formula_sum   'Cs4 La4 W8 O32'
_cell_volume   695.12183838
_cell_formula_units_Z   4
loop_
 _symmetry_equiv_pos_site_id
 _symmetry_equiv_pos_as_xyz
  1  'x, y, z'
loop_
 _atom_site_type_symbol
 _atom_site_label
 _atom_site_symmetry_multiplicity
 _atom_site_fract_x
 _atom_site_fract_y
 _atom_site_fract_z
 _atom_site_occupancy
  Cs  Cs1  1  0.00000000  0.19736020  0.75000000  1
  Cs  Cs1  1  0.00000000  0.80263980  0.25000000  1
  La  La1  1  0.00000000  0.77302832  0.75000000  1
  La  La1  1  0.00000000  0.22697168  0.25000000  1
  W  W1  1  0.18969644  0.50376192  0.72576204  1
  W  W1  1  0.81030356  0.49623808  0.27423796  1
  W  W1  1  0.81030356  0.50376192  0.77423796  1
  W  W1  1  0.18969644  0.49623808  0.22576204  1
  O  O1  1  0.18413068  0.43689652  0.93547310  1
  O  O1  1  0.81586932  0.56310348  0.06452690  1
  O  O1  1  0.81586932  0.43689652  0.56452690  1
  O  O1  1  0.18413068  0.56310348  0.43547310  1
  O  O2  1  0.73207450  0.65601096  0.64066064  1
  O  O2  1  0.26792550  0.34398904  0.35933936  1
  O  O2  1  0.26792550  0.65601096  0.85933936  1
  O  O2  1  0.73207450  0.34398904  0.14066064  1
  O  O3  1  0.97700240  0.60447916  0.52517586  1
  O  O3  1  0.02299760  0.39552084  0.47482414  1
  O  O3  1  0.02299760  0.60447916  0.97482414  1
  O  O3  1  0.97700240  0.39552084  0.02517586  1
  O  O4  1  0.36312562  0.42446090  0.80120016  1
  O  O4  1  0.63687438  0.57553910  0.19879984  1
  O  O4  1  0.63687438  0.42446090  0.69879984  1
  O  O4  1  0.36312562  0.57553910  0.30120016  1
  Cs  Cs1  1  0.50000000  0.69736020  0.75000000  1
  Cs  Cs1  1  0.50000000  0.30263980  0.25000000  1
  La  La1  1  0.50000000  0.27302832  0.75000000  1
  La  La1  1  0.50000000  0.72697168  0.25000000  1
  W  W1  1  0.68969644  0.00376192  0.72576204  1
  W  W1  1  0.31030356  0.99623808  0.27423796  1
  W  W1  1  0.31030356  0.00376192  0.77423796  1
  W  W1  1  0.68969644  0.99623808  0.22576204  1
  O  O1  1  0.68413068  0.93689652  0.93547310  1
  O  O1  1  0.31586932  0.06310348  0.06452690  1
  O  O1  1  0.31586932  0.93689652  0.56452690  1
  O  O1  1  0.68413068  0.06310348  0.43547310  1
  O  O2  1  0.23207450  0.15601096  0.64066064  1
  O  O2  1  0.76792550  0.84398904  0.35933936  1
  O  O2  1  0.76792550  0.15601096  0.85933936  1
  O  O2  1  0.23207450  0.84398904  0.14066064  1
  O  O3  1  0.47700240  0.10447916  0.52517586  1
  O  O3  1  0.52299760  0.89552084  0.47482414  1
  O  O3  1  0.52299760  0.10447916  0.97482414  1
  O  O3  1  0.47700240  0.89552084  0.02517586  1
  O  O4  1  0.86312562  0.92446090  0.80120016  1
  O  O4  1  0.13687438  0.07553910  0.19879984  1
  O  O4  1  0.13687438  0.92446090  0.69879984  1
  O  O4  1  0.86312562  0.07553910  0.30120016  1
