# generated using pymatgen
data_CsLi5(BO3)2
_symmetry_space_group_name_H-M   'P 1'
_cell_length_a   11.68058159
_cell_length_b   9.50113901
_cell_length_c   7.98895660
_cell_angle_alpha   90.00000000
_cell_angle_beta   132.30770864
_cell_angle_gamma   90.00000000
_symmetry_Int_Tables_number   1
_chemical_formula_structural   CsLi5(BO3)2
_chemical_formula_sum   'Cs4 Li20 B8 O24'
_cell_volume   655.68037936
_cell_formula_units_Z   4
loop_
 _symmetry_equiv_pos_site_id
 _symmetry_equiv_pos_as_xyz
  1  'x, y, z'
loop_
 _atom_site_type_symbol
 _atom_site_label
 _atom_site_symmetry_multiplicity
 _atom_site_fract_x
 _atom_site_fract_y
 _atom_site_fract_z
 _atom_site_occupancy
  Cs  Cs1  1  0.50000000  0.18197308  0.75000000  1
  Cs  Cs1  1  0.00000000  0.31802692  0.25000000  1
  Li  Li1  1  0.10287216  0.63411326  0.23025118  1
  Li  Li2  1  0.61189612  0.31617828  0.46160524  1
  Li  Li1  1  0.39712784  0.86588674  0.76974882  1
  Li  Li1  1  0.39712784  0.13411326  0.26974882  1
  Li  Li3  1  0.00000000  0.00000000  0.00000000  1
  Li  Li2  1  0.88810388  0.18382172  0.53839476  1
  Li  Li1  1  0.10287216  0.36588674  0.73025118  1
  Li  Li2  1  0.61189612  0.68382172  0.96160524  1
  Li  Li3  1  0.00000000  0.00000000  0.50000000  1
  Li  Li2  1  0.88810388  0.81617828  0.03839476  1
  B  B1  1  0.24042726  0.07196540  0.81134196  1
  B  B1  1  0.74042726  0.42803460  0.31134196  1
  B  B1  1  0.25957274  0.42803460  0.18865804  1
  B  B1  1  0.75957274  0.07196540  0.68865804  1
  O  O1  1  0.28112776  0.44727514  0.79728372  1
  O  O2  1  0.10945500  0.15540258  0.71374584  1
  O  O2  1  0.39054500  0.34459742  0.28625416  1
  O  O1  1  0.28112776  0.55272486  0.29728372  1
  O  O2  1  0.10945500  0.84459742  0.21374584  1
  O  O2  1  0.39054500  0.65540258  0.78625416  1
  O  O3  1  0.38395064  0.88568018  0.50792232  1
  O  O1  1  0.21887224  0.05272486  0.20271628  1
  O  O3  1  0.88395064  0.61431982  0.00792232  1
  O  O3  1  0.61604936  0.88568018  0.99207768  1
  O  O3  1  0.11604936  0.61431982  0.49207768  1
  O  O1  1  0.21887224  0.94727514  0.70271628  1
  Cs  Cs1  1  0.00000000  0.68197308  0.75000000  1
  Cs  Cs1  1  0.50000000  0.81802692  0.25000000  1
  Li  Li1  1  0.60287216  0.13411326  0.23025118  1
  Li  Li2  1  0.11189612  0.81617828  0.46160524  1
  Li  Li1  1  0.89712784  0.36588674  0.76974882  1
  Li  Li1  1  0.89712784  0.63411326  0.26974882  1
  Li  Li3  1  0.50000000  0.50000000  0.00000000  1
  Li  Li2  1  0.38810388  0.68382172  0.53839476  1
  Li  Li1  1  0.60287216  0.86588674  0.73025118  1
  Li  Li2  1  0.11189612  0.18382172  0.96160524  1
  Li  Li3  1  0.50000000  0.50000000  0.50000000  1
  Li  Li2  1  0.38810388  0.31617828  0.03839476  1
  B  B1  1  0.74042726  0.57196540  0.81134196  1
  B  B1  1  0.24042726  0.92803460  0.31134196  1
  B  B1  1  0.75957274  0.92803460  0.18865804  1
  B  B1  1  0.25957274  0.57196540  0.68865804  1
  O  O1  1  0.78112776  0.94727514  0.79728372  1
  O  O2  1  0.60945500  0.65540258  0.71374584  1
  O  O2  1  0.89054500  0.84459742  0.28625416  1
  O  O1  1  0.78112776  0.05272486  0.29728372  1
  O  O2  1  0.60945500  0.34459742  0.21374584  1
  O  O2  1  0.89054500  0.15540258  0.78625416  1
  O  O3  1  0.88395064  0.38568018  0.50792232  1
  O  O1  1  0.71887224  0.55272486  0.20271628  1
  O  O3  1  0.38395064  0.11431982  0.00792232  1
  O  O3  1  0.11604936  0.38568018  0.99207768  1
  O  O3  1  0.61604936  0.11431982  0.49207768  1
  O  O1  1  0.71887224  0.44727514  0.70271628  1
