# generated using pymatgen
data_CsLiWO4
_symmetry_space_group_name_H-M   'P 1'
_cell_length_a   5.91209978
_cell_length_b   5.91209978
_cell_length_c   8.14903867
_cell_angle_alpha   90.00000000
_cell_angle_beta   90.00000000
_cell_angle_gamma   90.00000000
_symmetry_Int_Tables_number   1
_chemical_formula_structural   CsLiWO4
_chemical_formula_sum   'Cs2 Li2 W2 O8'
_cell_volume   284.83272751
_cell_formula_units_Z   2
loop_
 _symmetry_equiv_pos_site_id
 _symmetry_equiv_pos_as_xyz
  1  'x, y, z'
loop_
 _atom_site_type_symbol
 _atom_site_label
 _atom_site_symmetry_multiplicity
 _atom_site_fract_x
 _atom_site_fract_y
 _atom_site_fract_z
 _atom_site_occupancy
  Cs  Cs1  1  0.00000000  0.00000000  0.00000000  1
  Li  Li1  1  0.50000000  0.00000000  0.25000000  1
  W  W1  1  0.00000000  0.00000000  0.50000000  1
  O  O1  1  0.92223568  0.23490436  0.62666262  1
  O  O1  1  0.57776432  0.26509564  0.12666262  1
  O  O1  1  0.26509564  0.42223568  0.87333738  1
  O  O1  1  0.23490436  0.07776432  0.37333738  1
  Cs  Cs1  1  0.50000000  0.50000000  0.50000000  1
  Li  Li1  1  0.00000000  0.50000000  0.75000000  1
  W  W1  1  0.50000000  0.50000000  0.00000000  1
  O  O1  1  0.42223568  0.73490436  0.12666262  1
  O  O1  1  0.07776432  0.76509564  0.62666262  1
  O  O1  1  0.76509564  0.92223568  0.37333738  1
  O  O1  1  0.73490436  0.57776432  0.87333738  1
