# generated using pymatgen
data_CsReO4
_symmetry_space_group_name_H-M   'P 1'
_cell_length_a   5.72673550
_cell_length_b   5.99644407
_cell_length_c   14.24011033
_cell_angle_alpha   90.00000000
_cell_angle_beta   90.00000000
_cell_angle_gamma   90.00000000
_symmetry_Int_Tables_number   1
_chemical_formula_structural   CsReO4
_chemical_formula_sum   'Cs4 Re4 O16'
_cell_volume   489.00608877
_cell_formula_units_Z   4
loop_
 _symmetry_equiv_pos_site_id
 _symmetry_equiv_pos_as_xyz
  1  'x, y, z'
loop_
 _atom_site_type_symbol
 _atom_site_label
 _atom_site_symmetry_multiplicity
 _atom_site_fract_x
 _atom_site_fract_y
 _atom_site_fract_z
 _atom_site_occupancy
  Cs  Cs1  1  0.47562490  0.25000000  0.62896906  1
  Cs  Cs1  1  0.97562490  0.25000000  0.87103094  1
  Cs  Cs1  1  0.52437510  0.75000000  0.37103094  1
  Cs  Cs1  1  0.02437510  0.75000000  0.12896906  1
  Re  Re1  1  0.45852076  0.75000000  0.88251647  1
  Re  Re1  1  0.95852076  0.75000000  0.61748353  1
  Re  Re1  1  0.54147924  0.25000000  0.11748353  1
  Re  Re1  1  0.04147924  0.25000000  0.38251647  1
  O  O1  1  0.51800026  0.51241064  0.81581116  1
  O  O1  1  0.01800026  0.98758936  0.68418884  1
  O  O1  1  0.48199974  0.01241064  0.18418884  1
  O  O1  1  0.98199974  0.48758936  0.31581116  1
  O  O1  1  0.48199974  0.48758936  0.18418884  1
  O  O1  1  0.98199974  0.01241064  0.31581116  1
  O  O1  1  0.51800026  0.98758936  0.81581116  1
  O  O1  1  0.01800026  0.51241064  0.68418884  1
  O  O2  1  0.83637820  0.25000000  0.08492246  1
  O  O2  1  0.33637820  0.25000000  0.41507754  1
  O  O2  1  0.16362180  0.75000000  0.91507754  1
  O  O2  1  0.66362180  0.75000000  0.58492246  1
  O  O3  1  0.86607826  0.25000000  0.48266879  1
  O  O3  1  0.36607826  0.25000000  0.01733121  1
  O  O3  1  0.13392174  0.75000000  0.51733121  1
  O  O3  1  0.63392174  0.75000000  0.98266879  1
