# generated using pymatgen
data_CsSbO2
_symmetry_space_group_name_H-M   'P 1'
_cell_length_a   8.08234765
_cell_length_b   9.81797549
_cell_length_c   5.58529696
_cell_angle_alpha   90.00000000
_cell_angle_beta   122.26173285
_cell_angle_gamma   90.00000000
_symmetry_Int_Tables_number   1
_chemical_formula_structural   CsSbO2
_chemical_formula_sum   'Cs4 Sb4 O8'
_cell_volume   374.78330050
_cell_formula_units_Z   4
loop_
 _symmetry_equiv_pos_site_id
 _symmetry_equiv_pos_as_xyz
  1  'x, y, z'
loop_
 _atom_site_type_symbol
 _atom_site_label
 _atom_site_symmetry_multiplicity
 _atom_site_fract_x
 _atom_site_fract_y
 _atom_site_fract_z
 _atom_site_occupancy
  Cs  Cs1  1  0.50000000  0.14874660  0.75000000  1
  Cs  Cs1  1  0.50000000  0.85125340  0.25000000  1
  Sb  Sb1  1  0.50000000  0.41821716  0.25000000  1
  Sb  Sb1  1  0.50000000  0.58178284  0.75000000  1
  O  O1  1  0.82586745  0.95679772  0.79684052  1
  O  O1  1  0.17413255  0.04320228  0.20315948  1
  O  O1  1  0.17413255  0.95679772  0.70315948  1
  O  O1  1  0.82586745  0.04320228  0.29684052  1
  Cs  Cs1  1  0.00000000  0.64874660  0.75000000  1
  Cs  Cs1  1  0.00000000  0.35125340  0.25000000  1
  Sb  Sb1  1  0.00000000  0.91821716  0.25000000  1
  Sb  Sb1  1  0.00000000  0.08178284  0.75000000  1
  O  O1  1  0.32586745  0.45679772  0.79684052  1
  O  O1  1  0.67413255  0.54320228  0.20315948  1
  O  O1  1  0.67413255  0.45679772  0.70315948  1
  O  O1  1  0.32586745  0.54320228  0.29684052  1
