# generated using pymatgen
data_CsSc(WO4)2
_symmetry_space_group_name_H-M   'P 1'
_cell_length_a   5.85088578
_cell_length_b   5.85088578
_cell_length_c   7.99502824
_cell_angle_alpha   90.00000000
_cell_angle_beta   90.00000000
_cell_angle_gamma   120.00000000
_symmetry_Int_Tables_number   1
_chemical_formula_structural   CsSc(WO4)2
_chemical_formula_sum   'Cs1 Sc1 W2 O8'
_cell_volume   237.02484648
_cell_formula_units_Z   1
loop_
 _symmetry_equiv_pos_site_id
 _symmetry_equiv_pos_as_xyz
  1  'x, y, z'
loop_
 _atom_site_type_symbol
 _atom_site_label
 _atom_site_symmetry_multiplicity
 _atom_site_fract_x
 _atom_site_fract_y
 _atom_site_fract_z
 _atom_site_occupancy
  Cs  Cs1  1  0.00000000  0.00000000  0.00000000  1
  Sc  Sc1  1  0.00000000  0.00000000  0.50000000  1
  W  W1  1  0.66666667  0.33333333  0.27624776  1
  W  W1  1  0.33333333  0.66666667  0.72375224  1
  O  O1  1  0.32889594  0.16444797  0.34588796  1
  O  O1  1  0.67110406  0.83555203  0.65411204  1
  O  O1  1  0.83555203  0.16444797  0.34588796  1
  O  O1  1  0.16444797  0.83555203  0.65411204  1
  O  O1  1  0.83555203  0.67110406  0.34588796  1
  O  O1  1  0.16444797  0.32889594  0.65411204  1
  O  O2  1  0.66666667  0.33333333  0.05705330  1
  O  O2  1  0.33333333  0.66666667  0.94294670  1
