# generated using pymatgen
data_CsTa(BO3)2
_symmetry_space_group_name_H-M   'P 1'
_cell_length_a   7.61878881
_cell_length_b   3.90252047
_cell_length_c   9.83874719
_cell_angle_alpha   90.00000000
_cell_angle_beta   90.00000000
_cell_angle_gamma   90.00000000
_symmetry_Int_Tables_number   1
_chemical_formula_structural   CsTa(BO3)2
_chemical_formula_sum   'Cs2 Ta2 B4 O12'
_cell_volume   292.53034685
_cell_formula_units_Z   2
loop_
 _symmetry_equiv_pos_site_id
 _symmetry_equiv_pos_as_xyz
  1  'x, y, z'
loop_
 _atom_site_type_symbol
 _atom_site_label
 _atom_site_symmetry_multiplicity
 _atom_site_fract_x
 _atom_site_fract_y
 _atom_site_fract_z
 _atom_site_occupancy
  Cs  Cs1  1  0.50000000  0.48374328  0.10963694  1
  Cs  Cs1  1  0.00000000  0.51625672  0.60963694  1
  Ta  Ta1  1  0.50000000  0.05514680  0.72689504  1
  Ta  Ta1  1  0.00000000  0.94485320  0.22689504  1
  B  B1  1  0.83743304  0.00585220  0.93771156  1
  B  B1  1  0.66256696  0.99414780  0.43771156  1
  B  B1  1  0.33743304  0.99414780  0.43771156  1
  B  B1  1  0.16256696  0.00585220  0.93771156  1
  O  O1  1  0.69096508  0.03942352  0.86043170  1
  O  O1  1  0.80903492  0.96057648  0.36043170  1
  O  O1  1  0.19096508  0.96057648  0.36043170  1
  O  O1  1  0.30903492  0.03942352  0.86043170  1
  O  O2  1  0.32427614  0.03522308  0.57454666  1
  O  O2  1  0.17572386  0.96477692  0.07454666  1
  O  O2  1  0.82427614  0.96477692  0.07454666  1
  O  O2  1  0.67572386  0.03522308  0.57454666  1
  O  O3  1  0.50000000  0.54094900  0.73042922  1
  O  O3  1  0.00000000  0.45905100  0.23042922  1
  O  O4  1  0.50000000  0.98183076  0.37085796  1
  O  O4  1  0.00000000  0.01816924  0.87085796  1
