# generated using pymatgen
data_CsTlO
_symmetry_space_group_name_H-M   'P 1'
_cell_length_a   14.02507183
_cell_length_b   3.74901118
_cell_length_c   6.52922428
_cell_angle_alpha   90.00000000
_cell_angle_beta   106.25841547
_cell_angle_gamma   90.00000000
_symmetry_Int_Tables_number   1
_chemical_formula_structural   CsTlO
_chemical_formula_sum   'Cs4 Tl4 O4'
_cell_volume   329.57829664
_cell_formula_units_Z   4
loop_
 _symmetry_equiv_pos_site_id
 _symmetry_equiv_pos_as_xyz
  1  'x, y, z'
loop_
 _atom_site_type_symbol
 _atom_site_label
 _atom_site_symmetry_multiplicity
 _atom_site_fract_x
 _atom_site_fract_y
 _atom_site_fract_z
 _atom_site_occupancy
  Cs  Cs1  1  0.12069656  0.00000000  0.34135806  1
  Cs  Cs1  1  0.37930344  0.50000000  0.65864194  1
  Tl  Tl1  1  0.35126912  0.00000000  0.14301066  1
  Tl  Tl1  1  0.14873088  0.50000000  0.85698934  1
  O  O1  1  0.25156429  0.50000000  0.20779070  1
  O  O1  1  0.24843571  0.00000000  0.79220930  1
  Cs  Cs1  1  0.62069656  0.50000000  0.34135806  1
  Cs  Cs1  1  0.87930344  0.00000000  0.65864194  1
  Tl  Tl1  1  0.85126912  0.50000000  0.14301066  1
  Tl  Tl1  1  0.64873088  0.00000000  0.85698934  1
  O  O1  1  0.75156429  0.00000000  0.20779070  1
  O  O1  1  0.74843571  0.50000000  0.79220930  1
