# generated using pymatgen
data_CsVO3
_symmetry_space_group_name_H-M   'P 1'
_cell_length_a   5.41141092
_cell_length_b   12.14362519
_cell_length_c   5.78561948
_cell_angle_alpha   90.00000000
_cell_angle_beta   90.00000000
_cell_angle_gamma   90.00000000
_symmetry_Int_Tables_number   1
_chemical_formula_structural   CsVO3
_chemical_formula_sum   'Cs4 V4 O12'
_cell_volume   380.19704264
_cell_formula_units_Z   4
loop_
 _symmetry_equiv_pos_site_id
 _symmetry_equiv_pos_as_xyz
  1  'x, y, z'
loop_
 _atom_site_type_symbol
 _atom_site_label
 _atom_site_symmetry_multiplicity
 _atom_site_fract_x
 _atom_site_fract_y
 _atom_site_fract_z
 _atom_site_occupancy
  Cs  Cs1  1  0.08661726  0.09720599  0.25000000  1
  Cs  Cs1  1  0.08661726  0.40279401  0.75000000  1
  Cs  Cs1  1  0.91338274  0.90279401  0.75000000  1
  Cs  Cs1  1  0.91338274  0.59720599  0.25000000  1
  V  V1  1  0.54853944  0.32844200  0.25000000  1
  V  V1  1  0.54853944  0.17155800  0.75000000  1
  V  V1  1  0.45146056  0.67155800  0.75000000  1
  V  V1  1  0.45146056  0.82844200  0.25000000  1
  O  O1  1  0.85296384  0.34721363  0.25000000  1
  O  O1  1  0.85296384  0.15278637  0.75000000  1
  O  O1  1  0.14703616  0.65278637  0.75000000  1
  O  O1  1  0.14703616  0.84721363  0.25000000  1
  O  O2  1  0.40770462  0.44948138  0.25000000  1
  O  O2  1  0.40770462  0.05051862  0.75000000  1
  O  O2  1  0.59229538  0.55051862  0.75000000  1
  O  O2  1  0.59229538  0.94948138  0.25000000  1
  O  O3  1  0.45411958  0.25000000  0.50000000  1
  O  O3  1  0.54588042  0.75000000  0.00000000  1
  O  O3  1  0.54588042  0.75000000  0.50000000  1
  O  O3  1  0.45411958  0.25000000  0.00000000  1
