# generated using pymatgen
data_CsY(WO4)2
_symmetry_space_group_name_H-M   'P 1'
_cell_length_a   10.73370413
_cell_length_b   10.56438421
_cell_length_c   7.51835099
_cell_angle_alpha   90.00000000
_cell_angle_beta   130.27691040
_cell_angle_gamma   90.00000000
_symmetry_Int_Tables_number   1
_chemical_formula_structural   CsY(WO4)2
_chemical_formula_sum   'Cs4 Y4 W8 O32'
_cell_volume   650.42987472
_cell_formula_units_Z   4
loop_
 _symmetry_equiv_pos_site_id
 _symmetry_equiv_pos_as_xyz
  1  'x, y, z'
loop_
 _atom_site_type_symbol
 _atom_site_label
 _atom_site_symmetry_multiplicity
 _atom_site_fract_x
 _atom_site_fract_y
 _atom_site_fract_z
 _atom_site_occupancy
  Cs  Cs1  1  0.00000000  0.19772724  0.75000000  1
  Cs  Cs1  1  0.00000000  0.80227276  0.25000000  1
  Y  Y1  1  0.00000000  0.77266758  0.75000000  1
  Y  Y1  1  0.00000000  0.22733242  0.25000000  1
  W  W1  1  0.80614280  0.50409804  0.77517078  1
  W  W1  1  0.19385720  0.49590196  0.22482922  1
  W  W1  1  0.19385720  0.50409804  0.72482922  1
  W  W1  1  0.80614280  0.49590196  0.27517078  1
  O  O1  1  0.81347784  0.43440234  0.56269640  1
  O  O1  1  0.18652216  0.56559766  0.43730360  1
  O  O1  1  0.18652216  0.43440234  0.93730360  1
  O  O1  1  0.81347784  0.56559766  0.06269640  1
  O  O2  1  0.27974488  0.65700818  0.87354836  1
  O  O2  1  0.72025512  0.34299182  0.12645164  1
  O  O2  1  0.72025512  0.65700818  0.62645164  1
  O  O2  1  0.27974488  0.34299182  0.37354836  1
  O  O3  1  0.02041176  0.60823958  0.96651862  1
  O  O3  1  0.97958824  0.39176042  0.03348138  1
  O  O3  1  0.97958824  0.60823958  0.53348138  1
  O  O3  1  0.02041176  0.39176042  0.46651862  1
  O  O4  1  0.63350114  0.41654050  0.70152158  1
  O  O4  1  0.36649886  0.58345950  0.29847842  1
  O  O4  1  0.36649886  0.41654050  0.79847842  1
  O  O4  1  0.63350114  0.58345950  0.20152158  1
  Cs  Cs1  1  0.50000000  0.69772724  0.75000000  1
  Cs  Cs1  1  0.50000000  0.30227276  0.25000000  1
  Y  Y1  1  0.50000000  0.27266758  0.75000000  1
  Y  Y1  1  0.50000000  0.72733242  0.25000000  1
  W  W1  1  0.30614280  0.00409804  0.77517078  1
  W  W1  1  0.69385720  0.99590196  0.22482922  1
  W  W1  1  0.69385720  0.00409804  0.72482922  1
  W  W1  1  0.30614280  0.99590196  0.27517078  1
  O  O1  1  0.31347784  0.93440234  0.56269640  1
  O  O1  1  0.68652216  0.06559766  0.43730360  1
  O  O1  1  0.68652216  0.93440234  0.93730360  1
  O  O1  1  0.31347784  0.06559766  0.06269640  1
  O  O2  1  0.77974488  0.15700818  0.87354836  1
  O  O2  1  0.22025512  0.84299182  0.12645164  1
  O  O2  1  0.22025512  0.15700818  0.62645164  1
  O  O2  1  0.77974488  0.84299182  0.37354836  1
  O  O3  1  0.52041176  0.10823958  0.96651862  1
  O  O3  1  0.47958824  0.89176042  0.03348138  1
  O  O3  1  0.47958824  0.10823958  0.53348138  1
  O  O3  1  0.52041176  0.89176042  0.46651862  1
  O  O4  1  0.13350114  0.91654050  0.70152158  1
  O  O4  1  0.86649886  0.08345950  0.29847842  1
  O  O4  1  0.86649886  0.91654050  0.79847842  1
  O  O4  1  0.13350114  0.08345950  0.20152158  1
