# generated using pymatgen
data_CsY(MoO4)2
_symmetry_space_group_name_H-M   'P 1'
_cell_length_a   6.00783306
_cell_length_b   6.00783306
_cell_length_c   8.12385565
_cell_angle_alpha   90.00000000
_cell_angle_beta   90.00000000
_cell_angle_gamma   120.00000000
_symmetry_Int_Tables_number   1
_chemical_formula_structural   CsY(MoO4)2
_chemical_formula_sum   'Cs1 Y1 Mo2 O8'
_cell_volume   253.93849537
_cell_formula_units_Z   1
loop_
 _symmetry_equiv_pos_site_id
 _symmetry_equiv_pos_as_xyz
  1  'x, y, z'
loop_
 _atom_site_type_symbol
 _atom_site_label
 _atom_site_symmetry_multiplicity
 _atom_site_fract_x
 _atom_site_fract_y
 _atom_site_fract_z
 _atom_site_occupancy
  Cs  Cs1  1  0.00000000  0.00000000  0.00000000  1
  Y  Y1  1  0.00000000  0.00000000  0.50000000  1
  Mo  Mo1  1  0.66666667  0.33333333  0.26189450  1
  Mo  Mo1  1  0.33333333  0.66666667  0.73810550  1
  O  O1  1  0.33871574  0.16935787  0.33217180  1
  O  O1  1  0.66128426  0.83064213  0.66782820  1
  O  O1  1  0.83064213  0.16935787  0.33217180  1
  O  O1  1  0.16935787  0.83064213  0.66782820  1
  O  O1  1  0.83064213  0.66128426  0.33217180  1
  O  O1  1  0.16935787  0.33871574  0.66782820  1
  O  O2  1  0.66666667  0.33333333  0.04714660  1
  O  O2  1  0.33333333  0.66666667  0.95285340  1
