# generated using pymatgen
data_Cu2PbO2
_symmetry_space_group_name_H-M   'P 1'
_cell_length_a   8.15451831
_cell_length_b   8.11342785
_cell_length_c   5.95795104
_cell_angle_alpha   90.00000000
_cell_angle_beta   132.70745690
_cell_angle_gamma   90.00000000
_symmetry_Int_Tables_number   1
_chemical_formula_structural   Cu2PbO2
_chemical_formula_sum   'Cu8 Pb4 O8'
_cell_volume   289.65720071
_cell_formula_units_Z   4
loop_
 _symmetry_equiv_pos_site_id
 _symmetry_equiv_pos_as_xyz
  1  'x, y, z'
loop_
 _atom_site_type_symbol
 _atom_site_label
 _atom_site_symmetry_multiplicity
 _atom_site_fract_x
 _atom_site_fract_y
 _atom_site_fract_z
 _atom_site_occupancy
  Cu  Cu1  1  0.00000000  0.50000000  0.00000000  1
  Cu  Cu1  1  0.00000000  0.50000000  0.50000000  1
  Cu  Cu2  1  0.25000000  0.75000000  0.50000000  1
  Cu  Cu2  1  0.75000000  0.75000000  0.00000000  1
  Pb  Pb1  1  0.00000000  0.86807788  0.75000000  1
  Pb  Pb1  1  0.00000000  0.13192212  0.25000000  1
  O  O1  1  0.28621544  0.56798180  0.71179705  1
  O  O1  1  0.71378456  0.56798180  0.78820295  1
  O  O1  1  0.71378456  0.43201820  0.28820295  1
  O  O1  1  0.28621544  0.43201820  0.21179705  1
  Cu  Cu1  1  0.50000000  0.00000000  0.00000000  1
  Cu  Cu1  1  0.50000000  0.00000000  0.50000000  1
  Cu  Cu2  1  0.75000000  0.25000000  0.50000000  1
  Cu  Cu2  1  0.25000000  0.25000000  0.00000000  1
  Pb  Pb1  1  0.50000000  0.36807788  0.75000000  1
  Pb  Pb1  1  0.50000000  0.63192212  0.25000000  1
  O  O1  1  0.78621544  0.06798180  0.71179705  1
  O  O1  1  0.21378456  0.06798180  0.78820295  1
  O  O1  1  0.21378456  0.93201820  0.28820295  1
  O  O1  1  0.78621544  0.93201820  0.21179705  1
