data_image0
_chemical_formula_structural       OFe3Mg2FeO7
_chemical_formula_sum              "O8 Fe4 Mg2"
_cell_length_a       6.03455
_cell_length_b       6.03456
_cell_length_c       6.01406
_cell_angle_alpha    60.1122
_cell_angle_beta     60.1123
_cell_angle_gamma    59.7755

_space_group_name_H-M_alt    "P 1"
_space_group_IT_number       1

loop_
  _space_group_symop_operation_xyz
  'x, y, z'

loop_
  _atom_site_type_symbol
  _atom_site_label
  _atom_site_symmetry_multiplicity
  _atom_site_fract_x
  _atom_site_fract_y
  _atom_site_fract_z
  _atom_site_occupancy
  O   O1        1.0  0.86399  0.86399  0.86593  1.0000
  Fe  Fe1       1.0  0.62500  0.62500  0.62500  1.0000
  Fe  Fe1       1.0  0.62500  0.12500  0.62500  1.0000
  Fe  Fe1       1.0  0.12500  0.62500  0.62500  1.0000
  Mg  Mg1       1.0  0.00000  0.00000  0.00000  1.0000
  Mg  Mg1       1.0  0.25000  0.25000  0.25000  1.0000
  Fe  Fe1       1.0  0.62500  0.62500  0.12500  1.0000
  O   O1        1.0  0.86399  0.86399  0.40609  1.0000
  O   O1        1.0  0.86593  0.40609  0.86399  1.0000
  O   O1        1.0  0.40609  0.86593  0.86399  1.0000
  O   O1        1.0  0.84391  0.38407  0.38601  1.0000
  O   O1        1.0  0.38601  0.38601  0.84391  1.0000
  O   O1        1.0  0.38601  0.38601  0.38407  1.0000
  O   O1        1.0  0.38407  0.84391  0.38601  1.0000
