data_image0
_chemical_formula_structural       OSr7Fe12SrO25
_chemical_formula_sum              "O26 Sr8 Fe12"
_cell_length_a       5.4156
_cell_length_b       11.0013
_cell_length_c       11.7793
_cell_angle_alpha    117.825
_cell_angle_beta     103.344
_cell_angle_gamma    89.917

_space_group_name_H-M_alt    "P 1"
_space_group_IT_number       1

loop_
  _space_group_symop_operation_xyz
  'x, y, z'

loop_
  _atom_site_type_symbol
  _atom_site_label
  _atom_site_symmetry_multiplicity
  _atom_site_fract_x
  _atom_site_fract_y
  _atom_site_fract_z
  _atom_site_occupancy
  O   O1        1.0  0.36930  0.74911  0.75533  1.0000
  Sr  Sr1       1.0  0.64563  0.03507  0.30954  1.0000
  Sr  Sr2       1.0  0.83562  0.72517  0.68996  1.0000
  Sr  Sr2       1.0  0.33589  0.96650  0.68875  1.0000
  Sr  Sr3       1.0  0.34139  0.47073  0.67619  1.0000
  Sr  Sr3       1.0  0.84117  0.20385  0.67638  1.0000
  Sr  Sr4       1.0  0.66432  0.52749  0.32336  1.0000
  Sr  Sr4       1.0  0.16456  0.79476  0.32323  1.0000
  Fe  Fe1       1.0  0.38316  0.83748  0.93446  1.0000
  Fe  Fe1       1.0  0.87987  0.09786  0.93577  1.0000
  Fe  Fe2       1.0  0.44582  0.16177  0.06562  1.0000
  Fe  Fe2       1.0  0.94866  0.90370  0.06588  1.0000
  Fe  Fe3       1.0  0.03535  0.44667  0.09644  1.0000
  Fe  Fe3       1.0  0.53674  0.65084  0.09641  1.0000
  Fe  Fe4       1.0  0.94025  0.55386  0.90276  1.0000
  Fe  Fe4       1.0  0.44082  0.34743  0.90385  1.0000
  Fe  Fe5       1.0  0.24335  0.61932  0.48369  1.0000
  Fe  Fe5       1.0  0.74270  0.86354  0.48173  1.0000
  Fe  Fe6       1.0  0.76042  0.38125  0.51692  1.0000
  Fe  Fe6       1.0  0.25827  0.13405  0.51337  1.0000
  Sr  Sr1       1.0  0.14578  0.27738  0.31035  1.0000
  O   O1        1.0  0.86473  0.00866  0.75642  1.0000
  O   O2        1.0  0.61397  0.25219  0.24463  1.0000
  O   O2        1.0  0.11480  0.99361  0.24540  1.0000
  O   O3        1.0  0.16067  0.52890  0.28696  1.0000
  O   O3        1.0  0.66257  0.75535  0.28594  1.0000
  O   O4        1.0  0.87636  0.46912  0.71351  1.0000
  O   O5        1.0  0.37541  0.24066  0.71294  1.0000
  O   O6        1.0  0.99942  0.75273  0.51577  1.0000
  O   O6        1.0  0.49863  0.76327  0.51454  1.0000
  O   O7        1.0  0.48418  0.24836  0.48477  1.0000
  O   O7        1.0  0.98348  0.23670  0.48377  1.0000
  O   O8        1.0  0.00340  0.49111  0.49131  1.0000
  O   O8        1.0  0.50282  0.99912  0.48843  1.0000
  O   O9        1.0  0.51360  0.51014  0.51011  1.0000
  O   O9        1.0  0.01179  0.99923  0.50806  1.0000
  O   O10       1.0  0.04405  0.73915  0.92612  1.0000
  O   O10       1.0  0.54514  0.19026  0.93005  1.0000
  O   O11       1.0  0.11608  0.26017  0.07549  1.0000
  O   O11       1.0  0.61894  0.81469  0.07519  1.0000
  O   O12       1.0  0.58173  0.53024  0.90633  1.0000
  O   O12       1.0  0.08458  0.37698  0.90894  1.0000
  O   O13       1.0  0.67902  0.47204  0.09153  1.0000
  O   O13       1.0  0.17874  0.61983  0.09352  1.0000
  O   O14       1.0  0.19138  0.99938  0.99970  1.0000
  O   O14       1.0  0.69143  0.00027  0.00060  1.0000
