# generated using pymatgen
data_Ga2O3
_symmetry_space_group_name_H-M   'P 1'
_cell_length_a   12.27969668
_cell_length_b   3.05041910
_cell_length_c   5.81376140
_cell_angle_alpha   90.00000000
_cell_angle_beta   103.71779566
_cell_angle_gamma   90.00000000
_symmetry_Int_Tables_number   1
_chemical_formula_structural   Ga2O3
_chemical_formula_sum   'Ga8 O12'
_cell_volume   211.56129318
_cell_formula_units_Z   4
loop_
 _symmetry_equiv_pos_site_id
 _symmetry_equiv_pos_as_xyz
  1  'x, y, z'
loop_
 _atom_site_type_symbol
 _atom_site_label
 _atom_site_symmetry_multiplicity
 _atom_site_fract_x
 _atom_site_fract_y
 _atom_site_fract_z
 _atom_site_occupancy
  Ga  Ga1  1  0.34126975  0.00000000  0.68589808  1
  Ga  Ga1  1  0.15873025  0.50000000  0.31410192  1
  Ga  Ga2  1  0.40959460  0.50000000  0.20488700  1
  Ga  Ga2  1  0.09040540  0.00000000  0.79511300  1
  O  O1  1  0.00376180  0.50000000  0.74402066  1
  O  O1  1  0.49623820  0.00000000  0.25597934  1
  O  O2  1  0.32677274  0.50000000  0.43715156  1
  O  O2  1  0.17322726  0.00000000  0.56284844  1
  O  O3  1  0.16514745  0.00000000  0.10925212  1
  O  O3  1  0.33485255  0.50000000  0.89074788  1
  Ga  Ga1  1  0.84126975  0.50000000  0.68589808  1
  Ga  Ga1  1  0.65873025  0.00000000  0.31410192  1
  Ga  Ga2  1  0.90959460  0.00000000  0.20488700  1
  Ga  Ga2  1  0.59040540  0.50000000  0.79511300  1
  O  O1  1  0.50376180  0.00000000  0.74402066  1
  O  O1  1  0.99623820  0.50000000  0.25597934  1
  O  O2  1  0.82677274  0.00000000  0.43715156  1
  O  O2  1  0.67322726  0.50000000  0.56284844  1
  O  O3  1  0.66514745  0.50000000  0.10925212  1
  O  O3  1  0.83485255  0.00000000  0.89074788  1
