# generated using pymatgen
data_Ga2PbO4
_symmetry_space_group_name_H-M   'P 1'
_cell_length_a   8.53767083
_cell_length_b   9.34722417
_cell_length_c   5.24730459
_cell_angle_alpha   90.00000000
_cell_angle_beta   90.00000000
_cell_angle_gamma   90.00000000
_symmetry_Int_Tables_number   1
_chemical_formula_structural   Ga2PbO4
_chemical_formula_sum   'Ga8 Pb4 O16'
_cell_volume   418.75339375
_cell_formula_units_Z   4
loop_
 _symmetry_equiv_pos_site_id
 _symmetry_equiv_pos_as_xyz
  1  'x, y, z'
loop_
 _atom_site_type_symbol
 _atom_site_label
 _atom_site_symmetry_multiplicity
 _atom_site_fract_x
 _atom_site_fract_y
 _atom_site_fract_z
 _atom_site_occupancy
  Ga  Ga1  1  0.55206226  0.17339870  0.46315475  1
  Ga  Ga1  1  0.44793774  0.32660130  0.96315475  1
  Ga  Ga1  1  0.94793774  0.17339870  0.46315475  1
  Ga  Ga1  1  0.05206226  0.32660130  0.96315475  1
  Pb  Pb1  1  0.75000000  0.02442126  0.00372451  1
  Pb  Pb1  1  0.25000000  0.47557874  0.50372451  1
  O  O1  1  0.75000000  0.19403526  0.31926914  1
  O  O1  1  0.25000000  0.30596474  0.81926914  1
  O  O2  1  0.50000000  0.00000000  0.31779211  1
  O  O2  1  0.00000000  0.00000000  0.31779211  1
  O  O3  1  0.56101078  0.18050250  0.81230212  1
  O  O3  1  0.43898922  0.31949750  0.31230212  1
  O  O3  1  0.06101078  0.31949750  0.31230212  1
  O  O3  1  0.93898922  0.18050250  0.81230212  1
  Ga  Ga1  1  0.55206226  0.67339870  0.96315475  1
  Ga  Ga1  1  0.44793774  0.82660130  0.46315475  1
  Ga  Ga1  1  0.94793774  0.67339870  0.96315475  1
  Ga  Ga1  1  0.05206226  0.82660130  0.46315475  1
  Pb  Pb1  1  0.75000000  0.52442126  0.50372451  1
  Pb  Pb1  1  0.25000000  0.97557874  0.00372451  1
  O  O1  1  0.75000000  0.69403526  0.81926914  1
  O  O1  1  0.25000000  0.80596474  0.31926914  1
  O  O2  1  0.50000000  0.50000000  0.81779211  1
  O  O2  1  0.00000000  0.50000000  0.81779211  1
  O  O3  1  0.56101078  0.68050250  0.31230212  1
  O  O3  1  0.43898922  0.81949750  0.81230212  1
  O  O3  1  0.06101078  0.81949750  0.81230212  1
  O  O3  1  0.93898922  0.68050250  0.31230212  1
