# generated using pymatgen
data_Ga4GeO8
_symmetry_space_group_name_H-M   'P 1'
_cell_length_a   12.23660996
_cell_length_b   3.02016130
_cell_length_c   9.42429968
_cell_angle_alpha   90.00000000
_cell_angle_beta   124.83344215
_cell_angle_gamma   90.00000000
_symmetry_Int_Tables_number   1
_chemical_formula_structural   Ga4GeO8
_chemical_formula_sum   'Ga8 Ge2 O16'
_cell_volume   285.88155399
_cell_formula_units_Z   2
loop_
 _symmetry_equiv_pos_site_id
 _symmetry_equiv_pos_as_xyz
  1  'x, y, z'
loop_
 _atom_site_type_symbol
 _atom_site_label
 _atom_site_symmetry_multiplicity
 _atom_site_fract_x
 _atom_site_fract_y
 _atom_site_fract_z
 _atom_site_occupancy
  Ga  Ga1  1  0.03639725  0.50000000  0.71549737  1
  Ga  Ga1  1  0.96360275  0.50000000  0.28450263  1
  Ga  Ga2  1  0.24154918  0.00000000  0.63913965  1
  Ga  Ga2  1  0.75845082  0.00000000  0.36086035  1
  Ge  Ge1  1  0.00000000  0.00000000  0.00000000  1
  O  O1  1  0.10979320  0.00000000  0.69431455  1
  O  O1  1  0.89020680  0.00000000  0.30568545  1
  O  O2  1  0.06002072  0.50000000  0.92774067  1
  O  O2  1  0.93997928  0.50000000  0.07225933  1
  O  O3  1  0.85381223  0.50000000  0.53712296  1
  O  O4  1  0.66126897  0.50000000  0.21707471  1
  O  O4  1  0.33873103  0.50000000  0.78292529  1
  O  O3  1  0.14618777  0.50000000  0.46287704  1
  Ga  Ga1  1  0.53639725  0.00000000  0.71549737  1
  Ga  Ga1  1  0.46360275  0.00000000  0.28450263  1
  Ga  Ga2  1  0.74154918  0.50000000  0.63913965  1
  Ga  Ga2  1  0.25845082  0.50000000  0.36086035  1
  Ge  Ge1  1  0.50000000  0.50000000  0.00000000  1
  O  O1  1  0.60979320  0.50000000  0.69431455  1
  O  O1  1  0.39020680  0.50000000  0.30568545  1
  O  O2  1  0.56002072  0.00000000  0.92774067  1
  O  O2  1  0.43997928  0.00000000  0.07225933  1
  O  O3  1  0.35381223  0.00000000  0.53712296  1
  O  O4  1  0.16126897  0.00000000  0.21707471  1
  O  O4  1  0.83873103  0.00000000  0.78292529  1
  O  O3  1  0.64618777  0.00000000  0.46287704  1
