# generated using pymatgen
data_GaAsO4
_symmetry_space_group_name_H-M   'P 1'
_cell_length_a   5.00574615
_cell_length_b   5.00574615
_cell_length_c   11.49358025
_cell_angle_alpha   90.00000000
_cell_angle_beta   90.00000000
_cell_angle_gamma   120.00000000
_symmetry_Int_Tables_number   1
_chemical_formula_structural   GaAsO4
_chemical_formula_sum   'Ga3 As3 O12'
_cell_volume   249.41559698
_cell_formula_units_Z   3
loop_
 _symmetry_equiv_pos_site_id
 _symmetry_equiv_pos_as_xyz
  1  'x, y, z'
loop_
 _atom_site_type_symbol
 _atom_site_label
 _atom_site_symmetry_multiplicity
 _atom_site_fract_x
 _atom_site_fract_y
 _atom_site_fract_z
 _atom_site_occupancy
  Ga  Ga1  1  0.45057372  0.45057372  0.00000000  1
  Ga  Ga1  1  0.54942628  0.00000000  0.33333333  1
  Ga  Ga1  1  0.00000000  0.54942628  0.66666667  1
  As  As1  1  0.44872204  0.44872204  0.50000000  1
  As  As1  1  0.55127796  0.00000000  0.83333333  1
  As  As1  1  0.00000000  0.55127796  0.16666667  1
  O  O1  1  0.90453720  0.29932304  0.79567595  1
  O  O1  1  0.70067696  0.60521416  0.12900928  1
  O  O1  1  0.39478584  0.09546280  0.46234261  1
  O  O1  1  0.29932304  0.90453720  0.20432405  1
  O  O1  1  0.60521416  0.70067696  0.87099072  1
  O  O1  1  0.09546280  0.39478584  0.53765739  1
  O  O2  1  0.07631266  0.39474318  0.04793224  1
  O  O2  1  0.60525682  0.68156948  0.38126557  1
  O  O2  1  0.31843052  0.92368734  0.71459890  1
  O  O2  1  0.39474318  0.07631266  0.95206776  1
  O  O2  1  0.68156948  0.60525682  0.61873443  1
  O  O2  1  0.92368734  0.31843052  0.28540110  1
