# generated using pymatgen
data_GaBPbO4
_symmetry_space_group_name_H-M   'P 1'
_cell_length_a   6.87317563
_cell_length_b   5.90323236
_cell_length_c   8.37456005
_cell_angle_alpha   90.00000000
_cell_angle_beta   90.00000000
_cell_angle_gamma   90.00000000
_symmetry_Int_Tables_number   1
_chemical_formula_structural   GaBPbO4
_chemical_formula_sum   'Ga4 B4 Pb4 O16'
_cell_volume   339.78900409
_cell_formula_units_Z   4
loop_
 _symmetry_equiv_pos_site_id
 _symmetry_equiv_pos_as_xyz
  1  'x, y, z'
loop_
 _atom_site_type_symbol
 _atom_site_label
 _atom_site_symmetry_multiplicity
 _atom_site_fract_x
 _atom_site_fract_y
 _atom_site_fract_z
 _atom_site_occupancy
  Ga  Ga1  1  0.50000000  0.00000000  0.50000000  1
  Ga  Ga1  1  0.50000000  0.50000000  0.50000000  1
  Ga  Ga1  1  0.00000000  0.50000000  0.00000000  1
  Ga  Ga1  1  0.00000000  0.00000000  0.00000000  1
  B  B1  1  0.72178424  0.75000000  0.76427180  1
  B  B1  1  0.27821576  0.25000000  0.23572820  1
  B  B1  1  0.22178424  0.75000000  0.73572820  1
  B  B1  1  0.77821576  0.25000000  0.26427180  1
  Pb  Pb1  1  0.44884734  0.75000000  0.14394632  1
  Pb  Pb1  1  0.55115266  0.25000000  0.85605368  1
  Pb  Pb1  1  0.94884734  0.75000000  0.35605368  1
  Pb  Pb1  1  0.05115266  0.25000000  0.64394632  1
  O  O1  1  0.68267150  0.25000000  0.40994772  1
  O  O1  1  0.31732850  0.75000000  0.59005228  1
  O  O1  1  0.18267150  0.25000000  0.09005228  1
  O  O1  1  0.81732850  0.75000000  0.90994772  1
  O  O2  1  0.39342578  0.25000000  0.61132926  1
  O  O2  1  0.60657422  0.75000000  0.38867074  1
  O  O2  1  0.89342578  0.25000000  0.88867074  1
  O  O2  1  0.10657422  0.75000000  0.11132926  1
  O  O3  1  0.32741094  0.04590442  0.30722972  1
  O  O3  1  0.67258906  0.54590442  0.69277028  1
  O  O3  1  0.82741094  0.45409558  0.19277028  1
  O  O3  1  0.17258906  0.95409558  0.80722972  1
  O  O3  1  0.67258906  0.95409558  0.69277028  1
  O  O3  1  0.32741094  0.45409558  0.30722972  1
  O  O3  1  0.17258906  0.54590442  0.80722972  1
  O  O3  1  0.82741094  0.04590442  0.19277028  1
