# generated using pymatgen
data_Ge3Sb2O9
_symmetry_space_group_name_H-M   'P 1'
_cell_length_a   7.04976764
_cell_length_b   7.04976764
_cell_length_c   9.83230727
_cell_angle_alpha   90.00000000
_cell_angle_beta   90.00000000
_cell_angle_gamma   120.00000000
_symmetry_Int_Tables_number   1
_chemical_formula_structural   Ge3Sb2O9
_chemical_formula_sum   'Ge6 Sb4 O18'
_cell_volume   423.19027577
_cell_formula_units_Z   2
loop_
 _symmetry_equiv_pos_site_id
 _symmetry_equiv_pos_as_xyz
  1  'x, y, z'
loop_
 _atom_site_type_symbol
 _atom_site_label
 _atom_site_symmetry_multiplicity
 _atom_site_fract_x
 _atom_site_fract_y
 _atom_site_fract_z
 _atom_site_occupancy
  Ge  Ge1  1  0.29307227  0.08000193  0.25000000  1
  Ge  Ge1  1  0.08000193  0.78692966  0.75000000  1
  Ge  Ge1  1  0.21307034  0.29307227  0.75000000  1
  Ge  Ge1  1  0.78692966  0.70692773  0.25000000  1
  Ge  Ge1  1  0.70692773  0.91999807  0.75000000  1
  Ge  Ge1  1  0.91999807  0.21307034  0.25000000  1
  Sb  Sb1  1  0.33333333  0.66666667  0.01567744  1
  Sb  Sb1  1  0.66666667  0.33333333  0.51567744  1
  Sb  Sb1  1  0.66666667  0.33333333  0.98432256  1
  Sb  Sb1  1  0.33333333  0.66666667  0.48432256  1
  O  O1  1  0.56456069  0.90968157  0.59945749  1
  O  O1  1  0.90968157  0.34512088  0.09945749  1
  O  O1  1  0.65487912  0.56456069  0.09945749  1
  O  O1  1  0.34512088  0.43543931  0.59945749  1
  O  O1  1  0.09031843  0.65487912  0.59945749  1
  O  O1  1  0.43543931  0.09031843  0.09945749  1
  O  O1  1  0.43543931  0.09031843  0.40054251  1
  O  O1  1  0.09031843  0.65487912  0.90054251  1
  O  O1  1  0.34512088  0.43543931  0.90054251  1
  O  O1  1  0.65487912  0.56456069  0.40054251  1
  O  O1  1  0.90968157  0.34512088  0.40054251  1
  O  O1  1  0.56456069  0.90968157  0.90054251  1
  O  O2  1  0.92685483  0.19917421  0.75000000  1
  O  O2  1  0.19917421  0.27231938  0.25000000  1
  O  O2  1  0.72768062  0.92685483  0.25000000  1
  O  O2  1  0.27231938  0.07314517  0.75000000  1
  O  O2  1  0.80082579  0.72768062  0.75000000  1
  O  O2  1  0.07314517  0.80082579  0.25000000  1
