# generated using pymatgen
data_GePbO3
_symmetry_space_group_name_H-M   'P 1'
_cell_length_a   15.64133542
_cell_length_b   15.64133542
_cell_length_c   7.25522403
_cell_angle_alpha   90.00000000
_cell_angle_beta   90.00000000
_cell_angle_gamma   120.00000000
_symmetry_Int_Tables_number   1
_chemical_formula_structural   GePbO3
_chemical_formula_sum   'Ge18 Pb18 O54'
_cell_volume   1537.19554583
_cell_formula_units_Z   18
loop_
 _symmetry_equiv_pos_site_id
 _symmetry_equiv_pos_as_xyz
  1  'x, y, z'
loop_
 _atom_site_type_symbol
 _atom_site_label
 _atom_site_symmetry_multiplicity
 _atom_site_fract_x
 _atom_site_fract_y
 _atom_site_fract_z
 _atom_site_occupancy
  Ge  Ge1  1  0.48926332  0.37752332  0.85866667  1
  Ge  Ge1  1  0.22159334  0.17740335  0.52533334  1
  Ge  Ge1  1  0.17740335  0.95581001  0.47466666  1
  Ge  Ge1  1  0.37752332  0.88826000  0.14133333  1
  Ge  Ge1  1  0.44507333  0.15592999  0.80799999  1
  Ge  Ge1  1  0.28914334  0.44507333  0.19200001  1
  Pb  Pb1  1  0.20633243  0.95305947  0.95694127  1
  Pb  Pb1  1  0.28639281  0.41339371  0.70972540  1
  Pb  Pb1  1  0.25327295  0.20633243  0.04305873  1
  Pb  Pb1  1  0.38027386  0.91993962  0.62360793  1
  Pb  Pb1  1  0.46033424  0.38027386  0.37639207  1
  Pb  Pb1  1  0.41339371  0.12700091  0.29027460  1
  O  O1  1  0.27946985  0.79118869  0.27578551  1
  O  O2  1  0.45324606  0.43960489  0.69875511  1
  O  O3  1  0.33302787  0.41280212  0.38972985  1
  O  O2  1  0.34697450  0.11991272  0.96791155  1
  O  O3  1  0.25355908  0.99969454  0.27693682  1
  O  O1  1  0.54214465  0.15494783  0.94245218  1
  O  O2  1  0.22706177  0.34697450  0.03208845  1
  O  O3  1  0.41310758  0.33363880  0.05639651  1
  O  O2  1  0.21342061  0.89372844  0.63457822  1
  O  O2  1  0.31969217  0.21342061  0.36542178  1
  O  O1  1  0.17838550  0.05386348  0.60911885  1
  O  O1  1  0.48828117  0.27946985  0.72421449  1
  O  O3  1  0.41280212  0.07977425  0.61027015  1
  O  O1  1  0.12452202  0.17838550  0.39088115  1
  O  O2  1  0.43960489  0.98635884  0.30124489  1
  O  O1  1  0.38719681  0.54214465  0.05754782  1
  O  O3  1  0.33363880  0.92053121  0.94360349  1
  O  O3  1  0.25386455  0.25355908  0.72306318  1
  Ge  Ge1  1  0.15592999  0.71085666  0.19200001  1
  Ge  Ge1  1  0.88826000  0.51073668  0.85866667  1
  Ge  Ge1  1  0.84407001  0.28914334  0.80799999  1
  Ge  Ge1  1  0.04418999  0.22159334  0.47466666  1
  Ge  Ge1  1  0.11174000  0.48926332  0.14133333  1
  Ge  Ge1  1  0.95581001  0.77840666  0.52533334  1
  Pb  Pb1  1  0.87299909  0.28639281  0.29027460  1
  Pb  Pb1  1  0.95305947  0.74672705  0.04305873  1
  Pb  Pb1  1  0.91993962  0.53966576  0.37639207  1
  Pb  Pb1  1  0.04694053  0.25327295  0.95694127  1
  Pb  Pb1  1  0.12700091  0.71360719  0.70972540  1
  Pb  Pb1  1  0.08006038  0.46033424  0.62360793  1
  O  O1  1  0.94613652  0.12452202  0.60911885  1
  O  O2  1  0.11991272  0.77293823  0.03208845  1
  O  O3  1  0.99969454  0.74613545  0.72306318  1
  O  O2  1  0.01364116  0.45324606  0.30124489  1
  O  O3  1  0.92022575  0.33302787  0.61027015  1
  O  O1  1  0.20881131  0.48828117  0.27578551  1
  O  O2  1  0.89372844  0.68030783  0.36542178  1
  O  O3  1  0.07977425  0.66697213  0.38972985  1
  O  O2  1  0.88008728  0.22706177  0.96791155  1
  O  O2  1  0.98635884  0.54675394  0.69875511  1
  O  O1  1  0.84505217  0.38719681  0.94245218  1
  O  O1  1  0.15494783  0.61280319  0.05754782  1
  O  O3  1  0.07946879  0.41310758  0.94360349  1
  O  O1  1  0.79118869  0.51171883  0.72421449  1
  O  O2  1  0.10627156  0.31969217  0.63457822  1
  O  O1  1  0.05386348  0.87547798  0.39088115  1
  O  O3  1  0.00030546  0.25386455  0.27693682  1
  O  O3  1  0.92053121  0.58689242  0.05639651  1
  Ge  Ge1  1  0.82259665  0.04418999  0.52533334  1
  Ge  Ge1  1  0.55492667  0.84407001  0.19200001  1
  Ge  Ge1  1  0.51073668  0.62247668  0.14133333  1
  Ge  Ge1  1  0.71085666  0.55492667  0.80799999  1
  Ge  Ge1  1  0.77840666  0.82259665  0.47466666  1
  Ge  Ge1  1  0.62247668  0.11174000  0.85866667  1
  Pb  Pb1  1  0.53966576  0.61972614  0.62360793  1
  Pb  Pb1  1  0.61972614  0.08006038  0.37639207  1
  Pb  Pb1  1  0.58660629  0.87299909  0.70972540  1
  Pb  Pb1  1  0.71360719  0.58660629  0.29027460  1
  Pb  Pb1  1  0.79366757  0.04694053  0.04305873  1
  Pb  Pb1  1  0.74672705  0.79366757  0.95694127  1
  O  O1  1  0.61280319  0.45785535  0.94245218  1
  O  O2  1  0.78657939  0.10627156  0.36542178  1
  O  O3  1  0.66636120  0.07946879  0.05639651  1
  O  O2  1  0.68030783  0.78657939  0.63457822  1
  O  O3  1  0.58689242  0.66636120  0.94360349  1
  O  O1  1  0.87547798  0.82161450  0.60911885  1
  O  O2  1  0.56039511  0.01364116  0.69875511  1
  O  O3  1  0.74644092  0.00030546  0.72306318  1
  O  O2  1  0.54675394  0.56039511  0.30124489  1
  O  O2  1  0.65302550  0.88008728  0.03208845  1
  O  O1  1  0.51171883  0.72053015  0.27578551  1
  O  O1  1  0.82161450  0.94613652  0.39088115  1
  O  O3  1  0.74613545  0.74644092  0.27693682  1
  O  O1  1  0.45785535  0.84505217  0.05754782  1
  O  O2  1  0.77293823  0.65302550  0.96791155  1
  O  O1  1  0.72053015  0.20881131  0.72421449  1
  O  O3  1  0.66697213  0.58719788  0.61027015  1
  O  O3  1  0.58719788  0.92022575  0.38972985  1
