# generated using pymatgen
data_HfGeO4
_symmetry_space_group_name_H-M   'P 1'
_cell_length_a   4.86417375
_cell_length_b   4.86417375
_cell_length_c   10.42672140
_cell_angle_alpha   90.00000000
_cell_angle_beta   90.00000000
_cell_angle_gamma   90.00000000
_symmetry_Int_Tables_number   1
_chemical_formula_structural   HfGeO4
_chemical_formula_sum   'Hf4 Ge4 O16'
_cell_volume   246.69817000
_cell_formula_units_Z   4
loop_
 _symmetry_equiv_pos_site_id
 _symmetry_equiv_pos_as_xyz
  1  'x, y, z'
loop_
 _atom_site_type_symbol
 _atom_site_label
 _atom_site_symmetry_multiplicity
 _atom_site_fract_x
 _atom_site_fract_y
 _atom_site_fract_z
 _atom_site_occupancy
  Hf  Hf1  1  0.00000000  0.50000000  0.25000000  1
  Hf  Hf1  1  0.50000000  0.50000000  0.50000000  1
  Ge  Ge1  1  0.50000000  0.00000000  0.25000000  1
  Ge  Ge1  1  0.00000000  0.00000000  0.50000000  1
  O  O1  1  0.72978694  0.17700970  0.58447958  1
  O  O1  1  0.67700970  0.27021306  0.33447958  1
  O  O1  1  0.32299030  0.72978694  0.33447958  1
  O  O1  1  0.27021306  0.82299030  0.58447958  1
  O  O1  1  0.72978694  0.67700970  0.66552042  1
  O  O1  1  0.17700970  0.27021306  0.41552042  1
  O  O1  1  0.82299030  0.72978694  0.41552042  1
  O  O1  1  0.27021306  0.32299030  0.66552042  1
  Hf  Hf1  1  0.50000000  0.00000000  0.75000000  1
  Hf  Hf1  1  0.00000000  0.00000000  0.00000000  1
  Ge  Ge1  1  0.00000000  0.50000000  0.75000000  1
  Ge  Ge1  1  0.50000000  0.50000000  0.00000000  1
  O  O1  1  0.22978694  0.67700970  0.08447958  1
  O  O1  1  0.17700970  0.77021306  0.83447958  1
  O  O1  1  0.82299030  0.22978694  0.83447958  1
  O  O1  1  0.77021306  0.32299030  0.08447958  1
  O  O1  1  0.22978694  0.17700970  0.16552042  1
  O  O1  1  0.67700970  0.77021306  0.91552042  1
  O  O1  1  0.32299030  0.22978694  0.91552042  1
  O  O1  1  0.77021306  0.82299030  0.16552042  1
