# generated using pymatgen
data_HfSiO4
_symmetry_space_group_name_H-M   'P 1'
_cell_length_a   6.56559395
_cell_length_b   6.56559395
_cell_length_c   5.95072522
_cell_angle_alpha   90.00000000
_cell_angle_beta   90.00000000
_cell_angle_gamma   90.00000000
_symmetry_Int_Tables_number   1
_chemical_formula_structural   HfSiO4
_chemical_formula_sum   'Hf4 Si4 O16'
_cell_volume   256.51805477
_cell_formula_units_Z   4
loop_
 _symmetry_equiv_pos_site_id
 _symmetry_equiv_pos_as_xyz
  1  'x, y, z'
loop_
 _atom_site_type_symbol
 _atom_site_label
 _atom_site_symmetry_multiplicity
 _atom_site_fract_x
 _atom_site_fract_y
 _atom_site_fract_z
 _atom_site_occupancy
  Hf  Hf1  1  0.50000000  0.50000000  0.50000000  1
  Hf  Hf1  1  0.50000000  0.00000000  0.75000000  1
  Si  Si1  1  0.50000000  0.00000000  0.25000000  1
  Si  Si1  1  0.00000000  0.00000000  0.50000000  1
  O  O1  1  0.00000000  0.18492490  0.31689608  1
  O  O1  1  0.18492490  0.50000000  0.56689608  1
  O  O1  1  0.31507510  0.00000000  0.06689608  1
  O  O1  1  0.00000000  0.81507510  0.31689608  1
  O  O1  1  0.81507510  0.00000000  0.68310392  1
  O  O1  1  0.00000000  0.31507510  0.93310392  1
  O  O1  1  0.50000000  0.18492490  0.43310392  1
  O  O1  1  0.18492490  0.00000000  0.68310392  1
  Hf  Hf1  1  0.00000000  0.00000000  0.00000000  1
  Hf  Hf1  1  0.00000000  0.50000000  0.25000000  1
  Si  Si1  1  0.00000000  0.50000000  0.75000000  1
  Si  Si1  1  0.50000000  0.50000000  0.00000000  1
  O  O1  1  0.50000000  0.68492490  0.81689608  1
  O  O1  1  0.68492490  0.00000000  0.06689608  1
  O  O1  1  0.81507510  0.50000000  0.56689608  1
  O  O1  1  0.50000000  0.31507510  0.81689608  1
  O  O1  1  0.31507510  0.50000000  0.18310392  1
  O  O1  1  0.50000000  0.81507510  0.43310392  1
  O  O1  1  0.00000000  0.68492490  0.93310392  1
  O  O1  1  0.68492490  0.50000000  0.18310392  1
