# generated using pymatgen
data_Hg2GeO4
_symmetry_space_group_name_H-M   'P 1'
_cell_length_a   6.60677820
_cell_length_b   10.69865573
_cell_length_c   11.65266846
_cell_angle_alpha   90.00000000
_cell_angle_beta   90.00000000
_cell_angle_gamma   90.00000000
_symmetry_Int_Tables_number   1
_chemical_formula_structural   Hg2GeO4
_chemical_formula_sum   'Hg16 Ge8 O32'
_cell_volume   823.65308531
_cell_formula_units_Z   8
loop_
 _symmetry_equiv_pos_site_id
 _symmetry_equiv_pos_as_xyz
  1  'x, y, z'
loop_
 _atom_site_type_symbol
 _atom_site_label
 _atom_site_symmetry_multiplicity
 _atom_site_fract_x
 _atom_site_fract_y
 _atom_site_fract_z
 _atom_site_occupancy
  Hg  Hg1  1  0.50000000  0.17885137  0.00000000  1
  Hg  Hg1  1  0.50000000  0.82114863  0.00000000  1
  Hg  Hg1  1  0.75000000  0.07114863  0.25000000  1
  Hg  Hg1  1  0.75000000  0.42885137  0.25000000  1
  Ge  Ge1  1  0.00000000  0.00000000  0.00000000  1
  Ge  Ge1  1  0.75000000  0.75000000  0.25000000  1
  O  O1  1  0.85308726  0.39222126  0.41648370  1
  O  O1  1  0.85308726  0.10777874  0.08351630  1
  O  O1  1  0.64691274  0.39222126  0.08351630  1
  O  O1  1  0.64691274  0.10777874  0.41648370  1
  O  O1  1  0.89691274  0.85777874  0.33351630  1
  O  O1  1  0.39691274  0.14222126  0.16648370  1
  O  O1  1  0.10308726  0.14222126  0.33351630  1
  O  O1  1  0.60308726  0.85777874  0.16648370  1
  Hg  Hg1  1  0.50000000  0.67885137  0.50000000  1
  Hg  Hg1  1  0.50000000  0.32114863  0.50000000  1
  Hg  Hg1  1  0.75000000  0.57114863  0.75000000  1
  Hg  Hg1  1  0.75000000  0.92885137  0.75000000  1
  Ge  Ge1  1  0.00000000  0.50000000  0.50000000  1
  Ge  Ge1  1  0.75000000  0.25000000  0.75000000  1
  O  O1  1  0.85308726  0.89222126  0.91648370  1
  O  O1  1  0.85308726  0.60777874  0.58351630  1
  O  O1  1  0.64691274  0.89222126  0.58351630  1
  O  O1  1  0.64691274  0.60777874  0.91648370  1
  O  O1  1  0.89691274  0.35777874  0.83351630  1
  O  O1  1  0.39691274  0.64222126  0.66648370  1
  O  O1  1  0.10308726  0.64222126  0.83351630  1
  O  O1  1  0.60308726  0.35777874  0.66648370  1
  Hg  Hg1  1  0.00000000  0.17885137  0.50000000  1
  Hg  Hg1  1  0.00000000  0.82114863  0.50000000  1
  Hg  Hg1  1  0.25000000  0.07114863  0.75000000  1
  Hg  Hg1  1  0.25000000  0.42885137  0.75000000  1
  Ge  Ge1  1  0.50000000  0.00000000  0.50000000  1
  Ge  Ge1  1  0.25000000  0.75000000  0.75000000  1
  O  O1  1  0.35308726  0.39222126  0.91648370  1
  O  O1  1  0.35308726  0.10777874  0.58351630  1
  O  O1  1  0.14691274  0.39222126  0.58351630  1
  O  O1  1  0.14691274  0.10777874  0.91648370  1
  O  O1  1  0.39691274  0.85777874  0.83351630  1
  O  O1  1  0.89691274  0.14222126  0.66648370  1
  O  O1  1  0.60308726  0.14222126  0.83351630  1
  O  O1  1  0.10308726  0.85777874  0.66648370  1
  Hg  Hg1  1  0.00000000  0.67885137  0.00000000  1
  Hg  Hg1  1  0.00000000  0.32114863  0.00000000  1
  Hg  Hg1  1  0.25000000  0.57114863  0.25000000  1
  Hg  Hg1  1  0.25000000  0.92885137  0.25000000  1
  Ge  Ge1  1  0.50000000  0.50000000  0.00000000  1
  Ge  Ge1  1  0.25000000  0.25000000  0.25000000  1
  O  O1  1  0.35308726  0.89222126  0.41648370  1
  O  O1  1  0.35308726  0.60777874  0.08351630  1
  O  O1  1  0.14691274  0.89222126  0.08351630  1
  O  O1  1  0.14691274  0.60777874  0.41648370  1
  O  O1  1  0.39691274  0.35777874  0.33351630  1
  O  O1  1  0.89691274  0.64222126  0.16648370  1
  O  O1  1  0.60308726  0.64222126  0.33351630  1
  O  O1  1  0.10308726  0.35777874  0.16648370  1
