# generated using pymatgen
data_Hg2WO4
_symmetry_space_group_name_H-M   'P 1'
_cell_length_a   8.73618566
_cell_length_b   11.50134556
_cell_length_c   4.93776446
_cell_angle_alpha   90.00000000
_cell_angle_beta   114.33007001
_cell_angle_gamma   90.00000000
_symmetry_Int_Tables_number   1
_chemical_formula_structural   Hg2WO4
_chemical_formula_sum   'Hg8 W4 O16'
_cell_volume   452.07290457
_cell_formula_units_Z   4
loop_
 _symmetry_equiv_pos_site_id
 _symmetry_equiv_pos_as_xyz
  1  'x, y, z'
loop_
 _atom_site_type_symbol
 _atom_site_label
 _atom_site_symmetry_multiplicity
 _atom_site_fract_x
 _atom_site_fract_y
 _atom_site_fract_z
 _atom_site_occupancy
  Hg  Hg1  1  0.64081728  0.10998254  0.47945092  1
  Hg  Hg1  1  0.35918272  0.10998254  0.02054908  1
  Hg  Hg1  1  0.35918272  0.89001746  0.52054908  1
  Hg  Hg1  1  0.64081728  0.89001746  0.97945092  1
  W  W1  1  0.50000000  0.59759956  0.25000000  1
  W  W1  1  0.50000000  0.40240044  0.75000000  1
  O  O1  1  0.35511458  0.69498032  0.29763948  1
  O  O1  1  0.64488542  0.69498032  0.20236052  1
  O  O1  1  0.64488542  0.30501968  0.70236052  1
  O  O1  1  0.35511458  0.30501968  0.79763948  1
  O  O2  1  0.86789720  0.04841014  0.84901112  1
  O  O2  1  0.13210280  0.04841014  0.65098888  1
  O  O2  1  0.86789720  0.95158986  0.34901112  1
  O  O2  1  0.13210280  0.95158986  0.15098888  1
  Hg  Hg1  1  0.14081728  0.60998254  0.47945092  1
  Hg  Hg1  1  0.85918272  0.60998254  0.02054908  1
  Hg  Hg1  1  0.85918272  0.39001746  0.52054908  1
  Hg  Hg1  1  0.14081728  0.39001746  0.97945092  1
  W  W1  1  0.00000000  0.09759956  0.25000000  1
  W  W1  1  0.00000000  0.90240044  0.75000000  1
  O  O1  1  0.85511458  0.19498032  0.29763948  1
  O  O1  1  0.14488542  0.19498032  0.20236052  1
  O  O1  1  0.14488542  0.80501968  0.70236052  1
  O  O1  1  0.85511458  0.80501968  0.79763948  1
  O  O2  1  0.36789720  0.54841014  0.84901112  1
  O  O2  1  0.63210280  0.54841014  0.65098888  1
  O  O2  1  0.36789720  0.45158986  0.34901112  1
  O  O2  1  0.63210280  0.45158986  0.15098888  1
