# generated using pymatgen
data_Hg3(BO3)2
_symmetry_space_group_name_H-M   'P 1'
_cell_length_a   8.93597725
_cell_length_b   8.93597725
_cell_length_c   13.22493273
_cell_angle_alpha   90.00000000
_cell_angle_beta   90.00000000
_cell_angle_gamma   120.00000000
_symmetry_Int_Tables_number   1
_chemical_formula_structural   Hg3(BO3)2
_chemical_formula_sum   'Hg18 B12 O36'
_cell_volume   914.55159753
_cell_formula_units_Z   6
loop_
 _symmetry_equiv_pos_site_id
 _symmetry_equiv_pos_as_xyz
  1  'x, y, z'
loop_
 _atom_site_type_symbol
 _atom_site_label
 _atom_site_symmetry_multiplicity
 _atom_site_fract_x
 _atom_site_fract_y
 _atom_site_fract_z
 _atom_site_occupancy
  Hg  Hg1  1  0.33333333  0.02019200  0.41666667  1
  Hg  Hg1  1  0.97980800  0.31314133  0.41666667  1
  Hg  Hg1  1  0.68685867  0.66666667  0.41666667  1
  Hg  Hg1  1  0.00000000  0.64647467  0.25000000  1
  Hg  Hg1  1  0.35352533  0.35352533  0.25000000  1
  Hg  Hg1  1  0.64647467  0.00000000  0.25000000  1
  B  B1  1  0.66666667  0.33333333  0.44383650  1
  B  B1  1  0.66666667  0.33333333  0.22283017  1
  B  B1  1  0.66666667  0.33333333  0.94383650  1
  B  B1  1  0.66666667  0.33333333  0.72283017  1
  O  O1  1  0.48901000  0.22952327  0.22265480  1
  O  O1  1  0.77047673  0.25948673  0.22265480  1
  O  O1  1  0.74051327  0.51099000  0.22265480  1
  O  O1  1  0.59282007  0.43714340  0.94401187  1
  O  O1  1  0.84432333  0.40717993  0.94401187  1
  O  O1  1  0.56285660  0.15567667  0.94401187  1
  O  O1  1  0.56285660  0.40717993  0.44401187  1
  O  O1  1  0.84432333  0.43714340  0.44401187  1
  O  O1  1  0.59282007  0.15567667  0.44401187  1
  O  O1  1  0.48901000  0.25948673  0.72265480  1
  O  O1  1  0.77047673  0.51099000  0.72265480  1
  O  O1  1  0.74051327  0.22952327  0.72265480  1
  Hg  Hg1  1  0.00000000  0.35352533  0.75000000  1
  Hg  Hg1  1  0.64647467  0.64647467  0.75000000  1
  Hg  Hg1  1  0.35352533  0.00000000  0.75000000  1
  Hg  Hg1  1  0.66666667  0.97980800  0.58333333  1
  Hg  Hg1  1  0.02019200  0.68685867  0.58333333  1
  Hg  Hg1  1  0.31314133  0.33333333  0.58333333  1
  B  B1  1  0.33333333  0.66666667  0.77716983  1
  B  B1  1  0.33333333  0.66666667  0.55616350  1
  B  B1  1  0.33333333  0.66666667  0.27716983  1
  B  B1  1  0.33333333  0.66666667  0.05616350  1
  O  O1  1  0.15567667  0.56285660  0.55598813  1
  O  O1  1  0.43714340  0.59282007  0.55598813  1
  O  O1  1  0.40717993  0.84432333  0.55598813  1
  O  O1  1  0.25948673  0.77047673  0.27734520  1
  O  O1  1  0.51099000  0.74051327  0.27734520  1
  O  O1  1  0.22952327  0.48901000  0.27734520  1
  O  O1  1  0.22952327  0.74051327  0.77734520  1
  O  O1  1  0.51099000  0.77047673  0.77734520  1
  O  O1  1  0.25948673  0.48901000  0.77734520  1
  O  O1  1  0.15567667  0.59282007  0.05598813  1
  O  O1  1  0.43714340  0.84432333  0.05598813  1
  O  O1  1  0.40717993  0.56285660  0.05598813  1
  Hg  Hg1  1  0.66666667  0.68685867  0.08333333  1
  Hg  Hg1  1  0.31314133  0.97980800  0.08333333  1
  Hg  Hg1  1  0.02019200  0.33333333  0.08333333  1
  Hg  Hg1  1  0.33333333  0.31314133  0.91666667  1
  Hg  Hg1  1  0.68685867  0.02019200  0.91666667  1
  Hg  Hg1  1  0.97980800  0.66666667  0.91666667  1
  B  B1  1  0.00000000  0.00000000  0.11050317  1
  B  B1  1  0.00000000  0.00000000  0.88949683  1
  B  B1  1  0.00000000  0.00000000  0.61050317  1
  B  B1  1  0.00000000  -0.00000000  0.38949683  1
  O  O1  1  0.82234333  0.89618993  0.88932146  1
  O  O1  1  0.10381007  0.92615340  0.88932146  1
  O  O1  1  0.07384660  0.17765667  0.88932146  1
  O  O1  1  0.92615340  0.10381007  0.61067854  1
  O  O1  1  0.17765667  0.07384660  0.61067854  1
  O  O1  1  0.89618993  0.82234333  0.61067854  1
  O  O1  1  0.89618993  0.07384660  0.11067854  1
  O  O1  1  0.17765667  0.10381007  0.11067854  1
  O  O1  1  0.92615340  0.82234333  0.11067854  1
  O  O1  1  0.82234333  0.92615340  0.38932146  1
  O  O1  1  0.10381007  0.17765667  0.38932146  1
  O  O1  1  0.07384660  0.89618993  0.38932146  1
