# generated using pymatgen
data_HgMoO4
_symmetry_space_group_name_H-M   'P 1'
_cell_length_a   11.34324779
_cell_length_b   6.08227430
_cell_length_c   5.14535142
_cell_angle_alpha   90.00000000
_cell_angle_beta   112.81044980
_cell_angle_gamma   90.00000000
_symmetry_Int_Tables_number   1
_chemical_formula_structural   HgMoO4
_chemical_formula_sum   'Hg4 Mo4 O16'
_cell_volume   327.22887115
_cell_formula_units_Z   4
loop_
 _symmetry_equiv_pos_site_id
 _symmetry_equiv_pos_as_xyz
  1  'x, y, z'
loop_
 _atom_site_type_symbol
 _atom_site_label
 _atom_site_symmetry_multiplicity
 _atom_site_fract_x
 _atom_site_fract_y
 _atom_site_fract_z
 _atom_site_occupancy
  Hg  Hg1  1  0.75000000  0.75000000  0.50000000  1
  Hg  Hg1  1  0.75000000  0.25000000  0.00000000  1
  Mo  Mo1  1  0.00000000  0.18979136  0.75000000  1
  Mo  Mo1  1  0.00000000  0.81020864  0.25000000  1
  O  O1  1  0.61658550  0.86702878  0.97498308  1
  O  O1  1  0.88341450  0.36702878  0.52501692  1
  O  O1  1  0.88341450  0.63297122  0.02501692  1
  O  O1  1  0.61658550  0.13297122  0.47498308  1
  O  O2  1  0.59735057  0.41091798  0.03247502  1
  O  O2  1  0.90264943  0.91091798  0.46752498  1
  O  O2  1  0.90264943  0.08908202  0.96752498  1
  O  O2  1  0.59735057  0.58908202  0.53247502  1
  Hg  Hg1  1  0.25000000  0.25000000  0.50000000  1
  Hg  Hg1  1  0.25000000  0.75000000  0.00000000  1
  Mo  Mo1  1  0.50000000  0.68979136  0.75000000  1
  Mo  Mo1  1  0.50000000  0.31020864  0.25000000  1
  O  O1  1  0.11658550  0.36702878  0.97498308  1
  O  O1  1  0.38341450  0.86702878  0.52501692  1
  O  O1  1  0.38341450  0.13297122  0.02501692  1
  O  O1  1  0.11658550  0.63297122  0.47498308  1
  O  O2  1  0.09735057  0.91091798  0.03247502  1
  O  O2  1  0.40264943  0.41091798  0.46752498  1
  O  O2  1  0.40264943  0.58908202  0.96752498  1
  O  O2  1  0.09735057  0.08908202  0.53247502  1
