# generated using pymatgen
data_HgO
_symmetry_space_group_name_H-M   'P 1'
_cell_length_a   6.66238612
_cell_length_b   5.50458921
_cell_length_c   3.56041042
_cell_angle_alpha   90.00000000
_cell_angle_beta   90.00000000
_cell_angle_gamma   90.00000000
_symmetry_Int_Tables_number   1
_chemical_formula_structural   HgO
_chemical_formula_sum   'Hg4 O4'
_cell_volume   130.57341938
_cell_formula_units_Z   4
loop_
 _symmetry_equiv_pos_site_id
 _symmetry_equiv_pos_as_xyz
  1  'x, y, z'
loop_
 _atom_site_type_symbol
 _atom_site_label
 _atom_site_symmetry_multiplicity
 _atom_site_fract_x
 _atom_site_fract_y
 _atom_site_fract_z
 _atom_site_occupancy
  Hg  Hg1  1  0.88343356  0.25000000  0.24604985  1
  Hg  Hg1  1  0.61656644  0.75000000  0.74604985  1
  Hg  Hg1  1  0.11656644  0.75000000  0.75395015  1
  Hg  Hg1  1  0.38343356  0.25000000  0.25395015  1
  O  O1  1  0.63543729  0.25000000  0.58713590  1
  O  O1  1  0.86456271  0.75000000  0.08713590  1
  O  O1  1  0.36456271  0.75000000  0.41286410  1
  O  O1  1  0.13543729  0.25000000  0.91286410  1
