data_image0
_chemical_formula_structural       OIn8O15Sr4
_chemical_formula_sum              "O16 In8 Sr4"
_cell_length_a       9.97135
_cell_length_b       11.6691
_cell_length_c       3.32058
_cell_angle_alpha    90
_cell_angle_beta     90
_cell_angle_gamma    90

_space_group_name_H-M_alt    "P 1"
_space_group_IT_number       1

loop_
  _space_group_symop_operation_xyz
  'x, y, z'

loop_
  _atom_site_type_symbol
  _atom_site_label
  _atom_site_symmetry_multiplicity
  _atom_site_fract_x
  _atom_site_fract_y
  _atom_site_fract_z
  _atom_site_occupancy
  O   O1        1.0  0.70640  0.33216  0.25000  1.0000
  In  In1       1.0  0.41854  0.10609  0.25000  1.0000
  In  In1       1.0  0.08146  0.60609  0.75000  1.0000
  In  In1       1.0  0.58146  0.89391  0.75000  1.0000
  In  In2       1.0  0.93080  0.88852  0.25000  1.0000
  In  In2       1.0  0.43080  0.61148  0.25000  1.0000
  In  In2       1.0  0.06920  0.11148  0.75000  1.0000
  In  In2       1.0  0.56920  0.38852  0.75000  1.0000
  In  In1       1.0  0.91854  0.39391  0.25000  1.0000
  O   O1        1.0  0.20640  0.16784  0.25000  1.0000
  O   O1        1.0  0.29360  0.66784  0.75000  1.0000
  O   O1        1.0  0.79360  0.83216  0.75000  1.0000
  O   O2        1.0  0.62107  0.02183  0.25000  1.0000
  O   O2        1.0  0.12107  0.47817  0.25000  1.0000
  O   O2        1.0  0.37893  0.97817  0.75000  1.0000
  O   O2        1.0  0.87893  0.52183  0.75000  1.0000
  O   O3        1.0  0.02370  0.71723  0.25000  1.0000
  O   O3        1.0  0.52370  0.78277  0.25000  1.0000
  O   O3        1.0  0.97630  0.28277  0.75000  1.0000
  O   O3        1.0  0.47630  0.21723  0.75000  1.0000
  O   O4        1.0  0.91855  0.07435  0.25000  1.0000
  O   O4        1.0  0.41855  0.42565  0.25000  1.0000
  O   O4        1.0  0.08145  0.92565  0.75000  1.0000
  O   O4        1.0  0.58145  0.57435  0.75000  1.0000
  Sr  Sr1       1.0  0.25597  0.84767  0.25000  1.0000
  Sr  Sr1       1.0  0.75597  0.65233  0.25000  1.0000
  Sr  Sr1       1.0  0.74403  0.15233  0.75000  1.0000
  Sr  Sr1       1.0  0.24403  0.34767  0.75000  1.0000
