# generated using pymatgen
data_In2Pt2O7
_symmetry_space_group_name_H-M   'P 1'
_cell_length_a   10.00163899
_cell_length_b   10.00163899
_cell_length_c   10.00163899
_cell_angle_alpha   90.00000000
_cell_angle_beta   90.00000000
_cell_angle_gamma   90.00000000
_symmetry_Int_Tables_number   1
_chemical_formula_structural   In2Pt2O7
_chemical_formula_sum   'In16 Pt16 O56'
_cell_volume   1000.49177759
_cell_formula_units_Z   8
loop_
 _symmetry_equiv_pos_site_id
 _symmetry_equiv_pos_as_xyz
  1  'x, y, z'
loop_
 _atom_site_type_symbol
 _atom_site_label
 _atom_site_symmetry_multiplicity
 _atom_site_fract_x
 _atom_site_fract_y
 _atom_site_fract_z
 _atom_site_occupancy
  In  In1  1  0.12500000  0.12500000  0.62500000  1
  In  In1  1  0.12500000  0.87500000  0.37500000  1
  In  In1  1  0.37500000  0.12500000  0.87500000  1
  In  In1  1  0.37500000  0.87500000  0.12500000  1
  Pt  Pt1  1  0.37500000  0.87500000  0.62500000  1
  Pt  Pt1  1  0.37500000  0.62500000  0.87500000  1
  Pt  Pt1  1  0.12500000  0.87500000  0.87500000  1
  Pt  Pt1  1  0.12500000  0.62500000  0.62500000  1
  O  O1  1  0.25000000  0.25000000  0.75000000  1
  O  O2  1  0.28295649  0.00000000  0.50000000  1
  O  O2  1  0.00000000  0.71704351  0.50000000  1
  O  O2  1  0.00000000  0.28295649  0.50000000  1
  O  O2  1  0.00000000  0.00000000  0.21704351  1
  O  O2  1  0.00000000  0.00000000  0.78295649  1
  O  O2  1  0.03295649  0.75000000  0.75000000  1
  O  O2  1  0.21704351  0.00000000  0.00000000  1
  O  O2  1  0.25000000  0.75000000  0.96704351  1
  O  O2  1  0.25000000  0.53295649  0.75000000  1
  O  O2  1  0.25000000  0.75000000  0.53295649  1
  O  O2  1  0.25000000  0.96704351  0.75000000  1
  O  O2  1  0.46704351  0.75000000  0.75000000  1
  O  O1  1  0.00000000  0.00000000  0.50000000  1
  In  In1  1  0.12500000  0.62500000  0.12500000  1
  In  In1  1  0.12500000  0.37500000  0.87500000  1
  In  In1  1  0.37500000  0.62500000  0.37500000  1
  In  In1  1  0.37500000  0.37500000  0.62500000  1
  Pt  Pt1  1  0.37500000  0.37500000  0.12500000  1
  Pt  Pt1  1  0.37500000  0.12500000  0.37500000  1
  Pt  Pt1  1  0.12500000  0.37500000  0.37500000  1
  Pt  Pt1  1  0.12500000  0.12500000  0.12500000  1
  O  O1  1  0.25000000  0.75000000  0.25000000  1
  O  O2  1  0.28295649  0.50000000  0.00000000  1
  O  O2  1  0.00000000  0.21704351  0.00000000  1
  O  O2  1  0.00000000  0.78295649  0.00000000  1
  O  O2  1  0.00000000  0.50000000  0.71704351  1
  O  O2  1  0.00000000  0.50000000  0.28295649  1
  O  O2  1  0.03295649  0.25000000  0.25000000  1
  O  O2  1  0.21704351  0.50000000  0.50000000  1
  O  O2  1  0.25000000  0.25000000  0.46704351  1
  O  O2  1  0.25000000  0.03295649  0.25000000  1
  O  O2  1  0.25000000  0.25000000  0.03295649  1
  O  O2  1  0.25000000  0.46704351  0.25000000  1
  O  O2  1  0.46704351  0.25000000  0.25000000  1
  O  O1  1  0.00000000  0.50000000  0.00000000  1
  In  In1  1  0.62500000  0.12500000  0.12500000  1
  In  In1  1  0.62500000  0.87500000  0.87500000  1
  In  In1  1  0.87500000  0.12500000  0.37500000  1
  In  In1  1  0.87500000  0.87500000  0.62500000  1
  Pt  Pt1  1  0.87500000  0.87500000  0.12500000  1
  Pt  Pt1  1  0.87500000  0.62500000  0.37500000  1
  Pt  Pt1  1  0.62500000  0.87500000  0.37500000  1
  Pt  Pt1  1  0.62500000  0.62500000  0.12500000  1
  O  O1  1  0.75000000  0.25000000  0.25000000  1
  O  O2  1  0.78295649  0.00000000  0.00000000  1
  O  O2  1  0.50000000  0.71704351  0.00000000  1
  O  O2  1  0.50000000  0.28295649  0.00000000  1
  O  O2  1  0.50000000  0.00000000  0.71704351  1
  O  O2  1  0.50000000  0.00000000  0.28295649  1
  O  O2  1  0.53295649  0.75000000  0.25000000  1
  O  O2  1  0.71704351  0.00000000  0.50000000  1
  O  O2  1  0.75000000  0.75000000  0.46704351  1
  O  O2  1  0.75000000  0.53295649  0.25000000  1
  O  O2  1  0.75000000  0.75000000  0.03295649  1
  O  O2  1  0.75000000  0.96704351  0.25000000  1
  O  O2  1  0.96704351  0.75000000  0.25000000  1
  O  O1  1  0.50000000  0.00000000  0.00000000  1
  In  In1  1  0.62500000  0.62500000  0.62500000  1
  In  In1  1  0.62500000  0.37500000  0.37500000  1
  In  In1  1  0.87500000  0.62500000  0.87500000  1
  In  In1  1  0.87500000  0.37500000  0.12500000  1
  Pt  Pt1  1  0.87500000  0.37500000  0.62500000  1
  Pt  Pt1  1  0.87500000  0.12500000  0.87500000  1
  Pt  Pt1  1  0.62500000  0.37500000  0.87500000  1
  Pt  Pt1  1  0.62500000  0.12500000  0.62500000  1
  O  O1  1  0.75000000  0.75000000  0.75000000  1
  O  O2  1  0.78295649  0.50000000  0.50000000  1
  O  O2  1  0.50000000  0.21704351  0.50000000  1
  O  O2  1  0.50000000  0.78295649  0.50000000  1
  O  O2  1  0.50000000  0.50000000  0.21704351  1
  O  O2  1  0.50000000  0.50000000  0.78295649  1
  O  O2  1  0.53295649  0.25000000  0.75000000  1
  O  O2  1  0.71704351  0.50000000  0.00000000  1
  O  O2  1  0.75000000  0.25000000  0.96704351  1
  O  O2  1  0.75000000  0.03295649  0.75000000  1
  O  O2  1  0.75000000  0.25000000  0.53295649  1
  O  O2  1  0.75000000  0.46704351  0.75000000  1
  O  O2  1  0.96704351  0.25000000  0.75000000  1
  O  O1  1  0.50000000  0.50000000  0.50000000  1
