# generated using pymatgen
data_In6Ge2PtO9
_symmetry_space_group_name_H-M   'P 1'
_cell_length_a   10.12896652
_cell_length_b   10.12896652
_cell_length_c   10.12896652
_cell_angle_alpha   90.00000000
_cell_angle_beta   90.00000000
_cell_angle_gamma   90.00000000
_symmetry_Int_Tables_number   1
_chemical_formula_structural   In6Ge2PtO9
_chemical_formula_sum   'In24 Ge8 Pt4 O36'
_cell_volume   1039.19107192
_cell_formula_units_Z   4
loop_
 _symmetry_equiv_pos_site_id
 _symmetry_equiv_pos_as_xyz
  1  'x, y, z'
loop_
 _atom_site_type_symbol
 _atom_site_label
 _atom_site_symmetry_multiplicity
 _atom_site_fract_x
 _atom_site_fract_y
 _atom_site_fract_z
 _atom_site_occupancy
  In  In1  1  0.00000000  0.00000000  0.26078640  1
  In  In1  1  0.00000000  0.23921360  0.50000000  1
  In  In1  1  0.00000000  0.76078640  0.50000000  1
  In  In1  1  0.00000000  0.00000000  0.73921360  1
  In  In1  1  0.23921360  0.00000000  0.50000000  1
  In  In1  1  0.26078640  0.00000000  0.00000000  1
  Ge  Ge1  1  0.25000000  0.75000000  0.75000000  1
  Ge  Ge1  1  0.25000000  0.25000000  0.75000000  1
  Pt  Pt1  1  0.00000000  0.00000000  0.00000000  1
  O  O1  1  0.00000000  0.00000000  0.50000000  1
  O  O2  1  0.35177528  0.14822472  0.85177528  1
  O  O2  1  0.35177528  0.85177528  0.85177528  1
  O  O2  1  0.35177528  0.14822472  0.14822472  1
  O  O2  1  0.14822472  0.14822472  0.35177528  1
  O  O2  1  0.14822472  0.85177528  0.64822472  1
  O  O2  1  0.35177528  0.85177528  0.14822472  1
  O  O2  1  0.14822472  0.14822472  0.64822472  1
  O  O2  1  0.14822472  0.85177528  0.35177528  1
  In  In1  1  0.00000000  0.50000000  0.76078640  1
  In  In1  1  0.00000000  0.73921360  0.00000000  1
  In  In1  1  0.00000000  0.26078640  0.00000000  1
  In  In1  1  0.00000000  0.50000000  0.23921360  1
  In  In1  1  0.23921360  0.50000000  0.00000000  1
  In  In1  1  0.26078640  0.50000000  0.50000000  1
  Ge  Ge1  1  0.25000000  0.25000000  0.25000000  1
  Ge  Ge1  1  0.25000000  0.75000000  0.25000000  1
  Pt  Pt1  1  0.00000000  0.50000000  0.50000000  1
  O  O1  1  0.00000000  0.50000000  0.00000000  1
  O  O2  1  0.35177528  0.64822472  0.35177528  1
  O  O2  1  0.35177528  0.35177528  0.35177528  1
  O  O2  1  0.35177528  0.64822472  0.64822472  1
  O  O2  1  0.14822472  0.64822472  0.85177528  1
  O  O2  1  0.14822472  0.35177528  0.14822472  1
  O  O2  1  0.35177528  0.35177528  0.64822472  1
  O  O2  1  0.14822472  0.64822472  0.14822472  1
  O  O2  1  0.14822472  0.35177528  0.85177528  1
  In  In1  1  0.50000000  0.00000000  0.76078640  1
  In  In1  1  0.50000000  0.23921360  0.00000000  1
  In  In1  1  0.50000000  0.76078640  0.00000000  1
  In  In1  1  0.50000000  0.00000000  0.23921360  1
  In  In1  1  0.73921360  0.00000000  0.00000000  1
  In  In1  1  0.76078640  0.00000000  0.50000000  1
  Ge  Ge1  1  0.75000000  0.75000000  0.25000000  1
  Ge  Ge1  1  0.75000000  0.25000000  0.25000000  1
  Pt  Pt1  1  0.50000000  0.00000000  0.50000000  1
  O  O1  1  0.50000000  0.00000000  0.00000000  1
  O  O2  1  0.85177528  0.14822472  0.35177528  1
  O  O2  1  0.85177528  0.85177528  0.35177528  1
  O  O2  1  0.85177528  0.14822472  0.64822472  1
  O  O2  1  0.64822472  0.14822472  0.85177528  1
  O  O2  1  0.64822472  0.85177528  0.14822472  1
  O  O2  1  0.85177528  0.85177528  0.64822472  1
  O  O2  1  0.64822472  0.14822472  0.14822472  1
  O  O2  1  0.64822472  0.85177528  0.85177528  1
  In  In1  1  0.50000000  0.50000000  0.26078640  1
  In  In1  1  0.50000000  0.73921360  0.50000000  1
  In  In1  1  0.50000000  0.26078640  0.50000000  1
  In  In1  1  0.50000000  0.50000000  0.73921360  1
  In  In1  1  0.73921360  0.50000000  0.50000000  1
  In  In1  1  0.76078640  0.50000000  0.00000000  1
  Ge  Ge1  1  0.75000000  0.25000000  0.75000000  1
  Ge  Ge1  1  0.75000000  0.75000000  0.75000000  1
  Pt  Pt1  1  0.50000000  0.50000000  0.00000000  1
  O  O1  1  0.50000000  0.50000000  0.50000000  1
  O  O2  1  0.85177528  0.64822472  0.85177528  1
  O  O2  1  0.85177528  0.35177528  0.85177528  1
  O  O2  1  0.85177528  0.64822472  0.14822472  1
  O  O2  1  0.64822472  0.64822472  0.35177528  1
  O  O2  1  0.64822472  0.35177528  0.64822472  1
  O  O2  1  0.85177528  0.35177528  0.14822472  1
  O  O2  1  0.64822472  0.64822472  0.64822472  1
  O  O2  1  0.64822472  0.35177528  0.35177528  1
