# generated using pymatgen
data_In6Ga2PtO8
_symmetry_space_group_name_H-M   'P 1'
_cell_length_a   10.04880968
_cell_length_b   10.04880968
_cell_length_c   10.04880968
_cell_angle_alpha   90.00000000
_cell_angle_beta   90.00000000
_cell_angle_gamma   90.00000000
_symmetry_Int_Tables_number   1
_chemical_formula_structural   In6Ga2PtO8
_chemical_formula_sum   'In24 Ga8 Pt4 O32'
_cell_volume   1014.71449183
_cell_formula_units_Z   4
loop_
 _symmetry_equiv_pos_site_id
 _symmetry_equiv_pos_as_xyz
  1  'x, y, z'
loop_
 _atom_site_type_symbol
 _atom_site_label
 _atom_site_symmetry_multiplicity
 _atom_site_fract_x
 _atom_site_fract_y
 _atom_site_fract_z
 _atom_site_occupancy
  In  In1  1  0.00000000  0.00000000  0.74761993  1
  In  In1  1  0.00000000  0.24761993  0.50000000  1
  In  In1  1  0.00000000  0.75238007  0.50000000  1
  In  In1  1  0.25238007  0.00000000  0.00000000  1
  In  In1  1  0.24761993  0.00000000  0.50000000  1
  In  In1  1  0.00000000  0.00000000  0.25238007  1
  Ga  Ga1  1  0.25000000  0.75000000  0.75000000  1
  Ga  Ga1  1  0.25000000  0.25000000  0.75000000  1
  Pt  Pt1  1  0.00000000  0.00000000  0.00000000  1
  O  O1  1  0.14137148  0.85862852  0.64137148  1
  O  O1  1  0.35862852  0.85862852  0.14137148  1
  O  O1  1  0.14137148  0.14137148  0.64137148  1
  O  O1  1  0.14137148  0.85862852  0.35862852  1
  O  O1  1  0.35862852  0.85862852  0.85862852  1
  O  O1  1  0.35862852  0.14137148  0.14137148  1
  O  O1  1  0.14137148  0.14137148  0.35862852  1
  O  O1  1  0.35862852  0.14137148  0.85862852  1
  In  In1  1  0.00000000  0.50000000  0.24761993  1
  In  In1  1  0.00000000  0.74761993  0.00000000  1
  In  In1  1  0.00000000  0.25238007  0.00000000  1
  In  In1  1  0.25238007  0.50000000  0.50000000  1
  In  In1  1  0.24761993  0.50000000  0.00000000  1
  In  In1  1  0.00000000  0.50000000  0.75238007  1
  Ga  Ga1  1  0.25000000  0.25000000  0.25000000  1
  Ga  Ga1  1  0.25000000  0.75000000  0.25000000  1
  Pt  Pt1  1  0.00000000  0.50000000  0.50000000  1
  O  O1  1  0.14137148  0.35862852  0.14137148  1
  O  O1  1  0.35862852  0.35862852  0.64137148  1
  O  O1  1  0.14137148  0.64137148  0.14137148  1
  O  O1  1  0.14137148  0.35862852  0.85862852  1
  O  O1  1  0.35862852  0.35862852  0.35862852  1
  O  O1  1  0.35862852  0.64137148  0.64137148  1
  O  O1  1  0.14137148  0.64137148  0.85862852  1
  O  O1  1  0.35862852  0.64137148  0.35862852  1
  In  In1  1  0.50000000  0.00000000  0.24761993  1
  In  In1  1  0.50000000  0.24761993  0.00000000  1
  In  In1  1  0.50000000  0.75238007  0.00000000  1
  In  In1  1  0.75238007  0.00000000  0.50000000  1
  In  In1  1  0.74761993  0.00000000  0.00000000  1
  In  In1  1  0.50000000  0.00000000  0.75238007  1
  Ga  Ga1  1  0.75000000  0.75000000  0.25000000  1
  Ga  Ga1  1  0.75000000  0.25000000  0.25000000  1
  Pt  Pt1  1  0.50000000  0.00000000  0.50000000  1
  O  O1  1  0.64137148  0.85862852  0.14137148  1
  O  O1  1  0.85862852  0.85862852  0.64137148  1
  O  O1  1  0.64137148  0.14137148  0.14137148  1
  O  O1  1  0.64137148  0.85862852  0.85862852  1
  O  O1  1  0.85862852  0.85862852  0.35862852  1
  O  O1  1  0.85862852  0.14137148  0.64137148  1
  O  O1  1  0.64137148  0.14137148  0.85862852  1
  O  O1  1  0.85862852  0.14137148  0.35862852  1
  In  In1  1  0.50000000  0.50000000  0.74761993  1
  In  In1  1  0.50000000  0.74761993  0.50000000  1
  In  In1  1  0.50000000  0.25238007  0.50000000  1
  In  In1  1  0.75238007  0.50000000  0.00000000  1
  In  In1  1  0.74761993  0.50000000  0.50000000  1
  In  In1  1  0.50000000  0.50000000  0.25238007  1
  Ga  Ga1  1  0.75000000  0.25000000  0.75000000  1
  Ga  Ga1  1  0.75000000  0.75000000  0.75000000  1
  Pt  Pt1  1  0.50000000  0.50000000  0.00000000  1
  O  O1  1  0.64137148  0.35862852  0.64137148  1
  O  O1  1  0.85862852  0.35862852  0.14137148  1
  O  O1  1  0.64137148  0.64137148  0.64137148  1
  O  O1  1  0.64137148  0.35862852  0.35862852  1
  O  O1  1  0.85862852  0.35862852  0.85862852  1
  O  O1  1  0.85862852  0.64137148  0.14137148  1
  O  O1  1  0.64137148  0.64137148  0.35862852  1
  O  O1  1  0.85862852  0.64137148  0.85862852  1
