# generated using pymatgen
data_InBO3
_symmetry_space_group_name_H-M   'P 1'
_cell_length_a   4.88179741
_cell_length_b   4.88179741
_cell_length_c   15.55149839
_cell_angle_alpha   90.00000000
_cell_angle_beta   90.00000000
_cell_angle_gamma   120.00000000
_symmetry_Int_Tables_number   1
_chemical_formula_structural   InBO3
_chemical_formula_sum   'In6 B6 O18'
_cell_volume   320.96847390
_cell_formula_units_Z   6
loop_
 _symmetry_equiv_pos_site_id
 _symmetry_equiv_pos_as_xyz
  1  'x, y, z'
loop_
 _atom_site_type_symbol
 _atom_site_label
 _atom_site_symmetry_multiplicity
 _atom_site_fract_x
 _atom_site_fract_y
 _atom_site_fract_z
 _atom_site_occupancy
  In  In1  1  0.66666667  0.33333333  0.33333333  1
  In  In1  1  -0.00000000  0.00000000  0.50000000  1
  B  B1  1  0.33333333  0.66666667  0.41666667  1
  B  B1  1  0.00000000  0.00000000  0.25000000  1
  O  O1  1  0.00000000  0.28308530  0.25000000  1
  O  O1  1  0.71691470  0.71691470  0.25000000  1
  O  O1  1  0.28308530  0.00000000  0.25000000  1
  O  O1  1  0.33333333  0.38358136  0.41666667  1
  O  O1  1  0.61641864  0.94975197  0.41666667  1
  O  O1  1  0.05024803  0.66666667  0.41666667  1
  In  In1  1  0.33333333  0.66666667  0.66666667  1
  In  In1  1  0.66666667  0.33333333  0.83333333  1
  B  B1  1  0.00000000  0.00000000  0.75000000  1
  B  B1  1  0.66666667  0.33333333  0.58333333  1
  O  O1  1  0.66666667  0.61641864  0.58333333  1
  O  O1  1  0.38358136  0.05024803  0.58333333  1
  O  O1  1  0.94975197  0.33333333  0.58333333  1
  O  O1  1  0.00000000  0.71691470  0.75000000  1
  O  O1  1  0.28308530  0.28308530  0.75000000  1
  O  O1  1  0.71691470  0.00000000  0.75000000  1
  In  In1  1  0.00000000  -0.00000000  0.00000000  1
  In  In1  1  0.33333333  0.66666667  0.16666667  1
  B  B1  1  0.66666667  0.33333333  0.08333333  1
  B  B1  1  0.33333333  0.66666667  0.91666667  1
  O  O1  1  0.33333333  0.94975197  0.91666667  1
  O  O1  1  0.05024803  0.38358136  0.91666667  1
  O  O1  1  0.61641864  0.66666667  0.91666667  1
  O  O1  1  0.66666667  0.05024803  0.08333333  1
  O  O1  1  0.94975197  0.61641864  0.08333333  1
  O  O1  1  0.38358136  0.33333333  0.08333333  1
