# generated using pymatgen
data_K2Al2Sb2O7
_symmetry_space_group_name_H-M   'P 1'
_cell_length_a   5.66124097
_cell_length_b   5.66124097
_cell_length_c   8.12059023
_cell_angle_alpha   90.00000000
_cell_angle_beta   90.00000000
_cell_angle_gamma   120.00000000
_symmetry_Int_Tables_number   1
_chemical_formula_structural   K2Al2Sb2O7
_chemical_formula_sum   'K2 Al2 Sb2 O7'
_cell_volume   225.39356352
_cell_formula_units_Z   1
loop_
 _symmetry_equiv_pos_site_id
 _symmetry_equiv_pos_as_xyz
  1  'x, y, z'
loop_
 _atom_site_type_symbol
 _atom_site_label
 _atom_site_symmetry_multiplicity
 _atom_site_fract_x
 _atom_site_fract_y
 _atom_site_fract_z
 _atom_site_occupancy
  K  K1  1  0.33333333  0.66666667  0.40918162  1
  K  K1  1  0.66666667  0.33333333  0.59081838  1
  Al  Al1  1  0.00000000  0.00000000  0.21194564  1
  Al  Al1  1  0.00000000  0.00000000  0.78805436  1
  Sb  Sb1  1  0.33333333  0.66666667  0.84556152  1
  Sb  Sb1  1  0.66666667  0.33333333  0.15443848  1
  O  O1  1  0.33727836  0.16863918  0.29119464  1
  O  O1  1  0.66272164  0.83136082  0.70880536  1
  O  O1  1  0.16863918  0.33727836  0.70880536  1
  O  O1  1  0.83136082  0.16863918  0.29119464  1
  O  O2  1  0.00000000  0.00000000  0.00000000  1
  O  O1  1  0.83136082  0.66272164  0.29119464  1
  O  O1  1  0.16863918  0.83136082  0.70880536  1
