# generated using pymatgen
data_K2BeO2
_symmetry_space_group_name_H-M   'P 1'
_cell_length_a   7.09971189
_cell_length_b   5.78522920
_cell_length_c   10.57053079
_cell_angle_alpha   90.00000000
_cell_angle_beta   131.56430333
_cell_angle_gamma   90.00000000
_symmetry_Int_Tables_number   1
_chemical_formula_structural   K2BeO2
_chemical_formula_sum   'K8 Be4 O8'
_cell_volume   324.84973781
_cell_formula_units_Z   4
loop_
 _symmetry_equiv_pos_site_id
 _symmetry_equiv_pos_as_xyz
  1  'x, y, z'
loop_
 _atom_site_type_symbol
 _atom_site_label
 _atom_site_symmetry_multiplicity
 _atom_site_fract_x
 _atom_site_fract_y
 _atom_site_fract_z
 _atom_site_occupancy
  K  K1  1  0.25615906  0.65578164  0.11363524  1
  K  K1  1  0.74384094  0.15578164  0.38636476  1
  K  K1  1  0.74384094  0.34421836  0.88636476  1
  K  K1  1  0.25615906  0.84421836  0.61363524  1
  K  K2  1  0.84507121  0.56082000  0.24518032  1
  K  K2  1  0.15492879  0.06082000  0.25481968  1
  K  K2  1  0.15492879  0.43918000  0.75481968  1
  K  K2  1  0.84507121  0.93918000  0.74518032  1
  Be  Be1  1  0.39674312  0.08475724  0.02204324  1
  Be  Be1  1  0.39674312  0.41524276  0.52204324  1
  Be  Be1  1  0.60325688  0.91524276  0.97795676  1
  Be  Be1  1  0.60325688  0.58475724  0.47795676  1
  O  O1  1  0.75643975  0.79566364  0.94691728  1
  O  O2  1  0.33053180  0.64118712  0.41116280  1
  O  O2  1  0.66946820  0.35881288  0.58883720  1
  O  O2  1  0.33053180  0.85881288  0.91116280  1
  O  O1  1  0.24356025  0.29566364  0.55308272  1
  O  O1  1  0.24356025  0.20433636  0.05308272  1
  O  O1  1  0.75643975  0.70433636  0.44691728  1
  O  O2  1  0.66946820  0.14118712  0.08883720  1
