# generated using pymatgen
data_K2CdO2
_symmetry_space_group_name_H-M   'P 1'
_cell_length_a   10.03444354
_cell_length_b   6.20235899
_cell_length_c   6.22764344
_cell_angle_alpha   90.00000000
_cell_angle_beta   90.00000000
_cell_angle_gamma   90.00000000
_symmetry_Int_Tables_number   1
_chemical_formula_structural   K2CdO2
_chemical_formula_sum   'K8 Cd4 O8'
_cell_volume   387.59122171
_cell_formula_units_Z   4
loop_
 _symmetry_equiv_pos_site_id
 _symmetry_equiv_pos_as_xyz
  1  'x, y, z'
loop_
 _atom_site_type_symbol
 _atom_site_label
 _atom_site_symmetry_multiplicity
 _atom_site_fract_x
 _atom_site_fract_y
 _atom_site_fract_z
 _atom_site_occupancy
  K  K1  1  0.34458638  0.89603338  0.60748928  1
  K  K1  1  0.84458638  0.60396662  0.39251072  1
  K  K1  1  0.34458638  0.10396662  0.10748928  1
  K  K1  1  0.84458638  0.39603338  0.89251072  1
  K  K1  1  0.65541362  0.10396662  0.39251072  1
  K  K1  1  0.15541362  0.39603338  0.60748928  1
  K  K1  1  0.15541362  0.60396662  0.10748928  1
  K  K1  1  0.65541362  0.89603338  0.89251072  1
  Cd  Cd1  1  0.50000000  0.53848720  0.25000000  1
  Cd  Cd1  1  0.50000000  0.46151280  0.75000000  1
  Cd  Cd1  1  0.00000000  0.03848720  0.25000000  1
  Cd  Cd1  1  0.00000000  0.96151280  0.75000000  1
  O  O1  1  0.09804718  0.80045762  0.47976552  1
  O  O1  1  0.09804718  0.19954238  0.97976552  1
  O  O1  1  0.40195282  0.30045762  0.47976552  1
  O  O1  1  0.59804718  0.69954238  0.52023448  1
  O  O1  1  0.90195282  0.19954238  0.52023448  1
  O  O1  1  0.90195282  0.80045762  0.02023448  1
  O  O1  1  0.40195282  0.69954238  0.97976552  1
  O  O1  1  0.59804718  0.30045762  0.02023448  1
