# generated using pymatgen
data_K2CrO4
_symmetry_space_group_name_H-M   'P 1'
_cell_length_a   7.68929147
_cell_length_b   5.90434046
_cell_length_c   10.42706906
_cell_angle_alpha   90.00000000
_cell_angle_beta   90.00000000
_cell_angle_gamma   90.00000000
_symmetry_Int_Tables_number   1
_chemical_formula_structural   K2CrO4
_chemical_formula_sum   'K8 Cr4 O16'
_cell_volume   473.39096557
_cell_formula_units_Z   4
loop_
 _symmetry_equiv_pos_site_id
 _symmetry_equiv_pos_as_xyz
  1  'x, y, z'
loop_
 _atom_site_type_symbol
 _atom_site_label
 _atom_site_symmetry_multiplicity
 _atom_site_fract_x
 _atom_site_fract_y
 _atom_site_fract_z
 _atom_site_occupancy
  K  K1  1  0.66364214  0.25000000  0.91814518  1
  K  K1  1  0.33635786  0.75000000  0.08185482  1
  K  K1  1  0.16364214  0.25000000  0.58185482  1
  K  K1  1  0.83635786  0.75000000  0.41814518  1
  K  K2  1  0.01077600  0.75000000  0.80300306  1
  K  K2  1  0.98922400  0.25000000  0.19699694  1
  K  K2  1  0.51077600  0.75000000  0.69699694  1
  K  K2  1  0.48922400  0.25000000  0.30300306  1
  Cr  Cr1  1  0.22865830  0.25000000  0.92124516  1
  Cr  Cr1  1  0.77134170  0.75000000  0.07875484  1
  Cr  Cr1  1  0.72865830  0.25000000  0.57875484  1
  Cr  Cr1  1  0.27134170  0.75000000  0.42124516  1
  O  O1  1  0.80239588  0.47923407  0.65291664  1
  O  O1  1  0.19760412  0.97923407  0.34708336  1
  O  O1  1  0.30239588  0.02076593  0.84708336  1
  O  O1  1  0.69760412  0.52076593  0.15291664  1
  O  O1  1  0.19760412  0.52076593  0.34708336  1
  O  O1  1  0.80239588  0.02076593  0.65291664  1
  O  O1  1  0.69760412  0.97923407  0.15291664  1
  O  O1  1  0.30239588  0.47923407  0.84708336  1
  O  O2  1  0.19646652  0.75000000  0.57099998  1
  O  O2  1  0.80353348  0.25000000  0.42900002  1
  O  O2  1  0.69646652  0.75000000  0.92900002  1
  O  O2  1  0.30353348  0.25000000  0.07099998  1
  O  O3  1  0.01367834  0.25000000  0.92087780  1
  O  O3  1  0.98632166  0.75000000  0.07912220  1
  O  O3  1  0.51367834  0.25000000  0.57912220  1
  O  O3  1  0.48632166  0.75000000  0.42087780  1
