# generated using pymatgen
data_K2HgO2
_symmetry_space_group_name_H-M   'P 1'
_cell_length_a   3.92880802
_cell_length_b   3.92880802
_cell_length_c   14.02022409
_cell_angle_alpha   90.00000000
_cell_angle_beta   90.00000000
_cell_angle_gamma   90.00000000
_symmetry_Int_Tables_number   1
_chemical_formula_structural   K2HgO2
_chemical_formula_sum   'K4 Hg2 O4'
_cell_volume   216.40962429
_cell_formula_units_Z   2
loop_
 _symmetry_equiv_pos_site_id
 _symmetry_equiv_pos_as_xyz
  1  'x, y, z'
loop_
 _atom_site_type_symbol
 _atom_site_label
 _atom_site_symmetry_multiplicity
 _atom_site_fract_x
 _atom_site_fract_y
 _atom_site_fract_z
 _atom_site_occupancy
  K  K1  1  0.50000000  0.50000000  0.16875051  1
  K  K1  1  0.00000000  0.00000000  0.33124949  1
  Hg  Hg1  1  0.00000000  0.00000000  0.00000000  1
  O  O1  1  0.50000000  0.50000000  0.35876133  1
  O  O1  1  0.00000000  0.00000000  0.14123867  1
  K  K1  1  0.00000000  0.00000000  0.66875051  1
  K  K1  1  0.50000000  0.50000000  0.83124949  1
  Hg  Hg1  1  0.50000000  0.50000000  0.50000000  1
  O  O1  1  0.00000000  0.00000000  0.85876133  1
  O  O1  1  0.50000000  0.50000000  0.64123867  1
