# generated using pymatgen
data_K2LiBO3
_symmetry_space_group_name_H-M   'P 1'
_cell_length_a   8.75906919
_cell_length_b   6.10136762
_cell_length_c   7.38094846
_cell_angle_alpha   90.00000000
_cell_angle_beta   102.66434745
_cell_angle_gamma   90.00000000
_symmetry_Int_Tables_number   1
_chemical_formula_structural   K2LiBO3
_chemical_formula_sum   'K8 Li4 B4 O12'
_cell_volume   384.85823832
_cell_formula_units_Z   4
loop_
 _symmetry_equiv_pos_site_id
 _symmetry_equiv_pos_as_xyz
  1  'x, y, z'
loop_
 _atom_site_type_symbol
 _atom_site_label
 _atom_site_symmetry_multiplicity
 _atom_site_fract_x
 _atom_site_fract_y
 _atom_site_fract_z
 _atom_site_occupancy
  K  K1  1  0.82578174  0.33332857  0.32316086  1
  K  K2  1  0.00000000  0.83546106  0.50000000  1
  K  K3  1  0.00000000  0.00291671  0.00000000  1
  K  K1  1  0.17421826  0.33332857  0.67683914  1
  Li  Li1  1  0.13539276  0.59423163  0.96807492  1
  Li  Li1  1  0.86460724  0.59423163  0.03192508  1
  B  B1  1  0.14794376  0.36174006  0.21600846  1
  B  B1  1  0.85205624  0.36174006  0.78399154  1
  O  O1  1  0.06684182  0.56230703  0.21107314  1
  O  O1  1  0.93315818  0.56230703  0.78892686  1
  O  O2  1  0.13137550  0.19357776  0.33506798  1
  O  O3  1  0.75905518  0.33502507  0.91531628  1
  O  O3  1  0.24094482  0.33502507  0.08468372  1
  O  O2  1  0.86862450  0.19357776  0.66493202  1
  K  K1  1  0.32578174  0.83332857  0.32316086  1
  K  K2  1  0.50000000  0.33546106  0.50000000  1
  K  K3  1  0.50000000  0.50291671  0.00000000  1
  K  K1  1  0.67421826  0.83332857  0.67683914  1
  Li  Li1  1  0.63539276  0.09423163  0.96807492  1
  Li  Li1  1  0.36460724  0.09423163  0.03192508  1
  B  B1  1  0.64794376  0.86174006  0.21600846  1
  B  B1  1  0.35205624  0.86174006  0.78399154  1
  O  O1  1  0.56684182  0.06230703  0.21107314  1
  O  O1  1  0.43315818  0.06230703  0.78892686  1
  O  O2  1  0.63137550  0.69357776  0.33506798  1
  O  O3  1  0.25905518  0.83502507  0.91531628  1
  O  O3  1  0.74094482  0.83502507  0.08468372  1
  O  O2  1  0.36862450  0.69357776  0.66493202  1
