# generated using pymatgen
data_K2LiVO4
_symmetry_space_group_name_H-M   'P 1'
_cell_length_a   8.35368571
_cell_length_b   7.74101521
_cell_length_c   7.53652254
_cell_angle_alpha   90.00000000
_cell_angle_beta   90.34119902
_cell_angle_gamma   90.00000000
_symmetry_Int_Tables_number   1
_chemical_formula_structural   K2LiVO4
_chemical_formula_sum   'K8 Li4 V4 O16'
_cell_volume   487.34818585
_cell_formula_units_Z   4
loop_
 _symmetry_equiv_pos_site_id
 _symmetry_equiv_pos_as_xyz
  1  'x, y, z'
loop_
 _atom_site_type_symbol
 _atom_site_label
 _atom_site_symmetry_multiplicity
 _atom_site_fract_x
 _atom_site_fract_y
 _atom_site_fract_z
 _atom_site_occupancy
  K  K1  1  0.79820116  0.50000000  0.82479244  1
  K  K2  1  0.00000000  0.21798972  0.50000000  1
  K  K1  1  0.20179884  0.50000000  0.17520756  1
  K  K2  1  0.00000000  0.78201028  0.50000000  1
  Li  Li1  1  0.00000000  0.17719902  0.00000000  1
  Li  Li1  1  0.00000000  0.82280098  0.00000000  1
  V  V1  1  0.78654572  0.50000000  0.24403006  1
  V  V1  1  0.21345428  0.50000000  0.75596994  1
  O  O1  1  0.11236872  0.68053910  0.82873436  1
  O  O2  1  0.40484694  0.50000000  0.84400118  1
  O  O1  1  0.11236872  0.31946090  0.82873436  1
  O  O2  1  0.59515306  0.50000000  0.15599882  1
  O  O3  1  0.22221080  0.50000000  0.52749564  1
  O  O1  1  0.88763128  0.68053910  0.17126564  1
  O  O1  1  0.88763128  0.31946090  0.17126564  1
  O  O3  1  0.77778920  0.50000000  0.47250436  1
  K  K1  1  0.29820116  0.00000000  0.82479244  1
  K  K2  1  0.50000000  0.71798972  0.50000000  1
  K  K1  1  0.70179884  0.00000000  0.17520756  1
  K  K2  1  0.50000000  0.28201028  0.50000000  1
  Li  Li1  1  0.50000000  0.67719902  0.00000000  1
  Li  Li1  1  0.50000000  0.32280098  0.00000000  1
  V  V1  1  0.28654572  0.00000000  0.24403006  1
  V  V1  1  0.71345428  0.00000000  0.75596994  1
  O  O1  1  0.61236872  0.18053910  0.82873436  1
  O  O2  1  0.90484694  0.00000000  0.84400118  1
  O  O1  1  0.61236872  0.81946090  0.82873436  1
  O  O2  1  0.09515306  0.00000000  0.15599882  1
  O  O3  1  0.72221080  0.00000000  0.52749564  1
  O  O1  1  0.38763128  0.18053910  0.17126564  1
  O  O1  1  0.38763128  0.81946090  0.17126564  1
  O  O3  1  0.27778920  0.00000000  0.47250436  1
