# generated using pymatgen
data_K2MoO4
_symmetry_space_group_name_H-M   'P 1'
_cell_length_a   12.39934442
_cell_length_b   6.10223383
_cell_length_c   7.57954113
_cell_angle_alpha   90.00000000
_cell_angle_beta   115.66784580
_cell_angle_gamma   90.00000000
_symmetry_Int_Tables_number   1
_chemical_formula_structural   K2MoO4
_chemical_formula_sum   'K8 Mo4 O16'
_cell_volume   516.90366355
_cell_formula_units_Z   4
loop_
 _symmetry_equiv_pos_site_id
 _symmetry_equiv_pos_as_xyz
  1  'x, y, z'
loop_
 _atom_site_type_symbol
 _atom_site_label
 _atom_site_symmetry_multiplicity
 _atom_site_fract_x
 _atom_site_fract_y
 _atom_site_fract_z
 _atom_site_occupancy
  K  K1  1  0.51150156  0.00000000  0.23628846  1
  K  K1  1  0.98849844  0.50000000  0.76371154  1
  K  K2  1  0.65632321  0.50000000  0.74920820  1
  K  K2  1  0.84367679  0.00000000  0.25079180  1
  Mo  Mo1  1  0.67551929  0.50000000  0.22426674  1
  Mo  Mo1  1  0.82448071  0.00000000  0.77573326  1
  O  O1  1  0.64155541  0.73943704  0.07332126  1
  O  O1  1  0.85844459  0.23943704  0.92667874  1
  O  O1  1  0.85844459  0.76056296  0.92667874  1
  O  O1  1  0.64155541  0.26056296  0.07332126  1
  O  O2  1  0.91164689  0.00000000  0.63897286  1
  O  O2  1  0.58835311  0.50000000  0.36102714  1
  O  O3  1  0.83323368  0.50000000  0.38007760  1
  O  O3  1  0.66676632  0.00000000  0.61992240  1
  K  K1  1  0.01150156  0.50000000  0.23628846  1
  K  K1  1  0.48849844  0.00000000  0.76371154  1
  K  K2  1  0.15632321  0.00000000  0.74920820  1
  K  K2  1  0.34367679  0.50000000  0.25079180  1
  Mo  Mo1  1  0.17551929  0.00000000  0.22426674  1
  Mo  Mo1  1  0.32448071  0.50000000  0.77573326  1
  O  O1  1  0.14155541  0.23943704  0.07332126  1
  O  O1  1  0.35844459  0.73943704  0.92667874  1
  O  O1  1  0.35844459  0.26056296  0.92667874  1
  O  O1  1  0.14155541  0.76056296  0.07332126  1
  O  O2  1  0.41164689  0.50000000  0.63897286  1
  O  O2  1  0.08835311  0.00000000  0.36102714  1
  O  O3  1  0.33323368  0.00000000  0.38007760  1
  O  O3  1  0.16676632  0.50000000  0.61992240  1
