# generated using pymatgen
data_K2NaTlO3
_symmetry_space_group_name_H-M   'P 1'
_cell_length_a   6.36400457
_cell_length_b   6.93083183
_cell_length_c   11.98601083
_cell_angle_alpha   90.00000000
_cell_angle_beta   96.04782134
_cell_angle_gamma   90.00000000
_symmetry_Int_Tables_number   1
_chemical_formula_structural   K2NaTlO3
_chemical_formula_sum   'K8 Na4 Tl4 O12'
_cell_volume   525.73465734
_cell_formula_units_Z   4
loop_
 _symmetry_equiv_pos_site_id
 _symmetry_equiv_pos_as_xyz
  1  'x, y, z'
loop_
 _atom_site_type_symbol
 _atom_site_label
 _atom_site_symmetry_multiplicity
 _atom_site_fract_x
 _atom_site_fract_y
 _atom_site_fract_z
 _atom_site_occupancy
  K  K1  1  0.42307364  0.16414054  0.85610676  1
  K  K2  1  0.07066828  0.64093998  0.14010638  1
  K  K2  1  0.92933172  0.14093998  0.35989362  1
  K  K1  1  0.42307364  0.33585946  0.35610676  1
  K  K1  1  0.57692636  0.66414054  0.64389324  1
  K  K2  1  0.92933172  0.35906002  0.85989362  1
  K  K1  1  0.57692636  0.83585946  0.14389324  1
  K  K2  1  0.07066828  0.85906002  0.64010638  1
  Na  Na1  1  0.64042830  0.12302932  0.58715892  1
  Na  Na1  1  0.35957170  0.87697068  0.41284108  1
  Na  Na1  1  0.35957170  0.62302932  0.91284108  1
  Na  Na1  1  0.64042830  0.37697068  0.08715892  1
  Tl  Tl1  1  0.85337168  0.62765750  0.40829033  1
  Tl  Tl1  1  0.85337168  0.87234250  0.90829033  1
  Tl  Tl1  1  0.14662832  0.12765750  0.09170967  1
  Tl  Tl1  1  0.14662832  0.37234250  0.59170967  1
  O  O1  1  0.75553010  0.49421032  0.25419569  1
  O  O2  1  0.28355734  0.12006030  0.53209515  1
  O  O2  1  0.28355734  0.37993970  0.03209515  1
  O  O2  1  0.71644266  0.62006030  0.96790485  1
  O  O3  1  0.19814122  0.89571636  0.96274827  1
  O  O3  1  0.80185878  0.10428364  0.03725173  1
  O  O3  1  0.80185878  0.39571636  0.53725173  1
  O  O1  1  0.75553010  0.00578968  0.75419569  1
  O  O1  1  0.24446990  0.50578968  0.74580431  1
  O  O1  1  0.24446990  0.99421032  0.24580431  1
  O  O2  1  0.71644266  0.87993970  0.46790485  1
  O  O3  1  0.19814122  0.60428364  0.46274827  1
