# generated using pymatgen
data_K2Na4Be2O5
_symmetry_space_group_name_H-M   'P 1'
_cell_length_a   5.93172662
_cell_length_b   5.93172662
_cell_length_c   9.87939610
_cell_angle_alpha   90.00000000
_cell_angle_beta   90.00000000
_cell_angle_gamma   90.00000000
_symmetry_Int_Tables_number   1
_chemical_formula_structural   K2Na4Be2O5
_chemical_formula_sum   'K4 Na8 Be4 O10'
_cell_volume   347.61031320
_cell_formula_units_Z   2
loop_
 _symmetry_equiv_pos_site_id
 _symmetry_equiv_pos_as_xyz
  1  'x, y, z'
loop_
 _atom_site_type_symbol
 _atom_site_label
 _atom_site_symmetry_multiplicity
 _atom_site_fract_x
 _atom_site_fract_y
 _atom_site_fract_z
 _atom_site_occupancy
  K  K1  1  0.31910831  0.31910831  0.00000000  1
  K  K1  1  0.18089169  0.81910831  0.50000000  1
  K  K1  1  0.81910831  0.18089169  0.50000000  1
  K  K1  1  0.68089169  0.68089169  0.00000000  1
  Na  Na1  1  0.50000000  0.00000000  0.75000000  1
  Na  Na1  1  0.50000000  0.00000000  0.25000000  1
  Na  Na1  1  0.00000000  0.50000000  0.75000000  1
  Na  Na1  1  0.00000000  0.50000000  0.25000000  1
  Na  Na2  1  0.00000000  0.00000000  0.22541396  1
  Na  Na2  1  0.50000000  0.50000000  0.72541396  1
  Na  Na2  1  0.50000000  0.50000000  0.27458604  1
  Na  Na2  1  0.00000000  0.00000000  0.77458604  1
  Be  Be1  1  0.68772916  0.68772916  0.50000000  1
  Be  Be1  1  0.31227084  0.31227084  0.50000000  1
  Be  Be1  1  0.81227084  0.18772916  0.00000000  1
  Be  Be1  1  0.18772916  0.81227084  0.00000000  1
  O  O1  1  0.22586157  0.22586157  0.35993552  1
  O  O1  1  0.27413843  0.72586157  0.85993552  1
  O  O1  1  0.77413843  0.77413843  0.64006448  1
  O  O1  1  0.72586157  0.27413843  0.14006448  1
  O  O1  1  0.27413843  0.72586157  0.14006448  1
  O  O1  1  0.22586157  0.22586157  0.64006448  1
  O  O1  1  0.77413843  0.77413843  0.35993552  1
  O  O2  1  0.00000000  0.00000000  0.00000000  1
  O  O1  1  0.72586157  0.27413843  0.85993552  1
  O  O2  1  0.50000000  0.50000000  0.50000000  1
