# generated using pymatgen
data_K2Pb2O3
_symmetry_space_group_name_H-M   'P 1'
_cell_length_a   8.47002900
_cell_length_b   8.47002900
_cell_length_c   8.47002900
_cell_angle_alpha   90.00000000
_cell_angle_beta   90.00000000
_cell_angle_gamma   90.00000000
_symmetry_Int_Tables_number   1
_chemical_formula_structural   K2Pb2O3
_chemical_formula_sum   'K8 Pb8 O12'
_cell_volume   607.65166448
_cell_formula_units_Z   4
loop_
 _symmetry_equiv_pos_site_id
 _symmetry_equiv_pos_as_xyz
  1  'x, y, z'
loop_
 _atom_site_type_symbol
 _atom_site_label
 _atom_site_symmetry_multiplicity
 _atom_site_fract_x
 _atom_site_fract_y
 _atom_site_fract_z
 _atom_site_occupancy
  K  K1  1  0.97507294  0.47507294  0.02492706  1
  K  K1  1  0.02492706  0.02492706  0.02492706  1
  K  K1  1  0.02492706  0.97507294  0.47507294  1
  K  K1  1  0.47507294  0.02492706  0.97507294  1
  Pb  Pb1  1  0.74237174  0.75762826  0.24237174  1
  Pb  Pb1  1  0.75762826  0.24237174  0.74237174  1
  Pb  Pb1  1  0.25762826  0.25762826  0.25762826  1
  Pb  Pb1  1  0.24237174  0.74237174  0.75762826  1
  O  O1  1  0.00000000  0.75000000  0.20913996  1
  O  O1  1  0.00000000  0.25000000  0.29086004  1
  O  O1  1  0.75000000  0.20913996  0.00000000  1
  O  O1  1  0.20913996  0.00000000  0.75000000  1
  O  O1  1  0.29086004  0.00000000  0.25000000  1
  O  O1  1  0.25000000  0.29086004  0.00000000  1
  K  K1  1  0.47507294  0.97507294  0.52492706  1
  K  K1  1  0.52492706  0.52492706  0.52492706  1
  K  K1  1  0.52492706  0.47507294  0.97507294  1
  K  K1  1  0.97507294  0.52492706  0.47507294  1
  Pb  Pb1  1  0.24237174  0.25762826  0.74237174  1
  Pb  Pb1  1  0.25762826  0.74237174  0.24237174  1
  Pb  Pb1  1  0.75762826  0.75762826  0.75762826  1
  Pb  Pb1  1  0.74237174  0.24237174  0.25762826  1
  O  O1  1  0.50000000  0.25000000  0.70913996  1
  O  O1  1  0.50000000  0.75000000  0.79086004  1
  O  O1  1  0.25000000  0.70913996  0.50000000  1
  O  O1  1  0.70913996  0.50000000  0.25000000  1
  O  O1  1  0.79086004  0.50000000  0.75000000  1
  O  O1  1  0.75000000  0.79086004  0.50000000  1
