# generated using pymatgen
data_K2PdO2
_symmetry_space_group_name_H-M   'P 1'
_cell_length_a   3.13636936
_cell_length_b   6.03696887
_cell_length_c   8.59728822
_cell_angle_alpha   90.00000000
_cell_angle_beta   90.00000000
_cell_angle_gamma   90.00000000
_symmetry_Int_Tables_number   1
_chemical_formula_structural   K2PdO2
_chemical_formula_sum   'K4 Pd2 O4'
_cell_volume   162.78246666
_cell_formula_units_Z   2
loop_
 _symmetry_equiv_pos_site_id
 _symmetry_equiv_pos_as_xyz
  1  'x, y, z'
loop_
 _atom_site_type_symbol
 _atom_site_label
 _atom_site_symmetry_multiplicity
 _atom_site_fract_x
 _atom_site_fract_y
 _atom_site_fract_z
 _atom_site_occupancy
  K  K1  1  0.00000000  0.50000000  0.82370452  1
  K  K1  1  0.00000000  0.50000000  0.17629548  1
  Pd  Pd1  1  0.00000000  0.00000000  0.00000000  1
  O  O1  1  0.50000000  0.21783009  0.00000000  1
  O  O1  1  0.50000000  0.78216991  0.00000000  1
  K  K1  1  0.50000000  0.00000000  0.32370452  1
  K  K1  1  0.50000000  0.00000000  0.67629548  1
  Pd  Pd1  1  0.50000000  0.50000000  0.50000000  1
  O  O1  1  0.00000000  0.71783009  0.50000000  1
  O  O1  1  0.00000000  0.28216991  0.50000000  1
