# generated using pymatgen
data_K2SnO3
_symmetry_space_group_name_H-M   'P 1'
_cell_length_a   5.77683048
_cell_length_b   10.43594102
_cell_length_c   7.06007816
_cell_angle_alpha   90.00000000
_cell_angle_beta   90.00000000
_cell_angle_gamma   90.00000000
_symmetry_Int_Tables_number   1
_chemical_formula_structural   K2SnO3
_chemical_formula_sum   'K8 Sn4 O12'
_cell_volume   425.62854669
_cell_formula_units_Z   4
loop_
 _symmetry_equiv_pos_site_id
 _symmetry_equiv_pos_as_xyz
  1  'x, y, z'
loop_
 _atom_site_type_symbol
 _atom_site_label
 _atom_site_symmetry_multiplicity
 _atom_site_fract_x
 _atom_site_fract_y
 _atom_site_fract_z
 _atom_site_occupancy
  K  K1  1  0.23366582  0.58781492  0.88682786  1
  K  K1  1  0.76633418  0.41218508  0.11317214  1
  K  K1  1  0.23366582  0.91218508  0.88682786  1
  K  K1  1  0.73366582  0.58781492  0.61317214  1
  K  K1  1  0.26633418  0.41218508  0.38682786  1
  K  K1  1  0.76633418  0.08781492  0.11317214  1
  K  K1  1  0.73366582  0.91218508  0.61317214  1
  K  K1  1  0.26633418  0.08781492  0.38682786  1
  Sn  Sn1  1  0.73050923  0.25000000  0.65969531  1
  Sn  Sn1  1  0.23050923  0.25000000  0.84030469  1
  Sn  Sn1  1  0.76949077  0.75000000  0.15969531  1
  Sn  Sn1  1  0.26949077  0.75000000  0.34030469  1
  O  O1  1  0.99238241  0.37934736  0.72448402  1
  O  O1  1  0.49238241  0.12065264  0.77551598  1
  O  O1  1  0.50761759  0.62065264  0.22448402  1
  O  O1  1  0.00761759  0.87934736  0.27551598  1
  O  O1  1  0.00761759  0.62065264  0.27551598  1
  O  O1  1  0.50761759  0.87934736  0.22448402  1
  O  O1  1  0.49238241  0.37934736  0.77551598  1
  O  O1  1  0.99238241  0.12065264  0.72448402  1
  O  O2  1  0.34489310  0.75000000  0.60830313  1
  O  O2  1  0.65510690  0.25000000  0.39169687  1
  O  O2  1  0.15510690  0.25000000  0.10830313  1
  O  O2  1  0.84489310  0.75000000  0.89169687  1
