# generated using pymatgen
data_K2Sn2O3
_symmetry_space_group_name_H-M   'P 1'
_cell_length_a   8.37080737
_cell_length_b   8.37080737
_cell_length_c   8.37080737
_cell_angle_alpha   90.00000000
_cell_angle_beta   90.00000000
_cell_angle_gamma   90.00000000
_symmetry_Int_Tables_number   1
_chemical_formula_structural   K2Sn2O3
_chemical_formula_sum   'K8 Sn8 O12'
_cell_volume   586.54595489
_cell_formula_units_Z   4
loop_
 _symmetry_equiv_pos_site_id
 _symmetry_equiv_pos_as_xyz
  1  'x, y, z'
loop_
 _atom_site_type_symbol
 _atom_site_label
 _atom_site_symmetry_multiplicity
 _atom_site_fract_x
 _atom_site_fract_y
 _atom_site_fract_z
 _atom_site_occupancy
  K  K1  1  0.99087042  0.49087042  0.00912958  1
  K  K1  1  0.00912958  0.00912958  0.00912958  1
  K  K1  1  0.00912958  0.99087042  0.49087042  1
  K  K1  1  0.49087042  0.00912958  0.99087042  1
  Sn  Sn1  1  0.25402170  0.24597830  0.75402170  1
  Sn  Sn1  1  0.24597830  0.75402170  0.25402170  1
  Sn  Sn1  1  0.24597830  0.24597830  0.24597830  1
  Sn  Sn1  1  0.75402170  0.25402170  0.24597830  1
  O  O1  1  0.00000000  0.75000000  0.22877960  1
  O  O1  1  0.00000000  0.25000000  0.27122040  1
  O  O1  1  0.75000000  0.22877960  0.00000000  1
  O  O1  1  0.22877960  0.00000000  0.75000000  1
  O  O1  1  0.27122040  0.00000000  0.25000000  1
  O  O1  1  0.25000000  0.27122040  0.00000000  1
  K  K1  1  0.49087042  0.99087042  0.50912958  1
  K  K1  1  0.50912958  0.50912958  0.50912958  1
  K  K1  1  0.50912958  0.49087042  0.99087042  1
  K  K1  1  0.99087042  0.50912958  0.49087042  1
  Sn  Sn1  1  0.75402170  0.74597830  0.25402170  1
  Sn  Sn1  1  0.74597830  0.25402170  0.75402170  1
  Sn  Sn1  1  0.74597830  0.74597830  0.74597830  1
  Sn  Sn1  1  0.25402170  0.75402170  0.74597830  1
  O  O1  1  0.50000000  0.25000000  0.72877960  1
  O  O1  1  0.50000000  0.75000000  0.77122040  1
  O  O1  1  0.25000000  0.72877960  0.50000000  1
  O  O1  1  0.72877960  0.50000000  0.25000000  1
  O  O1  1  0.77122040  0.50000000  0.75000000  1
  O  O1  1  0.75000000  0.77122040  0.50000000  1
