# generated using pymatgen
data_K2TiO3
_symmetry_space_group_name_H-M   'P 1'
_cell_length_a   10.09010068
_cell_length_b   7.00803644
_cell_length_c   5.45046501
_cell_angle_alpha   90.00000000
_cell_angle_beta   90.00000000
_cell_angle_gamma   90.00000000
_symmetry_Int_Tables_number   1
_chemical_formula_structural   K2TiO3
_chemical_formula_sum   'K8 Ti4 O12'
_cell_volume   385.41215448
_cell_formula_units_Z   4
loop_
 _symmetry_equiv_pos_site_id
 _symmetry_equiv_pos_as_xyz
  1  'x, y, z'
loop_
 _atom_site_type_symbol
 _atom_site_label
 _atom_site_symmetry_multiplicity
 _atom_site_fract_x
 _atom_site_fract_y
 _atom_site_fract_z
 _atom_site_occupancy
  K  K1  1  0.16212868  0.64965997  0.25000000  1
  K  K1  1  0.83787132  0.64965997  0.25000000  1
  K  K1  1  0.83787132  0.35034003  0.75000000  1
  K  K1  1  0.16212868  0.35034003  0.75000000  1
  Ti  Ti1  1  0.00000000  0.91530810  0.75000000  1
  Ti  Ti1  1  0.00000000  0.08469190  0.25000000  1
  O  O1  1  0.00000000  0.66010525  0.75000000  1
  O  O1  1  0.00000000  0.33989475  0.25000000  1
  O  O2  1  0.37354222  0.50000000  0.50000000  1
  O  O2  1  0.62645778  0.50000000  0.00000000  1
  O  O2  1  0.37354222  0.50000000  0.00000000  1
  O  O2  1  0.62645778  0.50000000  0.50000000  1
  K  K1  1  0.66212868  0.14965997  0.25000000  1
  K  K1  1  0.33787132  0.14965997  0.25000000  1
  K  K1  1  0.33787132  0.85034003  0.75000000  1
  K  K1  1  0.66212868  0.85034003  0.75000000  1
  Ti  Ti1  1  0.50000000  0.41530810  0.75000000  1
  Ti  Ti1  1  0.50000000  0.58469190  0.25000000  1
  O  O1  1  0.50000000  0.16010525  0.75000000  1
  O  O1  1  0.50000000  0.83989475  0.25000000  1
  O  O2  1  0.87354222  0.00000000  0.50000000  1
  O  O2  1  0.12645778  0.00000000  0.00000000  1
  O  O2  1  0.87354222  0.00000000  0.00000000  1
  O  O2  1  0.12645778  0.00000000  0.50000000  1
