# generated using pymatgen
data_K2WO4
_symmetry_space_group_name_H-M   'P 1'
_cell_length_a   12.41838996
_cell_length_b   6.13785586
_cell_length_c   7.58938940
_cell_angle_alpha   90.00000000
_cell_angle_beta   115.87655460
_cell_angle_gamma   90.00000000
_symmetry_Int_Tables_number   1
_chemical_formula_structural   K2WO4
_chemical_formula_sum   'K8 W4 O16'
_cell_volume   520.48009617
_cell_formula_units_Z   4
loop_
 _symmetry_equiv_pos_site_id
 _symmetry_equiv_pos_as_xyz
  1  'x, y, z'
loop_
 _atom_site_type_symbol
 _atom_site_label
 _atom_site_symmetry_multiplicity
 _atom_site_fract_x
 _atom_site_fract_y
 _atom_site_fract_z
 _atom_site_occupancy
  K  K1  1  0.50956666  0.00000000  0.23465240  1
  K  K1  1  0.99043334  0.50000000  0.76534760  1
  K  K2  1  0.65600854  0.50000000  0.74835406  1
  K  K2  1  0.84399146  0.00000000  0.25164594  1
  W  W1  1  0.67545463  0.50000000  0.22521322  1
  W  W1  1  0.82454537  0.00000000  0.77478678  1
  O  O1  1  0.64173944  0.73852050  0.07396338  1
  O  O1  1  0.85826056  0.23852050  0.92603662  1
  O  O1  1  0.85826056  0.76147950  0.92603662  1
  O  O1  1  0.64173944  0.26147950  0.07396338  1
  O  O2  1  0.91206153  0.00000000  0.63878098  1
  O  O2  1  0.58793847  0.50000000  0.36121902  1
  O  O3  1  0.83333929  0.50000000  0.38278384  1
  O  O3  1  0.66666071  0.00000000  0.61721616  1
  K  K1  1  0.00956666  0.50000000  0.23465240  1
  K  K1  1  0.49043334  0.00000000  0.76534760  1
  K  K2  1  0.15600854  0.00000000  0.74835406  1
  K  K2  1  0.34399146  0.50000000  0.25164594  1
  W  W1  1  0.17545463  0.00000000  0.22521322  1
  W  W1  1  0.32454537  0.50000000  0.77478678  1
  O  O1  1  0.14173944  0.23852050  0.07396338  1
  O  O1  1  0.35826056  0.73852050  0.92603662  1
  O  O1  1  0.35826056  0.26147950  0.92603662  1
  O  O1  1  0.14173944  0.76147950  0.07396338  1
  O  O2  1  0.41206153  0.50000000  0.63878098  1
  O  O2  1  0.08793847  0.00000000  0.36121902  1
  O  O3  1  0.33333929  0.00000000  0.38278384  1
  O  O3  1  0.16666071  0.50000000  0.61721616  1
