# generated using pymatgen
data_K2ZnO2
_symmetry_space_group_name_H-M   'P 1'
_cell_length_a   5.96350196
_cell_length_b   10.50349909
_cell_length_c   5.30409588
_cell_angle_alpha   90.00000000
_cell_angle_beta   90.00000000
_cell_angle_gamma   90.00000000
_symmetry_Int_Tables_number   1
_chemical_formula_structural   K2ZnO2
_chemical_formula_sum   'K8 Zn4 O8'
_cell_volume   332.23603452
_cell_formula_units_Z   4
loop_
 _symmetry_equiv_pos_site_id
 _symmetry_equiv_pos_as_xyz
  1  'x, y, z'
loop_
 _atom_site_type_symbol
 _atom_site_label
 _atom_site_symmetry_multiplicity
 _atom_site_fract_x
 _atom_site_fract_y
 _atom_site_fract_z
 _atom_site_occupancy
  K  K1  1  0.35882254  0.15233413  0.00000000  1
  K  K1  1  0.14117746  0.34766587  0.50000000  1
  K  K1  1  0.64117746  0.15233413  0.50000000  1
  K  K1  1  0.85882254  0.34766587  0.00000000  1
  Zn  Zn1  1  0.00000000  0.00000000  0.75000000  1
  Zn  Zn1  1  0.00000000  0.00000000  0.25000000  1
  O  O1  1  0.81971002  0.09436146  0.00000000  1
  O  O1  1  0.68028998  0.40563854  0.50000000  1
  O  O1  1  0.31971002  0.40563854  0.00000000  1
  O  O1  1  0.18028998  0.09436146  0.50000000  1
  K  K1  1  0.85882254  0.65233413  0.50000000  1
  K  K1  1  0.64117746  0.84766587  0.00000000  1
  K  K1  1  0.14117746  0.65233413  0.00000000  1
  K  K1  1  0.35882254  0.84766587  0.50000000  1
  Zn  Zn1  1  0.50000000  0.50000000  0.25000000  1
  Zn  Zn1  1  0.50000000  0.50000000  0.75000000  1
  O  O1  1  0.31971002  0.59436146  0.50000000  1
  O  O1  1  0.18028998  0.90563854  0.00000000  1
  O  O1  1  0.81971002  0.90563854  0.50000000  1
  O  O1  1  0.68028998  0.59436146  0.00000000  1
