# generated using pymatgen
data_K2Zn(GeO3)2
_symmetry_space_group_name_H-M   'P 1'
_cell_length_a   6.43584149
_cell_length_b   9.77799490
_cell_length_c   10.87529216
_cell_angle_alpha   90.00000000
_cell_angle_beta   90.00000000
_cell_angle_gamma   90.00000000
_symmetry_Int_Tables_number   1
_chemical_formula_structural   K2Zn(GeO3)2
_chemical_formula_sum   'K8 Zn4 Ge8 O24'
_cell_volume   684.37805976
_cell_formula_units_Z   4
loop_
 _symmetry_equiv_pos_site_id
 _symmetry_equiv_pos_as_xyz
  1  'x, y, z'
loop_
 _atom_site_type_symbol
 _atom_site_label
 _atom_site_symmetry_multiplicity
 _atom_site_fract_x
 _atom_site_fract_y
 _atom_site_fract_z
 _atom_site_occupancy
  K  K1  1  0.11001374  0.32586662  0.92279006  1
  K  K1  1  0.88998626  0.32586662  0.57720994  1
  K  K1  1  0.88998626  0.67413338  0.42279006  1
  K  K1  1  0.11001374  0.67413338  0.07720994  1
  Zn  Zn1  1  0.00000000  0.29943559  0.25000000  1
  Zn  Zn1  1  0.00000000  0.70056441  0.75000000  1
  Ge  Ge1  1  0.33895174  0.50971076  0.35935157  1
  Ge  Ge1  1  0.66104826  0.50971076  0.14064843  1
  Ge  Ge1  1  0.66104826  0.49028924  0.85935157  1
  Ge  Ge1  1  0.33895174  0.49028924  0.64064843  1
  O  O1  1  0.28982658  0.68104710  0.31975368  1
  O  O2  1  0.11447308  0.59206314  0.61982916  1
  O  O2  1  0.11447308  0.40793686  0.38017084  1
  O  O1  1  0.71017342  0.31895290  0.81975368  1
  O  O3  1  0.49480386  0.50000000  0.50000000  1
  O  O2  1  0.88552692  0.40793686  0.11982916  1
  O  O4  1  0.00000000  0.92069272  0.25000000  1
  O  O2  1  0.88552692  0.59206314  0.88017084  1
  O  O3  1  0.50519614  0.50000000  0.00000000  1
  O  O4  1  0.00000000  0.07930728  0.75000000  1
  O  O1  1  0.71017342  0.68104710  0.18024632  1
  O  O1  1  0.28982658  0.31895290  0.68024632  1
  K  K1  1  0.61001374  0.82586662  0.92279006  1
  K  K1  1  0.38998626  0.82586662  0.57720994  1
  K  K1  1  0.38998626  0.17413338  0.42279006  1
  K  K1  1  0.61001374  0.17413338  0.07720994  1
  Zn  Zn1  1  0.50000000  0.79943559  0.25000000  1
  Zn  Zn1  1  0.50000000  0.20056441  0.75000000  1
  Ge  Ge1  1  0.83895174  0.00971076  0.35935157  1
  Ge  Ge1  1  0.16104826  0.00971076  0.14064843  1
  Ge  Ge1  1  0.16104826  0.99028924  0.85935157  1
  Ge  Ge1  1  0.83895174  0.99028924  0.64064843  1
  O  O1  1  0.78982658  0.18104710  0.31975368  1
  O  O2  1  0.61447308  0.09206314  0.61982916  1
  O  O2  1  0.61447308  0.90793686  0.38017084  1
  O  O1  1  0.21017342  0.81895290  0.81975368  1
  O  O3  1  0.99480386  0.00000000  0.50000000  1
  O  O2  1  0.38552692  0.90793686  0.11982916  1
  O  O4  1  0.50000000  0.42069272  0.25000000  1
  O  O2  1  0.38552692  0.09206314  0.88017084  1
  O  O3  1  0.00519614  0.00000000  0.00000000  1
  O  O4  1  0.50000000  0.57930728  0.75000000  1
  O  O1  1  0.21017342  0.18104710  0.18024632  1
  O  O1  1  0.78982658  0.81895290  0.68024632  1
