# generated using pymatgen
data_K2Zn3O4
_symmetry_space_group_name_H-M   'P 1'
_cell_length_a   14.68519549
_cell_length_b   6.30314884
_cell_length_c   5.62002175
_cell_angle_alpha   90.00000000
_cell_angle_beta   102.16022399
_cell_angle_gamma   90.00000000
_symmetry_Int_Tables_number   1
_chemical_formula_structural   K2Zn3O4
_chemical_formula_sum   'K8 Zn12 O16'
_cell_volume   508.53373023
_cell_formula_units_Z   4
loop_
 _symmetry_equiv_pos_site_id
 _symmetry_equiv_pos_as_xyz
  1  'x, y, z'
loop_
 _atom_site_type_symbol
 _atom_site_label
 _atom_site_symmetry_multiplicity
 _atom_site_fract_x
 _atom_site_fract_y
 _atom_site_fract_z
 _atom_site_occupancy
  K  K1  1  0.88250938  0.12745938  0.00746196  1
  K  K1  1  0.88250938  0.87254062  0.50746196  1
  K  K1  1  0.61749062  0.37254062  0.99253804  1
  K  K1  1  0.61749062  0.62745938  0.49253804  1
  Zn  Zn1  1  0.80655440  0.61795188  0.91229599  1
  Zn  Zn1  1  0.80655440  0.38204812  0.41229599  1
  Zn  Zn1  1  0.69344560  0.88204812  0.08770401  1
  Zn  Zn2  1  0.00000000  0.48356069  0.75000000  1
  Zn  Zn2  1  0.00000000  0.51643931  0.25000000  1
  Zn  Zn1  1  0.69344560  0.11795188  0.58770401  1
  O  O1  1  0.73820535  0.87933575  0.78626361  1
  O  O2  1  0.93870879  0.66959266  0.95770943  1
  O  O2  1  0.56129121  0.16959266  0.54229057  1
  O  O2  1  0.56129121  0.83040734  0.04229057  1
  O  O1  1  0.76179465  0.37933575  0.71373639  1
  O  O1  1  0.76179465  0.62066425  0.21373639  1
  O  O1  1  0.73820535  0.12066425  0.28626361  1
  O  O2  1  0.93870879  0.33040734  0.45770943  1
  K  K1  1  0.38250938  0.62745938  0.00746196  1
  K  K1  1  0.38250938  0.37254062  0.50746196  1
  K  K1  1  0.11749062  0.87254062  0.99253804  1
  K  K1  1  0.11749062  0.12745938  0.49253804  1
  Zn  Zn1  1  0.30655440  0.11795188  0.91229599  1
  Zn  Zn1  1  0.30655440  0.88204812  0.41229599  1
  Zn  Zn1  1  0.19344560  0.38204812  0.08770401  1
  Zn  Zn2  1  0.50000000  0.98356069  0.75000000  1
  Zn  Zn2  1  0.50000000  0.01643931  0.25000000  1
  Zn  Zn1  1  0.19344560  0.61795188  0.58770401  1
  O  O1  1  0.23820535  0.37933575  0.78626361  1
  O  O2  1  0.43870879  0.16959266  0.95770943  1
  O  O2  1  0.06129121  0.66959266  0.54229057  1
  O  O2  1  0.06129121  0.33040734  0.04229057  1
  O  O1  1  0.26179465  0.87933575  0.71373639  1
  O  O1  1  0.26179465  0.12066425  0.21373639  1
  O  O1  1  0.23820535  0.62066425  0.28626361  1
  O  O2  1  0.43870879  0.83040734  0.45770943  1
