# generated using pymatgen
data_K2Zn(SiO3)2
_symmetry_space_group_name_H-M   'P 1'
_cell_length_a   6.33590581
_cell_length_b   9.48273418
_cell_length_c   10.43854440
_cell_angle_alpha   90.00000000
_cell_angle_beta   90.00000000
_cell_angle_gamma   90.00000000
_symmetry_Int_Tables_number   1
_chemical_formula_structural   K2Zn(SiO3)2
_chemical_formula_sum   'K8 Zn4 Si8 O24'
_cell_volume   627.16560358
_cell_formula_units_Z   4
loop_
 _symmetry_equiv_pos_site_id
 _symmetry_equiv_pos_as_xyz
  1  'x, y, z'
loop_
 _atom_site_type_symbol
 _atom_site_label
 _atom_site_symmetry_multiplicity
 _atom_site_fract_x
 _atom_site_fract_y
 _atom_site_fract_z
 _atom_site_occupancy
  K  K1  1  0.10805682  0.82561193  0.57601230  1
  K  K1  1  0.89194318  0.82561193  0.92398770  1
  K  K1  1  0.89194318  0.17438807  0.07601230  1
  K  K1  1  0.10805682  0.17438807  0.42398770  1
  Zn  Zn1  1  0.00000000  0.80702856  0.25000000  1
  Zn  Zn1  1  0.00000000  0.19297144  0.75000000  1
  Si  Si1  1  0.84633748  0.48247538  0.86209048  1
  Si  Si1  1  0.84633748  0.51752462  0.13790952  1
  Si  Si1  1  0.15366252  0.48247538  0.63790952  1
  Si  Si1  1  0.15366252  0.51752462  0.36209048  1
  O  O1  1  0.00000000  0.44914338  0.25000000  1
  O  O2  1  0.19729394  0.68281941  0.33399439  1
  O  O3  1  0.01781664  0.50000000  0.50000000  1
  O  O2  1  0.19729394  0.31718059  0.66600561  1
  O  O2  1  0.80270606  0.31718059  0.83399439  1
  O  O4  1  0.63588044  0.57853441  0.87386713  1
  O  O4  1  0.36411956  0.42146559  0.37386713  1
  O  O1  1  0.00000000  0.55085662  0.75000000  1
  O  O2  1  0.80270606  0.68281941  0.16600561  1
  O  O4  1  0.63588044  0.42146559  0.12613287  1
  O  O4  1  0.36411956  0.57853441  0.62613287  1
  O  O3  1  0.98218336  0.50000000  0.00000000  1
  K  K1  1  0.60805682  0.32561193  0.57601230  1
  K  K1  1  0.39194318  0.32561193  0.92398770  1
  K  K1  1  0.39194318  0.67438807  0.07601230  1
  K  K1  1  0.60805682  0.67438807  0.42398770  1
  Zn  Zn1  1  0.50000000  0.30702856  0.25000000  1
  Zn  Zn1  1  0.50000000  0.69297144  0.75000000  1
  Si  Si1  1  0.34633748  0.98247538  0.86209048  1
  Si  Si1  1  0.34633748  0.01752462  0.13790952  1
  Si  Si1  1  0.65366252  0.98247538  0.63790952  1
  Si  Si1  1  0.65366252  0.01752462  0.36209048  1
  O  O1  1  0.50000000  0.94914338  0.25000000  1
  O  O2  1  0.69729394  0.18281941  0.33399439  1
  O  O3  1  0.51781664  0.00000000  0.50000000  1
  O  O2  1  0.69729394  0.81718059  0.66600561  1
  O  O2  1  0.30270606  0.81718059  0.83399439  1
  O  O4  1  0.13588044  0.07853441  0.87386713  1
  O  O4  1  0.86411956  0.92146559  0.37386713  1
  O  O1  1  0.50000000  0.05085662  0.75000000  1
  O  O2  1  0.30270606  0.18281941  0.16600561  1
  O  O4  1  0.13588044  0.92146559  0.12613287  1
  O  O4  1  0.86411956  0.07853441  0.62613287  1
  O  O3  1  0.48218336  0.00000000  0.00000000  1
