# generated using pymatgen
data_K2Zr(SiO3)3
_symmetry_space_group_name_H-M   'P 1'
_cell_length_a   6.94213003
_cell_length_b   6.94213003
_cell_length_c   10.28061387
_cell_angle_alpha   90.00000000
_cell_angle_beta   90.00000000
_cell_angle_gamma   120.00000000
_symmetry_Int_Tables_number   1
_chemical_formula_structural   K2Zr(SiO3)3
_chemical_formula_sum   'K4 Zr2 Si6 O18'
_cell_volume   429.07693279
_cell_formula_units_Z   2
loop_
 _symmetry_equiv_pos_site_id
 _symmetry_equiv_pos_as_xyz
  1  'x, y, z'
loop_
 _atom_site_type_symbol
 _atom_site_label
 _atom_site_symmetry_multiplicity
 _atom_site_fract_x
 _atom_site_fract_y
 _atom_site_fract_z
 _atom_site_occupancy
  K  K1  1  0.66666667  0.33333333  0.44537554  1
  K  K1  1  0.33333333  0.66666667  0.94537554  1
  K  K1  1  0.66666667  0.33333333  0.05462446  1
  K  K1  1  0.33333333  0.66666667  0.55462446  1
  Zr  Zr1  1  0.00000000  0.00000000  0.50000000  1
  Zr  Zr1  1  0.00000000  0.00000000  0.00000000  1
  Si  Si1  1  0.87537530  0.26023610  0.75000000  1
  Si  Si1  1  0.26023610  0.38486080  0.25000000  1
  Si  Si1  1  0.61513920  0.87537530  0.25000000  1
  Si  Si1  1  0.38486080  0.12462470  0.75000000  1
  Si  Si1  1  0.73976390  0.61513920  0.75000000  1
  Si  Si1  1  0.12462470  0.73976390  0.25000000  1
  O  O1  1  0.01660638  0.76283084  0.11615900  1
  O  O1  1  0.76283084  0.74622446  0.61615900  1
  O  O1  1  0.25377554  0.01660638  0.61615900  1
  O  O1  1  0.74622446  0.98339362  0.11615900  1
  O  O1  1  0.23716916  0.25377554  0.11615900  1
  O  O1  1  0.98339362  0.23716916  0.61615900  1
  O  O1  1  0.98339362  0.23716916  0.88384100  1
  O  O1  1  0.23716916  0.25377554  0.38384100  1
  O  O1  1  0.74622446  0.98339362  0.38384100  1
  O  O1  1  0.25377554  0.01660638  0.88384100  1
  O  O1  1  0.76283084  0.74622446  0.88384100  1
  O  O1  1  0.01660638  0.76283084  0.38384100  1
  O  O2  1  0.39641478  0.91246894  0.25000000  1
  O  O2  1  0.91246894  0.51605416  0.75000000  1
  O  O2  1  0.48394584  0.39641478  0.75000000  1
  O  O2  1  0.51605416  0.60358522  0.25000000  1
  O  O2  1  0.08753106  0.48394584  0.25000000  1
  O  O2  1  0.60358522  0.08753106  0.75000000  1
