# generated using pymatgen
data_K2Zr(BO3)2
_symmetry_space_group_name_H-M   'P 1'
_cell_length_a   5.30753419
_cell_length_b   5.30753419
_cell_length_c   17.51840976
_cell_angle_alpha   90.00000000
_cell_angle_beta   90.00000000
_cell_angle_gamma   120.00000000
_symmetry_Int_Tables_number   1
_chemical_formula_structural   K2Zr(BO3)2
_chemical_formula_sum   'K6 Zr3 B6 O18'
_cell_volume   427.37677111
_cell_formula_units_Z   3
loop_
 _symmetry_equiv_pos_site_id
 _symmetry_equiv_pos_as_xyz
  1  'x, y, z'
loop_
 _atom_site_type_symbol
 _atom_site_label
 _atom_site_symmetry_multiplicity
 _atom_site_fract_x
 _atom_site_fract_y
 _atom_site_fract_z
 _atom_site_occupancy
  K  K1  1  0.33333333  0.66666667  0.87732901  1
  K  K1  1  0.00000000  0.00000000  0.78933765  1
  Zr  Zr1  1  0.00000000  0.00000000  0.00000000  1
  B  B1  1  0.66666667  0.33333333  0.73671964  1
  B  B1  1  0.66666667  0.33333333  0.92994702  1
  O  O1  1  0.51624538  0.48375462  0.73711915  1
  O  O1  1  0.81708795  0.63417591  0.92954752  1
  O  O1  1  0.36582409  0.18291205  0.92954752  1
  O  O1  1  0.81708795  0.18291205  0.92954752  1
  O  O1  1  0.51624538  0.03249076  0.73711915  1
  O  O1  1  0.96750924  0.48375462  0.73711915  1
  K  K1  1  0.00000000  0.00000000  0.21066235  1
  K  K1  1  0.66666667  0.33333333  0.12267099  1
  Zr  Zr1  1  0.66666667  0.33333333  0.33333333  1
  B  B1  1  0.33333333  0.66666667  0.07005298  1
  B  B1  1  0.33333333  0.66666667  0.26328036  1
  O  O1  1  0.18291205  0.81708795  0.07045248  1
  O  O1  1  0.48375462  0.96750924  0.26288085  1
  O  O1  1  0.03249076  0.51624538  0.26288085  1
  O  O1  1  0.48375462  0.51624538  0.26288085  1
  O  O1  1  0.18291205  0.36582409  0.07045248  1
  O  O1  1  0.63417591  0.81708795  0.07045248  1
  K  K1  1  0.66666667  0.33333333  0.54399568  1
  K  K1  1  0.33333333  0.66666667  0.45600432  1
  Zr  Zr1  1  0.33333333  0.66666667  0.66666667  1
  B  B1  1  0.00000000  0.00000000  0.40338631  1
  B  B1  1  0.00000000  0.00000000  0.59661369  1
  O  O1  1  0.84957871  0.15042129  0.40378581  1
  O  O1  1  0.15042129  0.30084257  0.59621419  1
  O  O1  1  0.69915743  0.84957871  0.59621419  1
  O  O1  1  0.15042129  0.84957871  0.59621419  1
  O  O1  1  0.84957871  0.69915743  0.40378581  1
  O  O1  1  0.30084257  0.15042129  0.40378581  1
