# generated using pymatgen
data_K2ZrGe2O7
_symmetry_space_group_name_H-M   'P 1'
_cell_length_a   10.05383471
_cell_length_b   5.59928076
_cell_length_c   13.00092536
_cell_angle_alpha   90.00000000
_cell_angle_beta   104.98324260
_cell_angle_gamma   90.00000000
_symmetry_Int_Tables_number   1
_chemical_formula_structural   K2ZrGe2O7
_chemical_formula_sum   'K8 Zr4 Ge8 O28'
_cell_volume   706.99451356
_cell_formula_units_Z   4
loop_
 _symmetry_equiv_pos_site_id
 _symmetry_equiv_pos_as_xyz
  1  'x, y, z'
loop_
 _atom_site_type_symbol
 _atom_site_label
 _atom_site_symmetry_multiplicity
 _atom_site_fract_x
 _atom_site_fract_y
 _atom_site_fract_z
 _atom_site_occupancy
  K  K1  1  0.64862257  0.29209084  0.67871880  1
  K  K1  1  0.85137743  0.79209084  0.82128120  1
  K  K1  1  0.35137743  0.70790916  0.32128120  1
  K  K1  1  0.14862257  0.20790916  0.17871880  1
  Zr  Zr1  1  0.75000000  0.25000000  0.00000000  1
  Zr  Zr1  1  0.25000000  0.25000000  0.50000000  1
  Ge  Ge1  1  0.96206719  0.71690990  0.12084579  1
  Ge  Ge1  1  0.96206719  0.28309010  0.62084579  1
  Ge  Ge1  1  0.03793281  0.28309010  0.87915421  1
  Ge  Ge1  1  0.03793281  0.71690990  0.37915421  1
  O  O1  1  0.13375565  0.94309172  0.45978641  1
  O  O2  1  0.12488411  0.44494950  0.37071182  1
  O  O2  1  0.12488411  0.55505050  0.87071182  1
  O  O2  1  0.87511589  0.55505050  0.62928818  1
  O  O3  1  0.00000000  0.86354658  0.25000000  1
  O  O3  1  0.00000000  0.13645342  0.75000000  1
  O  O4  1  0.62626035  0.84496992  0.59978616  1
  O  O4  1  0.87373965  0.34496992  0.90021384  1
  O  O1  1  0.86624435  0.94309172  0.04021359  1
  O  O4  1  0.12626035  0.65503008  0.09978616  1
  O  O1  1  0.86624435  0.05690828  0.54021359  1
  O  O1  1  0.13375565  0.05690828  0.95978641  1
  O  O4  1  0.37373965  0.15503008  0.40021384  1
  O  O2  1  0.87511589  0.44494950  0.12928818  1
  K  K1  1  0.14862257  0.79209084  0.67871880  1
  K  K1  1  0.35137743  0.29209084  0.82128120  1
  K  K1  1  0.85137743  0.20790916  0.32128120  1
  K  K1  1  0.64862257  0.70790916  0.17871880  1
  Zr  Zr1  1  0.25000000  0.75000000  0.00000000  1
  Zr  Zr1  1  0.75000000  0.75000000  0.50000000  1
  Ge  Ge1  1  0.46206719  0.21690990  0.12084579  1
  Ge  Ge1  1  0.46206719  0.78309010  0.62084579  1
  Ge  Ge1  1  0.53793281  0.78309010  0.87915421  1
  Ge  Ge1  1  0.53793281  0.21690990  0.37915421  1
  O  O1  1  0.63375565  0.44309172  0.45978641  1
  O  O2  1  0.62488411  0.94494950  0.37071182  1
  O  O2  1  0.62488411  0.05505050  0.87071182  1
  O  O2  1  0.37511589  0.05505050  0.62928818  1
  O  O3  1  0.50000000  0.36354658  0.25000000  1
  O  O3  1  0.50000000  0.63645342  0.75000000  1
  O  O4  1  0.12626035  0.34496992  0.59978616  1
  O  O4  1  0.37373965  0.84496992  0.90021384  1
  O  O1  1  0.36624435  0.44309172  0.04021359  1
  O  O4  1  0.62626035  0.15503008  0.09978616  1
  O  O1  1  0.36624435  0.55690828  0.54021359  1
  O  O1  1  0.63375565  0.55690828  0.95978641  1
  O  O4  1  0.87373965  0.65503008  0.40021384  1
  O  O2  1  0.37511589  0.94494950  0.12928818  1
