# generated using pymatgen
data_K3AlO3
_symmetry_space_group_name_H-M   'P 1'
_cell_length_a   7.00807651
_cell_length_b   11.06284283
_cell_length_c   6.48954384
_cell_angle_alpha   90.00000000
_cell_angle_beta   102.73434529
_cell_angle_gamma   90.00000000
_symmetry_Int_Tables_number   1
_chemical_formula_structural   K3AlO3
_chemical_formula_sum   'K12 Al4 O12'
_cell_volume   490.75377493
_cell_formula_units_Z   4
loop_
 _symmetry_equiv_pos_site_id
 _symmetry_equiv_pos_as_xyz
  1  'x, y, z'
loop_
 _atom_site_type_symbol
 _atom_site_label
 _atom_site_symmetry_multiplicity
 _atom_site_fract_x
 _atom_site_fract_y
 _atom_site_fract_z
 _atom_site_occupancy
  K  K1  1  0.37189862  0.00000000  0.64777512  1
  K  K1  1  0.62810138  0.00000000  0.35222488  1
  K  K2  1  0.50000000  0.69608473  0.50000000  1
  K  K2  1  0.50000000  0.30391527  0.50000000  1
  K  K3  1  0.50000000  0.76495663  0.00000000  1
  K  K3  1  0.50000000  0.23504337  0.00000000  1
  Al  Al1  1  0.83793834  0.00000000  0.85410356  1
  Al  Al1  1  0.16206166  0.00000000  0.14589644  1
  O  O1  1  0.71743374  0.13114256  0.73717960  1
  O  O1  1  0.28256626  0.13114256  0.26282040  1
  O  O1  1  0.28256626  0.86885744  0.26282040  1
  O  O1  1  0.71743374  0.86885744  0.73717960  1
  O  O2  1  0.89999584  0.00000000  0.14449920  1
  O  O2  1  0.10000416  0.00000000  0.85550080  1
  K  K1  1  0.87189862  0.50000000  0.64777512  1
  K  K1  1  0.12810138  0.50000000  0.35222488  1
  K  K2  1  0.00000000  0.19608473  0.50000000  1
  K  K2  1  0.00000000  0.80391527  0.50000000  1
  K  K3  1  0.00000000  0.26495663  0.00000000  1
  K  K3  1  0.00000000  0.73504337  0.00000000  1
  Al  Al1  1  0.33793834  0.50000000  0.85410356  1
  Al  Al1  1  0.66206166  0.50000000  0.14589644  1
  O  O1  1  0.21743374  0.63114256  0.73717960  1
  O  O1  1  0.78256626  0.63114256  0.26282040  1
  O  O1  1  0.78256626  0.36885744  0.26282040  1
  O  O1  1  0.21743374  0.36885744  0.73717960  1
  O  O2  1  0.39999584  0.50000000  0.14449920  1
  O  O2  1  0.60000416  0.50000000  0.85550080  1
