# generated using pymatgen
data_K3BiO4
_symmetry_space_group_name_H-M   'P 1'
_cell_length_a   6.49876416
_cell_length_b   6.65515096
_cell_length_c   7.75749457
_cell_angle_alpha   100.88708293
_cell_angle_beta   97.84696728
_cell_angle_gamma   105.88335342
_symmetry_Int_Tables_number   1
_chemical_formula_structural   K3BiO4
_chemical_formula_sum   'K6 Bi2 O8'
_cell_volume   310.53986901
_cell_formula_units_Z   2
loop_
 _symmetry_equiv_pos_site_id
 _symmetry_equiv_pos_as_xyz
  1  'x, y, z'
loop_
 _atom_site_type_symbol
 _atom_site_label
 _atom_site_symmetry_multiplicity
 _atom_site_fract_x
 _atom_site_fract_y
 _atom_site_fract_z
 _atom_site_occupancy
  K  K1  1  0.66684316  0.78041788  0.98314422  1
  K  K2  1  0.83729620  0.23347076  0.83370288  1
  K  K3  1  0.64241092  0.77178604  0.47011562  1
  K  K3  1  0.35758908  0.22821396  0.52988438  1
  K  K1  1  0.33315684  0.21958212  0.01685578  1
  K  K2  1  0.16270380  0.76652924  0.16629712  1
  Bi  Bi1  1  0.85053318  0.30274766  0.31355388  1
  Bi  Bi1  1  0.14946682  0.69725234  0.68644612  1
  O  O1  1  0.97528800  0.89429288  0.77513232  1
  O  O1  1  0.02471200  0.10570712  0.22486768  1
  O  O2  1  0.23607412  0.52441540  0.85929306  1
  O  O2  1  0.76392588  0.47558460  0.14070694  1
  O  O3  1  0.44065482  0.94145516  0.72717008  1
  O  O3  1  0.55934518  0.05854484  0.27282992  1
  O  O4  1  0.18319754  0.55278330  0.42771036  1
  O  O4  1  0.81680246  0.44721670  0.57228964  1
