# generated using pymatgen
data_K3BiO3
_symmetry_space_group_name_H-M   'P 1'
_cell_length_a   10.75791618
_cell_length_b   10.75791618
_cell_length_c   10.75791618
_cell_angle_alpha   90.00000000
_cell_angle_beta   90.00000000
_cell_angle_gamma   90.00000000
_symmetry_Int_Tables_number   1
_chemical_formula_structural   K3BiO3
_chemical_formula_sum   'K24 Bi8 O24'
_cell_volume   1245.04333886
_cell_formula_units_Z   8
loop_
 _symmetry_equiv_pos_site_id
 _symmetry_equiv_pos_as_xyz
  1  'x, y, z'
loop_
 _atom_site_type_symbol
 _atom_site_label
 _atom_site_symmetry_multiplicity
 _atom_site_fract_x
 _atom_site_fract_y
 _atom_site_fract_z
 _atom_site_occupancy
  K  K1  1  0.12239280  0.60645266  0.12239280  1
  K  K1  1  0.12239280  0.39354734  0.87760720  1
  K  K1  1  0.39354734  0.12239280  0.87760720  1
  K  K1  1  0.37760720  0.37760720  0.10645266  1
  K  K1  1  0.39354734  0.87760720  0.12239280  1
  K  K1  1  0.87760720  0.39354734  0.12239280  1
  K  K1  1  0.37760720  0.10645266  0.37760720  1
  K  K1  1  0.12239280  0.87760720  0.39354734  1
  K  K1  1  0.87760720  0.12239280  0.39354734  1
  K  K1  1  0.12239280  0.12239280  0.60645266  1
  K  K1  1  0.60645266  0.12239280  0.12239280  1
  K  K1  1  0.10645266  0.37760720  0.37760720  1
  Bi  Bi1  1  0.14710964  0.14710964  0.14710964  1
  Bi  Bi1  1  0.35289036  0.64710964  0.35289036  1
  Bi  Bi1  1  0.64710964  0.35289036  0.35289036  1
  Bi  Bi1  1  0.35289036  0.35289036  0.64710964  1
  O  O1  1  0.13055412  0.13055412  0.34066972  1
  O  O1  1  0.65933028  0.86944588  0.13055412  1
  O  O1  1  0.86944588  0.65933028  0.13055412  1
  O  O1  1  0.36944588  0.84066972  0.36944588  1
  O  O1  1  0.65933028  0.13055412  0.86944588  1
  O  O1  1  0.13055412  0.65933028  0.86944588  1
  O  O1  1  0.13055412  0.34066972  0.13055412  1
  O  O1  1  0.86944588  0.13055412  0.65933028  1
  O  O1  1  0.13055412  0.86944588  0.65933028  1
  O  O1  1  0.36944588  0.36944588  0.84066972  1
  O  O1  1  0.84066972  0.36944588  0.36944588  1
  O  O1  1  0.34066972  0.13055412  0.13055412  1
  K  K1  1  0.62239280  0.10645266  0.62239280  1
  K  K1  1  0.62239280  0.89354734  0.37760720  1
  K  K1  1  0.89354734  0.62239280  0.37760720  1
  K  K1  1  0.87760720  0.87760720  0.60645266  1
  K  K1  1  0.89354734  0.37760720  0.62239280  1
  K  K1  1  0.37760720  0.89354734  0.62239280  1
  K  K1  1  0.87760720  0.60645266  0.87760720  1
  K  K1  1  0.62239280  0.37760720  0.89354734  1
  K  K1  1  0.37760720  0.62239280  0.89354734  1
  K  K1  1  0.62239280  0.62239280  0.10645266  1
  K  K1  1  0.10645266  0.62239280  0.62239280  1
  K  K1  1  0.60645266  0.87760720  0.87760720  1
  Bi  Bi1  1  0.64710964  0.64710964  0.64710964  1
  Bi  Bi1  1  0.85289036  0.14710964  0.85289036  1
  Bi  Bi1  1  0.14710964  0.85289036  0.85289036  1
  Bi  Bi1  1  0.85289036  0.85289036  0.14710964  1
  O  O1  1  0.63055412  0.63055412  0.84066972  1
  O  O1  1  0.15933028  0.36944588  0.63055412  1
  O  O1  1  0.36944588  0.15933028  0.63055412  1
  O  O1  1  0.86944588  0.34066972  0.86944588  1
  O  O1  1  0.15933028  0.63055412  0.36944588  1
  O  O1  1  0.63055412  0.15933028  0.36944588  1
  O  O1  1  0.63055412  0.84066972  0.63055412  1
  O  O1  1  0.36944588  0.63055412  0.15933028  1
  O  O1  1  0.63055412  0.36944588  0.15933028  1
  O  O1  1  0.86944588  0.86944588  0.34066972  1
  O  O1  1  0.34066972  0.86944588  0.86944588  1
  O  O1  1  0.84066972  0.63055412  0.63055412  1
