# generated using pymatgen
data_K3GaO3
_symmetry_space_group_name_H-M   'P 1'
_cell_length_a   7.14083735
_cell_length_b   11.13146734
_cell_length_c   6.50498476
_cell_angle_alpha   90.00000000
_cell_angle_beta   102.03922468
_cell_angle_gamma   90.00000000
_symmetry_Int_Tables_number   1
_chemical_formula_structural   K3GaO3
_chemical_formula_sum   'K12 Ga4 O12'
_cell_volume   505.69531715
_cell_formula_units_Z   4
loop_
 _symmetry_equiv_pos_site_id
 _symmetry_equiv_pos_as_xyz
  1  'x, y, z'
loop_
 _atom_site_type_symbol
 _atom_site_label
 _atom_site_symmetry_multiplicity
 _atom_site_fract_x
 _atom_site_fract_y
 _atom_site_fract_z
 _atom_site_occupancy
  K  K1  1  0.37376006  0.00000000  0.64892220  1
  K  K2  1  0.50000000  0.24168336  0.00000000  1
  K  K3  1  0.50000000  0.30755440  0.50000000  1
  K  K2  1  0.50000000  0.75831664  0.00000000  1
  K  K1  1  0.62623994  0.00000000  0.35107780  1
  K  K3  1  0.50000000  0.69244560  0.50000000  1
  Ga  Ga1  1  0.17049734  0.00000000  0.14760540  1
  Ga  Ga1  1  0.82950266  0.00000000  0.85239460  1
  O  O1  1  0.29221980  0.13640353  0.26626852  1
  O  O2  1  0.09826328  0.00000000  0.84404932  1
  O  O2  1  0.90173672  0.00000000  0.15595068  1
  O  O1  1  0.70778020  0.86359647  0.73373148  1
  O  O1  1  0.70778020  0.13640353  0.73373148  1
  O  O1  1  0.29221980  0.86359647  0.26626852  1
  K  K1  1  0.87376006  0.50000000  0.64892220  1
  K  K2  1  0.00000000  0.74168336  0.00000000  1
  K  K3  1  0.00000000  0.80755440  0.50000000  1
  K  K2  1  0.00000000  0.25831664  0.00000000  1
  K  K1  1  0.12623994  0.50000000  0.35107780  1
  K  K3  1  0.00000000  0.19244560  0.50000000  1
  Ga  Ga1  1  0.67049734  0.50000000  0.14760540  1
  Ga  Ga1  1  0.32950266  0.50000000  0.85239460  1
  O  O1  1  0.79221980  0.63640353  0.26626852  1
  O  O2  1  0.59826328  0.50000000  0.84404932  1
  O  O2  1  0.40173672  0.50000000  0.15595068  1
  O  O1  1  0.20778020  0.36359647  0.73373148  1
  O  O1  1  0.20778020  0.63640353  0.73373148  1
  O  O1  1  0.79221980  0.36359647  0.26626852  1
