# generated using pymatgen
data_K3NaCr2O8
_symmetry_space_group_name_H-M   'P 1'
_cell_length_a   10.10598412
_cell_length_b   5.84398605
_cell_length_c   15.07759598
_cell_angle_alpha   90.00000000
_cell_angle_beta   90.12546532
_cell_angle_gamma   90.00000000
_symmetry_Int_Tables_number   1
_chemical_formula_structural   K3NaCr2O8
_chemical_formula_sum   'K12 Na4 Cr8 O32'
_cell_volume   890.46907767
_cell_formula_units_Z   4
loop_
 _symmetry_equiv_pos_site_id
 _symmetry_equiv_pos_as_xyz
  1  'x, y, z'
loop_
 _atom_site_type_symbol
 _atom_site_label
 _atom_site_symmetry_multiplicity
 _atom_site_fract_x
 _atom_site_fract_y
 _atom_site_fract_z
 _atom_site_occupancy
  K  K1  1  0.50000000  0.44269050  0.75000000  1
  K  K1  1  0.50000000  0.55730950  0.25000000  1
  K  K2  1  0.67209354  0.02065884  0.41283753  1
  K  K2  1  0.32790646  0.02065884  0.08716247  1
  K  K2  1  0.67209354  0.97934116  0.91283753  1
  K  K2  1  0.32790646  0.97934116  0.58716247  1
  Na  Na1  1  0.00000000  0.00000000  0.00000000  1
  Na  Na1  1  0.00000000  0.00000000  0.50000000  1
  Cr  Cr1  1  0.66227724  0.01642500  0.13365523  1
  Cr  Cr1  1  0.33772276  0.01642500  0.36634477  1
  Cr  Cr1  1  0.33772276  0.98357500  0.86634477  1
  Cr  Cr1  1  0.66227724  0.98357500  0.63365523  1
  O  O1  1  0.81313310  0.03356000  0.08998359  1
  O  O1  1  0.18686690  0.03356000  0.41001641  1
  O  O1  1  0.18686690  0.96644000  0.91001641  1
  O  O1  1  0.81313310  0.96644000  0.58998359  1
  O  O2  1  0.58254990  0.26090950  0.11563286  1
  O  O2  1  0.41745010  0.26090950  0.38436714  1
  O  O2  1  0.41745010  0.73909050  0.88436714  1
  O  O2  1  0.58254990  0.73909050  0.61563286  1
  O  O3  1  0.58160144  0.80527577  0.08252803  1
  O  O3  1  0.41839856  0.80527577  0.41747197  1
  O  O3  1  0.41839856  0.19472423  0.91747197  1
  O  O3  1  0.58160144  0.19472423  0.58252803  1
  O  O4  1  0.67156390  0.04243287  0.73994840  1
  O  O4  1  0.32843610  0.04243287  0.76005160  1
  O  O4  1  0.67156390  0.95756713  0.23994840  1
  O  O4  1  0.32843610  0.95756713  0.26005160  1
  K  K1  1  0.00000000  0.94269050  0.75000000  1
  K  K1  1  0.00000000  0.05730950  0.25000000  1
  K  K2  1  0.17209354  0.52065884  0.41283753  1
  K  K2  1  0.82790646  0.52065884  0.08716247  1
  K  K2  1  0.17209354  0.47934116  0.91283753  1
  K  K2  1  0.82790646  0.47934116  0.58716247  1
  Na  Na1  1  0.50000000  0.50000000  0.00000000  1
  Na  Na1  1  0.50000000  0.50000000  0.50000000  1
  Cr  Cr1  1  0.16227724  0.51642500  0.13365523  1
  Cr  Cr1  1  0.83772276  0.51642500  0.36634477  1
  Cr  Cr1  1  0.83772276  0.48357500  0.86634477  1
  Cr  Cr1  1  0.16227724  0.48357500  0.63365523  1
  O  O1  1  0.31313310  0.53356000  0.08998359  1
  O  O1  1  0.68686690  0.53356000  0.41001641  1
  O  O1  1  0.68686690  0.46644000  0.91001641  1
  O  O1  1  0.31313310  0.46644000  0.58998359  1
  O  O2  1  0.08254990  0.76090950  0.11563286  1
  O  O2  1  0.91745010  0.76090950  0.38436714  1
  O  O2  1  0.91745010  0.23909050  0.88436714  1
  O  O2  1  0.08254990  0.23909050  0.61563286  1
  O  O3  1  0.08160144  0.30527577  0.08252803  1
  O  O3  1  0.91839856  0.30527577  0.41747197  1
  O  O3  1  0.91839856  0.69472423  0.91747197  1
  O  O3  1  0.08160144  0.69472423  0.58252803  1
  O  O4  1  0.17156390  0.54243287  0.73994840  1
  O  O4  1  0.82843610  0.54243287  0.76005160  1
  O  O4  1  0.17156390  0.45756713  0.23994840  1
  O  O4  1  0.82843610  0.45756713  0.26005160  1
