# generated using pymatgen
data_K3SbO3
_symmetry_space_group_name_H-M   'P 1'
_cell_length_a   8.40537242
_cell_length_b   8.40537242
_cell_length_c   8.40537242
_cell_angle_alpha   90.00000000
_cell_angle_beta   90.00000000
_cell_angle_gamma   90.00000000
_symmetry_Int_Tables_number   1
_chemical_formula_structural   K3SbO3
_chemical_formula_sum   'K12 Sb4 O12'
_cell_volume   593.84196137
_cell_formula_units_Z   4
loop_
 _symmetry_equiv_pos_site_id
 _symmetry_equiv_pos_as_xyz
  1  'x, y, z'
loop_
 _atom_site_type_symbol
 _atom_site_label
 _atom_site_symmetry_multiplicity
 _atom_site_fract_x
 _atom_site_fract_y
 _atom_site_fract_z
 _atom_site_occupancy
  K  K1  1  0.72595004  0.72595004  0.72595004  1
  K  K1  1  0.22595004  0.77404996  0.27404996  1
  K  K1  1  0.77404996  0.27404996  0.22595004  1
  K  K1  1  0.27404996  0.22595004  0.77404996  1
  K  K2  1  0.96548510  0.03451490  0.53451490  1
  K  K2  1  0.46548510  0.46548510  0.46548510  1
  K  K3  1  0.03877418  0.46122582  0.53877418  1
  K  K3  1  0.53877418  0.03877418  0.46122582  1
  K  K3  1  0.46122582  0.53877418  0.03877418  1
  K  K3  1  0.96122582  0.96122582  0.96122582  1
  K  K2  1  0.53451490  0.96548510  0.03451490  1
  K  K2  1  0.03451490  0.53451490  0.96548510  1
  Sb  Sb1  1  0.76450034  0.73549966  0.26450034  1
  Sb  Sb1  1  0.26450034  0.76450034  0.73549966  1
  Sb  Sb1  1  0.73549966  0.26450034  0.76450034  1
  Sb  Sb1  1  0.23549966  0.23549966  0.23549966  1
  O  O1  1  0.81016532  0.96362702  0.25561478  1
  O  O1  1  0.68983468  0.03637298  0.75561478  1
  O  O1  1  0.18983468  0.46362702  0.24438522  1
  O  O1  1  0.75561478  0.68983468  0.03637298  1
  O  O1  1  0.25561478  0.81016532  0.96362702  1
  O  O1  1  0.96362702  0.25561478  0.81016532  1
  O  O1  1  0.24438522  0.18983468  0.46362702  1
  O  O1  1  0.74438522  0.31016532  0.53637298  1
  O  O1  1  0.53637298  0.74438522  0.31016532  1
  O  O1  1  0.31016532  0.53637298  0.74438522  1
  O  O1  1  0.46362702  0.24438522  0.18983468  1
  O  O1  1  0.03637298  0.75561478  0.68983468  1
