# generated using pymatgen
data_K3ScV2O8
_symmetry_space_group_name_H-M   'P 1'
_cell_length_a   5.75789007
_cell_length_b   5.75789007
_cell_length_c   7.47893906
_cell_angle_alpha   90.00000000
_cell_angle_beta   90.00000000
_cell_angle_gamma   120.00000000
_symmetry_Int_Tables_number   1
_chemical_formula_structural   K3ScV2O8
_chemical_formula_sum   'K3 Sc1 V2 O8'
_cell_volume   214.73229403
_cell_formula_units_Z   1
loop_
 _symmetry_equiv_pos_site_id
 _symmetry_equiv_pos_as_xyz
  1  'x, y, z'
loop_
 _atom_site_type_symbol
 _atom_site_label
 _atom_site_symmetry_multiplicity
 _atom_site_fract_x
 _atom_site_fract_y
 _atom_site_fract_z
 _atom_site_occupancy
  K  K1  1  0.66666667  0.33333333  0.68530700  1
  K  K1  1  0.33333333  0.66666667  0.31469300  1
  K  K2  1  0.00000000  0.00000000  0.00000000  1
  Sc  Sc1  1  0.00000000  0.00000000  0.50000000  1
  V  V1  1  0.66666667  0.33333333  0.25387376  1
  V  V1  1  0.33333333  0.66666667  0.74612624  1
  O  O1  1  0.66666667  0.33333333  0.03133572  1
  O  O1  1  0.33333333  0.66666667  0.96866428  1
  O  O2  1  0.33867052  0.16933526  0.33470978  1
  O  O2  1  0.66132948  0.83066474  0.66529022  1
  O  O2  1  0.83066474  0.16933526  0.33470978  1
  O  O2  1  0.16933526  0.83066474  0.66529022  1
  O  O2  1  0.83066474  0.66132948  0.33470978  1
  O  O2  1  0.16933526  0.33867052  0.66529022  1
