# generated using pymatgen
data_K3ScSi2O7
_symmetry_space_group_name_H-M   'P 1'
_cell_length_a   5.62237157
_cell_length_b   5.62237157
_cell_length_c   13.72172048
_cell_angle_alpha   90.00000000
_cell_angle_beta   90.00000000
_cell_angle_gamma   120.00000000
_symmetry_Int_Tables_number   1
_chemical_formula_structural   K3ScSi2O7
_chemical_formula_sum   'K6 Sc2 Si4 O14'
_cell_volume   375.64558377
_cell_formula_units_Z   2
loop_
 _symmetry_equiv_pos_site_id
 _symmetry_equiv_pos_as_xyz
  1  'x, y, z'
loop_
 _atom_site_type_symbol
 _atom_site_label
 _atom_site_symmetry_multiplicity
 _atom_site_fract_x
 _atom_site_fract_y
 _atom_site_fract_z
 _atom_site_occupancy
  K  K1  1  0.66666667  0.33333333  0.40818651  1
  K  K2  1  0.00000000  0.00000000  0.25000000  1
  K  K1  1  0.33333333  0.66666667  0.59181349  1
  K  K1  1  0.66666667  0.33333333  0.09181349  1
  K  K1  1  0.33333333  0.66666667  0.90818651  1
  K  K2  1  0.00000000  0.00000000  0.75000000  1
  Sc  Sc1  1  0.00000000  0.00000000  0.50000000  1
  Sc  Sc1  1  0.00000000  0.00000000  0.00000000  1
  Si  Si1  1  0.66666667  0.33333333  0.62859193  1
  Si  Si1  1  0.33333333  0.66666667  0.37140807  1
  Si  Si1  1  0.33333333  0.66666667  0.12859193  1
  Si  Si1  1  0.66666667  0.33333333  0.87140807  1
  O  O1  1  0.17402787  0.82597213  0.40847203  1
  O  O1  1  0.17402787  0.34805574  0.09152797  1
  O  O1  1  0.34805574  0.17402787  0.59152797  1
  O  O1  1  0.82597213  0.65194426  0.90847203  1
  O  O1  1  0.82597213  0.17402787  0.90847203  1
  O  O1  1  0.82597213  0.17402787  0.59152797  1
  O  O1  1  0.17402787  0.82597213  0.09152797  1
  O  O1  1  0.82597213  0.65194426  0.59152797  1
  O  O1  1  0.17402787  0.34805574  0.40847203  1
  O  O1  1  0.34805574  0.17402787  0.90847203  1
  O  O1  1  0.65194426  0.82597213  0.09152797  1
  O  O1  1  0.65194426  0.82597213  0.40847203  1
  O  O2  1  0.33333333  0.66666667  0.25000000  1
  O  O2  1  0.66666667  0.33333333  0.75000000  1
