# generated using pymatgen
data_K3Ta3(BO6)2
_symmetry_space_group_name_H-M   'P 1'
_cell_length_a   8.82227540
_cell_length_b   8.82227540
_cell_length_c   3.91178890
_cell_angle_alpha   90.00000000
_cell_angle_beta   90.00000000
_cell_angle_gamma   120.00000000
_symmetry_Int_Tables_number   1
_chemical_formula_structural   K3Ta3(BO6)2
_chemical_formula_sum   'K3 Ta3 B2 O12'
_cell_volume   263.67397352
_cell_formula_units_Z   1
loop_
 _symmetry_equiv_pos_site_id
 _symmetry_equiv_pos_as_xyz
  1  'x, y, z'
loop_
 _atom_site_type_symbol
 _atom_site_label
 _atom_site_symmetry_multiplicity
 _atom_site_fract_x
 _atom_site_fract_y
 _atom_site_fract_z
 _atom_site_occupancy
  K  K1  1  0.00000000  0.59655005  0.50000000  1
  K  K1  1  0.59655005  0.00000000  0.50000000  1
  K  K1  1  0.40344995  0.40344995  0.50000000  1
  Ta  Ta1  1  0.00000000  0.24672033  0.00000000  1
  Ta  Ta1  1  0.24672033  0.00000000  0.00000000  1
  Ta  Ta1  1  0.75327967  0.75327967  0.00000000  1
  B  B1  1  0.66666667  0.33333333  0.00000000  1
  B  B1  1  0.33333333  0.66666667  0.00000000  1
  O  O1  1  0.49757580  0.68589751  0.00000000  1
  O  O1  1  0.81167830  0.31410249  0.00000000  1
  O  O1  1  0.68589751  0.49757580  0.00000000  1
  O  O1  1  0.50242420  0.18832170  0.00000000  1
  O  O1  1  0.31410249  0.81167830  0.00000000  1
  O  O1  1  0.18832170  0.50242420  0.00000000  1
  O  O2  1  0.00000000  0.26410733  0.50000000  1
  O  O2  1  0.26410733  0.00000000  0.50000000  1
  O  O2  1  0.73589267  0.73589267  0.50000000  1
  O  O3  1  0.00000000  0.82115127  0.00000000  1
  O  O3  1  0.82115127  0.00000000  0.00000000  1
  O  O3  1  0.17884873  0.17884873  0.00000000  1
