# generated using pymatgen
data_K4Be3O5
_symmetry_space_group_name_H-M   'P 1'
_cell_length_a   10.35098562
_cell_length_b   7.24594927
_cell_length_c   10.82314689
_cell_angle_alpha   90.00000000
_cell_angle_beta   118.05019384
_cell_angle_gamma   90.00000000
_symmetry_Int_Tables_number   1
_chemical_formula_structural   K4Be3O5
_chemical_formula_sum   'K16 Be12 O20'
_cell_volume   716.41218554
_cell_formula_units_Z   4
loop_
 _symmetry_equiv_pos_site_id
 _symmetry_equiv_pos_as_xyz
  1  'x, y, z'
loop_
 _atom_site_type_symbol
 _atom_site_label
 _atom_site_symmetry_multiplicity
 _atom_site_fract_x
 _atom_site_fract_y
 _atom_site_fract_z
 _atom_site_occupancy
  K  K1  1  0.66700034  0.10949858  0.09465476  1
  K  K1  1  0.33299966  0.10949858  0.40534524  1
  K  K1  1  0.83299966  0.39050142  0.90534524  1
  K  K1  1  0.16700034  0.39050142  0.59465476  1
  K  K2  1  0.82843018  0.08199642  0.42395950  1
  K  K2  1  0.17156982  0.08199642  0.07604050  1
  K  K2  1  0.67156982  0.41800358  0.57604050  1
  K  K2  1  0.32843018  0.41800358  0.92395950  1
  Be  Be1  1  0.50000000  0.80960038  0.25000000  1
  Be  Be1  1  0.00000000  0.69039962  0.75000000  1
  Be  Be2  1  0.00000000  0.26939900  0.75000000  1
  Be  Be2  1  0.50000000  0.23060100  0.25000000  1
  Be  Be3  1  0.50000000  0.48079904  0.75000000  1
  Be  Be3  1  0.00000000  0.01920096  0.25000000  1
  O  O1  1  0.00000000  0.47941786  0.75000000  1
  O  O1  1  0.50000000  0.02058214  0.25000000  1
  O  O2  1  0.94792870  0.82449250  0.62223621  1
  O  O2  1  0.55207130  0.32449250  0.87776379  1
  O  O2  1  0.55207130  0.67550750  0.37776379  1
  O  O2  1  0.94792870  0.17550750  0.12223621  1
  O  O3  1  0.87284031  0.13934758  0.73288392  1
  O  O3  1  0.12715969  0.13934758  0.76711608  1
  O  O3  1  0.62715969  0.36065242  0.26711608  1
  O  O3  1  0.37284031  0.36065242  0.23288392  1
  K  K1  1  0.16700034  0.60949858  0.09465476  1
  K  K1  1  0.83299966  0.60949858  0.40534524  1
  K  K1  1  0.33299966  0.89050142  0.90534524  1
  K  K1  1  0.66700034  0.89050142  0.59465476  1
  K  K2  1  0.32843018  0.58199642  0.42395950  1
  K  K2  1  0.67156982  0.58199642  0.07604050  1
  K  K2  1  0.17156982  0.91800358  0.57604050  1
  K  K2  1  0.82843018  0.91800358  0.92395950  1
  Be  Be1  1  0.00000000  0.30960038  0.25000000  1
  Be  Be1  1  0.50000000  0.19039962  0.75000000  1
  Be  Be2  1  0.50000000  0.76939900  0.75000000  1
  Be  Be2  1  0.00000000  0.73060100  0.25000000  1
  Be  Be3  1  0.00000000  0.98079904  0.75000000  1
  Be  Be3  1  0.50000000  0.51920096  0.25000000  1
  O  O1  1  0.50000000  0.97941786  0.75000000  1
  O  O1  1  0.00000000  0.52058214  0.25000000  1
  O  O2  1  0.44792870  0.32449250  0.62223621  1
  O  O2  1  0.05207130  0.82449250  0.87776379  1
  O  O2  1  0.05207130  0.17550750  0.37776379  1
  O  O2  1  0.44792870  0.67550750  0.12223621  1
  O  O3  1  0.37284031  0.63934758  0.73288392  1
  O  O3  1  0.62715969  0.63934758  0.76711608  1
  O  O3  1  0.12715969  0.86065242  0.26711608  1
  O  O3  1  0.87284031  0.86065242  0.23288392  1
