# generated using pymatgen
data_K4HfO4
_symmetry_space_group_name_H-M   'P 1'
_cell_length_a   6.54288530
_cell_length_b   6.55837935
_cell_length_c   9.84323109
_cell_angle_alpha   80.44755574
_cell_angle_beta   71.76452764
_cell_angle_gamma   67.26263893
_symmetry_Int_Tables_number   1
_chemical_formula_structural   K4HfO4
_chemical_formula_sum   'K8 Hf2 O8'
_cell_volume   369.50276084
_cell_formula_units_Z   2
loop_
 _symmetry_equiv_pos_site_id
 _symmetry_equiv_pos_as_xyz
  1  'x, y, z'
loop_
 _atom_site_type_symbol
 _atom_site_label
 _atom_site_symmetry_multiplicity
 _atom_site_fract_x
 _atom_site_fract_y
 _atom_site_fract_z
 _atom_site_occupancy
  K  K1  1  0.95624056  0.22802559  0.61149544  1
  K  K1  1  0.04375944  0.77197441  0.38850456  1
  K  K2  1  0.40018304  0.26780908  0.82748520  1
  K  K2  1  0.59981696  0.73219092  0.17251480  1
  K  K3  1  0.23956572  0.76056956  0.98009692  1
  K  K3  1  0.76043428  0.23943044  0.01990308  1
  K  K4  1  0.48339776  0.72972858  0.56084884  1
  K  K4  1  0.51660224  0.27027142  0.43915116  1
  Hf  Hf1  1  0.84426773  0.72144092  0.75511910  1
  Hf  Hf1  1  0.15573227  0.27855908  0.24488090  1
  O  O1  1  0.70693127  0.96349942  0.62709852  1
  O  O1  1  0.29306873  0.03650058  0.37290148  1
  O  O2  1  0.84612628  0.45803828  0.35681718  1
  O  O2  1  0.15387372  0.54196172  0.64318282  1
  O  O3  1  0.65399515  0.53560491  0.80572754  1
  O  O3  1  0.34600485  0.46439509  0.19427246  1
  O  O4  1  0.84584375  0.85110250  0.92022460  1
  O  O4  1  0.15415625  0.14889750  0.07977540  1
