# generated using pymatgen
data_K4PbO4
_symmetry_space_group_name_H-M   'P 1'
_cell_length_a   6.61688569
_cell_length_b   6.63431329
_cell_length_c   10.00084390
_cell_angle_alpha   80.22281359
_cell_angle_beta   71.36005251
_cell_angle_gamma   67.79930817
_symmetry_Int_Tables_number   1
_chemical_formula_structural   K4PbO4
_chemical_formula_sum   'K8 Pb2 O8'
_cell_volume   384.55176886
_cell_formula_units_Z   2
loop_
 _symmetry_equiv_pos_site_id
 _symmetry_equiv_pos_as_xyz
  1  'x, y, z'
loop_
 _atom_site_type_symbol
 _atom_site_label
 _atom_site_symmetry_multiplicity
 _atom_site_fract_x
 _atom_site_fract_y
 _atom_site_fract_z
 _atom_site_occupancy
  K  K1  1  0.51712075  0.76894813  0.93512866  1
  K  K2  1  0.04648620  0.26606497  0.89371868  1
  K  K3  1  0.40025301  0.76300615  0.32112366  1
  K  K4  1  0.24244193  0.25548857  0.48328088  1
  K  K4  1  0.75755807  0.74451143  0.51671912  1
  K  K2  1  0.95351380  0.73393503  0.10628132  1
  K  K1  1  0.48287925  0.23105187  0.06487134  1
  K  K3  1  0.59974699  0.23699385  0.67887634  1
  Pb  Pb1  1  0.15504389  0.78077606  0.74434708  1
  Pb  Pb1  1  0.84495611  0.21922394  0.25565292  1
  O  O1  1  0.63772683  0.02471197  0.30426940  1
  O  O2  1  0.69969636  0.47730885  0.12029330  1
  O  O1  1  0.36227317  0.97528803  0.69573060  1
  O  O2  1  0.30030364  0.52269115  0.87970670  1
  O  O3  1  0.83190788  0.97645954  0.86448008  1
  O  O4  1  0.15210619  0.64309336  0.57183894  1
  O  O4  1  0.84789381  0.35690664  0.42816106  1
  O  O3  1  0.16809212  0.02354046  0.13551992  1
