# generated using pymatgen
data_K6CdO4
_symmetry_space_group_name_H-M   'P 1'
_cell_length_a   8.71945213
_cell_length_b   8.71945213
_cell_length_c   6.66656823
_cell_angle_alpha   90.00000000
_cell_angle_beta   90.00000000
_cell_angle_gamma   120.00000000
_symmetry_Int_Tables_number   1
_chemical_formula_structural   K6CdO4
_chemical_formula_sum   'K12 Cd2 O8'
_cell_volume   438.94626228
_cell_formula_units_Z   2
loop_
 _symmetry_equiv_pos_site_id
 _symmetry_equiv_pos_as_xyz
  1  'x, y, z'
loop_
 _atom_site_type_symbol
 _atom_site_label
 _atom_site_symmetry_multiplicity
 _atom_site_fract_x
 _atom_site_fract_y
 _atom_site_fract_z
 _atom_site_occupancy
  K  K1  1  0.46290883  0.92581767  0.35984716  1
  K  K1  1  0.92581767  0.46290883  0.85984716  1
  K  K1  1  0.46290883  0.53709117  0.35984716  1
  K  K1  1  0.07418233  0.53709117  0.35984716  1
  K  K2  1  0.28784653  0.14392327  0.52658586  1
  K  K2  1  0.14392327  0.85607674  0.02658586  1
  K  K1  1  0.53709117  0.46290883  0.85984716  1
  K  K2  1  0.14392327  0.28784653  0.02658586  1
  K  K2  1  0.71215347  0.85607674  0.02658586  1
  K  K2  1  0.85607674  0.14392327  0.52658586  1
  K  K2  1  0.85607674  0.71215347  0.52658586  1
  K  K1  1  0.53709117  0.07418233  0.85984716  1
  Cd  Cd1  1  0.33333333  0.66666667  0.75019193  1
  Cd  Cd1  1  0.66666667  0.33333333  0.25019193  1
  O  O1  1  0.38484729  0.19242365  0.13878040  1
  O  O1  1  0.19242365  0.80757636  0.63878040  1
  O  O1  1  0.19242365  0.38484729  0.63878040  1
  O  O1  1  0.80757636  0.61515271  0.13878040  1
  O  O1  1  0.80757636  0.19242365  0.13878040  1
  O  O1  1  0.61515271  0.80757636  0.63878040  1
  O  O2  1  0.33333333  0.66666667  0.08176881  1
  O  O2  1  0.66666667  0.33333333  0.58176881  1
