# generated using pymatgen
data_K6Si2O7
_symmetry_space_group_name_H-M   'P 1'
_cell_length_a   6.48052657
_cell_length_b   8.91546860
_cell_length_c   10.93691430
_cell_angle_alpha   90.00000000
_cell_angle_beta   124.77367015
_cell_angle_gamma   90.00000000
_symmetry_Int_Tables_number   1
_chemical_formula_structural   K6Si2O7
_chemical_formula_sum   'K12 Si4 O14'
_cell_volume   519.05096171
_cell_formula_units_Z   2
loop_
 _symmetry_equiv_pos_site_id
 _symmetry_equiv_pos_as_xyz
  1  'x, y, z'
loop_
 _atom_site_type_symbol
 _atom_site_label
 _atom_site_symmetry_multiplicity
 _atom_site_fract_x
 _atom_site_fract_y
 _atom_site_fract_z
 _atom_site_occupancy
  K  K1  1  0.79319308  0.52726532  0.04456488  1
  K  K1  1  0.79319308  0.97273468  0.54456488  1
  K  K1  1  0.20680692  0.47273468  0.95543512  1
  K  K2  1  0.97009552  0.35095580  0.58591330  1
  K  K2  1  0.02990448  0.85095580  0.91408670  1
  K  K2  1  0.02990448  0.64904420  0.41408670  1
  K  K2  1  0.97009552  0.14904420  0.08591330  1
  K  K3  1  0.60324142  0.28239568  0.72298132  1
  K  K3  1  0.39675858  0.78239568  0.77701868  1
  K  K3  1  0.39675858  0.71760432  0.27701868  1
  K  K3  1  0.60324142  0.21760432  0.22298132  1
  K  K1  1  0.20680692  0.02726532  0.45543512  1
  Si  Si1  1  0.67399442  0.63635510  0.62544448  1
  Si  Si1  1  0.67399442  0.86364490  0.12544448  1
  Si  Si1  1  0.32600558  0.36364490  0.37455552  1
  Si  Si1  1  0.32600558  0.13635510  0.87455552  1
  O  O1  1  0.50000000  0.50000000  0.50000000  1
  O  O2  1  0.25918978  0.08238948  0.71265970  1
  O  O2  1  0.74081022  0.58238948  0.78734030  1
  O  O2  1  0.74081022  0.91761052  0.28734030  1
  O  O1  1  0.50000000  0.00000000  0.00000000  1
  O  O3  1  0.07349594  0.34068286  0.37372102  1
  O  O3  1  0.92650406  0.84068286  0.12627898  1
  O  O3  1  0.92650406  0.65931714  0.62627898  1
  O  O3  1  0.07349594  0.15931714  0.87372102  1
  O  O4  1  0.50649587  0.21444108  0.43556266  1
  O  O4  1  0.49350413  0.71444108  0.06443734  1
  O  O4  1  0.49350413  0.78555892  0.56443734  1
  O  O4  1  0.50649587  0.28555892  0.93556266  1
  O  O2  1  0.25918978  0.41761052  0.21265970  1
