# generated using pymatgen
data_KAgO2
_symmetry_space_group_name_H-M   'P 1'
_cell_length_a   4.32252228
_cell_length_b   12.05906717
_cell_length_c   5.89708843
_cell_angle_alpha   90.00000000
_cell_angle_beta   90.00000000
_cell_angle_gamma   90.00000000
_symmetry_Int_Tables_number   1
_chemical_formula_structural   KAgO2
_chemical_formula_sum   'K4 Ag4 O8'
_cell_volume   307.38919319
_cell_formula_units_Z   4
loop_
 _symmetry_equiv_pos_site_id
 _symmetry_equiv_pos_as_xyz
  1  'x, y, z'
loop_
 _atom_site_type_symbol
 _atom_site_label
 _atom_site_symmetry_multiplicity
 _atom_site_fract_x
 _atom_site_fract_y
 _atom_site_fract_z
 _atom_site_occupancy
  K  K1  1  0.50000000  0.20481065  0.25000000  1
  K  K1  1  0.00000000  0.29518935  0.75000000  1
  Ag  Ag1  1  0.50000000  0.49691886  0.25000000  1
  Ag  Ag1  1  0.00000000  0.00308114  0.75000000  1
  O  O1  1  0.50000000  0.38899140  0.50622280  1
  O  O1  1  0.00000000  0.11100860  0.00622280  1
  O  O1  1  0.50000000  0.38899140  0.99377720  1
  O  O1  1  0.00000000  0.11100860  0.49377720  1
  K  K1  1  0.00000000  0.70481065  0.25000000  1
  K  K1  1  0.50000000  0.79518935  0.75000000  1
  Ag  Ag1  1  0.00000000  0.99691886  0.25000000  1
  Ag  Ag1  1  0.50000000  0.50308114  0.75000000  1
  O  O1  1  0.00000000  0.88899140  0.50622280  1
  O  O1  1  0.50000000  0.61100860  0.00622280  1
  O  O1  1  0.00000000  0.88899140  0.99377720  1
  O  O1  1  0.50000000  0.61100860  0.49377720  1
