# generated using pymatgen
data_KAuO2
_symmetry_space_group_name_H-M   'P 1'
_cell_length_a   4.40180420
_cell_length_b   11.92259939
_cell_length_c   6.00563119
_cell_angle_alpha   90.00000000
_cell_angle_beta   90.00000000
_cell_angle_gamma   90.00000000
_symmetry_Int_Tables_number   1
_chemical_formula_structural   KAuO2
_chemical_formula_sum   'K4 Au4 O8'
_cell_volume   315.18121811
_cell_formula_units_Z   4
loop_
 _symmetry_equiv_pos_site_id
 _symmetry_equiv_pos_as_xyz
  1  'x, y, z'
loop_
 _atom_site_type_symbol
 _atom_site_label
 _atom_site_symmetry_multiplicity
 _atom_site_fract_x
 _atom_site_fract_y
 _atom_site_fract_z
 _atom_site_occupancy
  K  K1  1  0.00000000  0.29726093  0.75000000  1
  K  K1  1  0.50000000  0.20273907  0.25000000  1
  Au  Au1  1  0.50000000  0.49726925  0.25000000  1
  Au  Au1  1  0.00000000  0.00273075  0.75000000  1
  O  O1  1  0.50000000  0.38869634  0.99479412  1
  O  O1  1  0.00000000  0.11130366  0.00520588  1
  O  O1  1  0.00000000  0.11130366  0.49479412  1
  O  O1  1  0.50000000  0.38869634  0.50520588  1
  K  K1  1  0.50000000  0.79726093  0.75000000  1
  K  K1  1  0.00000000  0.70273907  0.25000000  1
  Au  Au1  1  0.00000000  0.99726925  0.25000000  1
  Au  Au1  1  0.50000000  0.50273075  0.75000000  1
  O  O1  1  0.00000000  0.88869634  0.99479412  1
  O  O1  1  0.50000000  0.61130366  0.00520588  1
  O  O1  1  0.50000000  0.61130366  0.49479412  1
  O  O1  1  0.00000000  0.88869634  0.50520588  1
