# generated using pymatgen
data_KBaY(BO3)2
_symmetry_space_group_name_H-M   'P 1'
_cell_length_a   5.43515743
_cell_length_b   5.43515743
_cell_length_c   17.59090451
_cell_angle_alpha   90.00000000
_cell_angle_beta   90.00000000
_cell_angle_gamma   120.00000000
_symmetry_Int_Tables_number   1
_chemical_formula_structural   KBaY(BO3)2
_chemical_formula_sum   'K3 Ba3 Y3 B6 O18'
_cell_volume   450.03165074
_cell_formula_units_Z   3
loop_
 _symmetry_equiv_pos_site_id
 _symmetry_equiv_pos_as_xyz
  1  'x, y, z'
loop_
 _atom_site_type_symbol
 _atom_site_label
 _atom_site_symmetry_multiplicity
 _atom_site_fract_x
 _atom_site_fract_y
 _atom_site_fract_z
 _atom_site_occupancy
  K  K1  1  0.00000000  0.00000000  0.22042754  1
  Ba  Ba1  1  0.66666667  0.33333333  0.12416861  1
  Y  Y1  1  0.66666667  0.33333333  0.33166531  1
  B  B1  1  0.33333333  0.66666667  0.25268210  1
  B  B2  1  0.33333333  0.66666667  0.07760397  1
  O  O1  1  0.48090090  0.51909910  0.25339238  1
  O  O1  1  0.03819819  0.51909910  0.25339238  1
  O  O1  1  0.48090090  0.96180181  0.25339238  1
  O  O2  1  0.18612597  0.81387403  0.07790078  1
  O  O2  1  0.62774806  0.81387403  0.07790078  1
  O  O2  1  0.18612597  0.37225194  0.07790078  1
  K  K1  1  0.66666667  0.33333333  0.55376088  1
  Ba  Ba1  1  0.33333333  0.66666667  0.45750194  1
  Y  Y1  1  0.33333333  0.66666667  0.66499865  1
  B  B1  1  0.00000000  0.00000000  0.58601543  1
  B  B2  1  0.00000000  0.00000000  0.41093730  1
  O  O1  1  0.14756757  0.85243243  0.58672571  1
  O  O1  1  0.70486486  0.85243243  0.58672571  1
  O  O1  1  0.14756757  0.29513514  0.58672571  1
  O  O2  1  0.85279264  0.14720736  0.41123411  1
  O  O2  1  0.29441472  0.14720736  0.41123411  1
  O  O2  1  0.85279264  0.70558528  0.41123411  1
  K  K1  1  0.33333333  0.66666667  0.88709421  1
  Ba  Ba1  1  0.00000000  0.00000000  0.79083528  1
  Y  Y1  1  0.00000000  0.00000000  0.99833198  1
  B  B1  1  0.66666667  0.33333333  0.91934877  1
  B  B2  1  0.66666667  0.33333333  0.74427064  1
  O  O1  1  0.81423424  0.18576576  0.92005904  1
  O  O1  1  0.37153153  0.18576576  0.92005904  1
  O  O1  1  0.81423424  0.62846847  0.92005904  1
  O  O2  1  0.51945930  0.48054070  0.74456744  1
  O  O2  1  0.96108139  0.48054070  0.74456744  1
  O  O2  1  0.51945930  0.03891861  0.74456744  1
