# generated using pymatgen
data_KBi(WO4)2
_symmetry_space_group_name_H-M   'P 1'
_cell_length_a   10.80328696
_cell_length_b   10.64719924
_cell_length_c   7.55255799
_cell_angle_alpha   90.00000000
_cell_angle_beta   130.84012606
_cell_angle_gamma   90.00000000
_symmetry_Int_Tables_number   1
_chemical_formula_structural   KBi(WO4)2
_chemical_formula_sum   'K4 Bi4 W8 O32'
_cell_volume   657.22743360
_cell_formula_units_Z   4
loop_
 _symmetry_equiv_pos_site_id
 _symmetry_equiv_pos_as_xyz
  1  'x, y, z'
loop_
 _atom_site_type_symbol
 _atom_site_label
 _atom_site_symmetry_multiplicity
 _atom_site_fract_x
 _atom_site_fract_y
 _atom_site_fract_z
 _atom_site_occupancy
  K  K1  1  0.00000000  0.70654636  0.25000000  1
  K  K1  1  0.00000000  0.29345364  0.75000000  1
  Bi  Bi1  1  0.00000000  0.72516728  0.75000000  1
  Bi  Bi1  1  0.00000000  0.27483272  0.25000000  1
  W  W1  1  0.30498832  0.49824268  0.76815754  1
  W  W1  1  0.30498832  0.50175732  0.26815754  1
  W  W1  1  0.69501168  0.49824268  0.73184246  1
  W  W1  1  0.69501168  0.50175732  0.23184246  1
  O  O1  1  0.12796092  0.58180002  0.68299958  1
  O  O1  1  0.87203908  0.58180002  0.81700042  1
  O  O1  1  0.87203908  0.41819998  0.31700042  1
  O  O1  1  0.12796092  0.41819998  0.18299958  1
  O  O2  1  0.22575960  0.34196242  0.63459276  1
  O  O2  1  0.77424040  0.34196242  0.86540724  1
  O  O2  1  0.77424040  0.65803758  0.36540724  1
  O  O2  1  0.22575960  0.65803758  0.13459276  1
  O  O3  1  0.30956416  0.43449658  0.05298588  1
  O  O3  1  0.69043584  0.43449658  0.44701412  1
  O  O3  1  0.69043584  0.56550342  0.94701412  1
  O  O3  1  0.30956416  0.56550342  0.55298588  1
  O  O4  1  0.02054996  0.10680016  0.47592062  1
  O  O4  1  0.97945004  0.10680016  0.02407938  1
  O  O4  1  0.97945004  0.89319984  0.52407938  1
  O  O4  1  0.02054996  0.89319984  0.97592062  1
  K  K1  1  0.50000000  0.20654636  0.25000000  1
  K  K1  1  0.50000000  0.79345364  0.75000000  1
  Bi  Bi1  1  0.50000000  0.22516728  0.75000000  1
  Bi  Bi1  1  0.50000000  0.77483272  0.25000000  1
  W  W1  1  0.80498832  0.99824268  0.76815754  1
  W  W1  1  0.80498832  0.00175732  0.26815754  1
  W  W1  1  0.19501168  0.99824268  0.73184246  1
  W  W1  1  0.19501168  0.00175732  0.23184246  1
  O  O1  1  0.62796092  0.08180002  0.68299958  1
  O  O1  1  0.37203908  0.08180002  0.81700042  1
  O  O1  1  0.37203908  0.91819998  0.31700042  1
  O  O1  1  0.62796092  0.91819998  0.18299958  1
  O  O2  1  0.72575960  0.84196242  0.63459276  1
  O  O2  1  0.27424040  0.84196242  0.86540724  1
  O  O2  1  0.27424040  0.15803758  0.36540724  1
  O  O2  1  0.72575960  0.15803758  0.13459276  1
  O  O3  1  0.80956416  0.93449658  0.05298588  1
  O  O3  1  0.19043584  0.93449658  0.44701412  1
  O  O3  1  0.19043584  0.06550342  0.94701412  1
  O  O3  1  0.80956416  0.06550342  0.55298588  1
  O  O4  1  0.52054996  0.60680016  0.47592062  1
  O  O4  1  0.47945004  0.60680016  0.02407938  1
  O  O4  1  0.47945004  0.39319984  0.52407938  1
  O  O4  1  0.52054996  0.39319984  0.97592062  1
