# generated using pymatgen
data_KBiO2
_symmetry_space_group_name_H-M   'P 1'
_cell_length_a   7.81777542
_cell_length_b   7.92810784
_cell_length_c   5.99404122
_cell_angle_alpha   90.00000000
_cell_angle_beta   124.65481107
_cell_angle_gamma   90.00000000
_symmetry_Int_Tables_number   1
_chemical_formula_structural   KBiO2
_chemical_formula_sum   'K4 Bi4 O8'
_cell_volume   305.60281840
_cell_formula_units_Z   4
loop_
 _symmetry_equiv_pos_site_id
 _symmetry_equiv_pos_as_xyz
  1  'x, y, z'
loop_
 _atom_site_type_symbol
 _atom_site_label
 _atom_site_symmetry_multiplicity
 _atom_site_fract_x
 _atom_site_fract_y
 _atom_site_fract_z
 _atom_site_occupancy
  K  K1  1  0.50000000  0.36939432  0.25000000  1
  K  K1  1  0.50000000  0.63060568  0.75000000  1
  Bi  Bi1  1  0.50000000  0.10507080  0.75000000  1
  Bi  Bi1  1  0.50000000  0.89492920  0.25000000  1
  O  O1  1  0.30790062  0.93220398  0.78032534  1
  O  O1  1  0.69209938  0.93220398  0.71967466  1
  O  O1  1  0.30790062  0.06779602  0.28032534  1
  O  O1  1  0.69209938  0.06779602  0.21967466  1
  K  K1  1  0.00000000  0.86939432  0.25000000  1
  K  K1  1  0.00000000  0.13060568  0.75000000  1
  Bi  Bi1  1  0.00000000  0.60507080  0.75000000  1
  Bi  Bi1  1  0.00000000  0.39492920  0.25000000  1
  O  O1  1  0.80790062  0.43220398  0.78032534  1
  O  O1  1  0.19209938  0.43220398  0.71967466  1
  O  O1  1  0.80790062  0.56779602  0.28032534  1
  O  O1  1  0.19209938  0.56779602  0.21967466  1
