# generated using pymatgen
data_KBO2
_symmetry_space_group_name_H-M   'P 1'
_cell_length_a   12.80451056
_cell_length_b   12.80451056
_cell_length_c   7.34328313
_cell_angle_alpha   90.00000000
_cell_angle_beta   90.00000000
_cell_angle_gamma   120.00000000
_symmetry_Int_Tables_number   1
_chemical_formula_structural   KBO2
_chemical_formula_sum   'K18 B18 O36'
_cell_volume   1042.66998062
_cell_formula_units_Z   18
loop_
 _symmetry_equiv_pos_site_id
 _symmetry_equiv_pos_as_xyz
  1  'x, y, z'
loop_
 _atom_site_type_symbol
 _atom_site_label
 _atom_site_symmetry_multiplicity
 _atom_site_fract_x
 _atom_site_fract_y
 _atom_site_fract_z
 _atom_site_occupancy
  K  K1  1  0.33333333  0.10630031  0.91666667  1
  K  K1  1  0.22703303  0.89369969  0.58333333  1
  K  K1  1  0.43963364  0.00000000  0.25000000  1
  K  K1  1  0.00000000  0.56036636  0.75000000  1
  K  K1  1  0.10630031  0.77296697  0.08333333  1
  K  K1  1  0.89369969  0.66666667  0.41666667  1
  B  B1  1  0.00000000  0.88681539  0.75000000  1
  B  B1  1  0.33333333  0.77985127  0.91666667  1
  B  B1  1  0.55348206  0.22014873  0.58333333  1
  B  B1  1  0.11318461  0.00000000  0.25000000  1
  B  B1  1  0.77985127  0.44651794  0.08333333  1
  B  B1  1  0.22014873  0.66666667  0.41666667  1
  O  O1  1  0.10836549  0.00000000  0.75000000  1
  O  O1  1  0.55830118  0.22496784  0.08333333  1
  O  O1  1  0.00000000  0.89163451  0.25000000  1
  O  O1  1  0.33333333  0.77503216  0.41666667  1
  O  O1  1  0.22496784  0.66666667  0.91666667  1
  O  O1  1  0.77503216  0.44169882  0.58333333  1
  O  O2  1  0.11688501  0.66666667  0.41666667  1
  O  O2  1  0.88311499  0.54978166  0.08333333  1
  O  O2  1  0.00000000  0.78355167  0.75000000  1
  O  O2  1  0.21644833  0.00000000  0.25000000  1
  O  O2  1  0.45021834  0.11688501  0.58333333  1
  O  O2  1  0.33333333  0.88311499  0.91666667  1
  K  K1  1  0.00000000  0.43963364  0.25000000  1
  K  K1  1  0.89369969  0.22703303  0.91666667  1
  K  K1  1  0.10630031  0.33333333  0.58333333  1
  K  K1  1  0.66666667  0.89369969  0.08333333  1
  K  K1  1  0.77296697  0.10630031  0.41666667  1
  K  K1  1  0.56036636  0.00000000  0.75000000  1
  B  B1  1  0.66666667  0.22014873  0.08333333  1
  B  B1  1  -0.00000000  0.11318461  0.25000000  1
  B  B1  1  0.22014873  0.55348206  0.91666667  1
  B  B1  1  0.77985127  0.33333333  0.58333333  1
  B  B1  1  0.44651794  0.77985127  0.41666667  1
  B  B1  1  0.88681539  0.00000000  0.75000000  1
  O  O1  1  0.77503216  0.33333333  0.08333333  1
  O  O1  1  0.22496784  0.55830118  0.41666667  1
  O  O1  1  0.66666667  0.22496784  0.58333333  1
  O  O1  1  -0.00000000  0.10836549  0.75000000  1
  O  O1  1  0.89163451  0.00000000  0.25000000  1
  O  O1  1  0.44169882  0.77503216  0.91666667  1
  O  O2  1  0.78355167  0.00000000  0.75000000  1
  O  O2  1  0.54978166  0.88311499  0.41666667  1
  O  O2  1  0.66666667  0.11688501  0.08333333  1
  O  O2  1  0.88311499  0.33333333  0.58333333  1
  O  O2  1  0.11688501  0.45021834  0.91666667  1
  O  O2  1  0.00000000  0.21644833  0.25000000  1
  K  K1  1  0.66666667  0.77296697  0.58333333  1
  K  K1  1  0.56036636  0.56036636  0.25000000  1
  K  K1  1  0.77296697  0.66666667  0.91666667  1
  K  K1  1  0.33333333  0.22703303  0.41666667  1
  K  K1  1  0.43963364  0.43963364  0.75000000  1
  K  K1  1  0.22703303  0.33333333  0.08333333  1
  B  B1  1  0.33333333  0.55348206  0.41666667  1
  B  B1  1  0.66666667  0.44651794  0.58333333  1
  B  B1  1  0.88681539  0.88681539  0.25000000  1
  B  B1  1  0.44651794  0.66666667  0.91666667  1
  B  B1  1  0.11318461  0.11318461  0.75000000  1
  B  B1  1  0.55348206  0.33333333  0.08333333  1
  O  O1  1  0.44169882  0.66666667  0.41666667  1
  O  O1  1  0.89163451  0.89163451  0.75000000  1
  O  O1  1  0.33333333  0.55830118  0.91666667  1
  O  O1  1  0.66666667  0.44169882  0.08333333  1
  O  O1  1  0.55830118  0.33333333  0.58333333  1
  O  O1  1  0.10836549  0.10836549  0.25000000  1
  O  O2  1  0.45021834  0.33333333  0.08333333  1
  O  O2  1  0.21644833  0.21644833  0.75000000  1
  O  O2  1  0.33333333  0.45021834  0.41666667  1
  O  O2  1  0.54978166  0.66666667  0.91666667  1
  O  O2  1  0.78355167  0.78355167  0.25000000  1
  O  O2  1  0.66666667  0.54978166  0.58333333  1
