# generated using pymatgen
data_KCuO
_symmetry_space_group_name_H-M   'P 1'
_cell_length_a   9.24201881
_cell_length_b   9.24201881
_cell_length_c   5.50495028
_cell_angle_alpha   90.00000000
_cell_angle_beta   90.00000000
_cell_angle_gamma   90.00000000
_symmetry_Int_Tables_number   1
_chemical_formula_structural   KCuO
_chemical_formula_sum   'K8 Cu8 O8'
_cell_volume   470.20484199
_cell_formula_units_Z   8
loop_
 _symmetry_equiv_pos_site_id
 _symmetry_equiv_pos_as_xyz
  1  'x, y, z'
loop_
 _atom_site_type_symbol
 _atom_site_label
 _atom_site_symmetry_multiplicity
 _atom_site_fract_x
 _atom_site_fract_y
 _atom_site_fract_z
 _atom_site_occupancy
  K  K1  1  0.00000000  0.30955024  0.50000000  1
  K  K1  1  0.00000000  0.69044976  0.50000000  1
  K  K1  1  0.19044976  0.50000000  0.00000000  1
  K  K1  1  0.80955024  0.50000000  0.00000000  1
  Cu  Cu1  1  0.63731526  0.36268474  0.50000000  1
  Cu  Cu1  1  0.36268474  0.36268474  0.50000000  1
  Cu  Cu1  1  0.86268474  0.13731526  0.00000000  1
  Cu  Cu1  1  0.13731526  0.13731526  0.00000000  1
  O  O1  1  0.22324122  0.50000000  0.50000000  1
  O  O1  1  0.00000000  0.27675878  0.00000000  1
  O  O1  1  0.00000000  0.72324122  0.00000000  1
  O  O1  1  0.77675878  0.50000000  0.50000000  1
  K  K1  1  0.50000000  0.80955024  0.00000000  1
  K  K1  1  0.50000000  0.19044976  0.00000000  1
  K  K1  1  0.69044976  0.00000000  0.50000000  1
  K  K1  1  0.30955024  0.00000000  0.50000000  1
  Cu  Cu1  1  0.13731526  0.86268474  0.00000000  1
  Cu  Cu1  1  0.86268474  0.86268474  0.00000000  1
  Cu  Cu1  1  0.36268474  0.63731526  0.50000000  1
  Cu  Cu1  1  0.63731526  0.63731526  0.50000000  1
  O  O1  1  0.72324122  0.00000000  0.00000000  1
  O  O1  1  0.50000000  0.77675878  0.50000000  1
  O  O1  1  0.50000000  0.22324122  0.50000000  1
  O  O1  1  0.27675878  0.00000000  0.00000000  1
