# generated using pymatgen
data_KCuO2
_symmetry_space_group_name_H-M   'P 1'
_cell_length_a   4.52445946
_cell_length_b   11.54439442
_cell_length_c   5.36593194
_cell_angle_alpha   90.00000000
_cell_angle_beta   90.00000000
_cell_angle_gamma   90.00000000
_symmetry_Int_Tables_number   1
_chemical_formula_structural   KCuO2
_chemical_formula_sum   'K4 Cu4 O8'
_cell_volume   280.27413327
_cell_formula_units_Z   4
loop_
 _symmetry_equiv_pos_site_id
 _symmetry_equiv_pos_as_xyz
  1  'x, y, z'
loop_
 _atom_site_type_symbol
 _atom_site_label
 _atom_site_symmetry_multiplicity
 _atom_site_fract_x
 _atom_site_fract_y
 _atom_site_fract_z
 _atom_site_occupancy
  K  K1  1  0.00000000  0.30498203  0.75000000  1
  K  K1  1  0.50000000  0.19501797  0.25000000  1
  Cu  Cu1  1  0.50000000  0.49765826  0.25000000  1
  Cu  Cu1  1  0.00000000  0.00234174  0.75000000  1
  O  O1  1  0.50000000  0.39501221  0.99547490  1
  O  O1  1  0.00000000  0.10498779  0.00452510  1
  O  O1  1  0.50000000  0.39501221  0.50452510  1
  O  O1  1  0.00000000  0.10498779  0.49547490  1
  K  K1  1  0.50000000  0.80498203  0.75000000  1
  K  K1  1  0.00000000  0.69501797  0.25000000  1
  Cu  Cu1  1  0.00000000  0.99765826  0.25000000  1
  Cu  Cu1  1  0.50000000  0.50234174  0.75000000  1
  O  O1  1  0.00000000  0.89501221  0.99547490  1
  O  O1  1  0.50000000  0.60498779  0.00452510  1
  O  O1  1  0.00000000  0.89501221  0.50452510  1
  O  O1  1  0.50000000  0.60498779  0.49547490  1
