# generated using pymatgen
data_KLa(MoO4)2
_symmetry_space_group_name_H-M   'P 1'
_cell_length_a   10.88541173
_cell_length_b   10.59004029
_cell_length_c   7.91704638
_cell_angle_alpha   90.00000000
_cell_angle_beta   131.44709941
_cell_angle_gamma   90.00000000
_symmetry_Int_Tables_number   1
_chemical_formula_structural   KLa(MoO4)2
_chemical_formula_sum   'K4 La4 Mo8 O32'
_cell_volume   684.09470884
_cell_formula_units_Z   4
loop_
 _symmetry_equiv_pos_site_id
 _symmetry_equiv_pos_as_xyz
  1  'x, y, z'
loop_
 _atom_site_type_symbol
 _atom_site_label
 _atom_site_symmetry_multiplicity
 _atom_site_fract_x
 _atom_site_fract_y
 _atom_site_fract_z
 _atom_site_occupancy
  K  K1  1  0.00000000  0.19529366  0.75000000  1
  K  K1  1  0.00000000  0.80470634  0.25000000  1
  La  La1  1  0.00000000  0.77187628  0.75000000  1
  La  La1  1  0.00000000  0.22812372  0.25000000  1
  Mo  Mo1  1  0.80915882  0.49711746  0.75954274  1
  Mo  Mo1  1  0.19084118  0.50288254  0.24045726  1
  Mo  Mo1  1  0.19084118  0.49711746  0.74045726  1
  Mo  Mo1  1  0.80915882  0.50288254  0.25954274  1
  O  O1  1  0.81182708  0.41939020  0.56442676  1
  O  O1  1  0.18817292  0.58060980  0.43557324  1
  O  O1  1  0.18817292  0.41939020  0.93557324  1
  O  O1  1  0.81182708  0.58060980  0.06442676  1
  O  O2  1  0.26317634  0.65557316  0.86844196  1
  O  O2  1  0.73682366  0.34442684  0.13155804  1
  O  O2  1  0.73682366  0.65557316  0.63155804  1
  O  O2  1  0.26317634  0.34442684  0.36844196  1
  O  O3  1  0.02474534  0.60510416  0.97585372  1
  O  O3  1  0.97525466  0.39489584  0.02414628  1
  O  O3  1  0.97525466  0.60510416  0.52414628  1
  O  O3  1  0.02474534  0.39489584  0.47585372  1
  O  O4  1  0.63090800  0.42976902  0.69372224  1
  O  O4  1  0.36909200  0.57023098  0.30627776  1
  O  O4  1  0.36909200  0.42976902  0.80627776  1
  O  O4  1  0.63090800  0.57023098  0.19372224  1
  K  K1  1  0.50000000  0.69529366  0.75000000  1
  K  K1  1  0.50000000  0.30470634  0.25000000  1
  La  La1  1  0.50000000  0.27187628  0.75000000  1
  La  La1  1  0.50000000  0.72812372  0.25000000  1
  Mo  Mo1  1  0.30915882  0.99711746  0.75954274  1
  Mo  Mo1  1  0.69084118  0.00288254  0.24045726  1
  Mo  Mo1  1  0.69084118  0.99711746  0.74045726  1
  Mo  Mo1  1  0.30915882  0.00288254  0.25954274  1
  O  O1  1  0.31182708  0.91939020  0.56442676  1
  O  O1  1  0.68817292  0.08060980  0.43557324  1
  O  O1  1  0.68817292  0.91939020  0.93557324  1
  O  O1  1  0.31182708  0.08060980  0.06442676  1
  O  O2  1  0.76317634  0.15557316  0.86844196  1
  O  O2  1  0.23682366  0.84442684  0.13155804  1
  O  O2  1  0.23682366  0.15557316  0.63155804  1
  O  O2  1  0.76317634  0.84442684  0.36844196  1
  O  O3  1  0.52474534  0.10510416  0.97585372  1
  O  O3  1  0.47525466  0.89489584  0.02414628  1
  O  O3  1  0.47525466  0.10510416  0.52414628  1
  O  O3  1  0.52474534  0.89489584  0.47585372  1
  O  O4  1  0.13090800  0.92976902  0.69372224  1
  O  O4  1  0.86909200  0.07023098  0.30627776  1
  O  O4  1  0.86909200  0.92976902  0.80627776  1
  O  O4  1  0.13090800  0.07023098  0.19372224  1
