# generated using pymatgen
data_KLa2NbO6
_symmetry_space_group_name_H-M   'P 1'
_cell_length_a   12.70888678
_cell_length_b   5.75485918
_cell_length_c   8.88165597
_cell_angle_alpha   90.00000000
_cell_angle_beta   106.14305090
_cell_angle_gamma   90.00000000
_symmetry_Int_Tables_number   1
_chemical_formula_structural   KLa2NbO6
_chemical_formula_sum   'K4 La8 Nb4 O24'
_cell_volume   623.97244288
_cell_formula_units_Z   4
loop_
 _symmetry_equiv_pos_site_id
 _symmetry_equiv_pos_as_xyz
  1  'x, y, z'
loop_
 _atom_site_type_symbol
 _atom_site_label
 _atom_site_symmetry_multiplicity
 _atom_site_fract_x
 _atom_site_fract_y
 _atom_site_fract_z
 _atom_site_occupancy
  K  K1  1  0.61588671  0.50000000  0.48165047  1
  K  K1  1  0.88411329  0.00000000  0.51834953  1
  La  La1  1  0.62993127  0.50000000  0.92879832  1
  La  La1  1  0.87006873  0.00000000  0.07120168  1
  La  La2  1  0.58899098  0.00000000  0.20509710  1
  La  La2  1  0.91100902  0.50000000  0.79490290  1
  Nb  Nb1  1  0.84114028  0.50000000  0.29594456  1
  Nb  Nb1  1  0.65885972  0.00000000  0.70405544  1
  O  O1  1  0.54766900  0.23231558  0.70882936  1
  O  O1  1  0.95233100  0.73231558  0.29117064  1
  O  O2  1  0.00000000  0.74799134  0.00000000  1
  O  O3  1  0.73629872  0.26657246  0.16668670  1
  O  O1  1  0.95233100  0.26768442  0.29117064  1
  O  O3  1  0.76370128  0.23342754  0.83331330  1
  O  O3  1  0.76370128  0.76657246  0.83331330  1
  O  O4  1  0.67542182  0.00000000  0.50310163  1
  O  O4  1  0.82457818  0.50000000  0.49689837  1
  O  O2  1  0.00000000  0.25200866  0.00000000  1
  O  O3  1  0.73629872  0.73342754  0.16668670  1
  O  O1  1  0.54766900  0.76768442  0.70882936  1
  K  K1  1  0.11588671  0.00000000  0.48165047  1
  K  K1  1  0.38411329  0.50000000  0.51834953  1
  La  La1  1  0.12993127  0.00000000  0.92879832  1
  La  La1  1  0.37006873  0.50000000  0.07120168  1
  La  La2  1  0.08899098  0.50000000  0.20509710  1
  La  La2  1  0.41100902  0.00000000  0.79490290  1
  Nb  Nb1  1  0.34114028  0.00000000  0.29594456  1
  Nb  Nb1  1  0.15885972  0.50000000  0.70405544  1
  O  O1  1  0.04766900  0.73231558  0.70882936  1
  O  O1  1  0.45233100  0.23231558  0.29117064  1
  O  O2  1  0.50000000  0.24799134  0.00000000  1
  O  O3  1  0.23629872  0.76657246  0.16668670  1
  O  O1  1  0.45233100  0.76768442  0.29117064  1
  O  O3  1  0.26370128  0.73342754  0.83331330  1
  O  O3  1  0.26370128  0.26657246  0.83331330  1
  O  O4  1  0.17542182  0.50000000  0.50310163  1
  O  O4  1  0.32457818  0.00000000  0.49689837  1
  O  O2  1  0.50000000  0.75200866  0.00000000  1
  O  O3  1  0.23629872  0.23342754  0.16668670  1
  O  O1  1  0.04766900  0.26768442  0.70882936  1
