# generated using pymatgen
data_KLaO2
_symmetry_space_group_name_H-M   'P 1'
_cell_length_a   3.69473256
_cell_length_b   3.69473256
_cell_length_c   18.63519072
_cell_angle_alpha   90.00000000
_cell_angle_beta   90.00000000
_cell_angle_gamma   120.00000000
_symmetry_Int_Tables_number   1
_chemical_formula_structural   KLaO2
_chemical_formula_sum   'K3 La3 O6'
_cell_volume   220.30811205
_cell_formula_units_Z   3
loop_
 _symmetry_equiv_pos_site_id
 _symmetry_equiv_pos_as_xyz
  1  'x, y, z'
loop_
 _atom_site_type_symbol
 _atom_site_label
 _atom_site_symmetry_multiplicity
 _atom_site_fract_x
 _atom_site_fract_y
 _atom_site_fract_z
 _atom_site_occupancy
  K  K1  1  0.00000000  0.00000000  0.00000000  1
  La  La1  1  0.66666667  0.33333333  0.83333333  1
  O  O1  1  0.00000000  0.00000000  0.76986335  1
  O  O1  1  0.33333333  0.66666667  0.89680332  1
  K  K1  1  0.66666667  0.33333333  0.33333333  1
  La  La1  1  0.33333333  0.66666667  0.16666667  1
  O  O1  1  0.66666667  0.33333333  0.10319668  1
  O  O1  1  0.00000000  0.00000000  0.23013665  1
  K  K1  1  0.33333333  0.66666667  0.66666667  1
  La  La1  1  -0.00000000  -0.00000000  0.50000000  1
  O  O1  1  0.33333333  0.66666667  0.43653001  1
  O  O1  1  0.66666667  0.33333333  0.56346999  1
