# generated using pymatgen
data_KLi2BO3
_symmetry_space_group_name_H-M   'P 1'
_cell_length_a   7.98823745
_cell_length_b   6.44412771
_cell_length_c   6.43343497
_cell_angle_alpha   90.00000000
_cell_angle_beta   90.00000000
_cell_angle_gamma   90.00000000
_symmetry_Int_Tables_number   1
_chemical_formula_structural   KLi2BO3
_chemical_formula_sum   'K4 Li8 B4 O12'
_cell_volume   331.17536219
_cell_formula_units_Z   4
loop_
 _symmetry_equiv_pos_site_id
 _symmetry_equiv_pos_as_xyz
  1  'x, y, z'
loop_
 _atom_site_type_symbol
 _atom_site_label
 _atom_site_symmetry_multiplicity
 _atom_site_fract_x
 _atom_site_fract_y
 _atom_site_fract_z
 _atom_site_occupancy
  K  K1  1  0.49177434  0.25000000  0.89729904  1
  K  K1  1  0.99177434  0.25000000  0.60270096  1
  K  K1  1  0.00822566  0.75000000  0.39729904  1
  K  K1  1  0.50822566  0.75000000  0.10270096  1
  Li  Li1  1  0.35935808  0.03986528  0.46685120  1
  Li  Li1  1  0.64064192  0.96013472  0.53314880  1
  Li  Li1  1  0.14064192  0.53986528  0.96685120  1
  Li  Li1  1  0.35935808  0.46013472  0.46685120  1
  Li  Li1  1  0.85935808  0.46013472  0.03314880  1
  Li  Li1  1  0.14064192  0.96013472  0.96685120  1
  Li  Li1  1  0.64064192  0.53986528  0.53314880  1
  Li  Li1  1  0.85935808  0.03986528  0.03314880  1
  B  B1  1  0.34838648  0.75000000  0.67375302  1
  B  B1  1  0.65161352  0.25000000  0.32624698  1
  B  B1  1  0.84838648  0.75000000  0.82624698  1
  B  B1  1  0.15161352  0.25000000  0.17375302  1
  O  O1  1  0.29296338  0.93944166  0.74728792  1
  O  O1  1  0.79296338  0.93944166  0.75271208  1
  O  O1  1  0.20703662  0.43944166  0.24728792  1
  O  O2  1  0.03663342  0.25000000  0.00815834  1
  O  O2  1  0.96336658  0.75000000  0.99184166  1
  O  O1  1  0.29296338  0.56055834  0.74728792  1
  O  O1  1  0.70703662  0.43944166  0.25271208  1
  O  O1  1  0.70703662  0.06055834  0.25271208  1
  O  O2  1  0.53663342  0.25000000  0.49184166  1
  O  O1  1  0.79296338  0.56055834  0.75271208  1
  O  O2  1  0.46336658  0.75000000  0.50815834  1
  O  O1  1  0.20703662  0.06055834  0.24728792  1
