# generated using pymatgen
data_KLi3PbO4
_symmetry_space_group_name_H-M   'P 1'
_cell_length_a   5.93685833
_cell_length_b   5.97155567
_cell_length_c   7.00372573
_cell_angle_alpha   73.00274477
_cell_angle_beta   71.79341762
_cell_angle_gamma   88.29760829
_symmetry_Int_Tables_number   1
_chemical_formula_structural   KLi3PbO4
_chemical_formula_sum   'K2 Li6 Pb2 O8'
_cell_volume   225.04468450
_cell_formula_units_Z   2
loop_
 _symmetry_equiv_pos_site_id
 _symmetry_equiv_pos_as_xyz
  1  'x, y, z'
loop_
 _atom_site_type_symbol
 _atom_site_label
 _atom_site_symmetry_multiplicity
 _atom_site_fract_x
 _atom_site_fract_y
 _atom_site_fract_z
 _atom_site_occupancy
  K  K1  1  0.48928912  0.00897810  0.25078058  1
  K  K1  1  0.51071088  0.99102190  0.74921942  1
  Li  Li1  1  0.94884842  0.87023178  0.90760460  1
  Li  Li1  1  0.05115158  0.12976822  0.09239540  1
  Li  Li2  1  0.31536152  0.53932142  0.15364538  1
  Li  Li3  1  0.93399120  0.83373472  0.44757742  1
  Li  Li3  1  0.06600880  0.16626528  0.55242258  1
  Li  Li2  1  0.68463848  0.46067858  0.84635462  1
  Pb  Pb1  1  0.24647444  0.49421820  0.70304512  1
  Pb  Pb1  1  0.75352556  0.50578180  0.29695488  1
  O  O1  1  0.63589316  0.63747782  0.56721392  1
  O  O2  1  0.11802174  0.83013084  0.63432854  1
  O  O2  1  0.88197826  0.16986916  0.36567146  1
  O  O3  1  0.34578258  0.32717092  0.97223784  1
  O  O3  1  0.65421742  0.67282908  0.02776216  1
  O  O4  1  0.94169502  0.23311612  0.83159424  1
  O  O4  1  0.05830498  0.76688388  0.16840576  1
  O  O1  1  0.36410684  0.36252218  0.43278608  1
