# generated using pymatgen
data_KLi6TaO6
_symmetry_space_group_name_H-M   'P 1'
_cell_length_a   8.21079520
_cell_length_b   8.21079520
_cell_length_c   7.21075494
_cell_angle_alpha   90.00000000
_cell_angle_beta   90.00000000
_cell_angle_gamma   120.00000000
_symmetry_Int_Tables_number   1
_chemical_formula_structural   KLi6TaO6
_chemical_formula_sum   'K3 Li18 Ta3 O18'
_cell_volume   420.99972066
_cell_formula_units_Z   3
loop_
 _symmetry_equiv_pos_site_id
 _symmetry_equiv_pos_as_xyz
  1  'x, y, z'
loop_
 _atom_site_type_symbol
 _atom_site_label
 _atom_site_symmetry_multiplicity
 _atom_site_fract_x
 _atom_site_fract_y
 _atom_site_fract_z
 _atom_site_occupancy
  K  K1  1  0.00000000  0.00000000  0.50000000  1
  Li  Li1  1  0.67671979  0.66666667  0.66666667  1
  Li  Li1  1  0.33333333  0.01005313  0.66666667  1
  Li  Li1  1  0.67671979  0.01005313  0.66666667  1
  Li  Li1  1  0.33333333  0.32328021  0.66666667  1
  Li  Li1  1  0.98994687  0.66666667  0.66666667  1
  Li  Li1  1  0.98994687  0.32328021  0.66666667  1
  Ta  Ta1  1  0.00000000  0.00000000  0.00000000  1
  O  O1  1  0.78517403  0.57034807  0.48659003  1
  O  O1  1  0.78517403  0.21482597  0.48659003  1
  O  O1  1  0.21482597  0.42965193  0.51340997  1
  O  O1  1  0.21482597  0.78517403  0.51340997  1
  O  O1  1  0.57034807  0.78517403  0.51340997  1
  O  O1  1  0.42965193  0.21482597  0.48659003  1
  K  K1  1  0.66666667  0.33333333  0.83333333  1
  Li  Li1  1  0.34338646  0.00000000  0.00000000  1
  Li  Li1  1  0.00000000  0.34338646  0.00000000  1
  Li  Li1  1  0.34338646  0.34338646  0.00000000  1
  Li  Li1  1  0.00000000  0.65661354  0.00000000  1
  Li  Li1  1  0.65661354  0.00000000  0.00000000  1
  Li  Li1  1  0.65661354  0.65661354  0.00000000  1
  Ta  Ta1  1  0.66666667  0.33333333  0.33333333  1
  O  O1  1  0.45184070  0.90368140  0.81992337  1
  O  O1  1  0.45184070  0.54815930  0.81992337  1
  O  O1  1  0.88149263  0.76298527  0.84674330  1
  O  O1  1  0.88149263  0.11850737  0.84674330  1
  O  O1  1  0.23701473  0.11850737  0.84674330  1
  O  O1  1  0.09631860  0.54815930  0.81992337  1
  K  K1  1  0.33333333  0.66666667  0.16666667  1
  Li  Li1  1  0.01005313  0.33333333  0.33333333  1
  Li  Li1  1  0.66666667  0.67671979  0.33333333  1
  Li  Li1  1  0.01005313  0.67671979  0.33333333  1
  Li  Li1  1  0.66666667  0.98994687  0.33333333  1
  Li  Li1  1  0.32328021  0.33333333  0.33333333  1
  Li  Li1  1  0.32328021  0.98994687  0.33333333  1
  Ta  Ta1  1  0.33333333  0.66666667  0.66666667  1
  O  O1  1  0.11850737  0.23701473  0.15325670  1
  O  O1  1  0.11850737  0.88149263  0.15325670  1
  O  O1  1  0.54815930  0.09631860  0.18007663  1
  O  O1  1  0.54815930  0.45184070  0.18007663  1
  O  O1  1  0.90368140  0.45184070  0.18007663  1
  O  O1  1  0.76298527  0.88149263  0.15325670  1
