# generated using pymatgen
data_KLi6BiO6
_symmetry_space_group_name_H-M   'P 1'
_cell_length_a   8.44824462
_cell_length_b   8.44824462
_cell_length_c   7.31934561
_cell_angle_alpha   90.00000000
_cell_angle_beta   90.00000000
_cell_angle_gamma   120.00000000
_symmetry_Int_Tables_number   1
_chemical_formula_structural   KLi6BiO6
_chemical_formula_sum   'K3 Li18 Bi3 O18'
_cell_volume   452.41380338
_cell_formula_units_Z   3
loop_
 _symmetry_equiv_pos_site_id
 _symmetry_equiv_pos_as_xyz
  1  'x, y, z'
loop_
 _atom_site_type_symbol
 _atom_site_label
 _atom_site_symmetry_multiplicity
 _atom_site_fract_x
 _atom_site_fract_y
 _atom_site_fract_z
 _atom_site_occupancy
  K  K1  1  0.00000000  0.00000000  0.50000000  1
  Li  Li1  1  0.67744154  0.66666667  0.66666667  1
  Li  Li1  1  0.33333333  0.01077487  0.66666667  1
  Li  Li1  1  0.67744154  0.01077487  0.66666667  1
  Li  Li1  1  0.33333333  0.32255846  0.66666667  1
  Li  Li1  1  0.98922513  0.66666667  0.66666667  1
  Li  Li1  1  0.98922513  0.32255846  0.66666667  1
  Bi  Bi1  1  0.00000000  0.00000000  0.00000000  1
  O  O1  1  0.41825129  0.20912565  0.48968036  1
  O  O1  1  0.79087435  0.58174871  0.48968036  1
  O  O1  1  0.20912565  0.79087435  0.51031964  1
  O  O1  1  0.58174871  0.79087435  0.51031964  1
  O  O1  1  0.20912565  0.41825129  0.51031964  1
  O  O1  1  0.79087435  0.20912565  0.48968036  1
  K  K1  1  0.66666667  0.33333333  0.83333333  1
  Li  Li1  1  0.34410821  0.00000000  0.00000000  1
  Li  Li1  1  0.00000000  0.34410821  0.00000000  1
  Li  Li1  1  0.34410821  0.34410821  0.00000000  1
  Li  Li1  1  0.00000000  0.65589179  0.00000000  1
  Li  Li1  1  0.65589179  0.00000000  0.00000000  1
  Li  Li1  1  0.65589179  0.65589179  0.00000000  1
  Bi  Bi1  1  0.66666667  0.33333333  0.33333333  1
  O  O1  1  0.08491796  0.54245898  0.82301369  1
  O  O1  1  0.45754102  0.91508204  0.82301369  1
  O  O1  1  0.87579231  0.12420769  0.84365297  1
  O  O1  1  0.24841537  0.12420769  0.84365297  1
  O  O1  1  0.87579231  0.75158463  0.84365297  1
  O  O1  1  0.45754102  0.54245898  0.82301369  1
  K  K1  1  0.33333333  0.66666667  0.16666667  1
  Li  Li1  1  0.01077487  0.33333333  0.33333333  1
  Li  Li1  1  0.66666667  0.67744154  0.33333333  1
  Li  Li1  1  0.01077487  0.67744154  0.33333333  1
  Li  Li1  1  0.66666667  0.98922513  0.33333333  1
  Li  Li1  1  0.32255846  0.33333333  0.33333333  1
  Li  Li1  1  0.32255846  0.98922513  0.33333333  1
  Bi  Bi1  1  0.33333333  0.66666667  0.66666667  1
  O  O1  1  0.75158463  0.87579231  0.15634703  1
  O  O1  1  0.12420769  0.24841537  0.15634703  1
  O  O1  1  0.54245898  0.45754102  0.17698631  1
  O  O1  1  0.91508204  0.45754102  0.17698631  1
  O  O1  1  0.54245898  0.08491796  0.17698631  1
  O  O1  1  0.12420769  0.87579231  0.15634703  1
