# generated using pymatgen
data_KLiZnO2
_symmetry_space_group_name_H-M   'P 1'
_cell_length_a   10.71468286
_cell_length_b   3.31152501
_cell_length_c   8.15991558
_cell_angle_alpha   90.00000000
_cell_angle_beta   119.67588965
_cell_angle_gamma   90.00000000
_symmetry_Int_Tables_number   1
_chemical_formula_structural   KLiZnO2
_chemical_formula_sum   'K4 Li4 Zn4 O8'
_cell_volume   251.55490916
_cell_formula_units_Z   4
loop_
 _symmetry_equiv_pos_site_id
 _symmetry_equiv_pos_as_xyz
  1  'x, y, z'
loop_
 _atom_site_type_symbol
 _atom_site_label
 _atom_site_symmetry_multiplicity
 _atom_site_fract_x
 _atom_site_fract_y
 _atom_site_fract_z
 _atom_site_occupancy
  K  K1  1  0.83510381  0.00000000  0.37037972  1
  K  K1  1  0.16489619  0.00000000  0.62962028  1
  Li  Li1  1  0.84154847  0.50000000  0.05536415  1
  Li  Li1  1  0.15845153  0.50000000  0.94463585  1
  Zn  Zn1  1  0.04134422  0.00000000  0.17853134  1
  Zn  Zn1  1  0.95865578  0.00000000  0.82146866  1
  O  O1  1  0.96193655  0.50000000  0.69916249  1
  O  O1  1  0.03806345  0.50000000  0.30083751  1
  O  O2  1  0.34071520  0.50000000  0.93919182  1
  O  O2  1  0.65928480  0.50000000  0.06080818  1
  K  K1  1  0.33510381  0.50000000  0.37037972  1
  K  K1  1  0.66489619  0.50000000  0.62962028  1
  Li  Li1  1  0.34154847  0.00000000  0.05536415  1
  Li  Li1  1  0.65845153  0.00000000  0.94463585  1
  Zn  Zn1  1  0.54134422  0.50000000  0.17853134  1
  Zn  Zn1  1  0.45865578  0.50000000  0.82146866  1
  O  O1  1  0.46193655  0.00000000  0.69916249  1
  O  O1  1  0.53806345  0.00000000  0.30083751  1
  O  O2  1  0.84071520  0.00000000  0.93919182  1
  O  O2  1  0.15928480  0.00000000  0.06080818  1
