# generated using pymatgen
data_KMgBO3
_symmetry_space_group_name_H-M   'P 1'
_cell_length_a   6.83449341
_cell_length_b   6.83449341
_cell_length_c   6.83449341
_cell_angle_alpha   90.00000000
_cell_angle_beta   90.00000000
_cell_angle_gamma   90.00000000
_symmetry_Int_Tables_number   1
_chemical_formula_structural   KMgBO3
_chemical_formula_sum   'K4 Mg4 B4 O12'
_cell_volume   319.24123940
_cell_formula_units_Z   4
loop_
 _symmetry_equiv_pos_site_id
 _symmetry_equiv_pos_as_xyz
  1  'x, y, z'
loop_
 _atom_site_type_symbol
 _atom_site_label
 _atom_site_symmetry_multiplicity
 _atom_site_fract_x
 _atom_site_fract_y
 _atom_site_fract_z
 _atom_site_occupancy
  K  K1  1  0.11491270  0.88508730  0.38508730  1
  K  K1  1  0.38508730  0.11491270  0.88508730  1
  K  K1  1  0.88508730  0.38508730  0.11491270  1
  K  K1  1  0.61491270  0.61491270  0.61491270  1
  Mg  Mg1  1  0.39388014  0.60611986  0.10611986  1
  Mg  Mg1  1  0.10611986  0.39388014  0.60611986  1
  Mg  Mg1  1  0.60611986  0.10611986  0.39388014  1
  Mg  Mg1  1  0.89388014  0.89388014  0.89388014  1
  B  B1  1  0.84446480  0.15553520  0.65553520  1
  B  B1  1  0.65553520  0.84446480  0.15553520  1
  B  B1  1  0.15553520  0.65553520  0.84446480  1
  B  B1  1  0.34446480  0.34446480  0.34446480  1
  O  O1  1  0.99555016  0.16549312  0.78947252  1
  O  O1  1  0.83450688  0.28947252  0.50444984  1
  O  O1  1  0.71052748  0.00444984  0.66549312  1
  O  O1  1  0.50444984  0.83450688  0.28947252  1
  O  O1  1  0.66549312  0.71052748  0.00444984  1
  O  O1  1  0.78947252  0.99555016  0.16549312  1
  O  O1  1  0.00444984  0.66549312  0.71052748  1
  O  O1  1  0.16549312  0.78947252  0.99555016  1
  O  O1  1  0.28947252  0.50444984  0.83450688  1
  O  O1  1  0.49555016  0.33450688  0.21052748  1
  O  O1  1  0.33450688  0.21052748  0.49555016  1
  O  O1  1  0.21052748  0.49555016  0.33450688  1
