# generated using pymatgen
data_KNa2GaO3
_symmetry_space_group_name_H-M   'P 1'
_cell_length_a   6.48679022
_cell_length_b   6.15820529
_cell_length_c   10.07755565
_cell_angle_alpha   90.00000000
_cell_angle_beta   90.00000000
_cell_angle_gamma   90.00000000
_symmetry_Int_Tables_number   1
_chemical_formula_structural   KNa2GaO3
_chemical_formula_sum   'K4 Na8 Ga4 O12'
_cell_volume   402.56797230
_cell_formula_units_Z   4
loop_
 _symmetry_equiv_pos_site_id
 _symmetry_equiv_pos_as_xyz
  1  'x, y, z'
loop_
 _atom_site_type_symbol
 _atom_site_label
 _atom_site_symmetry_multiplicity
 _atom_site_fract_x
 _atom_site_fract_y
 _atom_site_fract_z
 _atom_site_occupancy
  K  K1  1  0.65953762  0.75000000  0.96766259  1
  K  K1  1  0.84046238  0.25000000  0.46766259  1
  K  K1  1  0.34046238  0.25000000  0.03233741  1
  K  K1  1  0.15953762  0.75000000  0.53233741  1
  Na  Na1  1  0.99024842  0.49169472  0.76933778  1
  Na  Na1  1  0.50975158  0.50830528  0.26933778  1
  Na  Na1  1  0.49024842  0.49169472  0.73066222  1
  Na  Na1  1  0.99024842  0.00830528  0.76933778  1
  Na  Na1  1  0.00975158  0.50830528  0.23066222  1
  Na  Na1  1  0.00975158  0.99169472  0.23066222  1
  Na  Na1  1  0.50975158  0.99169472  0.26933778  1
  Na  Na1  1  0.49024842  0.00830528  0.73066222  1
  Ga  Ga1  1  0.82990516  0.25000000  0.00961146  1
  Ga  Ga1  1  0.32990516  0.25000000  0.49038854  1
  Ga  Ga1  1  0.67009484  0.75000000  0.50961146  1
  Ga  Ga1  1  0.17009484  0.75000000  0.99038854  1
  O  O1  1  0.71806376  0.25000000  0.17616635  1
  O  O2  1  0.50000000  0.50000000  0.50000000  1
  O  O2  1  0.50000000  0.00000000  0.50000000  1
  O  O3  1  0.17299032  0.25000000  0.64146994  1
  O  O3  1  0.82700968  0.75000000  0.35853006  1
  O  O3  1  0.67299032  0.25000000  0.85853006  1
  O  O3  1  0.32700968  0.75000000  0.14146994  1
  O  O1  1  0.78193624  0.75000000  0.67616635  1
  O  O2  1  0.00000000  0.00000000  0.00000000  1
  O  O2  1  0.00000000  0.50000000  0.00000000  1
  O  O1  1  0.28193624  0.75000000  0.82383365  1
  O  O1  1  0.21806376  0.25000000  0.32383365  1
