# generated using pymatgen
data_KNa2AuO2
_symmetry_space_group_name_H-M   'P 1'
_cell_length_a   5.45468162
_cell_length_b   10.01740821
_cell_length_c   3.90611773
_cell_angle_alpha   90.00000000
_cell_angle_beta   90.00000000
_cell_angle_gamma   90.00000000
_symmetry_Int_Tables_number   1
_chemical_formula_structural   KNa2AuO2
_chemical_formula_sum   'K2 Na4 Au2 O4'
_cell_volume   213.43719592
_cell_formula_units_Z   2
loop_
 _symmetry_equiv_pos_site_id
 _symmetry_equiv_pos_as_xyz
  1  'x, y, z'
loop_
 _atom_site_type_symbol
 _atom_site_label
 _atom_site_symmetry_multiplicity
 _atom_site_fract_x
 _atom_site_fract_y
 _atom_site_fract_z
 _atom_site_occupancy
  K  K1  1  0.00000000  0.50000000  0.00000000  1
  K  K1  1  0.50000000  0.00000000  0.50000000  1
  Na  Na1  1  0.91749956  0.22903210  0.50000000  1
  Na  Na1  1  0.08250044  0.77096790  0.50000000  1
  Na  Na1  1  0.41749956  0.27096790  0.00000000  1
  Na  Na1  1  0.58250044  0.72903210  0.00000000  1
  Au  Au1  1  0.00000000  0.00000000  0.00000000  1
  Au  Au1  1  0.50000000  0.50000000  0.50000000  1
  O  O1  1  0.74313184  0.64979962  0.50000000  1
  O  O1  1  0.24313184  0.85020038  0.00000000  1
  O  O1  1  0.75686816  0.14979962  0.00000000  1
  O  O1  1  0.25686816  0.35020038  0.50000000  1
