# generated using pymatgen
data_KNaGeO3
_symmetry_space_group_name_H-M   'P 1'
_cell_length_a   6.95528540
_cell_length_b   10.70993984
_cell_length_c   4.73419294
_cell_angle_alpha   90.00000000
_cell_angle_beta   90.00000000
_cell_angle_gamma   90.00000000
_symmetry_Int_Tables_number   1
_chemical_formula_structural   KNaGeO3
_chemical_formula_sum   'K4 Na4 Ge4 O12'
_cell_volume   352.65329020
_cell_formula_units_Z   4
loop_
 _symmetry_equiv_pos_site_id
 _symmetry_equiv_pos_as_xyz
  1  'x, y, z'
loop_
 _atom_site_type_symbol
 _atom_site_label
 _atom_site_symmetry_multiplicity
 _atom_site_fract_x
 _atom_site_fract_y
 _atom_site_fract_z
 _atom_site_occupancy
  K  K1  1  0.88357292  0.73677681  0.52561427  1
  K  K1  1  0.38357292  0.76322319  0.52561427  1
  K  K1  1  0.61642708  0.23677681  0.02561427  1
  K  K1  1  0.11642708  0.26322319  0.02561427  1
  Na  Na1  1  0.87752038  0.41952792  0.54124047  1
  Na  Na1  1  0.62247962  0.91952792  0.04124047  1
  Na  Na1  1  0.37752038  0.08047208  0.54124047  1
  Na  Na1  1  0.12247962  0.58047208  0.04124047  1
  Ge  Ge1  1  0.37016482  0.44806091  0.50280739  1
  Ge  Ge1  1  0.62983518  0.55193909  0.00280739  1
  Ge  Ge1  1  0.12983518  0.94806091  0.00280739  1
  Ge  Ge1  1  0.87016482  0.05193909  0.50280739  1
  O  O1  1  0.91228418  0.03150631  0.11802510  1
  O  O2  1  0.16024364  0.53690100  0.56090418  1
  O  O3  1  0.86865786  0.21211298  0.56610860  1
  O  O1  1  0.58771582  0.53150631  0.61802510  1
  O  O1  1  0.41228418  0.46849369  0.11802510  1
  O  O3  1  0.63134214  0.71211298  0.06610860  1
  O  O1  1  0.08771582  0.96849369  0.61802510  1
  O  O2  1  0.33975636  0.03690100  0.06090418  1
  O  O2  1  0.66024364  0.96309900  0.56090418  1
  O  O3  1  0.36865786  0.28788702  0.56610860  1
  O  O2  1  0.83975636  0.46309900  0.06090418  1
  O  O3  1  0.13134214  0.78788702  0.06610860  1
