# generated using pymatgen
data_KNaLaTaO5
_symmetry_space_group_name_H-M   'P 1'
_cell_length_a   5.76616405
_cell_length_b   5.76616405
_cell_length_c   8.24461673
_cell_angle_alpha   90.00000000
_cell_angle_beta   90.00000000
_cell_angle_gamma   90.00000000
_symmetry_Int_Tables_number   1
_chemical_formula_structural   KNaLaTaO5
_chemical_formula_sum   'K2 Na2 La2 Ta2 O10'
_cell_volume   274.12235834
_cell_formula_units_Z   2
loop_
 _symmetry_equiv_pos_site_id
 _symmetry_equiv_pos_as_xyz
  1  'x, y, z'
loop_
 _atom_site_type_symbol
 _atom_site_label
 _atom_site_symmetry_multiplicity
 _atom_site_fract_x
 _atom_site_fract_y
 _atom_site_fract_z
 _atom_site_occupancy
  K  K1  1  0.00000000  0.00000000  0.00000000  1
  K  K1  1  0.50000000  0.50000000  0.00000000  1
  Na  Na1  1  0.00000000  0.50000000  0.24185366  1
  Na  Na1  1  0.50000000  0.00000000  0.75814634  1
  La  La1  1  0.00000000  0.00000000  0.50000000  1
  La  La1  1  0.50000000  0.50000000  0.50000000  1
  Ta  Ta1  1  0.50000000  0.00000000  0.25465330  1
  Ta  Ta1  1  0.00000000  0.50000000  0.74534670  1
  O  O1  1  0.50000000  0.00000000  0.03035228  1
  O  O2  1  0.72995864  0.22995864  0.32544388  1
  O  O2  1  0.27004136  0.22995864  0.32544388  1
  O  O2  1  0.72995864  0.77004136  0.32544388  1
  O  O2  1  0.27004136  0.77004136  0.32544388  1
  O  O2  1  0.22995864  0.72995864  0.67455612  1
  O  O2  1  0.77004136  0.72995864  0.67455612  1
  O  O2  1  0.22995864  0.27004136  0.67455612  1
  O  O2  1  0.77004136  0.27004136  0.67455612  1
  O  O1  1  0.00000000  0.50000000  0.96964772  1
