# generated using pymatgen
data_KNaLaNbO5
_symmetry_space_group_name_H-M   'P 1'
_cell_length_a   5.76708324
_cell_length_b   5.76708324
_cell_length_c   8.26429951
_cell_angle_alpha   90.00000000
_cell_angle_beta   90.00000000
_cell_angle_gamma   90.00000000
_symmetry_Int_Tables_number   1
_chemical_formula_structural   KNaLaNbO5
_chemical_formula_sum   'K2 Na2 La2 Nb2 O10'
_cell_volume   274.86439579
_cell_formula_units_Z   2
loop_
 _symmetry_equiv_pos_site_id
 _symmetry_equiv_pos_as_xyz
  1  'x, y, z'
loop_
 _atom_site_type_symbol
 _atom_site_label
 _atom_site_symmetry_multiplicity
 _atom_site_fract_x
 _atom_site_fract_y
 _atom_site_fract_z
 _atom_site_occupancy
  K  K1  1  0.00000000  0.00000000  0.00000000  1
  K  K1  1  0.50000000  0.50000000  0.00000000  1
  Na  Na1  1  0.50000000  0.00000000  0.24281486  1
  Na  Na1  1  0.00000000  0.50000000  0.75718514  1
  La  La1  1  0.50000000  0.50000000  0.50000000  1
  La  La1  1  0.00000000  0.00000000  0.50000000  1
  Nb  Nb1  1  0.50000000  0.00000000  0.74619532  1
  Nb  Nb1  1  0.00000000  0.50000000  0.25380468  1
  O  O1  1  0.50000000  0.00000000  0.97079490  1
  O  O1  1  0.00000000  0.50000000  0.02920510  1
  O  O2  1  0.73088884  0.76911116  0.67388470  1
  O  O2  1  0.26911116  0.23088884  0.67388470  1
  O  O2  1  0.76911116  0.73088884  0.32611530  1
  O  O2  1  0.26911116  0.76911116  0.67388470  1
  O  O2  1  0.73088884  0.23088884  0.67388470  1
  O  O2  1  0.76911116  0.26911116  0.32611530  1
  O  O2  1  0.23088884  0.26911116  0.32611530  1
  O  O2  1  0.23088884  0.73088884  0.32611530  1
