# generated using pymatgen
data_KNaTiO3
_symmetry_space_group_name_H-M   'P 1'
_cell_length_a   5.74613199
_cell_length_b   10.97084775
_cell_length_c   5.45779587
_cell_angle_alpha   90.00000000
_cell_angle_beta   96.63442895
_cell_angle_gamma   90.00000000
_symmetry_Int_Tables_number   1
_chemical_formula_structural   KNaTiO3
_chemical_formula_sum   'K4 Na4 Ti4 O12'
_cell_volume   341.75513572
_cell_formula_units_Z   4
loop_
 _symmetry_equiv_pos_site_id
 _symmetry_equiv_pos_as_xyz
  1  'x, y, z'
loop_
 _atom_site_type_symbol
 _atom_site_label
 _atom_site_symmetry_multiplicity
 _atom_site_fract_x
 _atom_site_fract_y
 _atom_site_fract_z
 _atom_site_occupancy
  K  K1  1  0.00000000  0.73817991  0.75000000  1
  K  K1  1  0.50000000  0.76182009  0.25000000  1
  Na  Na1  1  0.50000000  0.92354269  0.75000000  1
  Na  Na1  1  0.00000000  0.57645731  0.25000000  1
  Ti  Ti1  1  0.00000000  0.94670270  0.25000000  1
  Ti  Ti1  1  0.50000000  0.55329730  0.75000000  1
  O  O1  1  0.21799274  0.97736477  0.99725220  1
  O  O1  1  0.71799274  0.52263523  0.49725220  1
  O  O1  1  0.78200726  0.97736477  0.50274780  1
  O  O1  1  0.28200726  0.52263523  0.00274780  1
  O  O2  1  0.50000000  0.71670816  0.75000000  1
  O  O2  1  0.00000000  0.78329184  0.25000000  1
  K  K1  1  0.50000000  0.23817991  0.75000000  1
  K  K1  1  0.00000000  0.26182009  0.25000000  1
  Na  Na1  1  0.00000000  0.42354269  0.75000000  1
  Na  Na1  1  0.50000000  0.07645731  0.25000000  1
  Ti  Ti1  1  0.50000000  0.44670270  0.25000000  1
  Ti  Ti1  1  0.00000000  0.05329730  0.75000000  1
  O  O1  1  0.71799274  0.47736477  0.99725220  1
  O  O1  1  0.21799274  0.02263523  0.49725220  1
  O  O1  1  0.28200726  0.47736477  0.50274780  1
  O  O1  1  0.78200726  0.02263523  0.00274780  1
  O  O2  1  0.00000000  0.21670816  0.75000000  1
  O  O2  1  0.50000000  0.28329184  0.25000000  1
