# generated using pymatgen
data_KNaV2O6
_symmetry_space_group_name_H-M   'P 1'
_cell_length_a   10.56902668
_cell_length_b   10.04979310
_cell_length_c   5.82292585
_cell_angle_alpha   90.00000000
_cell_angle_beta   104.69012472
_cell_angle_gamma   90.00000000
_symmetry_Int_Tables_number   1
_chemical_formula_structural   KNaV2O6
_chemical_formula_sum   'K4 Na4 V8 O24'
_cell_volume   598.27342842
_cell_formula_units_Z   4
loop_
 _symmetry_equiv_pos_site_id
 _symmetry_equiv_pos_as_xyz
  1  'x, y, z'
loop_
 _atom_site_type_symbol
 _atom_site_label
 _atom_site_symmetry_multiplicity
 _atom_site_fract_x
 _atom_site_fract_y
 _atom_site_fract_z
 _atom_site_occupancy
  K  K1  1  0.00000000  0.19710701  0.75000000  1
  K  K1  1  0.00000000  0.80289299  0.25000000  1
  Na  Na1  1  0.00000000  0.59377822  0.75000000  1
  Na  Na1  1  0.00000000  0.40622178  0.25000000  1
  V  V1  1  0.28627127  0.58481237  0.21795434  1
  V  V1  1  0.71372873  0.58481237  0.28204566  1
  V  V1  1  0.71372873  0.41518763  0.78204566  1
  V  V1  1  0.28627127  0.41518763  0.71795434  1
  O  O1  1  0.84504227  0.76291182  0.78127888  1
  O  O1  1  0.15495773  0.76291182  0.71872112  1
  O  O1  1  0.15495773  0.23708818  0.21872112  1
  O  O1  1  0.84504227  0.23708818  0.28127888  1
  O  O2  1  0.65301675  0.51441292  0.51864872  1
  O  O2  1  0.34698325  0.51441292  0.98135128  1
  O  O2  1  0.34698325  0.48558708  0.48135128  1
  O  O2  1  0.65301675  0.48558708  0.01864872  1
  O  O3  1  0.12355391  0.58513447  0.14534634  1
  O  O3  1  0.87644609  0.58513447  0.35465366  1
  O  O3  1  0.87644609  0.41486553  0.85465366  1
  O  O3  1  0.12355391  0.41486553  0.64534634  1
  K  K1  1  0.50000000  0.69710701  0.75000000  1
  K  K1  1  0.50000000  0.30289299  0.25000000  1
  Na  Na1  1  0.50000000  0.09377822  0.75000000  1
  Na  Na1  1  0.50000000  0.90622178  0.25000000  1
  V  V1  1  0.78627127  0.08481237  0.21795434  1
  V  V1  1  0.21372873  0.08481237  0.28204566  1
  V  V1  1  0.21372873  0.91518763  0.78204566  1
  V  V1  1  0.78627127  0.91518763  0.71795434  1
  O  O1  1  0.34504227  0.26291182  0.78127888  1
  O  O1  1  0.65495773  0.26291182  0.71872112  1
  O  O1  1  0.65495773  0.73708818  0.21872112  1
  O  O1  1  0.34504227  0.73708818  0.28127888  1
  O  O2  1  0.15301675  0.01441292  0.51864872  1
  O  O2  1  0.84698325  0.01441292  0.98135128  1
  O  O2  1  0.84698325  0.98558708  0.48135128  1
  O  O2  1  0.15301675  0.98558708  0.01864872  1
  O  O3  1  0.62355391  0.08513447  0.14534634  1
  O  O3  1  0.37644609  0.08513447  0.35465366  1
  O  O3  1  0.37644609  0.91486553  0.85465366  1
  O  O3  1  0.62355391  0.91486553  0.64534634  1
