# generated using pymatgen
data_KNaZnO2
_symmetry_space_group_name_H-M   'P 1'
_cell_length_a   6.81149351
_cell_length_b   9.64741122
_cell_length_c   5.41491044
_cell_angle_alpha   90.00000000
_cell_angle_beta   124.92671246
_cell_angle_gamma   90.00000000
_symmetry_Int_Tables_number   1
_chemical_formula_structural   KNaZnO2
_chemical_formula_sum   'K4 Na4 Zn4 O8'
_cell_volume   291.74094043
_cell_formula_units_Z   4
loop_
 _symmetry_equiv_pos_site_id
 _symmetry_equiv_pos_as_xyz
  1  'x, y, z'
loop_
 _atom_site_type_symbol
 _atom_site_label
 _atom_site_symmetry_multiplicity
 _atom_site_fract_x
 _atom_site_fract_y
 _atom_site_fract_z
 _atom_site_occupancy
  K  K1  1  0.50000000  0.62300176  0.25000000  1
  K  K1  1  0.00000000  0.87699824  0.75000000  1
  Na  Na1  1  0.50000000  0.73102208  0.75000000  1
  Na  Na1  1  0.00000000  0.76897792  0.25000000  1
  Zn  Zn1  1  0.50000000  0.99077868  0.25000000  1
  Zn  Zn1  1  0.00000000  0.50922132  0.75000000  1
  O  O1  1  0.67858694  0.89366112  0.12559228  1
  O  O1  1  0.32141306  0.89366112  0.37440772  1
  O  O1  1  0.17858694  0.60633888  0.62559228  1
  O  O1  1  0.82141306  0.60633888  0.87440772  1
  K  K1  1  0.00000000  0.12300176  0.25000000  1
  K  K1  1  0.50000000  0.37699824  0.75000000  1
  Na  Na1  1  0.00000000  0.23102208  0.75000000  1
  Na  Na1  1  0.50000000  0.26897792  0.25000000  1
  Zn  Zn1  1  0.00000000  0.49077868  0.25000000  1
  Zn  Zn1  1  0.50000000  0.00922132  0.75000000  1
  O  O1  1  0.17858694  0.39366112  0.12559228  1
  O  O1  1  0.82141306  0.39366112  0.37440772  1
  O  O1  1  0.67858694  0.10633888  0.62559228  1
  O  O1  1  0.32141306  0.10633888  0.87440772  1
