# generated using pymatgen
data_KReO4
_symmetry_space_group_name_H-M   'P 1'
_cell_length_a   5.74384933
_cell_length_b   5.74384933
_cell_length_c   12.57472596
_cell_angle_alpha   90.00000000
_cell_angle_beta   90.00000000
_cell_angle_gamma   90.00000000
_symmetry_Int_Tables_number   1
_chemical_formula_structural   KReO4
_chemical_formula_sum   'K4 Re4 O16'
_cell_volume   414.86290838
_cell_formula_units_Z   4
loop_
 _symmetry_equiv_pos_site_id
 _symmetry_equiv_pos_as_xyz
  1  'x, y, z'
loop_
 _atom_site_type_symbol
 _atom_site_label
 _atom_site_symmetry_multiplicity
 _atom_site_fract_x
 _atom_site_fract_y
 _atom_site_fract_z
 _atom_site_occupancy
  K  K1  1  0.50000000  0.00000000  0.25000000  1
  K  K1  1  0.00000000  0.00000000  0.50000000  1
  Re  Re1  1  0.50000000  0.50000000  0.50000000  1
  Re  Re1  1  0.00000000  0.50000000  0.25000000  1
  O  O1  1  0.12560590  0.28377828  0.32916908  1
  O  O1  1  0.71622172  0.62560590  0.57916908  1
  O  O1  1  0.28377828  0.37439410  0.57916908  1
  O  O1  1  0.87439410  0.71622172  0.32916908  1
  O  O1  1  0.62560590  0.28377828  0.42083092  1
  O  O1  1  0.71622172  0.12560590  0.67083092  1
  O  O1  1  0.28377828  0.87439410  0.67083092  1
  O  O1  1  0.37439410  0.71622172  0.42083092  1
  K  K1  1  0.00000000  0.50000000  0.75000000  1
  K  K1  1  0.50000000  0.50000000  0.00000000  1
  Re  Re1  1  0.00000000  0.00000000  0.00000000  1
  Re  Re1  1  0.50000000  0.00000000  0.75000000  1
  O  O1  1  0.62560590  0.78377828  0.82916908  1
  O  O1  1  0.21622172  0.12560590  0.07916908  1
  O  O1  1  0.78377828  0.87439410  0.07916908  1
  O  O1  1  0.37439410  0.21622172  0.82916908  1
  O  O1  1  0.12560590  0.78377828  0.92083092  1
  O  O1  1  0.21622172  0.62560590  0.17083092  1
  O  O1  1  0.78377828  0.37439410  0.17083092  1
  O  O1  1  0.87439410  0.21622172  0.92083092  1
