# generated using pymatgen
data_KSbO3
_symmetry_space_group_name_H-M   'P 1'
_cell_length_a   5.42803168
_cell_length_b   5.42803168
_cell_length_c   18.42293894
_cell_angle_alpha   90.00000000
_cell_angle_beta   90.00000000
_cell_angle_gamma   120.00000000
_symmetry_Int_Tables_number   1
_chemical_formula_structural   KSbO3
_chemical_formula_sum   'K6 Sb6 O18'
_cell_volume   470.08272457
_cell_formula_units_Z   6
loop_
 _symmetry_equiv_pos_site_id
 _symmetry_equiv_pos_as_xyz
  1  'x, y, z'
loop_
 _atom_site_type_symbol
 _atom_site_label
 _atom_site_symmetry_multiplicity
 _atom_site_fract_x
 _atom_site_fract_y
 _atom_site_fract_z
 _atom_site_occupancy
  K  K1  1  0.33333333  0.66666667  0.02596670  1
  K  K1  1  0.33333333  0.66666667  0.30736663  1
  Sb  Sb1  1  0.00000000  0.00000000  0.16408401  1
  Sb  Sb1  1  0.66666667  0.33333333  0.16924932  1
  O  O1  1  0.73603002  0.67177781  0.22928830  1
  O  O1  1  0.93574779  0.26396998  0.22928830  1
  O  O1  1  0.32822219  0.06425221  0.22928830  1
  O  O1  1  0.93063664  0.66155552  0.10404503  1
  O  O1  1  0.73091888  0.06936336  0.10404503  1
  O  O1  1  0.33844448  0.26908112  0.10404503  1
  K  K1  1  0.00000000  0.00000000  0.35930004  1
  K  K1  1  0.00000000  0.00000000  0.64069996  1
  Sb  Sb1  1  0.66666667  0.33333333  0.49741735  1
  Sb  Sb1  1  0.33333333  0.66666667  0.50258265  1
  O  O1  1  0.40269669  0.00511114  0.56262163  1
  O  O1  1  0.60241445  0.59730331  0.56262163  1
  O  O1  1  0.99488886  0.39758555  0.56262163  1
  O  O1  1  0.59730331  0.99488886  0.43737837  1
  O  O1  1  0.39758555  0.40269669  0.43737837  1
  O  O1  1  0.00511114  0.60241445  0.43737837  1
  K  K1  1  0.66666667  0.33333333  0.69263337  1
  K  K1  1  0.66666667  0.33333333  0.97403330  1
  Sb  Sb1  1  0.33333333  0.66666667  0.83075068  1
  Sb  Sb1  1  0.00000000  0.00000000  0.83591599  1
  O  O1  1  0.06936336  0.33844448  0.89595497  1
  O  O1  1  0.26908112  0.93063664  0.89595497  1
  O  O1  1  0.66155552  0.73091888  0.89595497  1
  O  O1  1  0.26396998  0.32822219  0.77071170  1
  O  O1  1  0.06425221  0.73603002  0.77071170  1
  O  O1  1  0.67177781  0.93574779  0.77071170  1
