# generated using pymatgen
data_KSbO2
_symmetry_space_group_name_H-M   'P 1'
_cell_length_a   7.85468869
_cell_length_b   8.34656089
_cell_length_c   5.61041041
_cell_angle_alpha   90.00000000
_cell_angle_beta   124.60149337
_cell_angle_gamma   90.00000000
_symmetry_Int_Tables_number   1
_chemical_formula_structural   KSbO2
_chemical_formula_sum   'K4 Sb4 O8'
_cell_volume   302.75767151
_cell_formula_units_Z   4
loop_
 _symmetry_equiv_pos_site_id
 _symmetry_equiv_pos_as_xyz
  1  'x, y, z'
loop_
 _atom_site_type_symbol
 _atom_site_label
 _atom_site_symmetry_multiplicity
 _atom_site_fract_x
 _atom_site_fract_y
 _atom_site_fract_z
 _atom_site_occupancy
  K  K1  1  0.50000000  0.13620486  0.25000000  1
  K  K1  1  0.50000000  0.86379514  0.75000000  1
  Sb  Sb1  1  0.50000000  0.40226584  0.75000000  1
  Sb  Sb1  1  0.50000000  0.59773416  0.25000000  1
  O  O1  1  0.81749200  0.94786158  0.28314174  1
  O  O1  1  0.18250800  0.94786158  0.21685826  1
  O  O1  1  0.81749200  0.05213842  0.78314174  1
  O  O1  1  0.18250800  0.05213842  0.71685826  1
  K  K1  1  0.00000000  0.63620486  0.25000000  1
  K  K1  1  0.00000000  0.36379514  0.75000000  1
  Sb  Sb1  1  0.00000000  0.90226584  0.75000000  1
  Sb  Sb1  1  0.00000000  0.09773416  0.25000000  1
  O  O1  1  0.31749200  0.44786158  0.28314174  1
  O  O1  1  0.68250800  0.44786158  0.21685826  1
  O  O1  1  0.31749200  0.55213842  0.78314174  1
  O  O1  1  0.68250800  0.55213842  0.71685826  1
