# generated using pymatgen
data_KSbWO6
_symmetry_space_group_name_H-M   'P 1'
_cell_length_a   7.22244641
_cell_length_b   10.22144515
_cell_length_c   7.45795943
_cell_angle_alpha   90.00000000
_cell_angle_beta   90.00000000
_cell_angle_gamma   90.00000000
_symmetry_Int_Tables_number   1
_chemical_formula_structural   KSbWO6
_chemical_formula_sum   'K4 Sb4 W4 O24'
_cell_volume   550.57520205
_cell_formula_units_Z   4
loop_
 _symmetry_equiv_pos_site_id
 _symmetry_equiv_pos_as_xyz
  1  'x, y, z'
loop_
 _atom_site_type_symbol
 _atom_site_label
 _atom_site_symmetry_multiplicity
 _atom_site_fract_x
 _atom_site_fract_y
 _atom_site_fract_z
 _atom_site_occupancy
  K  K1  1  0.75000000  0.65573272  0.90865376  1
  K  K1  1  0.25000000  0.34426728  0.90865376  1
  Sb  Sb1  1  0.00000000  0.50000000  0.50750532  1
  Sb  Sb1  1  0.50000000  0.50000000  0.50750532  1
  W  W1  1  0.25000000  0.74091114  0.23020798  1
  W  W1  1  0.75000000  0.25908886  0.23020798  1
  O  O1  1  0.25000000  0.07883146  0.01508818  1
  O  O2  1  0.25000000  0.68815950  0.00057992  1
  O  O3  1  0.56245292  0.37258538  0.31648952  1
  O  O4  1  0.93672878  0.37164564  0.69849314  1
  O  O4  1  0.56327122  0.37164564  0.69849314  1
  O  O3  1  0.93754708  0.37258538  0.31648952  1
  O  O1  1  0.75000000  0.92116854  0.01508818  1
  O  O2  1  0.75000000  0.31184050  0.00057992  1
  O  O4  1  0.43672878  0.62835436  0.69849314  1
  O  O3  1  0.06245292  0.62741462  0.31648952  1
  O  O3  1  0.43754708  0.62741462  0.31648952  1
  O  O4  1  0.06327122  0.62835436  0.69849314  1
  K  K1  1  0.25000000  0.15573272  0.40865376  1
  K  K1  1  0.75000000  0.84426728  0.40865376  1
  Sb  Sb1  1  0.50000000  0.00000000  0.00750532  1
  Sb  Sb1  1  0.00000000  0.00000000  0.00750532  1
  W  W1  1  0.75000000  0.24091114  0.73020798  1
  W  W1  1  0.25000000  0.75908886  0.73020798  1
  O  O1  1  0.75000000  0.57883146  0.51508818  1
  O  O2  1  0.75000000  0.18815950  0.50057992  1
  O  O3  1  0.06245292  0.87258538  0.81648952  1
  O  O4  1  0.43672878  0.87164564  0.19849314  1
  O  O4  1  0.06327122  0.87164564  0.19849314  1
  O  O3  1  0.43754708  0.87258538  0.81648952  1
  O  O1  1  0.25000000  0.42116854  0.51508818  1
  O  O2  1  0.25000000  0.81184050  0.50057992  1
  O  O4  1  0.93672878  0.12835436  0.19849314  1
  O  O3  1  0.56245292  0.12741462  0.81648952  1
  O  O3  1  0.93754708  0.12741462  0.81648952  1
  O  O4  1  0.56327122  0.12835436  0.19849314  1
