# generated using pymatgen
data_KSc(WO4)2
_symmetry_space_group_name_H-M   'P 1'
_cell_length_a   10.72061811
_cell_length_b   10.01093683
_cell_length_c   7.31730418
_cell_angle_alpha   90.00000000
_cell_angle_beta   130.90204825
_cell_angle_gamma   90.00000000
_symmetry_Int_Tables_number   1
_chemical_formula_structural   KSc(WO4)2
_chemical_formula_sum   'K4 Sc4 W8 O32'
_cell_volume   593.56709439
_cell_formula_units_Z   4
loop_
 _symmetry_equiv_pos_site_id
 _symmetry_equiv_pos_as_xyz
  1  'x, y, z'
loop_
 _atom_site_type_symbol
 _atom_site_label
 _atom_site_symmetry_multiplicity
 _atom_site_fract_x
 _atom_site_fract_y
 _atom_site_fract_z
 _atom_site_occupancy
  K  K1  1  0.00000000  0.20181574  0.75000000  1
  K  K1  1  0.00000000  0.79818426  0.25000000  1
  Sc  Sc1  1  0.00000000  0.77512198  0.75000000  1
  Sc  Sc1  1  0.00000000  0.22487802  0.25000000  1
  W  W1  1  0.80112804  0.50173806  0.77678358  1
  W  W1  1  0.19887196  0.49826194  0.22321642  1
  W  W1  1  0.19887196  0.50173806  0.72321642  1
  W  W1  1  0.80112804  0.49826194  0.27678358  1
  O  O1  1  0.80963408  0.42738640  0.55579152  1
  O  O1  1  0.19036592  0.57261360  0.44420848  1
  O  O1  1  0.19036592  0.42738640  0.94420848  1
  O  O1  1  0.80963408  0.57261360  0.05579152  1
  O  O2  1  0.30636438  0.65164056  0.89700858  1
  O  O2  1  0.69363562  0.34835944  0.10299142  1
  O  O2  1  0.69363562  0.65164056  0.60299142  1
  O  O2  1  0.30636438  0.34835944  0.39700858  1
  O  O3  1  0.01157502  0.61482760  0.95125448  1
  O  O3  1  0.98842498  0.38517240  0.04874552  1
  O  O3  1  0.98842498  0.61482760  0.54874552  1
  O  O3  1  0.01157502  0.38517240  0.45125448  1
  O  O4  1  0.63591714  0.39746154  0.70446098  1
  O  O4  1  0.36408286  0.60253846  0.29553902  1
  O  O4  1  0.36408286  0.39746154  0.79553902  1
  O  O4  1  0.63591714  0.60253846  0.20446098  1
  K  K1  1  0.50000000  0.70181574  0.75000000  1
  K  K1  1  0.50000000  0.29818426  0.25000000  1
  Sc  Sc1  1  0.50000000  0.27512198  0.75000000  1
  Sc  Sc1  1  0.50000000  0.72487802  0.25000000  1
  W  W1  1  0.30112804  0.00173806  0.77678358  1
  W  W1  1  0.69887196  0.99826194  0.22321642  1
  W  W1  1  0.69887196  0.00173806  0.72321642  1
  W  W1  1  0.30112804  0.99826194  0.27678358  1
  O  O1  1  0.30963408  0.92738640  0.55579152  1
  O  O1  1  0.69036592  0.07261360  0.44420848  1
  O  O1  1  0.69036592  0.92738640  0.94420848  1
  O  O1  1  0.30963408  0.07261360  0.05579152  1
  O  O2  1  0.80636438  0.15164056  0.89700858  1
  O  O2  1  0.19363562  0.84835944  0.10299142  1
  O  O2  1  0.19363562  0.15164056  0.60299142  1
  O  O2  1  0.80636438  0.84835944  0.39700858  1
  O  O3  1  0.51157502  0.11482760  0.95125448  1
  O  O3  1  0.48842498  0.88517240  0.04874552  1
  O  O3  1  0.48842498  0.11482760  0.54874552  1
  O  O3  1  0.51157502  0.88517240  0.45125448  1
  O  O4  1  0.13591714  0.89746154  0.70446098  1
  O  O4  1  0.86408286  0.10253846  0.29553902  1
  O  O4  1  0.86408286  0.89746154  0.79553902  1
  O  O4  1  0.13591714  0.10253846  0.20446098  1
