# generated using pymatgen
data_KSrVO4
_symmetry_space_group_name_H-M   'P 1'
_cell_length_a   5.81935979
_cell_length_b   7.45304945
_cell_length_c   9.91327781
_cell_angle_alpha   90.00000000
_cell_angle_beta   90.00000000
_cell_angle_gamma   90.00000000
_symmetry_Int_Tables_number   1
_chemical_formula_structural   KSrVO4
_chemical_formula_sum   'K4 Sr4 V4 O16'
_cell_volume   429.95845030
_cell_formula_units_Z   4
loop_
 _symmetry_equiv_pos_site_id
 _symmetry_equiv_pos_as_xyz
  1  'x, y, z'
loop_
 _atom_site_type_symbol
 _atom_site_label
 _atom_site_symmetry_multiplicity
 _atom_site_fract_x
 _atom_site_fract_y
 _atom_site_fract_z
 _atom_site_occupancy
  K  K1  1  0.48318122  0.09379924  0.57776368  1
  K  K1  1  0.51681878  0.59379924  0.92223632  1
  K  K1  1  0.01681878  0.90620076  0.07776368  1
  K  K1  1  0.98318122  0.40620076  0.42223632  1
  Sr  Sr1  1  0.97839254  0.24940764  0.80243962  1
  Sr  Sr1  1  0.47839254  0.25059236  0.19756038  1
  Sr  Sr1  1  0.52160746  0.75059236  0.30243962  1
  Sr  Sr1  1  0.02160746  0.74940764  0.69756038  1
  V  V1  1  0.48310696  0.52512866  0.58375000  1
  V  V1  1  0.01689304  0.47487134  0.08375000  1
  V  V1  1  0.98310696  0.97487134  0.41625000  1
  V  V1  1  0.51689304  0.02512866  0.91625000  1
  O  O1  1  0.50733957  0.92924614  0.07487104  1
  O  O2  1  0.24627363  0.55816184  0.17351302  1
  O  O2  1  0.25372637  0.44183816  0.67351302  1
  O  O3  1  0.07401877  0.25151862  0.06221034  1
  O  O2  1  0.74627363  0.94183816  0.82648698  1
  O  O3  1  0.57401877  0.24848138  0.93778966  1
  O  O4  1  0.76265591  0.51442628  0.16948602  1
  O  O4  1  0.26265591  0.98557372  0.83051398  1
  O  O1  1  0.99266043  0.07075386  0.57487104  1
  O  O2  1  0.75372637  0.05816184  0.32648698  1
  O  O1  1  0.00733957  0.57075386  0.92512896  1
  O  O1  1  0.49266043  0.42924614  0.42512896  1
  O  O4  1  0.23734409  0.01442628  0.33051398  1
  O  O3  1  0.42598123  0.74848138  0.56221034  1
  O  O4  1  0.73734409  0.48557372  0.66948602  1
  O  O3  1  0.92598123  0.75151862  0.43778966  1
