# generated using pymatgen
data_KTa(GeO3)3
_symmetry_space_group_name_H-M   'P 1'
_cell_length_a   7.03606927
_cell_length_b   7.03606927
_cell_length_c   10.30278301
_cell_angle_alpha   90.00000000
_cell_angle_beta   90.00000000
_cell_angle_gamma   120.00000000
_symmetry_Int_Tables_number   1
_chemical_formula_structural   KTa(GeO3)3
_chemical_formula_sum   'K2 Ta2 Ge6 O18'
_cell_volume   441.71830570
_cell_formula_units_Z   2
loop_
 _symmetry_equiv_pos_site_id
 _symmetry_equiv_pos_as_xyz
  1  'x, y, z'
loop_
 _atom_site_type_symbol
 _atom_site_label
 _atom_site_symmetry_multiplicity
 _atom_site_fract_x
 _atom_site_fract_y
 _atom_site_fract_z
 _atom_site_occupancy
  K  K1  1  0.33333333  0.66666667  0.00000000  1
  K  K1  1  0.33333333  0.66666667  0.50000000  1
  Ta  Ta1  1  0.00000000  0.00000000  0.00000000  1
  Ta  Ta1  1  0.00000000  0.00000000  0.50000000  1
  Ge  Ge1  1  0.74040397  0.62535073  0.25000000  1
  Ge  Ge1  1  0.88494676  0.25959603  0.25000000  1
  Ge  Ge1  1  0.37464927  0.11505324  0.25000000  1
  Ge  Ge1  1  0.37464927  0.25959603  0.75000000  1
  Ge  Ge1  1  0.88494676  0.62535073  0.75000000  1
  Ge  Ge1  1  0.74040397  0.11505324  0.75000000  1
  O  O1  1  0.93781603  0.53642371  0.25000000  1
  O  O1  1  0.59860768  0.06218397  0.25000000  1
  O  O1  1  0.46357629  0.40139232  0.25000000  1
  O  O1  1  0.46357629  0.06218397  0.75000000  1
  O  O1  1  0.59860768  0.53642371  0.75000000  1
  O  O1  1  0.93781603  0.40139232  0.75000000  1
  O  O2  1  0.76164425  0.77567695  0.10860403  1
  O  O2  1  0.01403270  0.23835575  0.39139597  1
  O  O2  1  0.22432305  0.98596730  0.39139597  1
  O  O2  1  0.22432305  0.98596730  0.10860403  1
  O  O2  1  0.01403270  0.23835575  0.10860403  1
  O  O2  1  0.22432305  0.23835575  0.89139597  1
  O  O2  1  0.01403270  0.77567695  0.89139597  1
  O  O2  1  0.76164425  0.98596730  0.89139597  1
  O  O2  1  0.01403270  0.77567695  0.60860403  1
  O  O2  1  0.76164425  0.98596730  0.60860403  1
  O  O2  1  0.76164425  0.77567695  0.39139597  1
  O  O2  1  0.22432305  0.23835575  0.60860403  1
