# generated using pymatgen
data_KTlO
_symmetry_space_group_name_H-M   'P 1'
_cell_length_a   12.89284465
_cell_length_b   3.62008076
_cell_length_c   6.27817311
_cell_angle_alpha   90.00000000
_cell_angle_beta   107.13087593
_cell_angle_gamma   90.00000000
_symmetry_Int_Tables_number   1
_chemical_formula_structural   KTlO
_chemical_formula_sum   'K4 Tl4 O4'
_cell_volume   280.02195321
_cell_formula_units_Z   4
loop_
 _symmetry_equiv_pos_site_id
 _symmetry_equiv_pos_as_xyz
  1  'x, y, z'
loop_
 _atom_site_type_symbol
 _atom_site_label
 _atom_site_symmetry_multiplicity
 _atom_site_fract_x
 _atom_site_fract_y
 _atom_site_fract_z
 _atom_site_occupancy
  K  K1  1  0.12785415  0.00000000  0.34500198  1
  K  K1  1  0.37214585  0.50000000  0.65499802  1
  Tl  Tl1  1  0.13736539  0.50000000  0.84816990  1
  Tl  Tl1  1  0.36263461  0.00000000  0.15183010  1
  O  O1  1  0.25083427  0.50000000  0.21622364  1
  O  O1  1  0.24916573  0.00000000  0.78377636  1
  K  K1  1  0.62785415  0.50000000  0.34500198  1
  K  K1  1  0.87214585  0.00000000  0.65499802  1
  Tl  Tl1  1  0.63736539  0.00000000  0.84816990  1
  Tl  Tl1  1  0.86263461  0.50000000  0.15183010  1
  O  O1  1  0.75083427  0.00000000  0.21622364  1
  O  O1  1  0.74916573  0.50000000  0.78377636  1
