# generated using pymatgen
data_KY(WO4)2
_symmetry_space_group_name_H-M   'P 1'
_cell_length_a   10.64968222
_cell_length_b   10.39915545
_cell_length_c   7.47749997
_cell_angle_alpha   90.00000000
_cell_angle_beta   130.71449640
_cell_angle_gamma   90.00000000
_symmetry_Int_Tables_number   1
_chemical_formula_structural   KY(WO4)2
_chemical_formula_sum   'K4 Y4 W8 O32'
_cell_volume   627.68647254
_cell_formula_units_Z   4
loop_
 _symmetry_equiv_pos_site_id
 _symmetry_equiv_pos_as_xyz
  1  'x, y, z'
loop_
 _atom_site_type_symbol
 _atom_site_label
 _atom_site_symmetry_multiplicity
 _atom_site_fract_x
 _atom_site_fract_y
 _atom_site_fract_z
 _atom_site_occupancy
  K  K1  1  0.00000000  0.70321422  0.75000000  1
  K  K1  1  0.00000000  0.29678578  0.25000000  1
  Y  Y1  1  0.00000000  0.27156444  0.75000000  1
  Y  Y1  1  0.00000000  0.72843556  0.25000000  1
  W  W1  1  0.30292526  0.49849742  0.26688604  1
  W  W1  1  0.69707474  0.49849742  0.23311396  1
  W  W1  1  0.69707474  0.50150258  0.73311396  1
  W  W1  1  0.30292526  0.50150258  0.76688604  1
  O  O1  1  0.30854906  0.42845978  0.55256862  1
  O  O1  1  0.69145094  0.42845978  0.94743138  1
  O  O1  1  0.69145094  0.57154022  0.44743138  1
  O  O1  1  0.30854906  0.57154022  0.05256862  1
  O  O2  1  0.77745328  0.34106726  0.37591924  1
  O  O2  1  0.22254672  0.34106726  0.12408076  1
  O  O2  1  0.22254672  0.65893274  0.62408076  1
  O  O2  1  0.77745328  0.65893274  0.87591924  1
  O  O3  1  0.87410170  0.41592844  0.81258628  1
  O  O3  1  0.12589830  0.41592844  0.68741372  1
  O  O3  1  0.12589830  0.58407156  0.18741372  1
  O  O3  1  0.87410170  0.58407156  0.31258628  1
  O  O4  1  0.97837968  0.10905568  0.52965210  1
  O  O4  1  0.02162032  0.89094432  0.47034790  1
  O  O4  1  0.02162032  0.10905568  0.97034790  1
  O  O4  1  0.97837968  0.89094432  0.02965210  1
  K  K1  1  0.50000000  0.20321422  0.75000000  1
  K  K1  1  0.50000000  0.79678578  0.25000000  1
  Y  Y1  1  0.50000000  0.77156444  0.75000000  1
  Y  Y1  1  0.50000000  0.22843556  0.25000000  1
  W  W1  1  0.80292526  0.99849742  0.26688604  1
  W  W1  1  0.19707474  0.99849742  0.23311396  1
  W  W1  1  0.19707474  0.00150258  0.73311396  1
  W  W1  1  0.80292526  0.00150258  0.76688604  1
  O  O1  1  0.80854906  0.92845978  0.55256862  1
  O  O1  1  0.19145094  0.92845978  0.94743138  1
  O  O1  1  0.19145094  0.07154022  0.44743138  1
  O  O1  1  0.80854906  0.07154022  0.05256862  1
  O  O2  1  0.27745328  0.84106726  0.37591924  1
  O  O2  1  0.72254672  0.84106726  0.12408076  1
  O  O2  1  0.72254672  0.15893274  0.62408076  1
  O  O2  1  0.27745328  0.15893274  0.87591924  1
  O  O3  1  0.37410170  0.91592844  0.81258628  1
  O  O3  1  0.62589830  0.91592844  0.68741372  1
  O  O3  1  0.62589830  0.08407156  0.18741372  1
  O  O3  1  0.37410170  0.08407156  0.31258628  1
  O  O4  1  0.47837968  0.60905568  0.52965210  1
  O  O4  1  0.52162032  0.39094432  0.47034790  1
  O  O4  1  0.52162032  0.60905568  0.97034790  1
  O  O4  1  0.47837968  0.39094432  0.02965210  1
