# generated using pymatgen
data_KYO2
_symmetry_space_group_name_H-M   'P 1'
_cell_length_a   3.44382351
_cell_length_b   3.44382351
_cell_length_c   18.58457125
_cell_angle_alpha   90.00000000
_cell_angle_beta   90.00000000
_cell_angle_gamma   120.00000000
_symmetry_Int_Tables_number   1
_chemical_formula_structural   KYO2
_chemical_formula_sum   'K3 Y3 O6'
_cell_volume   190.88198868
_cell_formula_units_Z   3
loop_
 _symmetry_equiv_pos_site_id
 _symmetry_equiv_pos_as_xyz
  1  'x, y, z'
loop_
 _atom_site_type_symbol
 _atom_site_label
 _atom_site_symmetry_multiplicity
 _atom_site_fract_x
 _atom_site_fract_y
 _atom_site_fract_z
 _atom_site_occupancy
  K  K1  1  0.00000000  0.00000000  0.00000000  1
  Y  Y1  1  0.66666667  0.33333333  0.83333333  1
  O  O1  1  0.33333333  0.66666667  0.89481830  1
  O  O1  1  0.00000000  0.00000000  0.77184836  1
  K  K1  1  0.66666667  0.33333333  0.33333333  1
  Y  Y1  1  0.33333333  0.66666667  0.16666667  1
  O  O1  1  0.00000000  0.00000000  0.22815164  1
  O  O1  1  0.66666667  0.33333333  0.10518170  1
  K  K1  1  0.33333333  0.66666667  0.66666667  1
  Y  Y1  1  -0.00000000  -0.00000000  0.50000000  1
  O  O1  1  0.66666667  0.33333333  0.56148497  1
  O  O1  1  0.33333333  0.66666667  0.43851503  1
