# generated using pymatgen
data_KZn4(SbO4)3
_symmetry_space_group_name_H-M   'P 1'
_cell_length_a   10.81149115
_cell_length_b   10.81149115
_cell_length_c   7.28717845
_cell_angle_alpha   90.00000000
_cell_angle_beta   90.00000000
_cell_angle_gamma   120.00000000
_symmetry_Int_Tables_number   1
_chemical_formula_structural   KZn4(SbO4)3
_chemical_formula_sum   'K3 Zn12 Sb9 O36'
_cell_volume   737.66848723
_cell_formula_units_Z   3
loop_
 _symmetry_equiv_pos_site_id
 _symmetry_equiv_pos_as_xyz
  1  'x, y, z'
loop_
 _atom_site_type_symbol
 _atom_site_label
 _atom_site_symmetry_multiplicity
 _atom_site_fract_x
 _atom_site_fract_y
 _atom_site_fract_z
 _atom_site_occupancy
  K  K1  1  0.00000000  0.00000000  0.51027491  1
  Zn  Zn1  1  0.63563042  0.75261583  0.38997108  1
  Zn  Zn1  1  0.11698541  0.36436958  0.38997108  1
  Zn  Zn1  1  0.24738417  0.88301459  0.38997108  1
  Zn  Zn2  1  0.00000000  0.00000000  0.98575750  1
  Sb  Sb1  1  0.76324364  0.11269221  0.30396346  1
  Sb  Sb1  1  0.88730779  0.65055143  0.30396346  1
  Sb  Sb1  1  0.34944857  0.23675636  0.30396346  1
  O  O1  1  0.05081969  0.17906138  0.83737985  1
  O  O1  1  0.82093862  0.87175831  0.83737985  1
  O  O2  1  0.79114872  0.72567038  0.46107526  1
  O  O2  1  0.27432962  0.06547834  0.46107526  1
  O  O1  1  0.12824169  0.94918031  0.83737985  1
  O  O2  1  0.93452166  0.20885128  0.46107526  1
  O  O3  1  0.51491362  0.35869014  0.47381208  1
  O  O3  1  0.84377652  0.48508638  0.47381208  1
  O  O3  1  0.64130986  0.15622348  0.47381208  1
  O  O4  1  0.25705430  0.31677628  0.47382679  1
  O  O4  1  0.05972198  0.74294570  0.47382679  1
  O  O4  1  0.68322372  0.94027802  0.47382679  1
  K  K1  1  0.66666667  0.33333333  0.84360824  1
  Zn  Zn1  1  0.30229709  0.08594917  0.72330441  1
  Zn  Zn1  1  0.78365208  0.69770291  0.72330441  1
  Zn  Zn1  1  0.91405083  0.21634792  0.72330441  1
  Zn  Zn2  1  0.66666667  0.33333333  0.31909083  1
  Sb  Sb1  1  0.42991030  0.44602554  0.63729679  1
  Sb  Sb1  1  0.55397446  0.98388476  0.63729679  1
  Sb  Sb1  1  0.01611524  0.57008970  0.63729679  1
  O  O1  1  0.71748635  0.51239471  0.17071319  1
  O  O1  1  0.48760529  0.20509164  0.17071319  1
  O  O2  1  0.45781539  0.05900371  0.79440859  1
  O  O2  1  0.94099629  0.39881168  0.79440859  1
  O  O1  1  0.79490836  0.28251365  0.17071319  1
  O  O2  1  0.60118832  0.54218461  0.79440859  1
  O  O3  1  0.18158028  0.69202347  0.80714541  1
  O  O3  1  0.51044319  0.81841972  0.80714541  1
  O  O3  1  0.30797653  0.48955681  0.80714541  1
  O  O4  1  0.92372097  0.65010961  0.80716013  1
  O  O4  1  0.72638865  0.07627903  0.80716013  1
  O  O4  1  0.34989039  0.27361135  0.80716013  1
  K  K1  1  0.33333333  0.66666667  0.17694157  1
  Zn  Zn1  1  0.96896376  0.41928250  0.05663775  1
  Zn  Zn1  1  0.45031874  0.03103624  0.05663775  1
  Zn  Zn1  1  0.58071750  0.54968126  0.05663775  1
  Zn  Zn2  1  0.33333333  0.66666667  0.65242417  1
  Sb  Sb1  1  0.09657697  0.77935888  0.97063013  1
  Sb  Sb1  1  0.22064112  0.31721809  0.97063013  1
  Sb  Sb1  1  0.68278191  0.90342303  0.97063013  1
  O  O1  1  0.38415302  0.84572804  0.50404652  1
  O  O1  1  0.15427196  0.53842498  0.50404652  1
  O  O2  1  0.12448206  0.39233705  0.12774193  1
  O  O2  1  0.60766295  0.73214501  0.12774193  1
  O  O1  1  0.46157502  0.61584698  0.50404652  1
  O  O2  1  0.26785499  0.87551794  0.12774193  1
  O  O3  1  0.84824695  0.02535681  0.14047875  1
  O  O3  1  0.17710986  0.15175305  0.14047875  1
  O  O3  1  0.97464319  0.82289014  0.14047875  1
  O  O4  1  0.59038763  0.98344295  0.14049346  1
  O  O4  1  0.39305531  0.40961237  0.14049346  1
  O  O4  1  0.01655705  0.60694469  0.14049346  1
