# generated using pymatgen
data_La(SbO3)3
_symmetry_space_group_name_H-M   'P 1'
_cell_length_a   6.56668966
_cell_length_b   8.89426876
_cell_length_c   11.80363298
_cell_angle_alpha   90.00000000
_cell_angle_beta   90.00000000
_cell_angle_gamma   90.00000000
_symmetry_Int_Tables_number   1
_chemical_formula_structural   La(SbO3)3
_chemical_formula_sum   'La4 Sb12 O36'
_cell_volume   689.40183933
_cell_formula_units_Z   4
loop_
 _symmetry_equiv_pos_site_id
 _symmetry_equiv_pos_as_xyz
  1  'x, y, z'
loop_
 _atom_site_type_symbol
 _atom_site_label
 _atom_site_symmetry_multiplicity
 _atom_site_fract_x
 _atom_site_fract_y
 _atom_site_fract_z
 _atom_site_occupancy
  La  La1  1  0.00000000  0.24377461  0.75000000  1
  La  La1  1  0.00000000  0.75622539  0.25000000  1
  Sb  Sb1  1  0.00000000  0.87739645  0.90833709  1
  Sb  Sb1  1  0.00000000  0.12260355  0.40833709  1
  Sb  Sb1  1  0.00000000  0.12260355  0.09166291  1
  Sb  Sb1  1  0.00000000  0.87739645  0.59166291  1
  Sb  Sb2  1  0.00000000  0.50000000  0.00000000  1
  Sb  Sb2  1  0.00000000  0.50000000  0.50000000  1
  O  O1  1  0.00000000  0.05510992  0.25000000  1
  O  O1  1  0.00000000  0.94489008  0.75000000  1
  O  O2  1  0.00000000  0.89579506  0.07498457  1
  O  O2  1  0.00000000  0.10420494  0.57498457  1
  O  O2  1  0.00000000  0.10420494  0.92501543  1
  O  O2  1  0.00000000  0.89579506  0.42501543  1
  O  O3  1  0.00000000  0.66185606  0.88164564  1
  O  O3  1  0.00000000  0.33814394  0.38164564  1
  O  O4  1  0.80548638  0.38523423  0.59936417  1
  O  O4  1  0.19451362  0.61476577  0.09936417  1
  O  O4  1  0.80548638  0.61476577  0.40063583  1
  O  O4  1  0.19451362  0.38523423  0.90063583  1
  O  O4  1  0.19451362  0.61476577  0.40063583  1
  O  O4  1  0.80548638  0.38523423  0.90063583  1
  O  O4  1  0.19451362  0.38523423  0.59936417  1
  O  O4  1  0.80548638  0.61476577  0.09936417  1
  O  O3  1  0.00000000  0.66185606  0.61835436  1
  O  O3  1  0.00000000  0.33814394  0.11835436  1
  La  La1  1  0.50000000  0.74377461  0.75000000  1
  La  La1  1  0.50000000  0.25622539  0.25000000  1
  Sb  Sb1  1  0.50000000  0.37739645  0.90833709  1
  Sb  Sb1  1  0.50000000  0.62260355  0.40833709  1
  Sb  Sb1  1  0.50000000  0.62260355  0.09166291  1
  Sb  Sb1  1  0.50000000  0.37739645  0.59166291  1
  Sb  Sb2  1  0.50000000  0.00000000  0.00000000  1
  Sb  Sb2  1  0.50000000  0.00000000  0.50000000  1
  O  O1  1  0.50000000  0.55510992  0.25000000  1
  O  O1  1  0.50000000  0.44489008  0.75000000  1
  O  O2  1  0.50000000  0.39579506  0.07498457  1
  O  O2  1  0.50000000  0.60420494  0.57498457  1
  O  O2  1  0.50000000  0.60420494  0.92501543  1
  O  O2  1  0.50000000  0.39579506  0.42501543  1
  O  O3  1  0.50000000  0.16185606  0.88164564  1
  O  O3  1  0.50000000  0.83814394  0.38164564  1
  O  O4  1  0.30548638  0.88523423  0.59936417  1
  O  O4  1  0.69451362  0.11476577  0.09936417  1
  O  O4  1  0.30548638  0.11476577  0.40063583  1
  O  O4  1  0.69451362  0.88523423  0.90063583  1
  O  O4  1  0.69451362  0.11476577  0.40063583  1
  O  O4  1  0.30548638  0.88523423  0.90063583  1
  O  O4  1  0.69451362  0.88523423  0.59936417  1
  O  O4  1  0.30548638  0.11476577  0.09936417  1
  O  O3  1  0.50000000  0.16185606  0.61835436  1
  O  O3  1  0.50000000  0.83814394  0.11835436  1
