data_image0
_chemical_formula_structural       OMn8O19La4
_chemical_formula_sum              "O20 Mn8 La4"
_cell_length_a       7.79951
_cell_length_b       8.80834
_cell_length_c       5.81264
_cell_angle_alpha    90.0312
_cell_angle_beta     89.8871
_cell_angle_gamma    90.0597

_space_group_name_H-M_alt    "P 1"
_space_group_IT_number       1

loop_
  _space_group_symop_operation_xyz
  'x, y, z'

loop_
  _atom_site_type_symbol
  _atom_site_label
  _atom_site_symmetry_multiplicity
  _atom_site_fract_x
  _atom_site_fract_y
  _atom_site_fract_z
  _atom_site_occupancy
  O   O1        1.0  0.49990  0.50005  0.28030  1.0000
  Mn  Mn1       1.0  0.00111  0.49966  0.73842  1.0000
  Mn  Mn1       1.0  0.50000  0.99991  0.74125  1.0000
  Mn  Mn1       1.0  0.99817  0.50037  0.26012  1.0000
  Mn  Mn2       1.0  0.90983  0.14778  0.50018  1.0000
  Mn  Mn2       1.0  0.09038  0.85234  0.49978  1.0000
  Mn  Mn2       1.0  0.41045  0.35258  0.50069  1.0000
  Mn  Mn2       1.0  0.58923  0.64845  0.49956  1.0000
  Mn  Mn1       1.0  0.49996  0.00009  0.25888  1.0000
  O   O1        1.0  0.00036  0.00026  0.71998  1.0000
  O   O1        1.0  0.49929  0.50007  0.71999  1.0000
  O   O1        1.0  0.00037  0.00011  0.27946  1.0000
  O   O2        1.0  0.65320  0.04945  0.99969  1.0000
  O   O2        1.0  0.34693  0.95024  0.00038  1.0000
  O   O2        1.0  0.15120  0.45100  0.00029  1.0000
  O   O2        1.0  0.84823  0.54916  0.99915  1.0000
  O   O3        1.0  0.65220  0.06049  0.49977  1.0000
  O   O3        1.0  0.34818  0.93839  0.50022  1.0000
  O   O3        1.0  0.15161  0.43839  0.49886  1.0000
  O   O3        1.0  0.84758  0.56168  0.50077  1.0000
  O   O4        1.0  0.90643  0.29422  0.25305  1.0000
  O   O4        1.0  0.09190  0.70592  0.25261  1.0000
  O   O4        1.0  0.40762  0.20617  0.74805  1.0000
  O   O4        1.0  0.59340  0.79357  0.74831  1.0000
  O   O4        1.0  0.09427  0.70667  0.74756  1.0000
  O   O4        1.0  0.90680  0.29320  0.74821  1.0000
  O   O4        1.0  0.59337  0.79350  0.25116  1.0000
  O   O4        1.0  0.40753  0.20609  0.25282  1.0000
  La  La1       1.0  0.64730  0.32661  0.99975  1.0000
  La  La1       1.0  0.35225  0.67318  0.00065  1.0000
  La  La1       1.0  0.14816  0.17352  0.00049  1.0000
  La  La1       1.0  0.85279  0.82689  0.99960  1.0000
