# generated using pymatgen
data_La2Be2GeO7
_symmetry_space_group_name_H-M   'P 1'
_cell_length_a   7.67096786
_cell_length_b   7.67096786
_cell_length_c   4.93669148
_cell_angle_alpha   90.00000000
_cell_angle_beta   90.00000000
_cell_angle_gamma   90.00000000
_symmetry_Int_Tables_number   1
_chemical_formula_structural   La2Be2GeO7
_chemical_formula_sum   'La4 Be4 Ge2 O14'
_cell_volume   290.49342876
_cell_formula_units_Z   2
loop_
 _symmetry_equiv_pos_site_id
 _symmetry_equiv_pos_as_xyz
  1  'x, y, z'
loop_
 _atom_site_type_symbol
 _atom_site_label
 _atom_site_symmetry_multiplicity
 _atom_site_fract_x
 _atom_site_fract_y
 _atom_site_fract_z
 _atom_site_occupancy
  La  La1  1  0.66027698  0.83972302  0.50187505  1
  La  La1  1  0.16027698  0.66027698  0.49812495  1
  La  La1  1  0.83972302  0.33972302  0.49812495  1
  La  La1  1  0.33972302  0.16027698  0.50187505  1
  Be  Be1  1  0.36690186  0.86690186  0.03909986  1
  Be  Be1  1  0.86690186  0.63309814  0.96090014  1
  Be  Be1  1  0.63309814  0.13309814  0.03909986  1
  Be  Be1  1  0.13309814  0.36690186  0.96090014  1
  Ge  Ge1  1  0.50000000  0.50000000  0.00000000  1
  Ge  Ge1  1  0.00000000  0.00000000  0.00000000  1
  O  O1  1  0.92243368  0.82433442  0.79673739  1
  O  O1  1  0.17566558  0.92243368  0.20326261  1
  O  O1  1  0.57756632  0.32433442  0.20326261  1
  O  O1  1  0.42243368  0.67566558  0.20326261  1
  O  O1  1  0.32433442  0.42243368  0.79673739  1
  O  O1  1  0.67566558  0.57756632  0.79673739  1
  O  O2  1  0.00000000  0.50000000  0.83248028  1
  O  O2  1  0.50000000  0.00000000  0.16751972  1
  O  O3  1  0.14235570  0.35764430  0.28196309  1
  O  O3  1  0.64235570  0.14235570  0.71803691  1
  O  O3  1  0.35764430  0.85764430  0.71803691  1
  O  O3  1  0.85764430  0.64235570  0.28196309  1
  O  O1  1  0.07756632  0.17566558  0.79673739  1
  O  O1  1  0.82433442  0.07756632  0.20326261  1
