# generated using pymatgen
data_La2CrO6
_symmetry_space_group_name_H-M   'P 1'
_cell_length_a   14.31762547
_cell_length_b   4.37714553
_cell_length_c   8.36351654
_cell_angle_alpha   90.00000000
_cell_angle_beta   107.27317657
_cell_angle_gamma   90.00000000
_symmetry_Int_Tables_number   1
_chemical_formula_structural   La2CrO6
_chemical_formula_sum   'La8 Cr4 O24'
_cell_volume   500.50538845
_cell_formula_units_Z   4
loop_
 _symmetry_equiv_pos_site_id
 _symmetry_equiv_pos_as_xyz
  1  'x, y, z'
loop_
 _atom_site_type_symbol
 _atom_site_label
 _atom_site_symmetry_multiplicity
 _atom_site_fract_x
 _atom_site_fract_y
 _atom_site_fract_z
 _atom_site_occupancy
  La  La1  1  0.66951937  0.00840220  0.08463990  1
  La  La1  1  0.83048063  0.50840220  0.41536010  1
  La  La1  1  0.66951937  0.99159780  0.58463990  1
  La  La1  1  0.83048063  0.49159780  0.91536010  1
  Cr  Cr1  1  0.00000000  0.96089028  0.25000000  1
  Cr  Cr1  1  0.00000000  0.03910972  0.75000000  1
  O  O1  1  0.75694872  0.97855544  0.87839056  1
  O  O2  1  0.50146888  0.76435800  0.91049392  1
  O  O3  1  0.59974634  0.67346784  0.29838076  1
  O  O3  1  0.90025366  0.82653216  0.70161924  1
  O  O1  1  0.74305128  0.47855544  0.62160944  1
  O  O2  1  0.99853112  0.26435800  0.58950608  1
  O  O1  1  0.75694872  0.02144456  0.37839056  1
  O  O2  1  0.99853112  0.73564200  0.08950608  1
  O  O1  1  0.74305128  0.52144456  0.12160944  1
  O  O2  1  0.50146888  0.23564200  0.41049392  1
  O  O3  1  0.59974634  0.32653216  0.79838076  1
  O  O3  1  0.90025366  0.17346784  0.20161924  1
  La  La1  1  0.16951937  0.50840220  0.08463990  1
  La  La1  1  0.33048063  0.00840220  0.41536010  1
  La  La1  1  0.16951937  0.49159780  0.58463990  1
  La  La1  1  0.33048063  0.99159780  0.91536010  1
  Cr  Cr1  1  0.50000000  0.46089028  0.25000000  1
  Cr  Cr1  1  0.50000000  0.53910972  0.75000000  1
  O  O1  1  0.25694872  0.47855544  0.87839056  1
  O  O2  1  0.00146888  0.26435800  0.91049392  1
  O  O3  1  0.09974634  0.17346784  0.29838076  1
  O  O3  1  0.40025366  0.32653216  0.70161924  1
  O  O1  1  0.24305128  0.97855544  0.62160944  1
  O  O2  1  0.49853112  0.76435800  0.58950608  1
  O  O1  1  0.25694872  0.52144456  0.37839056  1
  O  O2  1  0.49853112  0.23564200  0.08950608  1
  O  O1  1  0.24305128  0.02144456  0.12160944  1
  O  O2  1  0.00146888  0.73564200  0.41049392  1
  O  O3  1  0.09974634  0.82653216  0.79838076  1
  O  O3  1  0.40025366  0.67346784  0.20161924  1
