# generated using pymatgen
data_La2HgO4
_symmetry_space_group_name_H-M   'P 1'
_cell_length_a   13.98296414
_cell_length_b   3.88430460
_cell_length_c   10.32953953
_cell_angle_alpha   90.00000000
_cell_angle_beta   120.65546129
_cell_angle_gamma   90.00000000
_symmetry_Int_Tables_number   1
_chemical_formula_structural   La2HgO4
_chemical_formula_sum   'La8 Hg4 O16'
_cell_volume   482.63365287
_cell_formula_units_Z   4
loop_
 _symmetry_equiv_pos_site_id
 _symmetry_equiv_pos_as_xyz
  1  'x, y, z'
loop_
 _atom_site_type_symbol
 _atom_site_label
 _atom_site_symmetry_multiplicity
 _atom_site_fract_x
 _atom_site_fract_y
 _atom_site_fract_z
 _atom_site_occupancy
  La  La1  1  0.11918805  0.50000000  0.45634936  1
  La  La2  1  0.16093748  0.00000000  0.79864217  1
  La  La2  1  0.83906252  0.00000000  0.20135783  1
  La  La1  1  0.88081195  0.50000000  0.54365064  1
  Hg  Hg1  1  0.38337830  0.50000000  0.83590774  1
  Hg  Hg1  1  0.61662170  0.50000000  0.16409226  1
  O  O1  1  0.22738140  0.00000000  0.60996575  1
  O  O2  1  0.29656722  0.50000000  0.94057364  1
  O  O3  1  0.03606674  0.00000000  0.27713576  1
  O  O4  1  0.08142283  0.50000000  0.65418204  1
  O  O4  1  0.91857717  0.50000000  0.34581796  1
  O  O3  1  0.96393326  0.00000000  0.72286424  1
  O  O2  1  0.70343278  0.50000000  0.05942636  1
  O  O1  1  0.77261860  0.00000000  0.39003425  1
  La  La1  1  0.61918805  0.00000000  0.45634936  1
  La  La2  1  0.66093748  0.50000000  0.79864217  1
  La  La2  1  0.33906252  0.50000000  0.20135783  1
  La  La1  1  0.38081195  0.00000000  0.54365064  1
  Hg  Hg1  1  0.88337830  0.00000000  0.83590774  1
  Hg  Hg1  1  0.11662170  0.00000000  0.16409226  1
  O  O1  1  0.72738140  0.50000000  0.60996575  1
  O  O2  1  0.79656722  0.00000000  0.94057364  1
  O  O3  1  0.53606674  0.50000000  0.27713576  1
  O  O4  1  0.58142283  0.00000000  0.65418204  1
  O  O4  1  0.41857717  0.00000000  0.34581796  1
  O  O3  1  0.46393326  0.50000000  0.72286424  1
  O  O2  1  0.20343278  0.00000000  0.05942636  1
  O  O1  1  0.27261860  0.50000000  0.39003425  1
