data_image0
_chemical_formula_structural       OLa16O23
_chemical_formula_sum              "O24 La16"
_cell_length_a       9.96595
_cell_length_b       9.96595
_cell_length_c       9.96595
_cell_angle_alpha    109.471
_cell_angle_beta     109.471
_cell_angle_gamma    109.471

_space_group_name_H-M_alt    "P 1"
_space_group_IT_number       1

loop_
  _space_group_symop_operation_xyz
  'x, y, z'

loop_
  _atom_site_type_symbol
  _atom_site_label
  _atom_site_symmetry_multiplicity
  _atom_site_fract_x
  _atom_site_fract_y
  _atom_site_fract_z
  _atom_site_occupancy
  O   O1        1.0  0.03774  0.76824  0.02782  1.0000
  La  La1       1.0  0.50000  0.50000  0.50000  1.0000
  La  La1       1.0  1.00000  1.00000  0.50000  1.0000
  La  La1       1.0  0.50000  1.00000  1.00000  1.0000
  La  La2       1.0  0.47053  0.22053  0.75000  1.0000
  La  La2       1.0  0.02947  0.27947  0.25000  1.0000
  La  La2       1.0  0.72053  0.25000  0.47053  1.0000
  La  La2       1.0  0.77947  0.75000  0.02947  1.0000
  La  La2       1.0  0.25000  0.52947  0.77947  1.0000
  La  La2       1.0  0.75000  0.97053  0.72053  1.0000
  La  La2       1.0  0.52947  0.77947  0.25000  1.0000
  La  La2       1.0  0.97053  0.72053  0.75000  1.0000
  La  La2       1.0  0.27947  0.75000  0.52947  1.0000
  La  La2       1.0  0.22053  0.25000  0.97053  1.0000
  La  La2       1.0  0.75000  0.47053  0.22053  1.0000
  La  La2       1.0  0.25000  0.02947  0.27947  1.0000
  La  La1       1.0  1.00000  0.50000  1.00000  1.0000
  O   O1        1.0  0.74043  0.50992  0.47218  1.0000
  O   O1        1.0  0.75957  0.73176  0.26950  1.0000
  O   O1        1.0  0.46226  0.99008  0.23050  1.0000
  O   O1        1.0  0.00992  0.97218  0.74043  1.0000
  O   O1        1.0  0.26824  0.52782  0.03774  1.0000
  O   O1        1.0  0.49008  0.73050  0.46226  1.0000
  O   O1        1.0  0.23176  0.76950  0.75957  1.0000
  O   O1        1.0  0.26950  0.25957  0.23176  1.0000
  O   O1        1.0  0.23051  0.96226  0.49008  1.0000
  O   O1        1.0  0.02782  0.53774  0.26824  1.0000
  O   O1        1.0  0.47218  0.24043  0.00992  1.0000
  O   O1        1.0  0.96226  0.23176  0.97218  1.0000
  O   O1        1.0  0.25957  0.49008  0.52782  1.0000
  O   O1        1.0  0.24043  0.26824  0.73050  1.0000
  O   O1        1.0  0.53774  0.00992  0.76950  1.0000
  O   O1        1.0  0.99008  0.02782  0.25957  1.0000
  O   O1        1.0  0.73176  0.47218  0.96226  1.0000
  O   O1        1.0  0.50992  0.26950  0.53774  1.0000
  O   O1        1.0  0.76824  0.23050  0.24043  1.0000
  O   O1        1.0  0.73050  0.74043  0.76824  1.0000
  O   O1        1.0  0.76949  0.03774  0.50992  1.0000
  O   O1        1.0  0.97218  0.46226  0.73176  1.0000
  O   O1        1.0  0.52782  0.75957  0.99008  1.0000
