# generated using pymatgen
data_La2Pd2O5
_symmetry_space_group_name_H-M   'P 1'
_cell_length_a   6.64871384
_cell_length_b   6.64871384
_cell_length_c   5.57384789
_cell_angle_alpha   90.00000000
_cell_angle_beta   90.00000000
_cell_angle_gamma   90.00000000
_symmetry_Int_Tables_number   1
_chemical_formula_structural   La2Pd2O5
_chemical_formula_sum   'La4 Pd4 O10'
_cell_volume   246.39415159
_cell_formula_units_Z   2
loop_
 _symmetry_equiv_pos_site_id
 _symmetry_equiv_pos_as_xyz
  1  'x, y, z'
loop_
 _atom_site_type_symbol
 _atom_site_label
 _atom_site_symmetry_multiplicity
 _atom_site_fract_x
 _atom_site_fract_y
 _atom_site_fract_z
 _atom_site_occupancy
  La  La1  1  0.10759484  0.26346896  0.00000000  1
  La  La1  1  0.73653104  0.10759484  0.50000000  1
  La  La1  1  0.89240516  0.73653104  0.00000000  1
  La  La1  1  0.26346896  0.89240516  0.50000000  1
  Pd  Pd1  1  0.31070176  0.40485584  0.50000000  1
  Pd  Pd1  1  0.40485584  0.68929824  0.00000000  1
  Pd  Pd1  1  0.68929824  0.59514416  0.50000000  1
  Pd  Pd1  1  0.59514416  0.31070176  0.00000000  1
  O  O1  1  0.79976532  0.40626228  0.75756804  1
  O  O1  1  0.40626228  0.20023468  0.25756804  1
  O  O1  1  0.20023468  0.59373772  0.24243196  1
  O  O1  1  0.20023468  0.59373772  0.75756804  1
  O  O2  1  0.00000000  0.00000000  0.25000000  1
  O  O1  1  0.59373772  0.79976532  0.25756804  1
  O  O1  1  0.59373772  0.79976532  0.74243196  1
  O  O1  1  0.79976532  0.40626228  0.24243196  1
  O  O2  1  0.00000000  0.00000000  0.75000000  1
  O  O1  1  0.40626228  0.20023468  0.74243196  1
