# generated using pymatgen
data_La2Sn2O7
_symmetry_space_group_name_H-M   'P 1'
_cell_length_a   10.70173193
_cell_length_b   10.70173193
_cell_length_c   10.70173193
_cell_angle_alpha   90.00000000
_cell_angle_beta   90.00000000
_cell_angle_gamma   90.00000000
_symmetry_Int_Tables_number   1
_chemical_formula_structural   La2Sn2O7
_chemical_formula_sum   'La16 Sn16 O56'
_cell_volume   1225.63796229
_cell_formula_units_Z   8
loop_
 _symmetry_equiv_pos_site_id
 _symmetry_equiv_pos_as_xyz
  1  'x, y, z'
loop_
 _atom_site_type_symbol
 _atom_site_label
 _atom_site_symmetry_multiplicity
 _atom_site_fract_x
 _atom_site_fract_y
 _atom_site_fract_z
 _atom_site_occupancy
  La  La1  1  0.37500000  0.87500000  0.12500000  1
  La  La1  1  0.37500000  0.12500000  0.87500000  1
  La  La1  1  0.12500000  0.87500000  0.37500000  1
  La  La1  1  0.12500000  0.12500000  0.62500000  1
  Sn  Sn1  1  0.37500000  0.87500000  0.62500000  1
  Sn  Sn1  1  0.37500000  0.62500000  0.87500000  1
  Sn  Sn1  1  0.12500000  0.87500000  0.87500000  1
  Sn  Sn1  1  0.12500000  0.62500000  0.62500000  1
  O  O1  1  0.25000000  0.25000000  0.75000000  1
  O  O1  1  0.00000000  0.00000000  0.50000000  1
  O  O2  1  0.25000000  0.54274954  0.75000000  1
  O  O2  1  0.00000000  0.29274954  0.50000000  1
  O  O2  1  0.25000000  0.75000000  0.54274954  1
  O  O2  1  0.04274954  0.75000000  0.75000000  1
  O  O2  1  0.45725046  0.75000000  0.75000000  1
  O  O2  1  0.25000000  0.75000000  0.95725046  1
  O  O2  1  0.25000000  0.95725046  0.75000000  1
  O  O2  1  0.29274954  0.00000000  0.50000000  1
  O  O2  1  0.20725046  0.00000000  0.00000000  1
  O  O2  1  0.00000000  0.70725046  0.50000000  1
  O  O2  1  0.00000000  0.00000000  0.79274954  1
  O  O2  1  0.00000000  0.00000000  0.20725046  1
  La  La1  1  0.37500000  0.37500000  0.62500000  1
  La  La1  1  0.37500000  0.62500000  0.37500000  1
  La  La1  1  0.12500000  0.37500000  0.87500000  1
  La  La1  1  0.12500000  0.62500000  0.12500000  1
  Sn  Sn1  1  0.37500000  0.37500000  0.12500000  1
  Sn  Sn1  1  0.37500000  0.12500000  0.37500000  1
  Sn  Sn1  1  0.12500000  0.37500000  0.37500000  1
  Sn  Sn1  1  0.12500000  0.12500000  0.12500000  1
  O  O1  1  0.25000000  0.75000000  0.25000000  1
  O  O1  1  0.00000000  0.50000000  0.00000000  1
  O  O2  1  0.25000000  0.04274954  0.25000000  1
  O  O2  1  0.00000000  0.79274954  0.00000000  1
  O  O2  1  0.25000000  0.25000000  0.04274954  1
  O  O2  1  0.04274954  0.25000000  0.25000000  1
  O  O2  1  0.45725046  0.25000000  0.25000000  1
  O  O2  1  0.25000000  0.25000000  0.45725046  1
  O  O2  1  0.25000000  0.45725046  0.25000000  1
  O  O2  1  0.29274954  0.50000000  0.00000000  1
  O  O2  1  0.20725046  0.50000000  0.50000000  1
  O  O2  1  0.00000000  0.20725046  0.00000000  1
  O  O2  1  0.00000000  0.50000000  0.29274954  1
  O  O2  1  0.00000000  0.50000000  0.70725046  1
  La  La1  1  0.87500000  0.87500000  0.62500000  1
  La  La1  1  0.87500000  0.12500000  0.37500000  1
  La  La1  1  0.62500000  0.87500000  0.87500000  1
  La  La1  1  0.62500000  0.12500000  0.12500000  1
  Sn  Sn1  1  0.87500000  0.87500000  0.12500000  1
  Sn  Sn1  1  0.87500000  0.62500000  0.37500000  1
  Sn  Sn1  1  0.62500000  0.87500000  0.37500000  1
  Sn  Sn1  1  0.62500000  0.62500000  0.12500000  1
  O  O1  1  0.75000000  0.25000000  0.25000000  1
  O  O1  1  0.50000000  0.00000000  0.00000000  1
  O  O2  1  0.75000000  0.54274954  0.25000000  1
  O  O2  1  0.50000000  0.29274954  0.00000000  1
  O  O2  1  0.75000000  0.75000000  0.04274954  1
  O  O2  1  0.54274954  0.75000000  0.25000000  1
  O  O2  1  0.95725046  0.75000000  0.25000000  1
  O  O2  1  0.75000000  0.75000000  0.45725046  1
  O  O2  1  0.75000000  0.95725046  0.25000000  1
  O  O2  1  0.79274954  0.00000000  0.00000000  1
  O  O2  1  0.70725046  0.00000000  0.50000000  1
  O  O2  1  0.50000000  0.70725046  0.00000000  1
  O  O2  1  0.50000000  0.00000000  0.29274954  1
  O  O2  1  0.50000000  0.00000000  0.70725046  1
  La  La1  1  0.87500000  0.37500000  0.12500000  1
  La  La1  1  0.87500000  0.62500000  0.87500000  1
  La  La1  1  0.62500000  0.37500000  0.37500000  1
  La  La1  1  0.62500000  0.62500000  0.62500000  1
  Sn  Sn1  1  0.87500000  0.37500000  0.62500000  1
  Sn  Sn1  1  0.87500000  0.12500000  0.87500000  1
  Sn  Sn1  1  0.62500000  0.37500000  0.87500000  1
  Sn  Sn1  1  0.62500000  0.12500000  0.62500000  1
  O  O1  1  0.75000000  0.75000000  0.75000000  1
  O  O1  1  0.50000000  0.50000000  0.50000000  1
  O  O2  1  0.75000000  0.04274954  0.75000000  1
  O  O2  1  0.50000000  0.79274954  0.50000000  1
  O  O2  1  0.75000000  0.25000000  0.54274954  1
  O  O2  1  0.54274954  0.25000000  0.75000000  1
  O  O2  1  0.95725046  0.25000000  0.75000000  1
  O  O2  1  0.75000000  0.25000000  0.95725046  1
  O  O2  1  0.75000000  0.45725046  0.75000000  1
  O  O2  1  0.79274954  0.50000000  0.50000000  1
  O  O2  1  0.70725046  0.50000000  0.00000000  1
  O  O2  1  0.50000000  0.20725046  0.50000000  1
  O  O2  1  0.50000000  0.50000000  0.79274954  1
  O  O2  1  0.50000000  0.50000000  0.20725046  1
