# generated using pymatgen
data_La3BWO9
_symmetry_space_group_name_H-M   'P 1'
_cell_length_a   8.76193830
_cell_length_b   8.76193830
_cell_length_c   5.46363278
_cell_angle_alpha   90.00000000
_cell_angle_beta   90.00000000
_cell_angle_gamma   120.00000000
_symmetry_Int_Tables_number   1
_chemical_formula_structural   La3BWO9
_chemical_formula_sum   'La6 B2 W2 O18'
_cell_volume   363.25576437
_cell_formula_units_Z   2
loop_
 _symmetry_equiv_pos_site_id
 _symmetry_equiv_pos_as_xyz
  1  'x, y, z'
loop_
 _atom_site_type_symbol
 _atom_site_label
 _atom_site_symmetry_multiplicity
 _atom_site_fract_x
 _atom_site_fract_y
 _atom_site_fract_z
 _atom_site_occupancy
  La  La1  1  0.62980156  0.72056276  0.26233054  1
  La  La1  1  0.09076120  0.37019844  0.26233054  1
  La  La1  1  0.90923880  0.62980156  0.76233054  1
  La  La1  1  0.37019844  0.27943724  0.76233054  1
  La  La1  1  0.27943724  0.90923880  0.26233054  1
  La  La1  1  0.72056276  0.09076120  0.76233054  1
  B  B1  1  0.00000000  0.00000000  0.62010780  1
  B  B1  1  0.00000000  0.00000000  0.12010780  1
  W  W1  1  0.33333333  0.66666667  0.74883761  1
  W  W1  1  0.66666667  0.33333333  0.24883761  1
  O  O1  1  0.51420452  0.15022676  0.02051312  1
  O  O1  1  0.84977324  0.36397776  0.02051312  1
  O  O2  1  0.95444050  0.82362344  0.12566646  1
  O  O3  1  0.83368160  0.33121422  0.47397507  1
  O  O2  1  0.13081706  0.95444050  0.62566646  1
  O  O2  1  0.04555950  0.17637656  0.62566646  1
  O  O3  1  0.49753262  0.16631840  0.47397507  1
  O  O3  1  0.66878578  0.50246738  0.47397507  1
  O  O1  1  0.36397776  0.51420452  0.52051312  1
  O  O2  1  0.82362344  0.86918294  0.62566646  1
  O  O3  1  0.50246738  0.83368160  0.97397507  1
  O  O2  1  0.17637656  0.13081706  0.12566646  1
  O  O1  1  0.48579548  0.84977324  0.52051312  1
  O  O2  1  0.86918294  0.04555950  0.12566646  1
  O  O3  1  0.33121422  0.49753262  0.97397507  1
  O  O3  1  0.16631840  0.66878578  0.97397507  1
  O  O1  1  0.15022676  0.63602224  0.52051312  1
  O  O1  1  0.63602224  0.48579548  0.02051312  1
