# generated using pymatgen
data_La3HfGa5O14
_symmetry_space_group_name_H-M   'P 1'
_cell_length_a   8.25023053
_cell_length_b   8.25023053
_cell_length_c   5.14675980
_cell_angle_alpha   90.00000000
_cell_angle_beta   90.00000000
_cell_angle_gamma   120.00000000
_symmetry_Int_Tables_number   1
_chemical_formula_structural   La3HfGa5O14
_chemical_formula_sum   'La3 Hf1 Ga5 O14'
_cell_volume   303.38681304
_cell_formula_units_Z   1
loop_
 _symmetry_equiv_pos_site_id
 _symmetry_equiv_pos_as_xyz
  1  'x, y, z'
loop_
 _atom_site_type_symbol
 _atom_site_label
 _atom_site_symmetry_multiplicity
 _atom_site_fract_x
 _atom_site_fract_y
 _atom_site_fract_z
 _atom_site_occupancy
  La  La1  1  0.57346530  0.57346530  0.00000000  1
  La  La1  1  0.42653470  0.00000000  0.00000000  1
  La  La1  1  0.00000000  0.42653470  0.00000000  1
  Hf  Hf1  1  0.00000000  0.00000000  0.00000000  1
  Ga  Ga1  1  0.66666667  0.33333333  0.53090317  1
  Ga  Ga1  1  0.33333333  0.66666667  0.46909683  1
  Ga  Ga2  1  0.24459464  0.24459464  0.50000000  1
  Ga  Ga2  1  0.75540536  0.00000000  0.50000000  1
  Ga  Ga2  1  0.00000000  0.75540536  0.50000000  1
  O  O1  1  0.92067854  0.14852904  0.24333719  1
  O  O1  1  0.85147096  0.77214950  0.24333719  1
  O  O1  1  0.07932146  0.22785050  0.75666281  1
  O  O1  1  0.22785050  0.07932146  0.24333719  1
  O  O1  1  0.14852904  0.92067854  0.75666281  1
  O  O1  1  0.77214950  0.85147096  0.75666281  1
  O  O2  1  0.66666667  0.33333333  0.17938473  1
  O  O2  1  0.33333333  0.66666667  0.82061527  1
  O  O3  1  0.31233980  0.45815070  0.29940677  1
  O  O3  1  0.54184930  0.85418910  0.29940677  1
  O  O3  1  0.68766020  0.14581090  0.70059323  1
  O  O3  1  0.14581090  0.68766020  0.29940677  1
  O  O3  1  0.45815070  0.31233980  0.70059323  1
  O  O3  1  0.85418910  0.54184930  0.70059323  1
