# generated using pymatgen
data_La3SbO3
_symmetry_space_group_name_H-M   'P 1'
_cell_length_a   13.72613193
_cell_length_b   4.08974293
_cell_length_c   12.21822360
_cell_angle_alpha   90.00000000
_cell_angle_beta   118.67740542
_cell_angle_gamma   90.00000000
_symmetry_Int_Tables_number   1
_chemical_formula_structural   La3SbO3
_chemical_formula_sum   'La12 Sb4 O12'
_cell_volume   601.75254658
_cell_formula_units_Z   4
loop_
 _symmetry_equiv_pos_site_id
 _symmetry_equiv_pos_as_xyz
  1  'x, y, z'
loop_
 _atom_site_type_symbol
 _atom_site_label
 _atom_site_symmetry_multiplicity
 _atom_site_fract_x
 _atom_site_fract_y
 _atom_site_fract_z
 _atom_site_occupancy
  La  La1  1  0.88121853  0.50000000  0.55622661  1
  La  La1  1  0.11878147  0.50000000  0.44377339  1
  La  La2  1  0.87171674  0.50000000  0.10156834  1
  La  La2  1  0.12828326  0.50000000  0.89843166  1
  La  La3  1  0.34663213  0.50000000  0.79361898  1
  La  La3  1  0.65336787  0.50000000  0.20638102  1
  Sb  Sb1  1  0.87735004  0.00000000  0.31845618  1
  Sb  Sb1  1  0.12264996  0.00000000  0.68154382  1
  O  O1  1  0.81052992  0.00000000  0.58886619  1
  O  O1  1  0.18947008  0.00000000  0.41113381  1
  O  O2  1  0.06478726  0.50000000  0.20424653  1
  O  O2  1  0.93521274  0.50000000  0.79575347  1
  O  O3  1  0.33909805  0.50000000  0.98909346  1
  O  O3  1  0.66090195  0.50000000  0.01090654  1
  La  La1  1  0.38121853  0.00000000  0.55622661  1
  La  La1  1  0.61878147  0.00000000  0.44377339  1
  La  La2  1  0.37171674  0.00000000  0.10156834  1
  La  La2  1  0.62828326  0.00000000  0.89843166  1
  La  La3  1  0.84663213  0.00000000  0.79361898  1
  La  La3  1  0.15336787  0.00000000  0.20638102  1
  Sb  Sb1  1  0.37735004  0.50000000  0.31845618  1
  Sb  Sb1  1  0.62264996  0.50000000  0.68154382  1
  O  O1  1  0.31052992  0.50000000  0.58886619  1
  O  O1  1  0.68947008  0.50000000  0.41113381  1
  O  O2  1  0.56478726  0.00000000  0.20424653  1
  O  O2  1  0.43521274  0.00000000  0.79575347  1
  O  O3  1  0.83909805  0.00000000  0.98909346  1
  O  O3  1  0.16090195  0.00000000  0.01090654  1
