# generated using pymatgen
data_La3TiGa5O14
_symmetry_space_group_name_H-M   'P 1'
_cell_length_a   8.20050377
_cell_length_b   8.20050377
_cell_length_c   5.09279433
_cell_angle_alpha   90.00000000
_cell_angle_beta   90.00000000
_cell_angle_gamma   120.00000000
_symmetry_Int_Tables_number   1
_chemical_formula_structural   La3TiGa5O14
_chemical_formula_sum   'La3 Ti1 Ga5 O14'
_cell_volume   296.59773788
_cell_formula_units_Z   1
loop_
 _symmetry_equiv_pos_site_id
 _symmetry_equiv_pos_as_xyz
  1  'x, y, z'
loop_
 _atom_site_type_symbol
 _atom_site_label
 _atom_site_symmetry_multiplicity
 _atom_site_fract_x
 _atom_site_fract_y
 _atom_site_fract_z
 _atom_site_occupancy
  La  La1  1  0.57741280  0.57741280  0.00000000  1
  La  La1  1  0.42258720  0.00000000  0.00000000  1
  La  La1  1  0.00000000  0.42258720  0.00000000  1
  Ti  Ti1  1  0.00000000  0.00000000  0.00000000  1
  Ga  Ga1  1  0.66666667  0.33333333  0.53196300  1
  Ga  Ga1  1  0.33333333  0.66666667  0.46803700  1
  Ga  Ga2  1  0.23862238  0.23862238  0.50000000  1
  Ga  Ga2  1  0.76137762  0.00000000  0.50000000  1
  Ga  Ga2  1  0.00000000  0.76137762  0.50000000  1
  O  O1  1  0.92636792  0.14378050  0.23656787  1
  O  O1  1  0.85621950  0.78258742  0.23656787  1
  O  O1  1  0.07363208  0.21741258  0.76343213  1
  O  O1  1  0.21741258  0.07363208  0.23656787  1
  O  O1  1  0.14378050  0.92636792  0.76343213  1
  O  O1  1  0.78258742  0.85621950  0.76343213  1
  O  O2  1  0.66666667  0.33333333  0.17720257  1
  O  O2  1  0.33333333  0.66666667  0.82279743  1
  O  O3  1  0.30909200  0.45529714  0.29978675  1
  O  O3  1  0.54470286  0.85379486  0.29978675  1
  O  O3  1  0.69090800  0.14620514  0.70021325  1
  O  O3  1  0.14620514  0.69090800  0.29978675  1
  O  O3  1  0.45529714  0.30909200  0.70021325  1
  O  O3  1  0.85379486  0.54470286  0.70021325  1
