# generated using pymatgen
data_La6WO12
_symmetry_space_group_name_H-M   'P 1'
_cell_length_a   10.21488861
_cell_length_b   10.21488861
_cell_length_c   9.86207363
_cell_angle_alpha   90.00000000
_cell_angle_beta   90.00000000
_cell_angle_gamma   120.00000000
_symmetry_Int_Tables_number   1
_chemical_formula_structural   La6WO12
_chemical_formula_sum   'La18 W3 O36'
_cell_volume   891.18145855
_cell_formula_units_Z   3
loop_
 _symmetry_equiv_pos_site_id
 _symmetry_equiv_pos_as_xyz
  1  'x, y, z'
loop_
 _atom_site_type_symbol
 _atom_site_label
 _atom_site_symmetry_multiplicity
 _atom_site_fract_x
 _atom_site_fract_y
 _atom_site_fract_z
 _atom_site_occupancy
  La  La1  1  0.20869137  0.95209383  0.64824245  1
  La  La1  1  0.25659754  0.20869137  0.35175755  1
  La  La1  1  0.95209383  0.74340246  0.35175755  1
  La  La1  1  0.04790617  0.25659754  0.64824245  1
  La  La1  1  0.74340246  0.79130863  0.64824245  1
  La  La1  1  0.79130863  0.04790617  0.35175755  1
  W  W1  1  0.00000000  0.00000000  0.00000000  1
  O  O1  1  0.37346971  0.84391414  0.55979761  1
  O  O1  1  0.52955557  0.37346971  0.44020239  1
  O  O2  1  0.18982803  0.96203905  0.40478748  1
  O  O2  1  0.22778897  0.18982803  0.59521252  1
  O  O1  1  0.84391414  0.47044443  0.44020239  1
  O  O2  1  0.96203905  0.77221103  0.59521252  1
  O  O2  1  0.03796095  0.22778897  0.40478748  1
  O  O1  1  0.15608586  0.52955557  0.55979761  1
  O  O2  1  0.77221103  0.81017197  0.40478748  1
  O  O2  1  0.81017197  0.03796095  0.59521252  1
  O  O1  1  0.47044443  0.62653029  0.55979761  1
  O  O1  1  0.62653029  0.15608586  0.44020239  1
  La  La1  1  0.87535803  0.28542716  0.98157578  1
  La  La1  1  0.92326421  0.54202470  0.68509089  1
  La  La1  1  0.61876049  0.07673579  0.68509089  1
  La  La1  1  0.71457284  0.58993087  0.98157578  1
  La  La1  1  0.41006913  0.12464197  0.98157578  1
  La  La1  1  0.45797530  0.38123951  0.68509089  1
  W  W1  1  0.66666667  0.33333333  0.33333333  1
  O  O1  1  0.04013637  0.17724747  0.89313094  1
  O  O1  1  0.19622223  0.70680304  0.77353573  1
  O  O2  1  0.85649469  0.29537239  0.73812081  1
  O  O2  1  0.89445564  0.52316136  0.92854585  1
  O  O1  1  0.51058081  0.80377777  0.77353573  1
  O  O2  1  0.62870572  0.10554436  0.92854585  1
  O  O2  1  0.70462761  0.56112231  0.73812081  1
  O  O1  1  0.82275253  0.86288890  0.89313094  1
  O  O2  1  0.43887769  0.14350531  0.73812081  1
  O  O2  1  0.47683864  0.37129428  0.92854585  1
  O  O1  1  0.13711110  0.95986363  0.89313094  1
  O  O1  1  0.29319696  0.48941919  0.77353573  1
  La  La1  1  0.54202470  0.61876049  0.31490911  1
  La  La1  1  0.58993087  0.87535803  0.01842422  1
  La  La1  1  0.28542716  0.41006913  0.01842422  1
  La  La1  1  0.38123951  0.92326421  0.31490911  1
  La  La1  1  0.07673579  0.45797530  0.31490911  1
  La  La1  1  0.12464197  0.71457284  0.01842422  1
  W  W1  1  0.33333333  0.66666667  0.66666667  1
  O  O1  1  0.70680304  0.51058081  0.22646427  1
  O  O1  1  0.86288890  0.04013637  0.10686906  1
  O  O2  1  0.52316136  0.62870572  0.07145415  1
  O  O2  1  0.56112231  0.85649469  0.26187919  1
  O  O1  1  0.17724747  0.13711110  0.10686906  1
  O  O2  1  0.29537239  0.43887769  0.26187919  1
  O  O2  1  0.37129428  0.89445564  0.07145415  1
  O  O1  1  0.48941919  0.19622223  0.22646427  1
  O  O2  1  0.10554436  0.47683864  0.07145415  1
  O  O2  1  0.14350531  0.70462761  0.26187919  1
  O  O1  1  0.80377777  0.29319696  0.22646427  1
  O  O1  1  0.95986363  0.82275253  0.10686906  1
