# generated using pymatgen
data_LaAg(MoO4)2
_symmetry_space_group_name_H-M   'P 1'
_cell_length_a   5.34262450
_cell_length_b   5.34262450
_cell_length_c   11.45097830
_cell_angle_alpha   90.00000000
_cell_angle_beta   90.00000000
_cell_angle_gamma   90.00000000
_symmetry_Int_Tables_number   1
_chemical_formula_structural   LaAg(MoO4)2
_chemical_formula_sum   'La2 Ag2 Mo4 O16'
_cell_volume   326.85256333
_cell_formula_units_Z   2
loop_
 _symmetry_equiv_pos_site_id
 _symmetry_equiv_pos_as_xyz
  1  'x, y, z'
loop_
 _atom_site_type_symbol
 _atom_site_label
 _atom_site_symmetry_multiplicity
 _atom_site_fract_x
 _atom_site_fract_y
 _atom_site_fract_z
 _atom_site_occupancy
  La  La1  1  0.50000000  0.50000000  0.00000000  1
  Ag  Ag1  1  0.00000000  0.50000000  0.25000000  1
  Mo  Mo1  1  0.50000000  0.00000000  0.25000000  1
  Mo  Mo2  1  0.00000000  0.00000000  0.00000000  1
  O  O1  1  0.26418250  0.14794860  0.33831971  1
  O  O1  1  0.73581750  0.85205140  0.33831971  1
  O  O2  1  0.84744868  0.76005764  0.08461106  1
  O  O2  1  0.15255132  0.23994236  0.08461106  1
  O  O2  1  0.73994236  0.34744868  0.41538894  1
  O  O2  1  0.26005764  0.65255132  0.41538894  1
  O  O1  1  0.64794860  0.23581750  0.16168029  1
  O  O1  1  0.35205140  0.76418250  0.16168029  1
  La  La1  1  0.00000000  0.00000000  0.50000000  1
  Ag  Ag1  1  0.50000000  0.00000000  0.75000000  1
  Mo  Mo1  1  0.00000000  0.50000000  0.75000000  1
  Mo  Mo2  1  0.50000000  0.50000000  0.50000000  1
  O  O1  1  0.76418250  0.64794860  0.83831971  1
  O  O1  1  0.23581750  0.35205140  0.83831971  1
  O  O2  1  0.34744868  0.26005764  0.58461106  1
  O  O2  1  0.65255132  0.73994236  0.58461106  1
  O  O2  1  0.23994236  0.84744868  0.91538894  1
  O  O2  1  0.76005764  0.15255132  0.91538894  1
  O  O1  1  0.14794860  0.73581750  0.66168029  1
  O  O1  1  0.85205140  0.26418250  0.66168029  1
