# generated using pymatgen
data_LaAsO4
_symmetry_space_group_name_H-M   'P 1'
_cell_length_a   7.38096455
_cell_length_b   7.38096455
_cell_length_c   6.54979957
_cell_angle_alpha   90.00000000
_cell_angle_beta   90.00000000
_cell_angle_gamma   90.00000000
_symmetry_Int_Tables_number   1
_chemical_formula_structural   LaAsO4
_chemical_formula_sum   'La4 As4 O16'
_cell_volume   356.82415722
_cell_formula_units_Z   4
loop_
 _symmetry_equiv_pos_site_id
 _symmetry_equiv_pos_as_xyz
  1  'x, y, z'
loop_
 _atom_site_type_symbol
 _atom_site_label
 _atom_site_symmetry_multiplicity
 _atom_site_fract_x
 _atom_site_fract_y
 _atom_site_fract_z
 _atom_site_occupancy
  La  La1  1  0.50000000  0.50000000  0.50000000  1
  La  La1  1  0.50000000  0.00000000  0.75000000  1
  As  As1  1  0.00000000  0.00000000  0.50000000  1
  As  As1  1  0.50000000  0.00000000  0.25000000  1
  O  O1  1  0.00000000  0.82128252  0.33311548  1
  O  O1  1  0.17871748  0.00000000  0.66688452  1
  O  O1  1  0.32128252  0.00000000  0.08311548  1
  O  O1  1  0.82128252  0.00000000  0.66688452  1
  O  O1  1  0.00000000  0.32128252  0.91688452  1
  O  O1  1  0.50000000  0.17871748  0.41688452  1
  O  O1  1  0.00000000  0.17871748  0.33311548  1
  O  O1  1  0.17871748  0.50000000  0.58311548  1
  La  La1  1  0.00000000  0.00000000  0.00000000  1
  La  La1  1  0.00000000  0.50000000  0.25000000  1
  As  As1  1  0.50000000  0.50000000  0.00000000  1
  As  As1  1  0.00000000  0.50000000  0.75000000  1
  O  O1  1  0.50000000  0.32128252  0.83311548  1
  O  O1  1  0.67871748  0.50000000  0.16688452  1
  O  O1  1  0.82128252  0.50000000  0.58311548  1
  O  O1  1  0.32128252  0.50000000  0.16688452  1
  O  O1  1  0.50000000  0.82128252  0.41688452  1
  O  O1  1  0.00000000  0.67871748  0.91688452  1
  O  O1  1  0.50000000  0.67871748  0.83311548  1
  O  O1  1  0.67871748  0.00000000  0.08311548  1
