# generated using pymatgen
data_LaAsO3
_symmetry_space_group_name_H-M   'P 1'
_cell_length_a   4.38796646
_cell_length_b   5.29365309
_cell_length_c   6.18193222
_cell_angle_alpha   90.00000000
_cell_angle_beta   105.49619636
_cell_angle_gamma   90.00000000
_symmetry_Int_Tables_number   1
_chemical_formula_structural   LaAsO3
_chemical_formula_sum   'La2 As2 O6'
_cell_volume   138.37624041
_cell_formula_units_Z   2
loop_
 _symmetry_equiv_pos_site_id
 _symmetry_equiv_pos_as_xyz
  1  'x, y, z'
loop_
 _atom_site_type_symbol
 _atom_site_label
 _atom_site_symmetry_multiplicity
 _atom_site_fract_x
 _atom_site_fract_y
 _atom_site_fract_z
 _atom_site_occupancy
  La  La1  1  0.33471376  0.75000000  0.70048863  1
  La  La1  1  0.66528624  0.25000000  0.29951137  1
  As  As1  1  0.07765028  0.75000000  0.14141067  1
  As  As1  1  0.92234972  0.25000000  0.85858933  1
  O  O1  1  0.66265524  0.75000000  0.11739687  1
  O  O1  1  0.33734476  0.25000000  0.88260313  1
  O  O2  1  0.19337976  0.50031044  0.34234552  1
  O  O2  1  0.80662024  0.00031044  0.65765448  1
  O  O2  1  0.80662024  0.49968956  0.65765448  1
  O  O2  1  0.19337976  0.99968956  0.34234552  1
