# generated using pymatgen
data_LaAuO3
_symmetry_space_group_name_H-M   'P 1'
_cell_length_a   4.01020607
_cell_length_b   13.00589463
_cell_length_c   5.67063579
_cell_angle_alpha   90.00000000
_cell_angle_beta   90.00000000
_cell_angle_gamma   90.00000000
_symmetry_Int_Tables_number   1
_chemical_formula_structural   LaAuO3
_chemical_formula_sum   'La4 Au4 O12'
_cell_volume   295.75948122
_cell_formula_units_Z   4
loop_
 _symmetry_equiv_pos_site_id
 _symmetry_equiv_pos_as_xyz
  1  'x, y, z'
loop_
 _atom_site_type_symbol
 _atom_site_label
 _atom_site_symmetry_multiplicity
 _atom_site_fract_x
 _atom_site_fract_y
 _atom_site_fract_z
 _atom_site_occupancy
  La  La1  1  0.26405923  0.41885364  0.25000000  1
  La  La1  1  0.26405923  0.08114636  0.75000000  1
  La  La1  1  0.73594077  0.58114636  0.75000000  1
  La  La1  1  0.73594077  0.91885364  0.25000000  1
  Au  Au1  1  0.06942301  0.67035835  0.25000000  1
  Au  Au1  1  0.06942301  0.82964165  0.75000000  1
  Au  Au1  1  0.93057699  0.32964165  0.75000000  1
  Au  Au1  1  0.93057699  0.17035835  0.25000000  1
  O  O1  1  0.17459795  0.25000000  0.00000000  1
  O  O1  1  0.82540205  0.75000000  0.50000000  1
  O  O1  1  0.82540205  0.75000000  0.00000000  1
  O  O1  1  0.17459795  0.25000000  0.50000000  1
  O  O2  1  0.74310616  0.42077255  0.99533982  1
  O  O2  1  0.74310616  0.07922745  0.00466018  1
  O  O2  1  0.25689384  0.57922745  0.49533982  1
  O  O2  1  0.25689384  0.92077255  0.50466018  1
  O  O2  1  0.74310616  0.07922745  0.49533982  1
  O  O2  1  0.74310616  0.42077255  0.50466018  1
  O  O2  1  0.25689384  0.92077255  0.99533982  1
  O  O2  1  0.25689384  0.57922745  0.00466018  1
