# generated using pymatgen
data_LaBO3
_symmetry_space_group_name_H-M   'P 1'
_cell_length_a   5.78900800
_cell_length_b   5.08797009
_cell_length_c   8.21783504
_cell_angle_alpha   90.00000000
_cell_angle_beta   90.00000000
_cell_angle_gamma   90.00000000
_symmetry_Int_Tables_number   1
_chemical_formula_structural   LaBO3
_chemical_formula_sum   'La4 B4 O12'
_cell_volume   242.05057496
_cell_formula_units_Z   4
loop_
 _symmetry_equiv_pos_site_id
 _symmetry_equiv_pos_as_xyz
  1  'x, y, z'
loop_
 _atom_site_type_symbol
 _atom_site_label
 _atom_site_symmetry_multiplicity
 _atom_site_fract_x
 _atom_site_fract_y
 _atom_site_fract_z
 _atom_site_occupancy
  La  La1  1  0.25645186  0.25000000  0.41545452  1
  La  La1  1  0.74354814  0.75000000  0.58454548  1
  La  La1  1  0.75645186  0.25000000  0.08454548  1
  La  La1  1  0.24354814  0.75000000  0.91545452  1
  B  B1  1  0.41669278  0.25000000  0.76035274  1
  B  B1  1  0.58330722  0.75000000  0.23964726  1
  B  B1  1  0.91669278  0.25000000  0.73964726  1
  B  B1  1  0.08330722  0.75000000  0.26035274  1
  O  O1  1  0.09702348  0.75000000  0.42738468  1
  O  O1  1  0.90297652  0.25000000  0.57261532  1
  O  O1  1  0.59702348  0.75000000  0.07261532  1
  O  O1  1  0.40297652  0.25000000  0.92738468  1
  O  O2  1  0.08803967  0.51602104  0.17539392  1
  O  O2  1  0.91196033  0.01602104  0.82460608  1
  O  O2  1  0.58803967  0.98397896  0.32460608  1
  O  O2  1  0.41196033  0.48397896  0.67539392  1
  O  O2  1  0.91196033  0.48397896  0.82460608  1
  O  O2  1  0.08803967  0.98397896  0.17539392  1
  O  O2  1  0.41196033  0.01602104  0.67539392  1
  O  O2  1  0.58803967  0.51602104  0.32460608  1
