# generated using pymatgen
data_LaNbO4
_symmetry_space_group_name_H-M   'P 1'
_cell_length_a   5.38597136
_cell_length_b   5.38597136
_cell_length_c   11.50365844
_cell_angle_alpha   90.00000000
_cell_angle_beta   90.00000000
_cell_angle_gamma   90.00000000
_symmetry_Int_Tables_number   1
_chemical_formula_structural   LaNbO4
_chemical_formula_sum   'La4 Nb4 O16'
_cell_volume   333.70603331
_cell_formula_units_Z   4
loop_
 _symmetry_equiv_pos_site_id
 _symmetry_equiv_pos_as_xyz
  1  'x, y, z'
loop_
 _atom_site_type_symbol
 _atom_site_label
 _atom_site_symmetry_multiplicity
 _atom_site_fract_x
 _atom_site_fract_y
 _atom_site_fract_z
 _atom_site_occupancy
  La  La1  1  0.50000000  0.00000000  0.25000000  1
  La  La1  1  0.00000000  0.00000000  0.50000000  1
  Nb  Nb1  1  0.00000000  0.50000000  0.25000000  1
  Nb  Nb1  1  0.50000000  0.50000000  0.50000000  1
  O  O1  1  0.83322588  0.74409264  0.33810652  1
  O  O1  1  0.74409264  0.66677412  0.58810652  1
  O  O1  1  0.25590736  0.33322588  0.58810652  1
  O  O1  1  0.16677412  0.25590736  0.33810652  1
  O  O1  1  0.33322588  0.74409264  0.41189348  1
  O  O1  1  0.74409264  0.16677412  0.66189348  1
  O  O1  1  0.25590736  0.83322588  0.66189348  1
  O  O1  1  0.66677412  0.25590736  0.41189348  1
  La  La1  1  0.00000000  0.50000000  0.75000000  1
  La  La1  1  0.50000000  0.50000000  0.00000000  1
  Nb  Nb1  1  0.50000000  0.00000000  0.75000000  1
  Nb  Nb1  1  0.00000000  0.00000000  0.00000000  1
  O  O1  1  0.33322588  0.24409264  0.83810652  1
  O  O1  1  0.24409264  0.16677412  0.08810652  1
  O  O1  1  0.75590736  0.83322588  0.08810652  1
  O  O1  1  0.66677412  0.75590736  0.83810652  1
  O  O1  1  0.83322588  0.24409264  0.91189348  1
  O  O1  1  0.24409264  0.66677412  0.16189348  1
  O  O1  1  0.75590736  0.33322588  0.16189348  1
  O  O1  1  0.16677412  0.75590736  0.91189348  1
