# generated using pymatgen
data_LaSb5O12
_symmetry_space_group_name_H-M   'P 1'
_cell_length_a   7.30885866
_cell_length_b   7.30885866
_cell_length_c   16.46241454
_cell_angle_alpha   90.00000000
_cell_angle_beta   90.00000000
_cell_angle_gamma   120.00000000
_symmetry_Int_Tables_number   1
_chemical_formula_structural   LaSb5O12
_chemical_formula_sum   'La3 Sb15 O36'
_cell_volume   761.59361214
_cell_formula_units_Z   3
loop_
 _symmetry_equiv_pos_site_id
 _symmetry_equiv_pos_as_xyz
  1  'x, y, z'
loop_
 _atom_site_type_symbol
 _atom_site_label
 _atom_site_symmetry_multiplicity
 _atom_site_fract_x
 _atom_site_fract_y
 _atom_site_fract_z
 _atom_site_occupancy
  La  La1  1  0.66666667  0.33333333  0.83333333  1
  Sb  Sb1  1  0.00000000  0.50000000  0.00000000  1
  Sb  Sb1  1  0.83333333  0.16666667  0.66666667  1
  Sb  Sb1  1  0.50000000  0.00000000  0.00000000  1
  Sb  Sb2  1  0.66666667  0.33333333  0.18310232  1
  Sb  Sb2  1  0.66666667  0.33333333  0.48356434  1
  O  O1  1  0.26479092  0.13239546  0.78461390  1
  O  O1  1  0.86760454  0.13239546  0.78461390  1
  O  O1  1  0.86760454  0.73520908  0.78461390  1
  O  O1  1  0.06854241  0.53427121  0.88205276  1
  O  O1  1  0.46572879  0.53427121  0.88205276  1
  O  O1  1  0.46572879  0.93145759  0.88205276  1
  O  O2  1  0.54075845  0.45924155  0.70155516  1
  O  O2  1  0.91848311  0.45924155  0.70155516  1
  O  O2  1  0.54075845  0.08151689  0.70155516  1
  O  O2  1  0.41485023  0.20742511  0.96511150  1
  O  O2  1  0.79257489  0.58514977  0.96511150  1
  O  O2  1  0.79257489  0.20742511  0.96511150  1
  La  La1  1  0.33333333  0.66666667  0.16666667  1
  Sb  Sb1  1  0.66666667  0.83333333  0.33333333  1
  Sb  Sb1  1  0.50000000  0.50000000  0.00000000  1
  Sb  Sb1  1  0.16666667  0.33333333  0.33333333  1
  Sb  Sb2  1  0.33333333  0.66666667  0.51643566  1
  Sb  Sb2  1  0.33333333  0.66666667  0.81689768  1
  O  O1  1  0.93145759  0.46572879  0.11794724  1
  O  O1  1  0.53427121  0.46572879  0.11794724  1
  O  O1  1  0.53427121  0.06854241  0.11794724  1
  O  O1  1  0.73520908  0.86760454  0.21538610  1
  O  O1  1  0.13239546  0.86760454  0.21538610  1
  O  O1  1  0.13239546  0.26479092  0.21538610  1
  O  O2  1  0.20742511  0.79257489  0.03488850  1
  O  O2  1  0.58514977  0.79257489  0.03488850  1
  O  O2  1  0.20742511  0.41485023  0.03488850  1
  O  O2  1  0.08151689  0.54075845  0.29844484  1
  O  O2  1  0.45924155  0.91848311  0.29844484  1
  O  O2  1  0.45924155  0.54075845  0.29844484  1
  La  La1  1  -0.00000000  -0.00000000  0.50000000  1
  Sb  Sb1  1  0.33333333  0.16666667  0.66666667  1
  Sb  Sb1  1  0.16666667  0.83333333  0.33333333  1
  Sb  Sb1  1  0.83333333  0.66666667  0.66666667  1
  Sb  Sb2  1  0.00000000  0.00000000  0.84976899  1
  Sb  Sb2  1  0.00000000  0.00000000  0.15023101  1
  O  O1  1  0.59812425  0.79906213  0.45128057  1
  O  O1  1  0.20093787  0.79906213  0.45128057  1
  O  O1  1  0.20093787  0.40187575  0.45128057  1
  O  O1  1  0.40187575  0.20093787  0.54871943  1
  O  O1  1  0.79906213  0.20093787  0.54871943  1
  O  O1  1  0.79906213  0.59812425  0.54871943  1
  O  O2  1  0.87409178  0.12590822  0.36822183  1
  O  O2  1  0.25181644  0.12590822  0.36822183  1
  O  O2  1  0.87409178  0.74818356  0.36822183  1
  O  O2  1  0.74818356  0.87409178  0.63177817  1
  O  O2  1  0.12590822  0.25181644  0.63177817  1
  O  O2  1  0.12590822  0.87409178  0.63177817  1
