# generated using pymatgen
data_LaScO3
_symmetry_space_group_name_H-M   'P 1'
_cell_length_a   5.75715818
_cell_length_b   8.02603574
_cell_length_c   5.63157292
_cell_angle_alpha   90.00000000
_cell_angle_beta   90.00000000
_cell_angle_gamma   90.00000000
_symmetry_Int_Tables_number   1
_chemical_formula_structural   LaScO3
_chemical_formula_sum   'La4 Sc4 O12'
_cell_volume   260.21897600
_cell_formula_units_Z   4
loop_
 _symmetry_equiv_pos_site_id
 _symmetry_equiv_pos_as_xyz
  1  'x, y, z'
loop_
 _atom_site_type_symbol
 _atom_site_label
 _atom_site_symmetry_multiplicity
 _atom_site_fract_x
 _atom_site_fract_y
 _atom_site_fract_z
 _atom_site_occupancy
  La  La1  1  0.04622742  0.75000000  0.98832681  1
  La  La1  1  0.45377258  0.25000000  0.48832681  1
  La  La1  1  0.54622742  0.75000000  0.51167319  1
  La  La1  1  0.95377258  0.25000000  0.01167319  1
  Sc  Sc1  1  0.50000000  0.50000000  0.00000000  1
  Sc  Sc1  1  0.00000000  0.50000000  0.50000000  1
  Sc  Sc1  1  0.00000000  0.00000000  0.50000000  1
  Sc  Sc1  1  0.50000000  0.00000000  0.00000000  1
  O  O1  1  0.29598791  0.55307384  0.70410627  1
  O  O1  1  0.20401209  0.44692616  0.20410627  1
  O  O1  1  0.79598791  0.94692616  0.79589373  1
  O  O1  1  0.70401209  0.05307384  0.29589373  1
  O  O1  1  0.70401209  0.44692616  0.29589373  1
  O  O1  1  0.79598791  0.55307384  0.79589373  1
  O  O1  1  0.20401209  0.05307384  0.20410627  1
  O  O1  1  0.29598791  0.94692616  0.70410627  1
  O  O2  1  0.53324793  0.25000000  0.90046656  1
  O  O2  1  0.96675207  0.75000000  0.40046656  1
  O  O2  1  0.03324793  0.25000000  0.59953344  1
  O  O2  1  0.46675207  0.75000000  0.09953344  1
