# generated using pymatgen
data_LaVO4
_symmetry_space_group_name_H-M   'P 1'
_cell_length_a   7.43961753
_cell_length_b   7.43961753
_cell_length_c   6.49551204
_cell_angle_alpha   90.00000000
_cell_angle_beta   90.00000000
_cell_angle_gamma   90.00000000
_symmetry_Int_Tables_number   1
_chemical_formula_structural   LaVO4
_chemical_formula_sum   'La4 V4 O16'
_cell_volume   359.51300904
_cell_formula_units_Z   4
loop_
 _symmetry_equiv_pos_site_id
 _symmetry_equiv_pos_as_xyz
  1  'x, y, z'
loop_
 _atom_site_type_symbol
 _atom_site_label
 _atom_site_symmetry_multiplicity
 _atom_site_fract_x
 _atom_site_fract_y
 _atom_site_fract_z
 _atom_site_occupancy
  La  La1  1  0.50000000  0.50000000  0.50000000  1
  La  La1  1  0.50000000  0.00000000  0.75000000  1
  V  V1  1  0.50000000  0.00000000  0.25000000  1
  V  V1  1  0.00000000  0.00000000  0.50000000  1
  O  O1  1  0.00000000  0.82176228  0.33095702  1
  O  O1  1  0.32176228  0.00000000  0.08095702  1
  O  O1  1  0.17823772  0.50000000  0.58095702  1
  O  O1  1  0.00000000  0.17823772  0.33095702  1
  O  O1  1  0.17823772  0.00000000  0.66904298  1
  O  O1  1  0.50000000  0.17823772  0.41904298  1
  O  O1  1  0.00000000  0.32176228  0.91904298  1
  O  O1  1  0.82176228  0.00000000  0.66904298  1
  La  La1  1  0.00000000  0.00000000  0.00000000  1
  La  La1  1  0.00000000  0.50000000  0.25000000  1
  V  V1  1  0.00000000  0.50000000  0.75000000  1
  V  V1  1  0.50000000  0.50000000  0.00000000  1
  O  O1  1  0.50000000  0.32176228  0.83095702  1
  O  O1  1  0.82176228  0.50000000  0.58095702  1
  O  O1  1  0.67823772  0.00000000  0.08095702  1
  O  O1  1  0.50000000  0.67823772  0.83095702  1
  O  O1  1  0.67823772  0.50000000  0.16904298  1
  O  O1  1  0.00000000  0.67823772  0.91904298  1
  O  O1  1  0.50000000  0.82176228  0.41904298  1
  O  O1  1  0.32176228  0.50000000  0.16904298  1
