# generated using pymatgen
data_Li2BeSiO4
_symmetry_space_group_name_H-M   'P 1'
_cell_length_a   4.70434014
_cell_length_b   4.94554781
_cell_length_c   7.70402720
_cell_angle_alpha   90.00000000
_cell_angle_beta   127.63047028
_cell_angle_gamma   90.00000000
_symmetry_Int_Tables_number   1
_chemical_formula_structural   Li2BeSiO4
_chemical_formula_sum   'Li4 Be2 Si2 O8'
_cell_volume   141.95050584
_cell_formula_units_Z   2
loop_
 _symmetry_equiv_pos_site_id
 _symmetry_equiv_pos_as_xyz
  1  'x, y, z'
loop_
 _atom_site_type_symbol
 _atom_site_label
 _atom_site_symmetry_multiplicity
 _atom_site_fract_x
 _atom_site_fract_y
 _atom_site_fract_z
 _atom_site_occupancy
  Li  Li1  1  0.50121461  0.17619593  0.49957490  1
  Li  Li1  1  0.50121461  0.82380407  0.99957490  1
  Li  Li2  1  0.24893276  0.33467924  0.74709474  1
  Li  Li2  1  0.24893276  0.66532076  0.24709474  1
  Be  Be1  1  0.73987695  0.32060678  0.24842258  1
  Be  Be1  1  0.73987695  0.67939322  0.74842258  1
  Si  Si1  1  0.98854747  0.17920634  0.99724624  1
  Si  Si1  1  0.98854747  0.82079366  0.49724624  1
  O  O1  1  0.67205664  0.19954691  0.02785444  1
  O  O2  1  0.36237863  0.69959120  0.71751386  1
  O  O3  1  0.04878619  0.85990206  0.96663048  1
  O  O1  1  0.67205664  0.80045309  0.52785444  1
  O  O3  1  0.04878619  0.14009794  0.46663048  1
  O  O4  1  0.86320775  0.35831892  0.78066276  1
  O  O4  1  0.86320775  0.64168108  0.28066276  1
  O  O2  1  0.36237863  0.30040880  0.21751386  1
