# generated using pymatgen
data_Li2GeO3
_symmetry_space_group_name_H-M   'P 1'
_cell_length_a   9.66392661
_cell_length_b   5.48773120
_cell_length_c   4.88171287
_cell_angle_alpha   90.00000000
_cell_angle_beta   90.00000000
_cell_angle_gamma   90.00000000
_symmetry_Int_Tables_number   1
_chemical_formula_structural   Li2GeO3
_chemical_formula_sum   'Li8 Ge4 O12'
_cell_volume   258.89203253
_cell_formula_units_Z   4
loop_
 _symmetry_equiv_pos_site_id
 _symmetry_equiv_pos_as_xyz
  1  'x, y, z'
loop_
 _atom_site_type_symbol
 _atom_site_label
 _atom_site_symmetry_multiplicity
 _atom_site_fract_x
 _atom_site_fract_y
 _atom_site_fract_z
 _atom_site_occupancy
  Li  Li1  1  0.17537641  0.65828378  0.51116330  1
  Li  Li1  1  0.32462359  0.84171622  0.01116330  1
  Li  Li1  1  0.17537641  0.34171622  0.01116330  1
  Li  Li1  1  0.32462359  0.15828378  0.51116330  1
  Ge  Ge1  1  0.00000000  0.82008834  0.00236146  1
  Ge  Ge1  1  0.00000000  0.17991166  0.50236146  1
  O  O1  1  0.00000000  0.86127620  0.37831670  1
  O  O2  1  0.34502563  0.17990524  0.90754812  1
  O  O2  1  0.15497437  0.67990524  0.90754812  1
  O  O1  1  0.00000000  0.13872380  0.87831670  1
  O  O2  1  0.34502563  0.82009476  0.40754812  1
  O  O2  1  0.15497437  0.32009476  0.40754812  1
  Li  Li1  1  0.67537641  0.15828378  0.51116330  1
  Li  Li1  1  0.82462359  0.34171622  0.01116330  1
  Li  Li1  1  0.67537641  0.84171622  0.01116330  1
  Li  Li1  1  0.82462359  0.65828378  0.51116330  1
  Ge  Ge1  1  0.50000000  0.32008834  0.00236146  1
  Ge  Ge1  1  0.50000000  0.67991166  0.50236146  1
  O  O1  1  0.50000000  0.36127620  0.37831670  1
  O  O2  1  0.84502563  0.67990524  0.90754812  1
  O  O2  1  0.65497437  0.17990524  0.90754812  1
  O  O1  1  0.50000000  0.63872380  0.87831670  1
  O  O2  1  0.84502563  0.32009476  0.40754812  1
  O  O2  1  0.65497437  0.82009476  0.40754812  1
