# generated using pymatgen
data_Li2HgO2
_symmetry_space_group_name_H-M   'P 1'
_cell_length_a   3.02865685
_cell_length_b   3.02865685
_cell_length_c   12.59668798
_cell_angle_alpha   90.00000000
_cell_angle_beta   90.00000000
_cell_angle_gamma   90.00000000
_symmetry_Int_Tables_number   1
_chemical_formula_structural   Li2HgO2
_chemical_formula_sum   'Li4 Hg2 O4'
_cell_volume   115.54642463
_cell_formula_units_Z   2
loop_
 _symmetry_equiv_pos_site_id
 _symmetry_equiv_pos_as_xyz
  1  'x, y, z'
loop_
 _atom_site_type_symbol
 _atom_site_label
 _atom_site_symmetry_multiplicity
 _atom_site_fract_x
 _atom_site_fract_y
 _atom_site_fract_z
 _atom_site_occupancy
  Li  Li1  1  0.50000000  0.50000000  0.81264521  1
  Li  Li1  1  0.00000000  0.00000000  0.68735479  1
  Hg  Hg1  1  0.00000000  0.00000000  0.00000000  1
  O  O1  1  0.50000000  0.50000000  0.65846637  1
  O  O1  1  0.00000000  0.00000000  0.84153363  1
  Li  Li1  1  0.00000000  0.00000000  0.31264521  1
  Li  Li1  1  0.50000000  0.50000000  0.18735479  1
  Hg  Hg1  1  0.50000000  0.50000000  0.50000000  1
  O  O1  1  0.00000000  0.00000000  0.15846637  1
  O  O1  1  0.50000000  0.50000000  0.34153363  1
