# generated using pymatgen
data_Li2HfO3
_symmetry_space_group_name_H-M   'P 1'
_cell_length_a   5.33430306
_cell_length_b   8.94816755
_cell_length_c   5.32951972
_cell_angle_alpha   90.00000000
_cell_angle_beta   112.03912087
_cell_angle_gamma   90.00000000
_symmetry_Int_Tables_number   1
_chemical_formula_structural   Li2HfO3
_chemical_formula_sum   'Li8 Hf4 O12'
_cell_volume   235.80108735
_cell_formula_units_Z   4
loop_
 _symmetry_equiv_pos_site_id
 _symmetry_equiv_pos_as_xyz
  1  'x, y, z'
loop_
 _atom_site_type_symbol
 _atom_site_label
 _atom_site_symmetry_multiplicity
 _atom_site_fract_x
 _atom_site_fract_y
 _atom_site_fract_z
 _atom_site_occupancy
  Li  Li1  1  0.50000000  0.42374726  0.25000000  1
  Li  Li2  1  0.50000000  0.74191198  0.25000000  1
  Li  Li1  1  0.50000000  0.57625274  0.75000000  1
  Li  Li2  1  0.50000000  0.25808802  0.75000000  1
  Hf  Hf1  1  0.50000000  0.09079148  0.25000000  1
  Hf  Hf1  1  0.50000000  0.90920852  0.75000000  1
  O  O1  1  0.27006638  0.92432304  0.98805671  1
  O  O1  1  0.27006638  0.07567696  0.48805671  1
  O  O2  1  0.75000000  0.75000000  0.00000000  1
  O  O1  1  0.72993362  0.07567696  0.01194329  1
  O  O2  1  0.75000000  0.25000000  0.50000000  1
  O  O1  1  0.72993362  0.92432304  0.51194329  1
  Li  Li1  1  0.00000000  0.92374726  0.25000000  1
  Li  Li2  1  0.00000000  0.24191198  0.25000000  1
  Li  Li1  1  0.00000000  0.07625274  0.75000000  1
  Li  Li2  1  0.00000000  0.75808802  0.75000000  1
  Hf  Hf1  1  0.00000000  0.59079148  0.25000000  1
  Hf  Hf1  1  0.00000000  0.40920852  0.75000000  1
  O  O1  1  0.77006638  0.42432304  0.98805671  1
  O  O1  1  0.77006638  0.57567696  0.48805671  1
  O  O2  1  0.25000000  0.25000000  0.00000000  1
  O  O1  1  0.22993362  0.57567696  0.01194329  1
  O  O2  1  0.25000000  0.75000000  0.50000000  1
  O  O1  1  0.22993362  0.42432304  0.51194329  1
