# generated using pymatgen
data_Li2PdO3
_symmetry_space_group_name_H-M   'P 1'
_cell_length_a   5.11126042
_cell_length_b   8.83895166
_cell_length_c   5.06339278
_cell_angle_alpha   90.00000000
_cell_angle_beta   109.69392539
_cell_angle_gamma   90.00000000
_symmetry_Int_Tables_number   1
_chemical_formula_structural   Li2PdO3
_chemical_formula_sum   'Li8 Pd4 O12'
_cell_volume   215.37416485
_cell_formula_units_Z   4
loop_
 _symmetry_equiv_pos_site_id
 _symmetry_equiv_pos_as_xyz
  1  'x, y, z'
loop_
 _atom_site_type_symbol
 _atom_site_label
 _atom_site_symmetry_multiplicity
 _atom_site_fract_x
 _atom_site_fract_y
 _atom_site_fract_z
 _atom_site_occupancy
  Li  Li1  1  0.50000000  0.00000000  0.50000000  1
  Li  Li2  1  0.50000000  0.33611867  0.50000000  1
  Li  Li2  1  0.50000000  0.66388133  0.50000000  1
  Li  Li3  1  0.00000000  0.00000000  0.00000000  1
  Pd  Pd1  1  0.50000000  0.16668918  0.00000000  1
  Pd  Pd1  1  0.50000000  0.83331082  0.00000000  1
  O  O1  1  0.26926018  0.00000000  0.76408550  1
  O  O2  1  0.25159782  0.17405891  0.23322954  1
  O  O2  1  0.25159782  0.82594109  0.23322954  1
  O  O2  1  0.74840218  0.82594109  0.76677046  1
  O  O2  1  0.74840218  0.17405891  0.76677046  1
  O  O1  1  0.73073982  0.00000000  0.23591450  1
  Li  Li1  1  0.00000000  0.50000000  0.50000000  1
  Li  Li2  1  0.00000000  0.83611867  0.50000000  1
  Li  Li2  1  0.00000000  0.16388133  0.50000000  1
  Li  Li3  1  0.50000000  0.50000000  0.00000000  1
  Pd  Pd1  1  0.00000000  0.66668918  0.00000000  1
  Pd  Pd1  1  0.00000000  0.33331082  0.00000000  1
  O  O1  1  0.76926018  0.50000000  0.76408550  1
  O  O2  1  0.75159782  0.67405891  0.23322954  1
  O  O2  1  0.75159782  0.32594109  0.23322954  1
  O  O2  1  0.24840218  0.32594109  0.76677046  1
  O  O2  1  0.24840218  0.67405891  0.76677046  1
  O  O1  1  0.23073982  0.50000000  0.23591450  1
