# generated using pymatgen
data_Li2PdO2
_symmetry_space_group_name_H-M   'P 1'
_cell_length_a   2.98902278
_cell_length_b   3.77990089
_cell_length_c   9.08666878
_cell_angle_alpha   90.00000000
_cell_angle_beta   90.00000000
_cell_angle_gamma   90.00000000
_symmetry_Int_Tables_number   1
_chemical_formula_structural   Li2PdO2
_chemical_formula_sum   'Li4 Pd2 O4'
_cell_volume   102.66309088
_cell_formula_units_Z   2
loop_
 _symmetry_equiv_pos_site_id
 _symmetry_equiv_pos_as_xyz
  1  'x, y, z'
loop_
 _atom_site_type_symbol
 _atom_site_label
 _atom_site_symmetry_multiplicity
 _atom_site_fract_x
 _atom_site_fract_y
 _atom_site_fract_z
 _atom_site_occupancy
  Li  Li1  1  0.50000000  0.50000000  0.19604841  1
  Li  Li1  1  0.00000000  0.00000000  0.30395159  1
  Pd  Pd1  1  0.00000000  0.00000000  0.00000000  1
  O  O1  1  0.50000000  0.00000000  0.15059324  1
  O  O1  1  0.00000000  0.50000000  0.34940676  1
  Li  Li1  1  0.00000000  0.00000000  0.69604841  1
  Li  Li1  1  0.50000000  0.50000000  0.80395159  1
  Pd  Pd1  1  0.50000000  0.50000000  0.50000000  1
  O  O1  1  0.00000000  0.50000000  0.65059324  1
  O  O1  1  0.50000000  0.00000000  0.84940676  1
