# generated using pymatgen
data_Li2Si2O5
_symmetry_space_group_name_H-M   'P 1'
_cell_length_a   5.83706081
_cell_length_b   14.69618347
_cell_length_c   4.79616822
_cell_angle_alpha   90.00000000
_cell_angle_beta   90.00000000
_cell_angle_gamma   90.00000000
_symmetry_Int_Tables_number   1
_chemical_formula_structural   Li2Si2O5
_chemical_formula_sum   'Li8 Si8 O20'
_cell_volume   411.42737995
_cell_formula_units_Z   4
loop_
 _symmetry_equiv_pos_site_id
 _symmetry_equiv_pos_as_xyz
  1  'x, y, z'
loop_
 _atom_site_type_symbol
 _atom_site_label
 _atom_site_symmetry_multiplicity
 _atom_site_fract_x
 _atom_site_fract_y
 _atom_site_fract_z
 _atom_site_occupancy
  Li  Li1  1  0.65215615  0.55745041  0.59595598  1
  Li  Li1  1  0.15215615  0.94254959  0.09595598  1
  Li  Li1  1  0.34784385  0.55745041  0.09595598  1
  Li  Li1  1  0.84784385  0.94254959  0.59595598  1
  Si  Si1  1  0.84402429  0.64778320  0.09370409  1
  Si  Si1  1  0.65597571  0.85221680  0.09370409  1
  Si  Si1  1  0.15597571  0.64778320  0.59370409  1
  Si  Si1  1  0.34402429  0.85221680  0.59370409  1
  O  O1  1  0.33187707  0.57102201  0.49900179  1
  O  O1  1  0.83187707  0.92897799  0.99900179  1
  O  O2  1  0.25000000  0.75000000  0.53543694  1
  O  O1  1  0.16812293  0.92897799  0.49900179  1
  O  O2  1  0.75000000  0.75000000  0.03543694  1
  O  O3  1  0.40557987  0.86280374  0.93016418  1
  O  O3  1  0.90557987  0.63719626  0.43016418  1
  O  O3  1  0.59442013  0.86280374  0.43016418  1
  O  O3  1  0.09442013  0.63719626  0.93016418  1
  O  O1  1  0.66812293  0.57102201  0.99900179  1
  Li  Li1  1  0.15215615  0.05745041  0.59595598  1
  Li  Li1  1  0.65215615  0.44254959  0.09595598  1
  Li  Li1  1  0.84784385  0.05745041  0.09595598  1
  Li  Li1  1  0.34784385  0.44254959  0.59595598  1
  Si  Si1  1  0.34402429  0.14778320  0.09370409  1
  Si  Si1  1  0.15597571  0.35221680  0.09370409  1
  Si  Si1  1  0.65597571  0.14778320  0.59370409  1
  Si  Si1  1  0.84402429  0.35221680  0.59370409  1
  O  O1  1  0.83187707  0.07102201  0.49900179  1
  O  O1  1  0.33187707  0.42897799  0.99900179  1
  O  O2  1  0.75000000  0.25000000  0.53543694  1
  O  O1  1  0.66812293  0.42897799  0.49900179  1
  O  O2  1  0.25000000  0.25000000  0.03543694  1
  O  O3  1  0.90557987  0.36280374  0.93016418  1
  O  O3  1  0.40557987  0.13719626  0.43016418  1
  O  O3  1  0.09442013  0.36280374  0.43016418  1
  O  O3  1  0.59442013  0.13719626  0.93016418  1
  O  O1  1  0.16812293  0.07102201  0.99900179  1
