# generated using pymatgen
data_Li2SnO3
_symmetry_space_group_name_H-M   'P 1'
_cell_length_a   5.29946977
_cell_length_b   9.20275909
_cell_length_c   10.00895608
_cell_angle_alpha   90.00000000
_cell_angle_beta   100.31645332
_cell_angle_gamma   90.00000000
_symmetry_Int_Tables_number   1
_chemical_formula_structural   Li2SnO3
_chemical_formula_sum   'Li16 Sn8 O24'
_cell_volume   480.24287341
_cell_formula_units_Z   8
loop_
 _symmetry_equiv_pos_site_id
 _symmetry_equiv_pos_as_xyz
  1  'x, y, z'
loop_
 _atom_site_type_symbol
 _atom_site_label
 _atom_site_symmetry_multiplicity
 _atom_site_fract_x
 _atom_site_fract_y
 _atom_site_fract_z
 _atom_site_occupancy
  Li  Li1  1  0.26379168  0.42191148  0.00081034  1
  Li  Li1  1  0.73620832  0.42191148  0.49918966  1
  Li  Li1  1  0.23620832  0.07808852  0.99918966  1
  Li  Li1  1  0.76379168  0.07808852  0.50081034  1
  Li  Li2  1  0.25000000  0.25000000  0.50000000  1
  Li  Li2  1  0.75000000  0.25000000  0.00000000  1
  Li  Li3  1  0.50000000  0.41497449  0.75000000  1
  Li  Li3  1  0.00000000  0.08502551  0.25000000  1
  Sn  Sn1  1  0.00000000  0.41714468  0.25000000  1
  Sn  Sn2  1  0.50000000  0.24969851  0.25000000  1
  Sn  Sn2  1  0.00000000  0.25030149  0.75000000  1
  Sn  Sn1  1  0.50000000  0.08285532  0.75000000  1
  O  O1  1  0.36610896  0.40813084  0.37026745  1
  O  O2  1  0.36466486  0.24095491  0.86792109  1
  O  O1  1  0.63389104  0.40813084  0.12973255  1
  O  O1  1  0.13389104  0.09186916  0.62973255  1
  O  O3  1  0.88850782  0.41680678  0.86791355  1
  O  O2  1  0.63533514  0.24095491  0.63207891  1
  O  O2  1  0.13533514  0.25904509  0.13207891  1
  O  O2  1  0.86466486  0.25904509  0.36792109  1
  O  O3  1  0.38850782  0.08319322  0.36791355  1
  O  O3  1  0.11149218  0.41680678  0.63208645  1
  O  O3  1  0.61149218  0.08319322  0.13208645  1
  O  O1  1  0.86610896  0.09186916  0.87026745  1
  Li  Li1  1  0.76379168  0.92191148  0.00081034  1
  Li  Li1  1  0.23620832  0.92191148  0.49918966  1
  Li  Li1  1  0.73620832  0.57808852  0.99918966  1
  Li  Li1  1  0.26379168  0.57808852  0.50081034  1
  Li  Li2  1  0.75000000  0.75000000  0.50000000  1
  Li  Li2  1  0.25000000  0.75000000  0.00000000  1
  Li  Li3  1  0.00000000  0.91497449  0.75000000  1
  Li  Li3  1  0.50000000  0.58502551  0.25000000  1
  Sn  Sn1  1  0.50000000  0.91714468  0.25000000  1
  Sn  Sn2  1  0.00000000  0.74969851  0.25000000  1
  Sn  Sn2  1  0.50000000  0.75030149  0.75000000  1
  Sn  Sn1  1  0.00000000  0.58285532  0.75000000  1
  O  O1  1  0.86610896  0.90813084  0.37026745  1
  O  O2  1  0.86466486  0.74095491  0.86792109  1
  O  O1  1  0.13389104  0.90813084  0.12973255  1
  O  O1  1  0.63389104  0.59186916  0.62973255  1
  O  O3  1  0.38850782  0.91680678  0.86791355  1
  O  O2  1  0.13533514  0.74095491  0.63207891  1
  O  O2  1  0.63533514  0.75904509  0.13207891  1
  O  O2  1  0.36466486  0.75904509  0.36792109  1
  O  O3  1  0.88850782  0.58319322  0.36791355  1
  O  O3  1  0.61149218  0.91680678  0.63208645  1
  O  O3  1  0.11149218  0.58319322  0.13208645  1
  O  O1  1  0.36610896  0.59186916  0.87026745  1
