# generated using pymatgen
data_Li2WO4
_symmetry_space_group_name_H-M   'P 1'
_cell_length_a   9.77351396
_cell_length_b   5.92399983
_cell_length_c   4.99901150
_cell_angle_alpha   90.00000000
_cell_angle_beta   91.25784525
_cell_angle_gamma   90.00000000
_symmetry_Int_Tables_number   1
_chemical_formula_structural   Li2WO4
_chemical_formula_sum   'Li8 W4 O16'
_cell_volume   289.36449767
_cell_formula_units_Z   4
loop_
 _symmetry_equiv_pos_site_id
 _symmetry_equiv_pos_as_xyz
  1  'x, y, z'
loop_
 _atom_site_type_symbol
 _atom_site_label
 _atom_site_symmetry_multiplicity
 _atom_site_fract_x
 _atom_site_fract_y
 _atom_site_fract_z
 _atom_site_occupancy
  Li  Li1  1  0.80199321  0.35088210  0.24065520  1
  Li  Li1  1  0.19800679  0.35088210  0.25934480  1
  Li  Li1  1  0.19800679  0.64911790  0.75934480  1
  Li  Li1  1  0.80199321  0.64911790  0.74065520  1
  W  W1  1  0.00000000  0.82985760  0.25000000  1
  W  W1  1  0.00000000  0.17014240  0.75000000  1
  O  O1  1  0.12878165  0.35749674  0.62494134  1
  O  O1  1  0.12878165  0.64250326  0.12494134  1
  O  O2  1  0.60665895  0.60008374  0.06576846  1
  O  O2  1  0.39334105  0.60008374  0.43423154  1
  O  O2  1  0.39334105  0.39991626  0.93423154  1
  O  O2  1  0.60665895  0.39991626  0.56576846  1
  O  O1  1  0.87121835  0.64250326  0.37505866  1
  O  O1  1  0.87121835  0.35749674  0.87505866  1
  Li  Li1  1  0.30199321  0.85088210  0.24065520  1
  Li  Li1  1  0.69800679  0.85088210  0.25934480  1
  Li  Li1  1  0.69800679  0.14911790  0.75934480  1
  Li  Li1  1  0.30199321  0.14911790  0.74065520  1
  W  W1  1  0.50000000  0.32985760  0.25000000  1
  W  W1  1  0.50000000  0.67014240  0.75000000  1
  O  O1  1  0.62878165  0.85749674  0.62494134  1
  O  O1  1  0.62878165  0.14250326  0.12494134  1
  O  O2  1  0.10665895  0.10008374  0.06576846  1
  O  O2  1  0.89334105  0.10008374  0.43423154  1
  O  O2  1  0.89334105  0.89991626  0.93423154  1
  O  O2  1  0.10665895  0.89991626  0.56576846  1
  O  O1  1  0.37121835  0.14250326  0.37505866  1
  O  O1  1  0.37121835  0.85749674  0.87505866  1
