# generated using pymatgen
data_Li2ZrO3
_symmetry_space_group_name_H-M   'P 1'
_cell_length_a   5.34227248
_cell_length_b   9.02225383
_cell_length_c   5.37160814
_cell_angle_alpha   90.00000000
_cell_angle_beta   111.73704413
_cell_angle_gamma   90.00000000
_symmetry_Int_Tables_number   1
_chemical_formula_structural   Li2ZrO3
_chemical_formula_sum   'Li8 Zr4 O12'
_cell_volume   240.49787285
_cell_formula_units_Z   4
loop_
 _symmetry_equiv_pos_site_id
 _symmetry_equiv_pos_as_xyz
  1  'x, y, z'
loop_
 _atom_site_type_symbol
 _atom_site_label
 _atom_site_symmetry_multiplicity
 _atom_site_fract_x
 _atom_site_fract_y
 _atom_site_fract_z
 _atom_site_occupancy
  Li  Li1  1  0.50000000  0.24262206  0.25000000  1
  Li  Li1  1  0.50000000  0.75737794  0.75000000  1
  Li  Li2  1  0.50000000  0.92422404  0.25000000  1
  Li  Li2  1  0.50000000  0.07577596  0.75000000  1
  Zr  Zr1  1  0.50000000  0.59119832  0.25000000  1
  Zr  Zr1  1  0.50000000  0.40880168  0.75000000  1
  O  O1  1  0.75000000  0.75000000  0.50000000  1
  O  O2  1  0.23116756  0.92421412  0.51094328  1
  O  O2  1  0.23116756  0.07578588  0.01094328  1
  O  O2  1  0.76883244  0.07578588  0.48905672  1
  O  O2  1  0.76883244  0.92421412  0.98905672  1
  O  O1  1  0.75000000  0.25000000  0.00000000  1
  Li  Li1  1  0.00000000  0.74262206  0.25000000  1
  Li  Li1  1  0.00000000  0.25737794  0.75000000  1
  Li  Li2  1  0.00000000  0.42422404  0.25000000  1
  Li  Li2  1  0.00000000  0.57577596  0.75000000  1
  Zr  Zr1  1  0.00000000  0.09119832  0.25000000  1
  Zr  Zr1  1  0.00000000  0.90880168  0.75000000  1
  O  O1  1  0.25000000  0.25000000  0.50000000  1
  O  O2  1  0.73116756  0.42421412  0.51094328  1
  O  O2  1  0.73116756  0.57578588  0.01094328  1
  O  O2  1  0.26883244  0.57578588  0.48905672  1
  O  O2  1  0.26883244  0.42421412  0.98905672  1
  O  O1  1  0.25000000  0.75000000  0.00000000  1
