# generated using pymatgen
data_Li2ZnGeO4
_symmetry_space_group_name_H-M   'P 1'
_cell_length_a   5.02509460
_cell_length_b   5.40984363
_cell_length_c   8.08996336
_cell_angle_alpha   90.00000000
_cell_angle_beta   128.23607214
_cell_angle_gamma   90.00000000
_symmetry_Int_Tables_number   1
_chemical_formula_structural   Li2ZnGeO4
_chemical_formula_sum   'Li4 Zn2 Ge2 O8'
_cell_volume   172.74427930
_cell_formula_units_Z   2
loop_
 _symmetry_equiv_pos_site_id
 _symmetry_equiv_pos_as_xyz
  1  'x, y, z'
loop_
 _atom_site_type_symbol
 _atom_site_label
 _atom_site_symmetry_multiplicity
 _atom_site_fract_x
 _atom_site_fract_y
 _atom_site_fract_z
 _atom_site_occupancy
  Li  Li1  1  0.50193568  0.83358001  0.99996134  1
  Li  Li2  1  0.75334231  0.66952963  0.75154854  1
  Li  Li2  1  0.75334231  0.33047037  0.25154854  1
  Li  Li1  1  0.50193568  0.16641999  0.49996134  1
  Zn  Zn1  1  0.24814065  0.66750380  0.24818362  1
  Zn  Zn1  1  0.24814065  0.33249620  0.74818362  1
  Ge  Ge1  1  0.99696181  0.83105421  0.50065128  1
  Ge  Ge1  1  0.99696181  0.16894579  0.00065128  1
  O  O1  1  0.63594100  0.17736606  0.99650538  1
  O  O2  1  0.88378407  0.67866154  0.26828700  1
  O  O1  1  0.63594100  0.82263394  0.49650538  1
  O  O2  1  0.88378407  0.32133846  0.76828700  1
  O  O3  1  0.11295769  0.14493870  0.50426284  1
  O  O3  1  0.11295769  0.85506130  0.00426284  1
  O  O4  1  0.34093675  0.67183997  0.73160098  1
  O  O4  1  0.34093675  0.32816003  0.23160098  1
