# generated using pymatgen
data_Li3AuO3
_symmetry_space_group_name_H-M   'P 1'
_cell_length_a   9.06824879
_cell_length_b   9.06824879
_cell_length_c   3.60315402
_cell_angle_alpha   90.00000000
_cell_angle_beta   90.00000000
_cell_angle_gamma   90.00000000
_symmetry_Int_Tables_number   1
_chemical_formula_structural   Li3AuO3
_chemical_formula_sum   'Li12 Au4 O12'
_cell_volume   296.29865538
_cell_formula_units_Z   4
loop_
 _symmetry_equiv_pos_site_id
 _symmetry_equiv_pos_as_xyz
  1  'x, y, z'
loop_
 _atom_site_type_symbol
 _atom_site_label
 _atom_site_symmetry_multiplicity
 _atom_site_fract_x
 _atom_site_fract_y
 _atom_site_fract_z
 _atom_site_occupancy
  Li  Li1  1  0.09395927  0.36150039  0.50000000  1
  Li  Li1  1  0.86150039  0.40604073  0.00000000  1
  Li  Li1  1  0.13849961  0.59395927  0.00000000  1
  Li  Li1  1  0.90604073  0.63849961  0.50000000  1
  Li  Li1  1  0.59395927  0.13849961  0.00000000  1
  Li  Li1  1  0.40604073  0.86150039  0.00000000  1
  Li  Li1  1  0.63849961  0.90604073  0.50000000  1
  Li  Li1  1  0.36150039  0.09395927  0.50000000  1
  Li  Li2  1  0.66515397  0.33484603  0.50000000  1
  Li  Li2  1  0.83484603  0.83484603  0.00000000  1
  Li  Li2  1  0.16515397  0.16515397  0.00000000  1
  Li  Li2  1  0.33484603  0.66515397  0.50000000  1
  Au  Au1  1  0.11842495  0.88157505  0.50000000  1
  Au  Au1  1  0.61842495  0.61842495  0.00000000  1
  Au  Au1  1  0.88157505  0.11842495  0.50000000  1
  Au  Au1  1  0.38157505  0.38157505  0.00000000  1
  O  O1  1  0.60667496  0.39332504  0.00000000  1
  O  O1  1  0.39332504  0.60667496  0.00000000  1
  O  O1  1  0.10667496  0.10667496  0.50000000  1
  O  O1  1  0.89332504  0.89332504  0.50000000  1
  O  O2  1  0.66243593  0.11911573  0.50000000  1
  O  O2  1  0.61911573  0.83756407  0.00000000  1
  O  O2  1  0.38088427  0.16243593  0.00000000  1
  O  O2  1  0.33756407  0.88088427  0.50000000  1
  O  O2  1  0.16243593  0.38088427  0.00000000  1
  O  O2  1  0.83756407  0.61911573  0.00000000  1
  O  O2  1  0.88088427  0.33756407  0.50000000  1
  O  O2  1  0.11911573  0.66243593  0.50000000  1
