# generated using pymatgen
data_Li3BO3
_symmetry_space_group_name_H-M   'P 1'
_cell_length_a   3.24612515
_cell_length_b   9.18014049
_cell_length_c   8.29711268
_cell_angle_alpha   90.00000000
_cell_angle_beta   100.94664589
_cell_angle_gamma   90.00000000
_symmetry_Int_Tables_number   1
_chemical_formula_structural   Li3BO3
_chemical_formula_sum   'Li12 B4 O12'
_cell_volume   242.75409624
_cell_formula_units_Z   4
loop_
 _symmetry_equiv_pos_site_id
 _symmetry_equiv_pos_as_xyz
  1  'x, y, z'
loop_
 _atom_site_type_symbol
 _atom_site_label
 _atom_site_symmetry_multiplicity
 _atom_site_fract_x
 _atom_site_fract_y
 _atom_site_fract_z
 _atom_site_occupancy
  Li  Li1  1  0.49446165  0.26680503  0.51872520  1
  Li  Li1  1  0.50553835  0.76680503  0.98127480  1
  Li  Li1  1  0.50553835  0.73319497  0.48127480  1
  Li  Li1  1  0.49446165  0.23319497  0.01872520  1
  Li  Li2  1  0.27619142  0.02304264  0.61281211  1
  Li  Li2  1  0.72380858  0.52304264  0.88718789  1
  Li  Li2  1  0.72380858  0.97695736  0.38718789  1
  Li  Li2  1  0.27619142  0.47695736  0.11281211  1
  Li  Li3  1  0.90865886  0.07351756  0.86778836  1
  Li  Li3  1  0.09134114  0.57351756  0.63221164  1
  Li  Li3  1  0.09134114  0.92648244  0.13221164  1
  Li  Li3  1  0.90865886  0.42648244  0.36778836  1
  B  B1  1  0.19863874  0.31414050  0.75473962  1
  B  B1  1  0.80136126  0.81414050  0.74526038  1
  B  B1  1  0.80136126  0.68585950  0.24526038  1
  B  B1  1  0.19863874  0.18585950  0.25473962  1
  O  O1  1  0.02835557  0.36303766  0.59884553  1
  O  O1  1  0.97164443  0.86303766  0.90115447  1
  O  O1  1  0.97164443  0.63696234  0.40115447  1
  O  O1  1  0.02835557  0.13696234  0.09884553  1
  O  O2  1  0.22727184  0.40652437  0.88914239  1
  O  O2  1  0.77272816  0.90652437  0.61085761  1
  O  O2  1  0.77272816  0.59347563  0.11085761  1
  O  O2  1  0.22727184  0.09347563  0.38914239  1
  O  O3  1  0.36597949  0.17379861  0.77883719  1
  O  O3  1  0.63402051  0.67379861  0.72116281  1
  O  O3  1  0.63402051  0.82620139  0.22116281  1
  O  O3  1  0.36597949  0.32620139  0.27883719  1
