# generated using pymatgen
data_Li3BiO4
_symmetry_space_group_name_H-M   'P 1'
_cell_length_a   5.20637452
_cell_length_b   6.29067555
_cell_length_c   5.29959068
_cell_angle_alpha   90.00000000
_cell_angle_beta   107.87397829
_cell_angle_gamma   90.00000000
_symmetry_Int_Tables_number   1
_chemical_formula_structural   Li3BiO4
_chemical_formula_sum   'Li6 Bi2 O8'
_cell_volume   165.19258793
_cell_formula_units_Z   2
loop_
 _symmetry_equiv_pos_site_id
 _symmetry_equiv_pos_as_xyz
  1  'x, y, z'
loop_
 _atom_site_type_symbol
 _atom_site_label
 _atom_site_symmetry_multiplicity
 _atom_site_fract_x
 _atom_site_fract_y
 _atom_site_fract_z
 _atom_site_occupancy
  Li  Li1  1  0.00000000  0.61235790  0.75000000  1
  Li  Li1  1  0.00000000  0.38764210  0.25000000  1
  Li  Li2  1  0.50000000  0.84517922  0.75000000  1
  Li  Li3  1  0.50000000  0.42928624  0.75000000  1
  Li  Li3  1  0.50000000  0.57071376  0.25000000  1
  Li  Li2  1  0.50000000  0.15482078  0.25000000  1
  Bi  Bi1  1  0.00000000  0.14914406  0.75000000  1
  Bi  Bi1  1  0.00000000  0.85085594  0.25000000  1
  O  O1  1  0.74802374  0.37367874  0.51452162  1
  O  O2  1  0.76257582  0.10712656  0.01334786  1
  O  O1  1  0.74802374  0.62632126  0.01452162  1
  O  O2  1  0.76257582  0.89287344  0.51334786  1
  O  O1  1  0.25197626  0.37367874  0.98547838  1
  O  O2  1  0.23742418  0.89287344  0.98665214  1
  O  O1  1  0.25197626  0.62632126  0.48547838  1
  O  O2  1  0.23742418  0.10712656  0.48665214  1
