# generated using pymatgen
data_Li3CuO3
_symmetry_space_group_name_H-M   'P 1'
_cell_length_a   8.61938802
_cell_length_b   8.61938802
_cell_length_c   3.59706780
_cell_angle_alpha   90.00000000
_cell_angle_beta   90.00000000
_cell_angle_gamma   90.00000000
_symmetry_Int_Tables_number   1
_chemical_formula_structural   Li3CuO3
_chemical_formula_sum   'Li12 Cu4 O12'
_cell_volume   267.24001487
_cell_formula_units_Z   4
loop_
 _symmetry_equiv_pos_site_id
 _symmetry_equiv_pos_as_xyz
  1  'x, y, z'
loop_
 _atom_site_type_symbol
 _atom_site_label
 _atom_site_symmetry_multiplicity
 _atom_site_fract_x
 _atom_site_fract_y
 _atom_site_fract_z
 _atom_site_occupancy
  Li  Li1  1  0.16548841  0.16548841  0.00000000  1
  Li  Li1  1  0.33451159  0.66548841  0.50000000  1
  Li  Li1  1  0.83451159  0.83451159  0.00000000  1
  Li  Li1  1  0.66548841  0.33451159  0.50000000  1
  Li  Li2  1  0.10536273  0.36185619  0.50000000  1
  Li  Li2  1  0.86185619  0.39463727  0.00000000  1
  Li  Li2  1  0.13814381  0.60536273  0.00000000  1
  Li  Li2  1  0.89463727  0.63814381  0.50000000  1
  Li  Li2  1  0.60536273  0.13814381  0.00000000  1
  Li  Li2  1  0.39463727  0.86185619  0.00000000  1
  Li  Li2  1  0.63814381  0.89463727  0.50000000  1
  Li  Li2  1  0.36185619  0.10536273  0.50000000  1
  Cu  Cu1  1  0.11315877  0.88684123  0.50000000  1
  Cu  Cu1  1  0.38684123  0.38684123  0.00000000  1
  Cu  Cu1  1  0.61315877  0.61315877  0.00000000  1
  Cu  Cu1  1  0.88684123  0.11315877  0.50000000  1
  O  O1  1  0.89882941  0.89882941  0.50000000  1
  O  O1  1  0.39882941  0.60117059  0.00000000  1
  O  O1  1  0.10117059  0.10117059  0.50000000  1
  O  O1  1  0.60117059  0.39882941  0.00000000  1
  O  O2  1  0.67761571  0.11180967  0.50000000  1
  O  O2  1  0.61180967  0.82238429  0.00000000  1
  O  O2  1  0.38819033  0.17761571  0.00000000  1
  O  O2  1  0.32238429  0.88819033  0.50000000  1
  O  O2  1  0.17761571  0.38819033  0.00000000  1
  O  O2  1  0.82238429  0.61180967  0.00000000  1
  O  O2  1  0.88819033  0.32238429  0.50000000  1
  O  O2  1  0.11180967  0.67761571  0.50000000  1
