# generated using pymatgen
data_Li3SbO4
_symmetry_space_group_name_H-M   'P 1'
_cell_length_a   5.13042165
_cell_length_b   6.09330051
_cell_length_c   5.12926923
_cell_angle_alpha   90.00000000
_cell_angle_beta   108.59813500
_cell_angle_gamma   90.00000000
_symmetry_Int_Tables_number   1
_chemical_formula_structural   Li3SbO4
_chemical_formula_sum   'Li6 Sb2 O8'
_cell_volume   151.97359554
_cell_formula_units_Z   2
loop_
 _symmetry_equiv_pos_site_id
 _symmetry_equiv_pos_as_xyz
  1  'x, y, z'
loop_
 _atom_site_type_symbol
 _atom_site_label
 _atom_site_symmetry_multiplicity
 _atom_site_fract_x
 _atom_site_fract_y
 _atom_site_fract_z
 _atom_site_occupancy
  Li  Li1  1  0.50000000  0.57318359  0.25000000  1
  Li  Li1  1  0.50000000  0.42681641  0.75000000  1
  Li  Li2  1  0.00000000  0.38919087  0.25000000  1
  Li  Li2  1  0.00000000  0.61080913  0.75000000  1
  Li  Li3  1  0.50000000  0.85230041  0.75000000  1
  Li  Li3  1  0.50000000  0.14769959  0.25000000  1
  Sb  Sb1  1  0.00000000  0.85577374  0.25000000  1
  Sb  Sb1  1  0.00000000  0.14422626  0.75000000  1
  O  O1  1  0.77455768  0.89727522  0.50602261  1
  O  O2  1  0.75386138  0.36238941  0.52188706  1
  O  O2  1  0.75386138  0.63761059  0.02188706  1
  O  O2  1  0.24613862  0.63761059  0.47811294  1
  O  O1  1  0.22544232  0.10272478  0.49397739  1
  O  O1  1  0.77455768  0.10272478  0.00602261  1
  O  O2  1  0.24613862  0.36238941  0.97811294  1
  O  O1  1  0.22544232  0.89727522  0.99397739  1
