# generated using pymatgen
data_Li4Ca(BO3)2
_symmetry_space_group_name_H-M   'P 1'
_cell_length_a   8.03929925
_cell_length_b   9.23298712
_cell_length_c   3.46573191
_cell_angle_alpha   90.00000000
_cell_angle_beta   90.00000000
_cell_angle_gamma   90.00000000
_symmetry_Int_Tables_number   1
_chemical_formula_structural   Li4Ca(BO3)2
_chemical_formula_sum   'Li8 Ca2 B4 O12'
_cell_volume   257.25000343
_cell_formula_units_Z   2
loop_
 _symmetry_equiv_pos_site_id
 _symmetry_equiv_pos_as_xyz
  1  'x, y, z'
loop_
 _atom_site_type_symbol
 _atom_site_label
 _atom_site_symmetry_multiplicity
 _atom_site_fract_x
 _atom_site_fract_y
 _atom_site_fract_z
 _atom_site_occupancy
  Li  Li1  1  0.48672227  0.19868973  0.00000000  1
  Li  Li1  1  0.51327773  0.80131027  0.00000000  1
  Li  Li1  1  0.01327773  0.69868973  0.50000000  1
  Li  Li1  1  0.98672227  0.30131027  0.50000000  1
  Li  Li2  1  0.66852290  0.95063218  0.50000000  1
  Li  Li2  1  0.33147710  0.04936782  0.50000000  1
  Li  Li2  1  0.83147710  0.45063218  0.00000000  1
  Li  Li2  1  0.16852290  0.54936782  0.00000000  1
  Ca  Ca1  1  0.50000000  0.50000000  0.50000000  1
  Ca  Ca1  1  0.00000000  0.00000000  0.00000000  1
  B  B1  1  0.72735502  0.20863059  0.50000000  1
  B  B1  1  0.27264498  0.79136941  0.50000000  1
  B  B1  1  0.77264498  0.70863059  0.00000000  1
  B  B1  1  0.22735502  0.29136941  0.00000000  1
  O  O1  1  0.75160240  0.35773922  0.50000000  1
  O  O1  1  0.24839760  0.64226078  0.50000000  1
  O  O1  1  0.74839760  0.85773922  0.00000000  1
  O  O1  1  0.25160240  0.14226078  0.00000000  1
  O  O2  1  0.57030994  0.14803187  0.50000000  1
  O  O2  1  0.42969006  0.85196813  0.50000000  1
  O  O2  1  0.92969006  0.64803187  0.00000000  1
  O  O2  1  0.07030994  0.35196813  0.00000000  1
  O  O3  1  0.36597087  0.38225633  0.00000000  1
  O  O3  1  0.63402913  0.61774367  0.00000000  1
  O  O3  1  0.13402913  0.88225633  0.50000000  1
  O  O3  1  0.86597087  0.11774367  0.50000000  1
