# generated using pymatgen
data_Li4GeO4
_symmetry_space_group_name_H-M   'P 1'
_cell_length_a   7.82742029
_cell_length_b   7.34506231
_cell_length_c   6.07927511
_cell_angle_alpha   90.00000000
_cell_angle_beta   90.00000000
_cell_angle_gamma   90.00000000
_symmetry_Int_Tables_number   1
_chemical_formula_structural   Li4GeO4
_chemical_formula_sum   'Li16 Ge4 O16'
_cell_volume   349.51509413
_cell_formula_units_Z   4
loop_
 _symmetry_equiv_pos_site_id
 _symmetry_equiv_pos_as_xyz
  1  'x, y, z'
loop_
 _atom_site_type_symbol
 _atom_site_label
 _atom_site_symmetry_multiplicity
 _atom_site_fract_x
 _atom_site_fract_y
 _atom_site_fract_z
 _atom_site_occupancy
  Li  Li1  1  0.14777124  0.27260098  0.75000000  1
  Li  Li1  1  0.85222876  0.72739902  0.25000000  1
  Li  Li2  1  0.33912504  0.50000000  0.00000000  1
  Li  Li2  1  0.66087496  0.50000000  0.50000000  1
  Li  Li2  1  0.66087496  0.50000000  0.00000000  1
  Li  Li2  1  0.33912504  0.50000000  0.50000000  1
  Li  Li1  1  0.14777124  0.72739902  0.25000000  1
  Li  Li1  1  0.85222876  0.27260098  0.75000000  1
  Ge  Ge1  1  0.00000000  0.65964092  0.75000000  1
  Ge  Ge1  1  0.00000000  0.34035908  0.25000000  1
  O  O1  1  0.19720942  0.46415524  0.25000000  1
  O  O1  1  0.80279058  0.53584476  0.75000000  1
  O  O2  1  0.00000000  0.20351424  0.00400268  1
  O  O2  1  0.00000000  0.79648576  0.50400268  1
  O  O2  1  0.00000000  0.20351424  0.49599732  1
  O  O2  1  0.00000000  0.79648576  0.99599732  1
  O  O1  1  0.80279058  0.46415524  0.25000000  1
  O  O1  1  0.19720942  0.53584476  0.75000000  1
  Li  Li1  1  0.64777124  0.77260098  0.75000000  1
  Li  Li1  1  0.35222876  0.22739902  0.25000000  1
  Li  Li2  1  0.83912504  0.00000000  0.00000000  1
  Li  Li2  1  0.16087496  0.00000000  0.50000000  1
  Li  Li2  1  0.16087496  0.00000000  0.00000000  1
  Li  Li2  1  0.83912504  0.00000000  0.50000000  1
  Li  Li1  1  0.64777124  0.22739902  0.25000000  1
  Li  Li1  1  0.35222876  0.77260098  0.75000000  1
  Ge  Ge1  1  0.50000000  0.15964092  0.75000000  1
  Ge  Ge1  1  0.50000000  0.84035908  0.25000000  1
  O  O1  1  0.69720942  0.96415524  0.25000000  1
  O  O1  1  0.30279058  0.03584476  0.75000000  1
  O  O2  1  0.50000000  0.70351424  0.00400268  1
  O  O2  1  0.50000000  0.29648576  0.50400268  1
  O  O2  1  0.50000000  0.70351424  0.49599732  1
  O  O2  1  0.50000000  0.29648576  0.99599732  1
  O  O1  1  0.30279058  0.96415524  0.25000000  1
  O  O1  1  0.69720942  0.03584476  0.75000000  1
