# generated using pymatgen
data_Li4PbO4
_symmetry_space_group_name_H-M   'P 1'
_cell_length_a   8.37902365
_cell_length_b   7.18744576
_cell_length_c   6.57805170
_cell_angle_alpha   90.00000000
_cell_angle_beta   90.00000000
_cell_angle_gamma   90.00000000
_symmetry_Int_Tables_number   1
_chemical_formula_structural   Li4PbO4
_chemical_formula_sum   'Li16 Pb4 O16'
_cell_volume   396.15512476
_cell_formula_units_Z   4
loop_
 _symmetry_equiv_pos_site_id
 _symmetry_equiv_pos_as_xyz
  1  'x, y, z'
loop_
 _atom_site_type_symbol
 _atom_site_label
 _atom_site_symmetry_multiplicity
 _atom_site_fract_x
 _atom_site_fract_y
 _atom_site_fract_z
 _atom_site_occupancy
  Li  Li1  1  0.34612082  0.50000000  0.50000000  1
  Li  Li1  1  0.65387918  0.50000000  0.00000000  1
  Li  Li2  1  0.85301834  0.74244200  0.25000000  1
  Li  Li2  1  0.14698166  0.25755800  0.75000000  1
  Li  Li2  1  0.14698166  0.74244200  0.25000000  1
  Li  Li2  1  0.85301834  0.25755800  0.75000000  1
  Li  Li1  1  0.34612082  0.50000000  0.00000000  1
  Li  Li1  1  0.65387918  0.50000000  0.50000000  1
  Pb  Pb1  1  0.00000000  0.64208924  0.75000000  1
  Pb  Pb1  1  0.00000000  0.35791076  0.25000000  1
  O  O1  1  0.77344806  0.48529408  0.25000000  1
  O  O1  1  0.22655194  0.51470592  0.75000000  1
  O  O2  1  0.00000000  0.79288966  0.02371324  1
  O  O2  1  0.00000000  0.20711034  0.52371324  1
  O  O2  1  0.00000000  0.79288966  0.47628676  1
  O  O2  1  0.00000000  0.20711034  0.97628676  1
  O  O1  1  0.22655194  0.48529408  0.25000000  1
  O  O1  1  0.77344806  0.51470592  0.75000000  1
  Li  Li1  1  0.84612082  0.00000000  0.50000000  1
  Li  Li1  1  0.15387918  0.00000000  0.00000000  1
  Li  Li2  1  0.35301834  0.24244200  0.25000000  1
  Li  Li2  1  0.64698166  0.75755800  0.75000000  1
  Li  Li2  1  0.64698166  0.24244200  0.25000000  1
  Li  Li2  1  0.35301834  0.75755800  0.75000000  1
  Li  Li1  1  0.84612082  0.00000000  0.00000000  1
  Li  Li1  1  0.15387918  0.00000000  0.50000000  1
  Pb  Pb1  1  0.50000000  0.14208924  0.75000000  1
  Pb  Pb1  1  0.50000000  0.85791076  0.25000000  1
  O  O1  1  0.27344806  0.98529408  0.25000000  1
  O  O1  1  0.72655194  0.01470592  0.75000000  1
  O  O2  1  0.50000000  0.29288966  0.02371324  1
  O  O2  1  0.50000000  0.70711034  0.52371324  1
  O  O2  1  0.50000000  0.29288966  0.47628676  1
  O  O2  1  0.50000000  0.70711034  0.97628676  1
  O  O1  1  0.72655194  0.98529408  0.25000000  1
  O  O1  1  0.27344806  0.01470592  0.75000000  1
