# generated using pymatgen
data_Li4TiO4
_symmetry_space_group_name_H-M   'P 1'
_cell_length_a   7.92428829
_cell_length_b   7.39658626
_cell_length_c   6.13445360
_cell_angle_alpha   90.00000000
_cell_angle_beta   90.00000000
_cell_angle_gamma   90.00000000
_symmetry_Int_Tables_number   1
_chemical_formula_structural   Li4TiO4
_chemical_formula_sum   'Li16 Ti4 O16'
_cell_volume   359.55677745
_cell_formula_units_Z   4
loop_
 _symmetry_equiv_pos_site_id
 _symmetry_equiv_pos_as_xyz
  1  'x, y, z'
loop_
 _atom_site_type_symbol
 _atom_site_label
 _atom_site_symmetry_multiplicity
 _atom_site_fract_x
 _atom_site_fract_y
 _atom_site_fract_z
 _atom_site_occupancy
  Li  Li1  1  0.34116266  0.50000000  0.00000000  1
  Li  Li1  1  0.65883734  0.50000000  0.50000000  1
  Li  Li1  1  0.65883734  0.50000000  0.00000000  1
  Li  Li1  1  0.34116266  0.50000000  0.50000000  1
  Li  Li2  1  0.14646040  0.73047910  0.25000000  1
  Li  Li2  1  0.85353960  0.26952090  0.75000000  1
  Li  Li2  1  0.85353960  0.73047910  0.25000000  1
  Li  Li2  1  0.14646040  0.26952090  0.75000000  1
  Ti  Ti1  1  0.00000000  0.34131330  0.25000000  1
  Ti  Ti1  1  0.00000000  0.65868670  0.75000000  1
  O  O1  1  0.19935144  0.46940972  0.25000000  1
  O  O1  1  0.80064856  0.53059028  0.75000000  1
  O  O2  1  0.00000000  0.20249896  0.00000267  1
  O  O2  1  0.00000000  0.79750104  0.50000267  1
  O  O2  1  0.00000000  0.20249896  0.49999733  1
  O  O2  1  0.00000000  0.79750104  0.99999733  1
  O  O1  1  0.80064856  0.46940972  0.25000000  1
  O  O1  1  0.19935144  0.53059028  0.75000000  1
  Li  Li1  1  0.84116266  0.00000000  0.00000000  1
  Li  Li1  1  0.15883734  0.00000000  0.50000000  1
  Li  Li1  1  0.15883734  0.00000000  0.00000000  1
  Li  Li1  1  0.84116266  0.00000000  0.50000000  1
  Li  Li2  1  0.64646040  0.23047910  0.25000000  1
  Li  Li2  1  0.35353960  0.76952090  0.75000000  1
  Li  Li2  1  0.35353960  0.23047910  0.25000000  1
  Li  Li2  1  0.64646040  0.76952090  0.75000000  1
  Ti  Ti1  1  0.50000000  0.84131330  0.25000000  1
  Ti  Ti1  1  0.50000000  0.15868670  0.75000000  1
  O  O1  1  0.69935144  0.96940972  0.25000000  1
  O  O1  1  0.30064856  0.03059028  0.75000000  1
  O  O2  1  0.50000000  0.70249896  0.00000267  1
  O  O2  1  0.50000000  0.29750104  0.50000267  1
  O  O2  1  0.50000000  0.70249896  0.49999733  1
  O  O2  1  0.50000000  0.29750104  0.99999733  1
  O  O1  1  0.30064856  0.96940972  0.25000000  1
  O  O1  1  0.69935144  0.03059028  0.75000000  1
