# generated using pymatgen
data_Li5BiO5
_symmetry_space_group_name_H-M   'P 1'
_cell_length_a   9.85035923
_cell_length_b   4.23229690
_cell_length_c   5.97065872
_cell_angle_alpha   90.00000000
_cell_angle_beta   109.56327964
_cell_angle_gamma   90.00000000
_symmetry_Int_Tables_number   1
_chemical_formula_structural   Li5BiO5
_chemical_formula_sum   'Li10 Bi2 O10'
_cell_volume   234.54535878
_cell_formula_units_Z   2
loop_
 _symmetry_equiv_pos_site_id
 _symmetry_equiv_pos_as_xyz
  1  'x, y, z'
loop_
 _atom_site_type_symbol
 _atom_site_label
 _atom_site_symmetry_multiplicity
 _atom_site_fract_x
 _atom_site_fract_y
 _atom_site_fract_z
 _atom_site_occupancy
  Li  Li1  1  0.71007090  0.00000000  0.34162184  1
  Li  Li2  1  0.00000000  0.00000000  0.50000000  1
  Li  Li3  1  0.81171264  0.50000000  0.13991494  1
  Li  Li3  1  0.68828736  0.00000000  0.86008506  1
  Li  Li1  1  0.78992910  0.50000000  0.65837816  1
  Bi  Bi1  1  0.00000000  0.00000000  0.00000000  1
  O  O1  1  0.85004225  0.00000000  0.18000638  1
  O  O2  1  0.00000000  0.50000000  0.00000000  1
  O  O3  1  0.66596472  0.50000000  0.32793160  1
  O  O3  1  0.83403528  0.00000000  0.67206840  1
  O  O1  1  0.64995775  0.50000000  0.81999362  1
  Li  Li1  1  0.21007090  0.50000000  0.34162184  1
  Li  Li2  1  0.50000000  0.50000000  0.50000000  1
  Li  Li3  1  0.31171264  0.00000000  0.13991494  1
  Li  Li3  1  0.18828736  0.50000000  0.86008506  1
  Li  Li1  1  0.28992910  0.00000000  0.65837816  1
  Bi  Bi1  1  0.50000000  0.50000000  0.00000000  1
  O  O1  1  0.35004225  0.50000000  0.18000638  1
  O  O2  1  0.50000000  0.00000000  0.00000000  1
  O  O3  1  0.16596472  0.00000000  0.32793160  1
  O  O3  1  0.33403528  0.50000000  0.67206840  1
  O  O1  1  0.14995775  0.00000000  0.81999362  1
