# generated using pymatgen
data_Li5SbO5
_symmetry_space_group_name_H-M   'P 1'
_cell_length_a   9.69094071
_cell_length_b   4.03097433
_cell_length_c   5.81096282
_cell_angle_alpha   90.00000000
_cell_angle_beta   108.92860712
_cell_angle_gamma   90.00000000
_symmetry_Int_Tables_number   1
_chemical_formula_structural   Li5SbO5
_chemical_formula_sum   'Li10 Sb2 O10'
_cell_volume   214.72375165
_cell_formula_units_Z   2
loop_
 _symmetry_equiv_pos_site_id
 _symmetry_equiv_pos_as_xyz
  1  'x, y, z'
loop_
 _atom_site_type_symbol
 _atom_site_label
 _atom_site_symmetry_multiplicity
 _atom_site_fract_x
 _atom_site_fract_y
 _atom_site_fract_z
 _atom_site_occupancy
  Li  Li1  1  0.71143113  0.00000000  0.34283580  1
  Li  Li2  1  0.00000000  0.00000000  0.50000000  1
  Li  Li3  1  0.81154741  0.50000000  0.14020354  1
  Li  Li3  1  0.68845259  0.00000000  0.85979646  1
  Li  Li1  1  0.78856887  0.50000000  0.65716420  1
  Sb  Sb1  1  0.00000000  0.00000000  0.00000000  1
  O  O1  1  0.85499272  0.00000000  0.17421826  1
  O  O2  1  0.00000000  0.50000000  0.00000000  1
  O  O3  1  0.65780392  0.50000000  0.31855116  1
  O  O3  1  0.84219608  0.00000000  0.68144884  1
  O  O1  1  0.64500728  0.50000000  0.82578174  1
  Li  Li1  1  0.21143113  0.50000000  0.34283580  1
  Li  Li2  1  0.50000000  0.50000000  0.50000000  1
  Li  Li3  1  0.31154741  0.00000000  0.14020354  1
  Li  Li3  1  0.18845259  0.50000000  0.85979646  1
  Li  Li1  1  0.28856887  0.00000000  0.65716420  1
  Sb  Sb1  1  0.50000000  0.50000000  0.00000000  1
  O  O1  1  0.35499272  0.50000000  0.17421826  1
  O  O2  1  0.50000000  0.00000000  0.00000000  1
  O  O3  1  0.15780392  0.00000000  0.31855116  1
  O  O3  1  0.34219608  0.50000000  0.68144884  1
  O  O1  1  0.14500728  0.00000000  0.82578174  1
