# generated using pymatgen
data_Li6Hf2O7
_symmetry_space_group_name_H-M   'P 1'
_cell_length_a   10.35029521
_cell_length_b   5.93575339
_cell_length_c   10.08310323
_cell_angle_alpha   90.00000000
_cell_angle_beta   100.34415644
_cell_angle_gamma   90.00000000
_symmetry_Int_Tables_number   1
_chemical_formula_structural   Li6Hf2O7
_chemical_formula_sum   'Li24 Hf8 O28'
_cell_volume   609.40525833
_cell_formula_units_Z   4
loop_
 _symmetry_equiv_pos_site_id
 _symmetry_equiv_pos_as_xyz
  1  'x, y, z'
loop_
 _atom_site_type_symbol
 _atom_site_label
 _atom_site_symmetry_multiplicity
 _atom_site_fract_x
 _atom_site_fract_y
 _atom_site_fract_z
 _atom_site_occupancy
  Li  Li1  1  0.70642448  0.36948252  0.89368055  1
  Li  Li1  1  0.70642448  0.63051748  0.39368055  1
  Li  Li2  1  0.93736972  0.14431248  0.91239878  1
  Li  Li3  1  0.93396653  0.59878084  0.89655246  1
  Li  Li2  1  0.93736972  0.85568752  0.41239878  1
  Li  Li3  1  0.93396653  0.40121916  0.39655246  1
  Li  Li3  1  0.56603347  0.09878084  0.60344754  1
  Li  Li2  1  0.56263028  0.64431248  0.58760122  1
  Li  Li3  1  0.56603347  0.90121916  0.10344754  1
  Li  Li2  1  0.56263028  0.35568752  0.08760122  1
  Li  Li1  1  0.79357552  0.86948252  0.60631945  1
  Li  Li1  1  0.79357552  0.13051748  0.10631945  1
  Hf  Hf1  1  0.81622225  0.37793270  0.63434276  1
  Hf  Hf1  1  0.81622225  0.62206730  0.13434276  1
  Hf  Hf1  1  0.68377775  0.87793270  0.86565724  1
  Hf  Hf1  1  0.68377775  0.12206730  0.36565724  1
  O  O1  1  0.74976779  0.61398418  0.75402317  1
  O  O2  1  0.86673607  0.86683362  0.99810878  1
  O  O1  1  0.74976779  0.38601582  0.25402317  1
  O  O2  1  0.86673607  0.13316638  0.49810878  1
  O  O3  1  0.87833142  0.62262414  0.52163971  1
  O  O4  1  0.00000000  0.35026732  0.75000000  1
  O  O3  1  0.87833142  0.37737586  0.02163971  1
  O  O3  1  0.62166858  0.12262414  0.97836029  1
  O  O4  1  0.00000000  0.64973268  0.25000000  1
  O  O3  1  0.62166858  0.87737586  0.47836029  1
  O  O2  1  0.63326393  0.36683362  0.50189122  1
  O  O1  1  0.75023221  0.11398418  0.74597683  1
  O  O2  1  0.63326393  0.63316638  0.00189122  1
  O  O1  1  0.75023221  0.88601582  0.24597683  1
  Li  Li1  1  0.20642448  0.86948252  0.89368055  1
  Li  Li1  1  0.20642448  0.13051748  0.39368055  1
  Li  Li2  1  0.43736972  0.64431248  0.91239878  1
  Li  Li3  1  0.43396653  0.09878084  0.89655246  1
  Li  Li2  1  0.43736972  0.35568752  0.41239878  1
  Li  Li3  1  0.43396653  0.90121916  0.39655246  1
  Li  Li3  1  0.06603347  0.59878084  0.60344754  1
  Li  Li2  1  0.06263028  0.14431248  0.58760122  1
  Li  Li3  1  0.06603347  0.40121916  0.10344754  1
  Li  Li2  1  0.06263028  0.85568752  0.08760122  1
  Li  Li1  1  0.29357552  0.36948252  0.60631945  1
  Li  Li1  1  0.29357552  0.63051748  0.10631945  1
  Hf  Hf1  1  0.31622225  0.87793270  0.63434276  1
  Hf  Hf1  1  0.31622225  0.12206730  0.13434276  1
  Hf  Hf1  1  0.18377775  0.37793270  0.86565724  1
  Hf  Hf1  1  0.18377775  0.62206730  0.36565724  1
  O  O1  1  0.24976779  0.11398418  0.75402317  1
  O  O2  1  0.36673607  0.36683362  0.99810878  1
  O  O1  1  0.24976779  0.88601582  0.25402317  1
  O  O2  1  0.36673607  0.63316638  0.49810878  1
  O  O3  1  0.37833142  0.12262414  0.52163971  1
  O  O4  1  0.50000000  0.85026732  0.75000000  1
  O  O3  1  0.37833142  0.87737586  0.02163971  1
  O  O3  1  0.12166858  0.62262414  0.97836029  1
  O  O4  1  0.50000000  0.14973268  0.25000000  1
  O  O3  1  0.12166858  0.37737586  0.47836029  1
  O  O2  1  0.13326393  0.86683362  0.50189122  1
  O  O1  1  0.25023221  0.61398418  0.74597683  1
  O  O2  1  0.13326393  0.13316638  0.00189122  1
  O  O1  1  0.25023221  0.38601582  0.24597683  1
