# generated using pymatgen
data_Li6Zr2O7
_symmetry_space_group_name_H-M   'P 1'
_cell_length_a   10.40588058
_cell_length_b   5.97265703
_cell_length_c   10.16683618
_cell_angle_alpha   90.00000000
_cell_angle_beta   100.26379461
_cell_angle_gamma   90.00000000
_symmetry_Int_Tables_number   1
_chemical_formula_structural   Li6Zr2O7
_chemical_formula_sum   'Li24 Zr8 O28'
_cell_volume   621.76515437
_cell_formula_units_Z   4
loop_
 _symmetry_equiv_pos_site_id
 _symmetry_equiv_pos_as_xyz
  1  'x, y, z'
loop_
 _atom_site_type_symbol
 _atom_site_label
 _atom_site_symmetry_multiplicity
 _atom_site_fract_x
 _atom_site_fract_y
 _atom_site_fract_z
 _atom_site_occupancy
  Li  Li1  1  0.56125304  0.85574128  0.58665497  1
  Li  Li1  1  0.93874696  0.35574128  0.91334503  1
  Li  Li1  1  0.93874696  0.64425872  0.41334503  1
  Li  Li2  1  0.93317665  0.90009022  0.89730022  1
  Li  Li3  1  0.79360207  0.37089022  0.10571887  1
  Li  Li3  1  0.70639793  0.87089022  0.39428113  1
  Li  Li3  1  0.70639793  0.12910978  0.89428113  1
  Li  Li3  1  0.79360207  0.62910978  0.60571887  1
  Li  Li2  1  0.93317665  0.09990978  0.39730022  1
  Li  Li2  1  0.56682335  0.59990978  0.10269978  1
  Li  Li2  1  0.56682335  0.40009022  0.60269978  1
  Li  Li1  1  0.56125304  0.14425872  0.08665497  1
  Zr  Zr1  1  0.68360373  0.62048878  0.86543660  1
  Zr  Zr1  1  0.81639627  0.12048878  0.63456340  1
  Zr  Zr1  1  0.81639627  0.87951122  0.13456340  1
  Zr  Zr1  1  0.68360373  0.37951122  0.36543660  1
  O  O1  1  0.75223099  0.11428870  0.25568063  1
  O  O1  1  0.74776901  0.61428870  0.24431937  1
  O  O1  1  0.74776901  0.38571130  0.74431937  1
  O  O1  1  0.75223099  0.88571130  0.75568063  1
  O  O2  1  0.00000000  0.84666372  0.25000000  1
  O  O2  1  0.00000000  0.15333628  0.75000000  1
  O  O3  1  0.63260246  0.13187404  0.50205852  1
  O  O3  1  0.86739754  0.63187404  0.99794148  1
  O  O3  1  0.86739754  0.36812596  0.49794148  1
  O  O3  1  0.63260246  0.86812596  0.00205852  1
  O  O4  1  0.87852262  0.12313538  0.02110391  1
  O  O4  1  0.62147738  0.62313538  0.47889609  1
  O  O4  1  0.62147738  0.37686462  0.97889609  1
  O  O4  1  0.87852262  0.87686462  0.52110391  1
  Li  Li1  1  0.06125304  0.35574128  0.58665497  1
  Li  Li1  1  0.43874696  0.85574128  0.91334503  1
  Li  Li1  1  0.43874696  0.14425872  0.41334503  1
  Li  Li2  1  0.43317665  0.40009022  0.89730022  1
  Li  Li3  1  0.29360207  0.87089022  0.10571887  1
  Li  Li3  1  0.20639793  0.37089022  0.39428113  1
  Li  Li3  1  0.20639793  0.62910978  0.89428113  1
  Li  Li3  1  0.29360207  0.12910978  0.60571887  1
  Li  Li2  1  0.43317665  0.59990978  0.39730022  1
  Li  Li2  1  0.06682335  0.09990978  0.10269978  1
  Li  Li2  1  0.06682335  0.90009022  0.60269978  1
  Li  Li1  1  0.06125304  0.64425872  0.08665497  1
  Zr  Zr1  1  0.18360373  0.12048878  0.86543660  1
  Zr  Zr1  1  0.31639627  0.62048878  0.63456340  1
  Zr  Zr1  1  0.31639627  0.37951122  0.13456340  1
  Zr  Zr1  1  0.18360373  0.87951122  0.36543660  1
  O  O1  1  0.25223099  0.61428870  0.25568063  1
  O  O1  1  0.24776901  0.11428870  0.24431937  1
  O  O1  1  0.24776901  0.88571130  0.74431937  1
  O  O1  1  0.25223099  0.38571130  0.75568063  1
  O  O2  1  0.50000000  0.34666372  0.25000000  1
  O  O2  1  0.50000000  0.65333628  0.75000000  1
  O  O3  1  0.13260246  0.63187404  0.50205852  1
  O  O3  1  0.36739754  0.13187404  0.99794148  1
  O  O3  1  0.36739754  0.86812596  0.49794148  1
  O  O3  1  0.13260246  0.36812596  0.00205852  1
  O  O4  1  0.37852262  0.62313538  0.02110391  1
  O  O4  1  0.12147738  0.12313538  0.47889609  1
  O  O4  1  0.12147738  0.87686462  0.97889609  1
  O  O4  1  0.37852262  0.37686462  0.52110391  1
