# generated using pymatgen
data_Li6ZnO4
_symmetry_space_group_name_H-M   'P 1'
_cell_length_a   6.46643280
_cell_length_b   6.46643280
_cell_length_c   4.62877298
_cell_angle_alpha   90.00000000
_cell_angle_beta   90.00000000
_cell_angle_gamma   90.00000000
_symmetry_Int_Tables_number   1
_chemical_formula_structural   Li6ZnO4
_chemical_formula_sum   'Li12 Zn2 O8'
_cell_volume   193.55099975
_cell_formula_units_Z   2
loop_
 _symmetry_equiv_pos_site_id
 _symmetry_equiv_pos_as_xyz
  1  'x, y, z'
loop_
 _atom_site_type_symbol
 _atom_site_label
 _atom_site_symmetry_multiplicity
 _atom_site_fract_x
 _atom_site_fract_y
 _atom_site_fract_z
 _atom_site_occupancy
  Li  Li1  1  0.00000000  0.50000000  0.94876606  1
  Li  Li1  1  0.50000000  0.00000000  0.55123394  1
  Li  Li2  1  0.21759498  0.21759498  0.00000000  1
  Li  Li2  1  0.71759498  0.28240502  0.50000000  1
  Li  Li2  1  0.28240502  0.71759498  0.50000000  1
  Li  Li2  1  0.78240502  0.78240502  0.00000000  1
  Li  Li2  1  0.28240502  0.28240502  0.50000000  1
  Li  Li2  1  0.78240502  0.21759498  0.00000000  1
  Li  Li2  1  0.21759498  0.78240502  0.00000000  1
  Li  Li1  1  0.50000000  0.00000000  0.05123394  1
  Li  Li1  1  0.00000000  0.50000000  0.44876606  1
  Li  Li2  1  0.71759498  0.71759498  0.50000000  1
  Zn  Zn1  1  0.00000000  0.00000000  0.50000000  1
  Zn  Zn1  1  0.50000000  0.50000000  0.00000000  1
  O  O1  1  0.50000000  0.76089702  0.78806868  1
  O  O1  1  0.73910298  0.00000000  0.28806868  1
  O  O1  1  0.00000000  0.26089702  0.71193132  1
  O  O1  1  0.76089702  0.50000000  0.21193132  1
  O  O1  1  0.23910298  0.50000000  0.21193132  1
  O  O1  1  0.26089702  0.00000000  0.28806868  1
  O  O1  1  0.50000000  0.23910298  0.78806868  1
  O  O1  1  0.00000000  0.73910298  0.71193132  1
