# generated using pymatgen
data_Li8PtO6
_symmetry_space_group_name_H-M   'P 1'
_cell_length_a   5.41322587
_cell_length_b   5.41322587
_cell_length_c   14.95393970
_cell_angle_alpha   90.00000000
_cell_angle_beta   90.00000000
_cell_angle_gamma   120.00000000
_symmetry_Int_Tables_number   1
_chemical_formula_structural   Li8PtO6
_chemical_formula_sum   'Li24 Pt3 O18'
_cell_volume   379.48844229
_cell_formula_units_Z   3
loop_
 _symmetry_equiv_pos_site_id
 _symmetry_equiv_pos_as_xyz
  1  'x, y, z'
loop_
 _atom_site_type_symbol
 _atom_site_label
 _atom_site_symmetry_multiplicity
 _atom_site_fract_x
 _atom_site_fract_y
 _atom_site_fract_z
 _atom_site_occupancy
  Li  Li1  1  0.33333333  0.66666667  0.32368189  1
  Li  Li2  1  0.64912469  0.01891059  0.11702696  1
  Li  Li2  1  0.98108941  0.63021410  0.11702696  1
  Li  Li2  1  0.36978590  0.35087531  0.11702696  1
  Li  Li2  1  0.01754198  0.31442275  0.21630637  1
  Li  Li2  1  0.68557725  0.70311923  0.21630637  1
  Li  Li1  1  0.33333333  0.66666667  0.00965144  1
  Li  Li2  1  0.29688077  0.98245802  0.21630637  1
  Pt  Pt1  1  0.00000000  0.00000000  0.00000000  1
  O  O1  1  0.30294919  0.98670973  0.07992104  1
  O  O1  1  0.98290613  0.63628253  0.25341229  1
  O  O1  1  0.36371747  0.34662360  0.25341229  1
  O  O1  1  0.01329027  0.31623946  0.07992104  1
  O  O1  1  0.68376054  0.69705081  0.07992104  1
  O  O1  1  0.65337640  0.01709387  0.25341229  1
  Li  Li1  1  0.00000000  0.00000000  0.65701522  1
  Li  Li2  1  0.31579136  0.35224392  0.45036030  1
  Li  Li2  1  0.64775608  0.96354744  0.45036030  1
  Li  Li2  1  0.03645256  0.68420864  0.45036030  1
  Li  Li2  1  0.68420864  0.64775608  0.54963970  1
  Li  Li2  1  0.35224392  0.03645256  0.54963970  1
  Li  Li1  1  0.00000000  0.00000000  0.34298478  1
  Li  Li2  1  0.96354744  0.31579136  0.54963970  1
  Pt  Pt1  1  0.66666667  0.33333333  0.33333333  1
  O  O1  1  0.96961586  0.32004306  0.41325437  1
  O  O1  1  0.64957280  0.96961586  0.58674563  1
  O  O1  1  0.03038414  0.67995694  0.58674563  1
  O  O1  1  0.67995694  0.64957280  0.41325437  1
  O  O1  1  0.35042720  0.03038414  0.41325437  1
  O  O1  1  0.32004306  0.35042720  0.58674563  1
  Li  Li1  1  0.66666667  0.33333333  0.99034856  1
  Li  Li2  1  0.98245802  0.68557725  0.78369363  1
  Li  Li2  1  0.31442275  0.29688077  0.78369363  1
  Li  Li2  1  0.70311923  0.01754198  0.78369363  1
  Li  Li2  1  0.35087531  0.98108941  0.88297304  1
  Li  Li2  1  0.01891059  0.36978590  0.88297304  1
  Li  Li1  1  0.66666667  0.33333333  0.67631811  1
  Li  Li2  1  0.63021410  0.64912469  0.88297304  1
  Pt  Pt1  1  0.33333333  0.66666667  0.66666667  1
  O  O1  1  0.63628253  0.65337640  0.74658771  1
  O  O1  1  0.31623946  0.30294919  0.92007896  1
  O  O1  1  0.69705081  0.01329027  0.92007896  1
  O  O1  1  0.34662360  0.98290613  0.74658771  1
  O  O1  1  0.01709387  0.36371747  0.74658771  1
  O  O1  1  0.98670973  0.68376054  0.92007896  1
