# generated using pymatgen
data_Li8SnO6
_symmetry_space_group_name_H-M   'P 1'
_cell_length_a   5.46606538
_cell_length_b   5.46606538
_cell_length_c   15.30080506
_cell_angle_alpha   90.00000000
_cell_angle_beta   90.00000000
_cell_angle_gamma   120.00000000
_symmetry_Int_Tables_number   1
_chemical_formula_structural   Li8SnO6
_chemical_formula_sum   'Li24 Sn3 O18'
_cell_volume   395.90825598
_cell_formula_units_Z   3
loop_
 _symmetry_equiv_pos_site_id
 _symmetry_equiv_pos_as_xyz
  1  'x, y, z'
loop_
 _atom_site_type_symbol
 _atom_site_label
 _atom_site_symmetry_multiplicity
 _atom_site_fract_x
 _atom_site_fract_y
 _atom_site_fract_z
 _atom_site_occupancy
  Li  Li1  1  0.29142677  0.97836546  0.21307320  1
  Li  Li1  1  0.02163454  0.31306131  0.21307320  1
  Li  Li1  1  0.68693869  0.70857323  0.21307320  1
  Li  Li1  1  0.37523990  0.35496787  0.12026014  1
  Li  Li1  1  0.64503213  0.02027203  0.12026014  1
  Li  Li1  1  0.97972797  0.62476010  0.12026014  1
  Li  Li2  1  0.33333333  0.66666667  0.32139235  1
  Li  Li2  1  0.33333333  0.66666667  0.01194098  1
  Sn  Sn1  1  0.00000000  0.00000000  0.00000000  1
  O  O1  1  0.68306335  0.69627333  0.08121297  1
  O  O1  1  0.36294000  0.34654332  0.25212036  1
  O  O1  1  0.65345668  0.01639668  0.25212036  1
  O  O1  1  0.98360332  0.63706000  0.25212036  1
  O  O1  1  0.30372667  0.98679001  0.08121297  1
  O  O1  1  0.01320999  0.31693665  0.08121297  1
  Li  Li1  1  0.95809344  0.31169880  0.54640653  1
  Li  Li1  1  0.68830120  0.64639464  0.54640653  1
  Li  Li1  1  0.35360536  0.04190656  0.54640653  1
  Li  Li1  1  0.04190656  0.68830120  0.45359347  1
  Li  Li1  1  0.31169880  0.35360536  0.45359347  1
  Li  Li1  1  0.64639464  0.95809344  0.45359347  1
  Li  Li2  1  0.00000000  0.00000000  0.65472569  1
  Li  Li2  1  0.00000000  0.00000000  0.34527431  1
  Sn  Sn1  1  0.66666667  0.33333333  0.33333333  1
  O  O1  1  0.34973001  0.02960667  0.41454630  1
  O  O1  1  0.02960667  0.67987665  0.58545370  1
  O  O1  1  0.32012335  0.34973001  0.58545370  1
  O  O1  1  0.65026999  0.97039333  0.58545370  1
  O  O1  1  0.97039333  0.32012335  0.41454630  1
  O  O1  1  0.67987665  0.65026999  0.41454630  1
  Li  Li1  1  0.62476010  0.64503213  0.87973986  1
  Li  Li1  1  0.35496787  0.97972797  0.87973986  1
  Li  Li1  1  0.02027203  0.37523990  0.87973986  1
  Li  Li1  1  0.70857323  0.02163454  0.78692680  1
  Li  Li1  1  0.97836546  0.68693869  0.78692680  1
  Li  Li1  1  0.31306131  0.29142677  0.78692680  1
  Li  Li2  1  0.66666667  0.33333333  0.98805902  1
  Li  Li2  1  0.66666667  0.33333333  0.67860765  1
  Sn  Sn1  1  0.33333333  0.66666667  0.66666667  1
  O  O1  1  0.01639668  0.36294000  0.74787964  1
  O  O1  1  0.69627333  0.01320999  0.91878703  1
  O  O1  1  0.98679001  0.68306335  0.91878703  1
  O  O1  1  0.31693665  0.30372667  0.91878703  1
  O  O1  1  0.63706000  0.65345668  0.74787964  1
  O  O1  1  0.34654332  0.98360332  0.74787964  1
