# generated using pymatgen
data_LiAg3O2
_symmetry_space_group_name_H-M   'P 1'
_cell_length_a   5.92185467
_cell_length_b   9.80584255
_cell_length_c   5.63995978
_cell_angle_alpha   90.00000000
_cell_angle_beta   90.00000000
_cell_angle_gamma   90.00000000
_symmetry_Int_Tables_number   1
_chemical_formula_structural   LiAg3O2
_chemical_formula_sum   'Li4 Ag12 O8'
_cell_volume   327.50555281
_cell_formula_units_Z   4
loop_
 _symmetry_equiv_pos_site_id
 _symmetry_equiv_pos_as_xyz
  1  'x, y, z'
loop_
 _atom_site_type_symbol
 _atom_site_label
 _atom_site_symmetry_multiplicity
 _atom_site_fract_x
 _atom_site_fract_y
 _atom_site_fract_z
 _atom_site_occupancy
  Li  Li1  1  0.50000000  0.00000000  0.25000000  1
  Li  Li1  1  0.50000000  0.00000000  0.75000000  1
  Ag  Ag1  1  0.25000000  0.25000000  0.25000000  1
  Ag  Ag1  1  0.75000000  0.25000000  0.75000000  1
  Ag  Ag1  1  0.25000000  0.25000000  0.75000000  1
  Ag  Ag2  1  0.00000000  0.00000000  0.50000000  1
  Ag  Ag2  1  0.00000000  0.00000000  0.00000000  1
  Ag  Ag1  1  0.75000000  0.25000000  0.25000000  1
  O  O1  1  0.31826269  0.09635184  0.00000000  1
  O  O1  1  0.68173731  0.09635184  0.50000000  1
  O  O1  1  0.18173731  0.40364816  0.50000000  1
  O  O1  1  0.81826269  0.40364816  0.00000000  1
  Li  Li1  1  0.00000000  0.50000000  0.75000000  1
  Li  Li1  1  0.00000000  0.50000000  0.25000000  1
  Ag  Ag1  1  0.75000000  0.75000000  0.75000000  1
  Ag  Ag1  1  0.25000000  0.75000000  0.25000000  1
  Ag  Ag1  1  0.75000000  0.75000000  0.25000000  1
  Ag  Ag2  1  0.50000000  0.50000000  0.00000000  1
  Ag  Ag2  1  0.50000000  0.50000000  0.50000000  1
  Ag  Ag1  1  0.25000000  0.75000000  0.75000000  1
  O  O1  1  0.81826269  0.59635184  0.50000000  1
  O  O1  1  0.18173731  0.59635184  0.00000000  1
  O  O1  1  0.68173731  0.90364816  0.00000000  1
  O  O1  1  0.31826269  0.90364816  0.50000000  1
