# generated using pymatgen
data_LiAgO
_symmetry_space_group_name_H-M   'P 1'
_cell_length_a   9.08486002
_cell_length_b   9.08486002
_cell_length_c   3.79492662
_cell_angle_alpha   90.00000000
_cell_angle_beta   90.00000000
_cell_angle_gamma   90.00000000
_symmetry_Int_Tables_number   1
_chemical_formula_structural   LiAgO
_chemical_formula_sum   'Li8 Ag8 O8'
_cell_volume   313.21306023
_cell_formula_units_Z   8
loop_
 _symmetry_equiv_pos_site_id
 _symmetry_equiv_pos_as_xyz
  1  'x, y, z'
loop_
 _atom_site_type_symbol
 _atom_site_label
 _atom_site_symmetry_multiplicity
 _atom_site_fract_x
 _atom_site_fract_y
 _atom_site_fract_z
 _atom_site_occupancy
  Li  Li1  1  0.13883800  0.50000000  0.00000000  1
  Li  Li1  1  0.00000000  0.36116200  0.50000000  1
  Li  Li1  1  0.00000000  0.63883800  0.50000000  1
  Li  Li1  1  0.86116200  0.50000000  0.00000000  1
  Ag  Ag1  1  0.33797136  0.33797136  0.50000000  1
  Ag  Ag1  1  0.83797136  0.16202864  0.00000000  1
  Ag  Ag1  1  0.16202864  0.16202864  0.00000000  1
  Ag  Ag1  1  0.66202864  0.33797136  0.50000000  1
  O  O1  1  0.17826520  0.50000000  0.50000000  1
  O  O1  1  0.00000000  0.32173480  0.00000000  1
  O  O1  1  0.00000000  0.67826520  0.00000000  1
  O  O1  1  0.82173480  0.50000000  0.50000000  1
  Li  Li1  1  0.63883800  0.00000000  0.50000000  1
  Li  Li1  1  0.50000000  0.86116200  0.00000000  1
  Li  Li1  1  0.50000000  0.13883800  0.00000000  1
  Li  Li1  1  0.36116200  0.00000000  0.50000000  1
  Ag  Ag1  1  0.83797136  0.83797136  0.00000000  1
  Ag  Ag1  1  0.33797136  0.66202864  0.50000000  1
  Ag  Ag1  1  0.66202864  0.66202864  0.50000000  1
  Ag  Ag1  1  0.16202864  0.83797136  0.00000000  1
  O  O1  1  0.67826520  0.00000000  0.00000000  1
  O  O1  1  0.50000000  0.82173480  0.50000000  1
  O  O1  1  0.50000000  0.17826520  0.50000000  1
  O  O1  1  0.32173480  0.00000000  0.00000000  1
