# generated using pymatgen
data_LiAlO2
_symmetry_space_group_name_H-M   'P 1'
_cell_length_a   5.17576456
_cell_length_b   5.17576456
_cell_length_c   6.26852067
_cell_angle_alpha   90.00000000
_cell_angle_beta   90.00000000
_cell_angle_gamma   90.00000000
_symmetry_Int_Tables_number   1
_chemical_formula_structural   LiAlO2
_chemical_formula_sum   'Li4 Al4 O8'
_cell_volume   167.92450923
_cell_formula_units_Z   4
loop_
 _symmetry_equiv_pos_site_id
 _symmetry_equiv_pos_as_xyz
  1  'x, y, z'
loop_
 _atom_site_type_symbol
 _atom_site_label
 _atom_site_symmetry_multiplicity
 _atom_site_fract_x
 _atom_site_fract_y
 _atom_site_fract_z
 _atom_site_occupancy
  Li  Li1  1  0.81333472  0.18666528  0.25000000  1
  Li  Li1  1  0.31333472  0.31333472  0.50000000  1
  Li  Li1  1  0.18666528  0.81333472  0.75000000  1
  Li  Li1  1  0.68666528  0.68666528  0.00000000  1
  Al  Al1  1  0.67579050  0.67579050  0.50000000  1
  Al  Al1  1  0.82420950  0.17579050  0.75000000  1
  Al  Al1  1  0.17579050  0.82420950  0.25000000  1
  Al  Al1  1  0.32420950  0.32420950  0.00000000  1
  O  O1  1  0.20756170  0.16482470  0.22903020  1
  O  O1  1  0.33517530  0.70756170  0.47903020  1
  O  O1  1  0.70756170  0.33517530  0.52096980  1
  O  O1  1  0.66482470  0.29243830  0.97903020  1
  O  O1  1  0.29243830  0.66482470  0.02096980  1
  O  O1  1  0.83517530  0.79243830  0.27096980  1
  O  O1  1  0.16482470  0.20756170  0.77096980  1
  O  O1  1  0.79243830  0.83517530  0.72903020  1
