# generated using pymatgen
data_LiAsO3
_symmetry_space_group_name_H-M   'P 1'
_cell_length_a   4.84744589
_cell_length_b   4.84744589
_cell_length_c   14.24165945
_cell_angle_alpha   90.00000000
_cell_angle_beta   90.00000000
_cell_angle_gamma   120.00000000
_symmetry_Int_Tables_number   1
_chemical_formula_structural   LiAsO3
_chemical_formula_sum   'Li6 As6 O18'
_cell_volume   289.81253625
_cell_formula_units_Z   6
loop_
 _symmetry_equiv_pos_site_id
 _symmetry_equiv_pos_as_xyz
  1  'x, y, z'
loop_
 _atom_site_type_symbol
 _atom_site_label
 _atom_site_symmetry_multiplicity
 _atom_site_fract_x
 _atom_site_fract_y
 _atom_site_fract_z
 _atom_site_occupancy
  Li  Li1  1  0.00000000  0.00000000  0.13327789  1
  Li  Li1  1  0.66666667  0.33333333  0.20005544  1
  As  As1  1  0.33333333  0.66666667  0.00531500  1
  As  As1  1  0.33333333  0.66666667  0.32801833  1
  O  O1  1  0.29005579  0.96537175  0.25999295  1
  O  O1  1  0.03462825  0.32468405  0.25999295  1
  O  O1  1  0.99135071  0.62338913  0.07334039  1
  O  O1  1  0.37661087  0.36796159  0.07334039  1
  O  O1  1  0.63203841  0.00864929  0.07334039  1
  O  O1  1  0.67531595  0.70994421  0.25999295  1
  Li  Li1  1  0.66666667  0.33333333  0.46661123  1
  Li  Li1  1  0.33333333  0.66666667  0.53338877  1
  As  As1  1  0.00000000  0.00000000  0.33864834  1
  As  As1  1  0.00000000  0.00000000  0.66135166  1
  O  O1  1  0.95672246  0.29870508  0.59332628  1
  O  O1  1  0.70129492  0.65801738  0.59332628  1
  O  O1  1  0.65801738  0.95672246  0.40667372  1
  O  O1  1  0.04327754  0.70129492  0.40667372  1
  O  O1  1  0.29870508  0.34198262  0.40667372  1
  O  O1  1  0.34198262  0.04327754  0.59332628  1
  Li  Li1  1  0.33333333  0.66666667  0.79994456  1
  Li  Li1  1  0.00000000  0.00000000  0.86672211  1
  As  As1  1  0.66666667  0.33333333  0.67198167  1
  As  As1  1  0.66666667  0.33333333  0.99468500  1
  O  O1  1  0.62338913  0.63203841  0.92665961  1
  O  O1  1  0.36796159  0.99135071  0.92665961  1
  O  O1  1  0.32468405  0.29005579  0.74000705  1
  O  O1  1  0.70994421  0.03462825  0.74000705  1
  O  O1  1  0.96537175  0.67531595  0.74000705  1
  O  O1  1  0.00864929  0.37661087  0.92665961  1
