# generated using pymatgen
data_LiBO2
_symmetry_space_group_name_H-M   'P 1'
_cell_length_a   5.84572600
_cell_length_b   4.36954904
_cell_length_c   6.41792909
_cell_angle_alpha   90.00000000
_cell_angle_beta   114.99598550
_cell_angle_gamma   90.00000000
_symmetry_Int_Tables_number   1
_chemical_formula_structural   LiBO2
_chemical_formula_sum   'Li4 B4 O8'
_cell_volume   148.57984040
_cell_formula_units_Z   4
loop_
 _symmetry_equiv_pos_site_id
 _symmetry_equiv_pos_as_xyz
  1  'x, y, z'
loop_
 _atom_site_type_symbol
 _atom_site_label
 _atom_site_symmetry_multiplicity
 _atom_site_fract_x
 _atom_site_fract_y
 _atom_site_fract_z
 _atom_site_occupancy
  Li  Li1  1  0.43364314  0.28722943  0.84451122  1
  Li  Li1  1  0.56635686  0.78722943  0.65548878  1
  Li  Li1  1  0.56635686  0.71277057  0.15548878  1
  Li  Li1  1  0.43364314  0.21277057  0.34451122  1
  B  B1  1  0.12478886  0.82326583  0.77275456  1
  B  B1  1  0.87521114  0.32326583  0.72724544  1
  B  B1  1  0.87521114  0.17673417  0.22724544  1
  B  B1  1  0.12478886  0.67673417  0.27275456  1
  O  O1  1  0.08499530  0.14292248  0.75913146  1
  O  O1  1  0.91500470  0.64292248  0.74086854  1
  O  O1  1  0.91500470  0.85707752  0.24086854  1
  O  O1  1  0.08499530  0.35707752  0.25913146  1
  O  O2  1  0.35621620  0.72312520  0.81772950  1
  O  O2  1  0.64378380  0.22312520  0.68227050  1
  O  O2  1  0.64378380  0.27687480  0.18227050  1
  O  O2  1  0.35621620  0.77687480  0.31772950  1
