# generated using pymatgen
data_LiCuO
_symmetry_space_group_name_H-M   'P 1'
_cell_length_a   8.35326605
_cell_length_b   8.35326605
_cell_length_c   3.83614958
_cell_angle_alpha   90.00000000
_cell_angle_beta   90.00000000
_cell_angle_gamma   90.00000000
_symmetry_Int_Tables_number   1
_chemical_formula_structural   LiCuO
_chemical_formula_sum   'Li8 Cu8 O8'
_cell_volume   267.67521534
_cell_formula_units_Z   8
loop_
 _symmetry_equiv_pos_site_id
 _symmetry_equiv_pos_as_xyz
  1  'x, y, z'
loop_
 _atom_site_type_symbol
 _atom_site_label
 _atom_site_symmetry_multiplicity
 _atom_site_fract_x
 _atom_site_fract_y
 _atom_site_fract_z
 _atom_site_occupancy
  Li  Li1  1  0.00000000  0.35060836  0.00000000  1
  Li  Li1  1  0.00000000  0.64939164  0.00000000  1
  Li  Li1  1  0.14939164  0.50000000  0.50000000  1
  Li  Li1  1  0.85060836  0.50000000  0.50000000  1
  Cu  Cu1  1  0.84267671  0.15732329  0.50000000  1
  Cu  Cu1  1  0.65732329  0.34267671  0.00000000  1
  Cu  Cu1  1  0.34267671  0.34267671  0.00000000  1
  Cu  Cu1  1  0.15732329  0.15732329  0.50000000  1
  O  O1  1  0.00000000  0.69149980  0.50000000  1
  O  O1  1  0.00000000  0.30850020  0.50000000  1
  O  O1  1  0.80850020  0.50000000  0.00000000  1
  O  O1  1  0.19149980  0.50000000  0.00000000  1
  Li  Li1  1  0.50000000  0.85060836  0.50000000  1
  Li  Li1  1  0.50000000  0.14939164  0.50000000  1
  Li  Li1  1  0.64939164  0.00000000  0.00000000  1
  Li  Li1  1  0.35060836  0.00000000  0.00000000  1
  Cu  Cu1  1  0.34267671  0.65732329  0.00000000  1
  Cu  Cu1  1  0.15732329  0.84267671  0.50000000  1
  Cu  Cu1  1  0.84267671  0.84267671  0.50000000  1
  Cu  Cu1  1  0.65732329  0.65732329  0.00000000  1
  O  O1  1  0.50000000  0.19149980  0.00000000  1
  O  O1  1  0.50000000  0.80850020  0.00000000  1
  O  O1  1  0.30850020  0.00000000  0.50000000  1
  O  O1  1  0.69149980  0.00000000  0.50000000  1
