# generated using pymatgen
data_LiGeBO4
_symmetry_space_group_name_H-M   'P 1'
_cell_length_a   4.53228342
_cell_length_b   4.53228342
_cell_length_c   6.91757200
_cell_angle_alpha   90.00000000
_cell_angle_beta   90.00000000
_cell_angle_gamma   90.00000000
_symmetry_Int_Tables_number   1
_chemical_formula_structural   LiGeBO4
_chemical_formula_sum   'Li2 Ge2 B2 O8'
_cell_volume   142.09794836
_cell_formula_units_Z   2
loop_
 _symmetry_equiv_pos_site_id
 _symmetry_equiv_pos_as_xyz
  1  'x, y, z'
loop_
 _atom_site_type_symbol
 _atom_site_label
 _atom_site_symmetry_multiplicity
 _atom_site_fract_x
 _atom_site_fract_y
 _atom_site_fract_z
 _atom_site_occupancy
  Li  Li1  1  0.50000000  0.50000000  0.00000000  1
  Ge  Ge1  1  0.00000000  0.00000000  0.00000000  1
  B  B1  1  0.50000000  0.00000000  0.25000000  1
  O  O1  1  0.67402138  0.78996064  0.36682564  1
  O  O1  1  0.32597862  0.21003936  0.36682564  1
  O  O1  1  0.28996064  0.82597862  0.13317436  1
  O  O1  1  0.71003936  0.17402138  0.13317436  1
  Li  Li1  1  0.00000000  0.00000000  0.50000000  1
  Ge  Ge1  1  0.50000000  0.50000000  0.50000000  1
  B  B1  1  0.00000000  0.50000000  0.75000000  1
  O  O1  1  0.17402138  0.28996064  0.86682564  1
  O  O1  1  0.82597862  0.71003936  0.86682564  1
  O  O1  1  0.78996064  0.32597862  0.63317436  1
  O  O1  1  0.21003936  0.67402138  0.63317436  1
