# generated using pymatgen
data_LiInGeO4
_symmetry_space_group_name_H-M   'P 1'
_cell_length_a   10.84916698
_cell_length_b   6.11463925
_cell_length_c   5.04502413
_cell_angle_alpha   90.00000000
_cell_angle_beta   90.00000000
_cell_angle_gamma   90.00000000
_symmetry_Int_Tables_number   1
_chemical_formula_structural   LiInGeO4
_chemical_formula_sum   'Li4 In4 Ge4 O16'
_cell_volume   334.68055505
_cell_formula_units_Z   4
loop_
 _symmetry_equiv_pos_site_id
 _symmetry_equiv_pos_as_xyz
  1  'x, y, z'
loop_
 _atom_site_type_symbol
 _atom_site_label
 _atom_site_symmetry_multiplicity
 _atom_site_fract_x
 _atom_site_fract_y
 _atom_site_fract_z
 _atom_site_occupancy
  Li  Li1  1  0.50000000  0.50000000  0.50000000  1
  Li  Li1  1  0.00000000  0.50000000  0.00000000  1
  Li  Li1  1  0.50000000  0.00000000  0.50000000  1
  Li  Li1  1  0.00000000  0.00000000  0.00000000  1
  In  In1  1  0.22924272  0.25000000  0.50533712  1
  In  In1  1  0.72924272  0.25000000  0.99466288  1
  In  In1  1  0.77075728  0.75000000  0.49466288  1
  In  In1  1  0.27075728  0.75000000  0.00533712  1
  Ge  Ge1  1  0.41449137  0.25000000  0.05768728  1
  Ge  Ge1  1  0.91449137  0.25000000  0.44231272  1
  Ge  Ge1  1  0.58550863  0.75000000  0.94231272  1
  Ge  Ge1  1  0.08550863  0.75000000  0.55768728  1
  O  O1  1  0.83482562  0.02995748  0.27008690  1
  O  O1  1  0.16517438  0.97004252  0.72991310  1
  O  O1  1  0.33482562  0.02995748  0.22991310  1
  O  O1  1  0.83482562  0.47004252  0.27008690  1
  O  O1  1  0.66517438  0.52995748  0.77008690  1
  O  O2  1  0.59154031  0.75000000  0.29067880  1
  O  O1  1  0.66517438  0.97004252  0.77008690  1
  O  O1  1  0.16517438  0.52995748  0.72991310  1
  O  O2  1  0.40845969  0.25000000  0.70932120  1
  O  O2  1  0.09154031  0.75000000  0.20932120  1
  O  O3  1  0.06062448  0.25000000  0.28302366  1
  O  O2  1  0.90845969  0.25000000  0.79067880  1
  O  O3  1  0.56062448  0.25000000  0.21697634  1
  O  O3  1  0.43937552  0.75000000  0.78302366  1
  O  O3  1  0.93937552  0.75000000  0.71697634  1
  O  O1  1  0.33482562  0.47004252  0.22991310  1
