# generated using pymatgen
data_LiInO2
_symmetry_space_group_name_H-M   'P 1'
_cell_length_a   4.38298184
_cell_length_b   4.38298184
_cell_length_c   9.25478831
_cell_angle_alpha   90.00000000
_cell_angle_beta   90.00000000
_cell_angle_gamma   90.00000000
_symmetry_Int_Tables_number   1
_chemical_formula_structural   LiInO2
_chemical_formula_sum   'Li4 In4 O8'
_cell_volume   177.78938671
_cell_formula_units_Z   4
loop_
 _symmetry_equiv_pos_site_id
 _symmetry_equiv_pos_as_xyz
  1  'x, y, z'
loop_
 _atom_site_type_symbol
 _atom_site_label
 _atom_site_symmetry_multiplicity
 _atom_site_fract_x
 _atom_site_fract_y
 _atom_site_fract_z
 _atom_site_occupancy
  Li  Li1  1  0.00000000  0.50000000  0.25000000  1
  Li  Li1  1  0.00000000  0.00000000  0.00000000  1
  In  In1  1  0.50000000  0.50000000  0.00000000  1
  In  In1  1  0.50000000  0.00000000  0.25000000  1
  O  O1  1  0.50000000  0.00000000  0.01273724  1
  O  O1  1  0.50000000  0.50000000  0.76273724  1
  O  O1  1  0.00000000  0.50000000  0.98726276  1
  O  O1  1  0.50000000  0.50000000  0.23726276  1
  Li  Li1  1  0.50000000  0.00000000  0.75000000  1
  Li  Li1  1  0.50000000  0.50000000  0.50000000  1
  In  In1  1  0.00000000  0.00000000  0.50000000  1
  In  In1  1  0.00000000  0.50000000  0.75000000  1
  O  O1  1  0.00000000  0.50000000  0.51273724  1
  O  O1  1  0.00000000  0.00000000  0.26273724  1
  O  O1  1  0.50000000  0.00000000  0.48726276  1
  O  O1  1  0.00000000  0.00000000  0.73726276  1
