# generated using pymatgen
data_LiIn(WO4)2
_symmetry_space_group_name_H-M   'P 1'
_cell_length_a   9.63575005
_cell_length_b   11.65348341
_cell_length_c   4.96265566
_cell_angle_alpha   90.00000000
_cell_angle_beta   91.04953204
_cell_angle_gamma   90.00000000
_symmetry_Int_Tables_number   1
_chemical_formula_structural   LiIn(WO4)2
_chemical_formula_sum   'Li4 In4 W8 O32'
_cell_volume   557.16338006
_cell_formula_units_Z   4
loop_
 _symmetry_equiv_pos_site_id
 _symmetry_equiv_pos_as_xyz
  1  'x, y, z'
loop_
 _atom_site_type_symbol
 _atom_site_label
 _atom_site_symmetry_multiplicity
 _atom_site_fract_x
 _atom_site_fract_y
 _atom_site_fract_z
 _atom_site_occupancy
  Li  Li1  1  0.50000000  0.34779147  0.25000000  1
  Li  Li1  1  0.50000000  0.65220853  0.75000000  1
  In  In1  1  0.50000000  0.83728528  0.25000000  1
  In  In1  1  0.50000000  0.16271472  0.75000000  1
  W  W1  1  0.75836884  0.08886446  0.25042408  1
  W  W1  1  0.24163116  0.08886446  0.24957592  1
  W  W1  1  0.24163116  0.91113554  0.74957592  1
  W  W1  1  0.75836884  0.91113554  0.75042408  1
  O  O1  1  0.64527353  0.05033202  0.56095492  1
  O  O1  1  0.35472647  0.05033202  0.93904508  1
  O  O1  1  0.35472647  0.94966798  0.43904508  1
  O  O1  1  0.64527353  0.94966798  0.06095492  1
  O  O2  1  0.62866638  0.18444922  0.10849754  1
  O  O2  1  0.37133362  0.18444922  0.39150246  1
  O  O2  1  0.37133362  0.81555078  0.89150246  1
  O  O2  1  0.62866638  0.81555078  0.60849754  1
  O  O3  1  0.14393262  0.04995124  0.55994658  1
  O  O3  1  0.85606738  0.04995124  0.94005342  1
  O  O3  1  0.85606738  0.95004876  0.44005342  1
  O  O3  1  0.14393262  0.95004876  0.05994658  1
  O  O4  1  0.61999900  0.68768240  0.09931060  1
  O  O4  1  0.38000100  0.68768240  0.40068940  1
  O  O4  1  0.38000100  0.31231760  0.90068940  1
  O  O4  1  0.61999900  0.31231760  0.59931060  1
  Li  Li1  1  0.00000000  0.84779147  0.25000000  1
  Li  Li1  1  0.00000000  0.15220853  0.75000000  1
  In  In1  1  0.00000000  0.33728528  0.25000000  1
  In  In1  1  0.00000000  0.66271472  0.75000000  1
  W  W1  1  0.25836884  0.58886446  0.25042408  1
  W  W1  1  0.74163116  0.58886446  0.24957592  1
  W  W1  1  0.74163116  0.41113554  0.74957592  1
  W  W1  1  0.25836884  0.41113554  0.75042408  1
  O  O1  1  0.14527353  0.55033202  0.56095492  1
  O  O1  1  0.85472647  0.55033202  0.93904508  1
  O  O1  1  0.85472647  0.44966798  0.43904508  1
  O  O1  1  0.14527353  0.44966798  0.06095492  1
  O  O2  1  0.12866638  0.68444922  0.10849754  1
  O  O2  1  0.87133362  0.68444922  0.39150246  1
  O  O2  1  0.87133362  0.31555078  0.89150246  1
  O  O2  1  0.12866638  0.31555078  0.60849754  1
  O  O3  1  0.64393262  0.54995124  0.55994658  1
  O  O3  1  0.35606738  0.54995124  0.94005342  1
  O  O3  1  0.35606738  0.45004876  0.44005342  1
  O  O3  1  0.64393262  0.45004876  0.05994658  1
  O  O4  1  0.11999900  0.18768240  0.09931060  1
  O  O4  1  0.88000100  0.18768240  0.40068940  1
  O  O4  1  0.88000100  0.81231760  0.90068940  1
  O  O4  1  0.11999900  0.81231760  0.59931060  1
