# generated using pymatgen
data_LiInSiO4
_symmetry_space_group_name_H-M   'P 1'
_cell_length_a   10.57870148
_cell_length_b   6.09936079
_cell_length_c   4.87055393
_cell_angle_alpha   90.00000000
_cell_angle_beta   90.00000000
_cell_angle_gamma   90.00000000
_symmetry_Int_Tables_number   1
_chemical_formula_structural   LiInSiO4
_chemical_formula_sum   'Li4 In4 Si4 O16'
_cell_volume   314.26429521
_cell_formula_units_Z   4
loop_
 _symmetry_equiv_pos_site_id
 _symmetry_equiv_pos_as_xyz
  1  'x, y, z'
loop_
 _atom_site_type_symbol
 _atom_site_label
 _atom_site_symmetry_multiplicity
 _atom_site_fract_x
 _atom_site_fract_y
 _atom_site_fract_z
 _atom_site_occupancy
  Li  Li1  1  0.50000000  0.50000000  0.50000000  1
  Li  Li1  1  0.00000000  0.50000000  0.00000000  1
  Li  Li1  1  0.50000000  0.00000000  0.50000000  1
  Li  Li1  1  0.00000000  0.00000000  0.00000000  1
  In  In1  1  0.22535454  0.25000000  0.52121836  1
  In  In1  1  0.72535454  0.25000000  0.97878164  1
  In  In1  1  0.77464546  0.75000000  0.47878164  1
  In  In1  1  0.27464546  0.75000000  0.02121836  1
  Si  Si1  1  0.41272479  0.25000000  0.07716934  1
  Si  Si1  1  0.91272479  0.25000000  0.42283066  1
  Si  Si1  1  0.58727521  0.75000000  0.92283066  1
  Si  Si1  1  0.08727521  0.75000000  0.57716934  1
  O  O1  1  0.83829810  0.04141068  0.26905484  1
  O  O1  1  0.16170190  0.95858932  0.73094516  1
  O  O1  1  0.33829810  0.04141068  0.23094516  1
  O  O1  1  0.83829810  0.45858932  0.26905484  1
  O  O1  1  0.66170190  0.54141068  0.76905484  1
  O  O2  1  0.59520359  0.75000000  0.25468808  1
  O  O1  1  0.66170190  0.95858932  0.76905484  1
  O  O1  1  0.16170190  0.54141068  0.73094516  1
  O  O2  1  0.40479641  0.25000000  0.74531192  1
  O  O2  1  0.09520359  0.75000000  0.24531192  1
  O  O3  1  0.55422294  0.25000000  0.21133864  1
  O  O2  1  0.90479641  0.25000000  0.75468808  1
  O  O3  1  0.05422294  0.25000000  0.28866136  1
  O  O3  1  0.94577706  0.75000000  0.71133864  1
  O  O3  1  0.44577706  0.75000000  0.78866136  1
  O  O1  1  0.33829810  0.45858932  0.23094516  1
