# generated using pymatgen
data_LiLa4AuO8
_symmetry_space_group_name_H-M   'P 1'
_cell_length_a   5.70718768
_cell_length_b   12.35138191
_cell_length_c   5.70760993
_cell_angle_alpha   90.00000000
_cell_angle_beta   90.00000000
_cell_angle_gamma   90.00000000
_symmetry_Int_Tables_number   1
_chemical_formula_structural   LiLa4AuO8
_chemical_formula_sum   'Li2 La8 Au2 O16'
_cell_volume   402.33886816
_cell_formula_units_Z   2
loop_
 _symmetry_equiv_pos_site_id
 _symmetry_equiv_pos_as_xyz
  1  'x, y, z'
loop_
 _atom_site_type_symbol
 _atom_site_label
 _atom_site_symmetry_multiplicity
 _atom_site_fract_x
 _atom_site_fract_y
 _atom_site_fract_z
 _atom_site_occupancy
  Li  Li1  1  0.50000000  0.00000000  0.00000000  1
  La  La1  1  0.00000000  0.35055179  0.50000000  1
  La  La2  1  0.50000000  0.35119639  0.00000000  1
  La  La2  1  0.00000000  0.14880361  0.00000000  1
  La  La1  1  0.50000000  0.14944821  0.50000000  1
  Au  Au1  1  0.00000000  0.00000000  0.50000000  1
  O  O1  1  0.25000000  0.25000000  0.24928122  1
  O  O1  1  0.75000000  0.25000000  0.75071878  1
  O  O1  1  0.25000000  0.25000000  0.75071878  1
  O  O2  1  0.24839426  0.00000000  0.74829468  1
  O  O1  1  0.75000000  0.25000000  0.24928122  1
  O  O2  1  0.24839426  0.00000000  0.25170532  1
  O  O2  1  0.75160574  0.00000000  0.25170532  1
  O  O2  1  0.75160574  0.00000000  0.74829468  1
  Li  Li1  1  0.00000000  0.50000000  0.00000000  1
  La  La1  1  0.50000000  0.85055179  0.50000000  1
  La  La2  1  0.00000000  0.85119639  0.00000000  1
  La  La2  1  0.50000000  0.64880361  0.00000000  1
  La  La1  1  0.00000000  0.64944821  0.50000000  1
  Au  Au1  1  0.50000000  0.50000000  0.50000000  1
  O  O1  1  0.75000000  0.75000000  0.24928122  1
  O  O1  1  0.25000000  0.75000000  0.75071878  1
  O  O1  1  0.75000000  0.75000000  0.75071878  1
  O  O2  1  0.74839426  0.50000000  0.74829468  1
  O  O1  1  0.25000000  0.75000000  0.24928122  1
  O  O2  1  0.74839426  0.50000000  0.25170532  1
  O  O2  1  0.25160574  0.50000000  0.25170532  1
  O  O2  1  0.25160574  0.50000000  0.74829468  1
