# generated using pymatgen
data_LiMgVO4
_symmetry_space_group_name_H-M   'P 1'
_cell_length_a   5.61835167
_cell_length_b   8.58251255
_cell_length_c   6.23580792
_cell_angle_alpha   90.00000000
_cell_angle_beta   90.00000000
_cell_angle_gamma   90.00000000
_symmetry_Int_Tables_number   1
_chemical_formula_structural   LiMgVO4
_chemical_formula_sum   'Li4 Mg4 V4 O16'
_cell_volume   300.68799969
_cell_formula_units_Z   4
loop_
 _symmetry_equiv_pos_site_id
 _symmetry_equiv_pos_as_xyz
  1  'x, y, z'
loop_
 _atom_site_type_symbol
 _atom_site_label
 _atom_site_symmetry_multiplicity
 _atom_site_fract_x
 _atom_site_fract_y
 _atom_site_fract_z
 _atom_site_occupancy
  Li  Li1  1  0.00000000  0.16244968  0.75000000  1
  Li  Li1  1  0.00000000  0.83755032  0.25000000  1
  Mg  Mg1  1  0.00000000  0.50000000  0.50000000  1
  Mg  Mg1  1  0.00000000  0.50000000  0.00000000  1
  V  V1  1  0.00000000  0.85472064  0.75000000  1
  V  V1  1  0.00000000  0.14527936  0.25000000  1
  O  O1  1  0.00000000  0.74031208  0.97120448  1
  O  O2  1  0.25379157  0.51936902  0.25000000  1
  O  O2  1  0.74620843  0.48063098  0.75000000  1
  O  O1  1  0.00000000  0.25968792  0.47120448  1
  O  O1  1  0.00000000  0.25968792  0.02879552  1
  O  O2  1  0.25379157  0.48063098  0.75000000  1
  O  O2  1  0.74620843  0.51936902  0.25000000  1
  O  O1  1  0.00000000  0.74031208  0.52879552  1
  Li  Li1  1  0.50000000  0.66244968  0.75000000  1
  Li  Li1  1  0.50000000  0.33755032  0.25000000  1
  Mg  Mg1  1  0.50000000  0.00000000  0.50000000  1
  Mg  Mg1  1  0.50000000  0.00000000  0.00000000  1
  V  V1  1  0.50000000  0.35472064  0.75000000  1
  V  V1  1  0.50000000  0.64527936  0.25000000  1
  O  O1  1  0.50000000  0.24031208  0.97120448  1
  O  O2  1  0.75379157  0.01936902  0.25000000  1
  O  O2  1  0.24620843  0.98063098  0.75000000  1
  O  O1  1  0.50000000  0.75968792  0.47120448  1
  O  O1  1  0.50000000  0.75968792  0.02879552  1
  O  O2  1  0.75379157  0.98063098  0.75000000  1
  O  O2  1  0.24620843  0.01936902  0.25000000  1
  O  O1  1  0.50000000  0.24031208  0.52879552  1
