# generated using pymatgen
data_LiSbO3
_symmetry_space_group_name_H-M   'P 1'
_cell_length_a   5.21943653
_cell_length_b   4.91972159
_cell_length_c   8.52776353
_cell_angle_alpha   90.00000000
_cell_angle_beta   90.00000000
_cell_angle_gamma   90.00000000
_symmetry_Int_Tables_number   1
_chemical_formula_structural   LiSbO3
_chemical_formula_sum   'Li4 Sb4 O12'
_cell_volume   218.97740045
_cell_formula_units_Z   4
loop_
 _symmetry_equiv_pos_site_id
 _symmetry_equiv_pos_as_xyz
  1  'x, y, z'
loop_
 _atom_site_type_symbol
 _atom_site_label
 _atom_site_symmetry_multiplicity
 _atom_site_fract_x
 _atom_site_fract_y
 _atom_site_fract_z
 _atom_site_occupancy
  Li  Li1  1  0.25000000  0.00000000  0.30625854  1
  Li  Li1  1  0.25000000  0.50000000  0.19374146  1
  Li  Li1  1  0.75000000  0.00000000  0.69374146  1
  Li  Li1  1  0.75000000  0.50000000  0.80625854  1
  Sb  Sb1  1  0.25000000  0.00000000  0.90542912  1
  Sb  Sb1  1  0.75000000  0.50000000  0.40542912  1
  Sb  Sb1  1  0.75000000  0.00000000  0.09457088  1
  Sb  Sb1  1  0.25000000  0.50000000  0.59457088  1
  O  O1  1  0.07606424  0.70737691  0.41807192  1
  O  O1  1  0.07606424  0.79262309  0.08192808  1
  O  O1  1  0.42393576  0.29262309  0.41807192  1
  O  O2  1  0.91140460  0.25000000  0.25000000  1
  O  O2  1  0.08859540  0.75000000  0.75000000  1
  O  O2  1  0.41140460  0.25000000  0.75000000  1
  O  O1  1  0.57606424  0.79262309  0.91807192  1
  O  O2  1  0.58859540  0.75000000  0.25000000  1
  O  O1  1  0.92393576  0.20737691  0.91807192  1
  O  O1  1  0.92393576  0.29262309  0.58192808  1
  O  O1  1  0.57606424  0.70737691  0.58192808  1
  O  O1  1  0.42393576  0.20737691  0.08192808  1
