# generated using pymatgen
data_LiSc(WO4)2
_symmetry_space_group_name_H-M   'P 1'
_cell_length_a   9.50405762
_cell_length_b   11.52696667
_cell_length_c   4.92699063
_cell_angle_alpha   90.00000000
_cell_angle_beta   90.87147046
_cell_angle_gamma   90.00000000
_symmetry_Int_Tables_number   1
_chemical_formula_structural   LiSc(WO4)2
_chemical_formula_sum   'Li4 Sc4 W8 O32'
_cell_volume   539.70394990
_cell_formula_units_Z   4
loop_
 _symmetry_equiv_pos_site_id
 _symmetry_equiv_pos_as_xyz
  1  'x, y, z'
loop_
 _atom_site_type_symbol
 _atom_site_label
 _atom_site_symmetry_multiplicity
 _atom_site_fract_x
 _atom_site_fract_y
 _atom_site_fract_z
 _atom_site_occupancy
  Li  Li1  1  0.50000000  0.84511097  0.75000000  1
  Li  Li1  1  0.50000000  0.15488903  0.25000000  1
  Sc  Sc1  1  0.50000000  0.33651853  0.75000000  1
  Sc  Sc1  1  0.50000000  0.66348147  0.25000000  1
  W  W1  1  0.25727041  0.08988739  0.75257414  1
  W  W1  1  0.74272959  0.91011261  0.24742586  1
  W  W1  1  0.74272959  0.08988739  0.74742586  1
  W  W1  1  0.25727041  0.91011261  0.25257414  1
  O  O1  1  0.37502731  0.31815482  0.40382008  1
  O  O1  1  0.62497269  0.68184518  0.59617992  1
  O  O1  1  0.62497269  0.31815482  0.09617992  1
  O  O1  1  0.37502731  0.68184518  0.90382008  1
  O  O2  1  0.85716928  0.94422781  0.93237224  1
  O  O2  1  0.14283072  0.05577219  0.06762776  1
  O  O2  1  0.14283072  0.94422781  0.56762776  1
  O  O2  1  0.85716928  0.05577219  0.43237224  1
  O  O3  1  0.38017309  0.19193062  0.89504696  1
  O  O3  1  0.61982691  0.80806938  0.10495304  1
  O  O3  1  0.61982691  0.19193062  0.60495304  1
  O  O3  1  0.38017309  0.80806938  0.39504696  1
  O  O4  1  0.64314653  0.95068937  0.55980510  1
  O  O4  1  0.35685347  0.04931063  0.44019490  1
  O  O4  1  0.35685347  0.95068937  0.94019490  1
  O  O4  1  0.64314653  0.04931063  0.05980510  1
  Li  Li1  1  0.00000000  0.34511097  0.75000000  1
  Li  Li1  1  0.00000000  0.65488903  0.25000000  1
  Sc  Sc1  1  0.00000000  0.83651853  0.75000000  1
  Sc  Sc1  1  0.00000000  0.16348147  0.25000000  1
  W  W1  1  0.75727041  0.58988739  0.75257414  1
  W  W1  1  0.24272959  0.41011261  0.24742586  1
  W  W1  1  0.24272959  0.58988739  0.74742586  1
  W  W1  1  0.75727041  0.41011261  0.25257414  1
  O  O1  1  0.87502731  0.81815482  0.40382008  1
  O  O1  1  0.12497269  0.18184518  0.59617992  1
  O  O1  1  0.12497269  0.81815482  0.09617992  1
  O  O1  1  0.87502731  0.18184518  0.90382008  1
  O  O2  1  0.35716928  0.44422781  0.93237224  1
  O  O2  1  0.64283072  0.55577219  0.06762776  1
  O  O2  1  0.64283072  0.44422781  0.56762776  1
  O  O2  1  0.35716928  0.55577219  0.43237224  1
  O  O3  1  0.88017309  0.69193062  0.89504696  1
  O  O3  1  0.11982691  0.30806938  0.10495304  1
  O  O3  1  0.11982691  0.69193062  0.60495304  1
  O  O3  1  0.88017309  0.30806938  0.39504696  1
  O  O4  1  0.14314653  0.45068937  0.55980510  1
  O  O4  1  0.85685347  0.54931063  0.44019490  1
  O  O4  1  0.85685347  0.45068937  0.94019490  1
  O  O4  1  0.14314653  0.54931063  0.05980510  1
