# generated using pymatgen
data_LiScSiO4
_symmetry_space_group_name_H-M   'P 1'
_cell_length_a   10.40011801
_cell_length_b   5.93969332
_cell_length_c   4.80669342
_cell_angle_alpha   90.00000000
_cell_angle_beta   90.00000000
_cell_angle_gamma   90.00000000
_symmetry_Int_Tables_number   1
_chemical_formula_structural   LiScSiO4
_chemical_formula_sum   'Li4 Sc4 Si4 O16'
_cell_volume   296.92633143
_cell_formula_units_Z   4
loop_
 _symmetry_equiv_pos_site_id
 _symmetry_equiv_pos_as_xyz
  1  'x, y, z'
loop_
 _atom_site_type_symbol
 _atom_site_label
 _atom_site_symmetry_multiplicity
 _atom_site_fract_x
 _atom_site_fract_y
 _atom_site_fract_z
 _atom_site_occupancy
  Li  Li1  1  0.50000000  0.50000000  0.50000000  1
  Li  Li1  1  0.00000000  0.50000000  0.00000000  1
  Li  Li1  1  0.50000000  0.00000000  0.50000000  1
  Li  Li1  1  0.00000000  0.00000000  0.00000000  1
  Sc  Sc1  1  0.27360724  0.75000000  0.00254940  1
  Sc  Sc1  1  0.77360724  0.75000000  0.49745060  1
  Sc  Sc1  1  0.72639276  0.25000000  0.99745060  1
  Sc  Sc1  1  0.22639276  0.25000000  0.50254940  1
  Si  Si1  1  0.40868879  0.25000000  0.06356784  1
  Si  Si1  1  0.59131121  0.75000000  0.93643216  1
  Si  Si1  1  0.90868879  0.25000000  0.43643216  1
  Si  Si1  1  0.09131121  0.75000000  0.56356784  1
  O  O1  1  0.83030160  0.03799880  0.28520330  1
  O  O1  1  0.16969840  0.96200120  0.71479670  1
  O  O1  1  0.33030160  0.03799880  0.21479670  1
  O  O1  1  0.83030160  0.46200120  0.28520330  1
  O  O1  1  0.66969840  0.53799880  0.78520330  1
  O  O2  1  0.59960228  0.75000000  0.27211706  1
  O  O1  1  0.66969840  0.96200120  0.78520330  1
  O  O1  1  0.16969840  0.53799880  0.71479670  1
  O  O2  1  0.40039772  0.25000000  0.72788294  1
  O  O2  1  0.09960228  0.75000000  0.22788294  1
  O  O3  1  0.05285233  0.25000000  0.30315922  1
  O  O2  1  0.90039772  0.25000000  0.77211706  1
  O  O3  1  0.55285233  0.25000000  0.19684078  1
  O  O3  1  0.44714767  0.75000000  0.80315922  1
  O  O3  1  0.94714767  0.75000000  0.69684078  1
  O  O1  1  0.33030160  0.46200120  0.21479670  1
