# generated using pymatgen
data_LiTa3O8
_symmetry_space_group_name_H-M   'P 1'
_cell_length_a   9.41393630
_cell_length_b   11.54126784
_cell_length_c   5.05414022
_cell_angle_alpha   90.00000000
_cell_angle_beta   90.85980964
_cell_angle_gamma   90.00000000
_symmetry_Int_Tables_number   1
_chemical_formula_structural   LiTa3O8
_chemical_formula_sum   'Li4 Ta12 O32'
_cell_volume   549.06423943
_cell_formula_units_Z   4
loop_
 _symmetry_equiv_pos_site_id
 _symmetry_equiv_pos_as_xyz
  1  'x, y, z'
loop_
 _atom_site_type_symbol
 _atom_site_label
 _atom_site_symmetry_multiplicity
 _atom_site_fract_x
 _atom_site_fract_y
 _atom_site_fract_z
 _atom_site_occupancy
  Li  Li1  1  0.50000000  0.34126059  0.75000000  1
  Li  Li1  1  0.50000000  0.65873941  0.25000000  1
  Ta  Ta1  1  0.50000000  0.82888438  0.75000000  1
  Ta  Ta1  1  0.50000000  0.17111562  0.25000000  1
  Ta  Ta2  1  0.75816533  0.08492139  0.75402014  1
  Ta  Ta2  1  0.24183467  0.08492139  0.74597986  1
  Ta  Ta2  1  0.24183467  0.91507861  0.24597986  1
  Ta  Ta2  1  0.75816533  0.91507861  0.25402014  1
  O  O1  1  0.38276678  0.69694788  0.89469490  1
  O  O1  1  0.61723322  0.69694788  0.60530510  1
  O  O1  1  0.61723322  0.30305212  0.10530510  1
  O  O1  1  0.38276678  0.30305212  0.39469490  1
  O  O2  1  0.14502769  0.04995317  0.06508240  1
  O  O2  1  0.85497231  0.04995317  0.43491760  1
  O  O2  1  0.85497231  0.95004683  0.93491760  1
  O  O2  1  0.14502769  0.95004683  0.56508240  1
  O  O3  1  0.61526294  0.82236011  0.07655162  1
  O  O3  1  0.38473706  0.82236011  0.42344838  1
  O  O3  1  0.38473706  0.17763989  0.92344838  1
  O  O3  1  0.61526294  0.17763989  0.57655162  1
  O  O4  1  0.36645680  0.06260061  0.41570622  1
  O  O4  1  0.63354320  0.06260061  0.08429378  1
  O  O4  1  0.63354320  0.93739939  0.58429378  1
  O  O4  1  0.36645680  0.93739939  0.91570622  1
  Li  Li1  1  0.00000000  0.84126059  0.75000000  1
  Li  Li1  1  0.00000000  0.15873941  0.25000000  1
  Ta  Ta1  1  0.00000000  0.32888438  0.75000000  1
  Ta  Ta1  1  0.00000000  0.67111562  0.25000000  1
  Ta  Ta2  1  0.25816533  0.58492139  0.75402014  1
  Ta  Ta2  1  0.74183467  0.58492139  0.74597986  1
  Ta  Ta2  1  0.74183467  0.41507861  0.24597986  1
  Ta  Ta2  1  0.25816533  0.41507861  0.25402014  1
  O  O1  1  0.88276678  0.19694788  0.89469490  1
  O  O1  1  0.11723322  0.19694788  0.60530510  1
  O  O1  1  0.11723322  0.80305212  0.10530510  1
  O  O1  1  0.88276678  0.80305212  0.39469490  1
  O  O2  1  0.64502769  0.54995317  0.06508240  1
  O  O2  1  0.35497231  0.54995317  0.43491760  1
  O  O2  1  0.35497231  0.45004683  0.93491760  1
  O  O2  1  0.64502769  0.45004683  0.56508240  1
  O  O3  1  0.11526294  0.32236011  0.07655162  1
  O  O3  1  0.88473706  0.32236011  0.42344838  1
  O  O3  1  0.88473706  0.67763989  0.92344838  1
  O  O3  1  0.11526294  0.67763989  0.57655162  1
  O  O4  1  0.86645680  0.56260061  0.41570622  1
  O  O4  1  0.13354320  0.56260061  0.08429378  1
  O  O4  1  0.13354320  0.43739939  0.58429378  1
  O  O4  1  0.86645680  0.43739939  0.91570622  1
