# generated using pymatgen
data_LiTaO3
_symmetry_space_group_name_H-M   'P 1'
_cell_length_a   5.14640080
_cell_length_b   5.14640080
_cell_length_c   13.77467858
_cell_angle_alpha   90.00000000
_cell_angle_beta   90.00000000
_cell_angle_gamma   120.00000000
_symmetry_Int_Tables_number   1
_chemical_formula_structural   LiTaO3
_chemical_formula_sum   'Li6 Ta6 O18'
_cell_volume   315.95069663
_cell_formula_units_Z   6
loop_
 _symmetry_equiv_pos_site_id
 _symmetry_equiv_pos_as_xyz
  1  'x, y, z'
loop_
 _atom_site_type_symbol
 _atom_site_label
 _atom_site_symmetry_multiplicity
 _atom_site_fract_x
 _atom_site_fract_y
 _atom_site_fract_z
 _atom_site_occupancy
  Li  Li1  1  0.00000000  0.00000000  0.28173336  1
  Li  Li1  1  0.66666667  0.33333333  0.11506669  1
  Ta  Ta1  1  0.66666667  0.33333333  0.33188844  1
  Ta  Ta1  1  0.33333333  0.66666667  0.16522178  1
  O  O1  1  0.62907618  0.61854024  0.23597084  1
  O  O1  1  0.29574285  0.34386928  0.06930418  1
  O  O1  1  0.65613072  0.95187357  0.06930418  1
  O  O1  1  0.04812643  0.70425715  0.06930418  1
  O  O1  1  0.98946406  0.37092382  0.23597084  1
  O  O1  1  0.38145976  0.01053594  0.23597084  1
  Li  Li1  1  0.66666667  0.33333333  0.61506669  1
  Li  Li1  1  0.33333333  0.66666667  0.44840002  1
  Ta  Ta1  1  0.33333333  0.66666667  0.66522178  1
  Ta  Ta1  1  0.00000000  0.00000000  0.49855511  1
  O  O1  1  0.29574285  0.95187357  0.56930418  1
  O  O1  1  0.96240951  0.67720261  0.40263751  1
  O  O1  1  0.32279739  0.28520690  0.40263751  1
  O  O1  1  0.71479310  0.03759049  0.40263751  1
  O  O1  1  0.65613072  0.70425715  0.56930418  1
  O  O1  1  0.04812643  0.34386928  0.56930418  1
  Li  Li1  1  0.33333333  0.66666667  0.94840002  1
  Li  Li1  1  0.00000000  0.00000000  0.78173336  1
  Ta  Ta1  1  0.00000000  0.00000000  0.99855511  1
  Ta  Ta1  1  0.66666667  0.33333333  0.83188844  1
  O  O1  1  0.96240951  0.28520690  0.90263751  1
  O  O1  1  0.62907618  0.01053594  0.73597084  1
  O  O1  1  0.98946406  0.61854024  0.73597084  1
  O  O1  1  0.38145976  0.37092382  0.73597084  1
  O  O1  1  0.32279739  0.03759049  0.90263751  1
  O  O1  1  0.71479310  0.67720261  0.90263751  1
