# generated using pymatgen
data_LiYSiO4
_symmetry_space_group_name_H-M   'P 1'
_cell_length_a   5.39560838
_cell_length_b   6.17119809
_cell_length_c   10.80619595
_cell_angle_alpha   90.00000000
_cell_angle_beta   113.59193202
_cell_angle_gamma   90.00000000
_symmetry_Int_Tables_number   1
_chemical_formula_structural   LiYSiO4
_chemical_formula_sum   'Li4 Y4 Si4 O16'
_cell_volume   329.74398010
_cell_formula_units_Z   4
loop_
 _symmetry_equiv_pos_site_id
 _symmetry_equiv_pos_as_xyz
  1  'x, y, z'
loop_
 _atom_site_type_symbol
 _atom_site_label
 _atom_site_symmetry_multiplicity
 _atom_site_fract_x
 _atom_site_fract_y
 _atom_site_fract_z
 _atom_site_occupancy
  Li  Li1  1  0.08166582  0.13381702  0.43105166  1
  Li  Li1  1  0.91833418  0.63381702  0.06894834  1
  Li  Li1  1  0.91833418  0.86618298  0.56894834  1
  Li  Li1  1  0.08166582  0.36618298  0.93105166  1
  Y  Y1  1  0.55340428  0.11740368  0.84767928  1
  Y  Y1  1  0.44659572  0.88259632  0.15232072  1
  Y  Y1  1  0.44659572  0.61740368  0.65232072  1
  Y  Y1  1  0.55340428  0.38259632  0.34767928  1
  Si  Si1  1  0.09504530  0.65081604  0.35888215  1
  Si  Si1  1  0.90495470  0.34918396  0.64111785  1
  Si  Si1  1  0.90495470  0.15081604  0.14111785  1
  Si  Si1  1  0.09504530  0.84918396  0.85888215  1
  O  O1  1  0.76654756  0.86040804  0.77538814  1
  O  O1  1  0.76654756  0.63959196  0.27538814  1
  O  O2  1  0.81418592  0.16317776  0.52363743  1
  O  O3  1  0.24113306  0.83901404  0.75115171  1
  O  O1  1  0.23345244  0.13959196  0.22461186  1
  O  O4  1  0.77194834  0.57297232  0.55435196  1
  O  O3  1  0.24113306  0.66098596  0.25115171  1
  O  O4  1  0.22805166  0.42702768  0.44564804  1
  O  O4  1  0.22805166  0.07297232  0.94564804  1
  O  O2  1  0.18581408  0.66317776  0.97636257  1
  O  O3  1  0.75886694  0.16098596  0.24884829  1
  O  O4  1  0.77194834  0.92702768  0.05435196  1
  O  O2  1  0.81418592  0.33682224  0.02363743  1
  O  O3  1  0.75886694  0.33901404  0.74884829  1
  O  O1  1  0.23345244  0.36040804  0.72461186  1
  O  O2  1  0.18581408  0.83682224  0.47636257  1
