# generated using pymatgen
data_Mg(CuO2)2
_symmetry_space_group_name_H-M   'P 1'
_cell_length_a   3.05035169
_cell_length_b   9.75977067
_cell_length_c   8.99344289
_cell_angle_alpha   90.00000000
_cell_angle_beta   90.00000000
_cell_angle_gamma   90.00000000
_symmetry_Int_Tables_number   1
_chemical_formula_structural   Mg(CuO2)2
_chemical_formula_sum   'Mg4 Cu8 O16'
_cell_volume   267.74138635
_cell_formula_units_Z   4
loop_
 _symmetry_equiv_pos_site_id
 _symmetry_equiv_pos_as_xyz
  1  'x, y, z'
loop_
 _atom_site_type_symbol
 _atom_site_label
 _atom_site_symmetry_multiplicity
 _atom_site_fract_x
 _atom_site_fract_y
 _atom_site_fract_z
 _atom_site_occupancy
  Mg  Mg1  1  0.87299576  0.65241551  0.75000000  1
  Mg  Mg1  1  0.87299576  0.84758449  0.25000000  1
  Mg  Mg1  1  0.12700424  0.15241551  0.75000000  1
  Mg  Mg1  1  0.12700424  0.34758449  0.25000000  1
  Cu  Cu1  1  0.34632023  0.88538270  0.56952937  1
  Cu  Cu1  1  0.34632023  0.61461730  0.06952937  1
  Cu  Cu1  1  0.65367977  0.11461730  0.06952937  1
  Cu  Cu1  1  0.34632023  0.61461730  0.43047063  1
  Cu  Cu1  1  0.65367977  0.11461730  0.43047063  1
  Cu  Cu1  1  0.34632023  0.88538270  0.93047063  1
  Cu  Cu1  1  0.65367977  0.38538270  0.93047063  1
  Cu  Cu1  1  0.65367977  0.38538270  0.56952937  1
  O  O1  1  0.63515066  0.04344021  0.88316352  1
  O  O1  1  0.36484934  0.95655979  0.11683648  1
  O  O2  1  0.99417139  0.75000000  0.00000000  1
  O  O1  1  0.36484934  0.54344021  0.88316352  1
  O  O1  1  0.36484934  0.54344021  0.61683648  1
  O  O3  1  0.36959572  0.70063777  0.25000000  1
  O  O1  1  0.63515066  0.45655979  0.11683648  1
  O  O3  1  0.63040428  0.20063777  0.25000000  1
  O  O2  1  0.99417139  0.75000000  0.50000000  1
  O  O2  1  0.00582861  0.25000000  0.00000000  1
  O  O1  1  0.63515066  0.04344021  0.61683648  1
  O  O3  1  0.63040428  0.29936223  0.75000000  1
  O  O3  1  0.36959572  0.79936223  0.75000000  1
  O  O2  1  0.00582861  0.25000000  0.50000000  1
  O  O1  1  0.63515066  0.45655979  0.38316352  1
  O  O1  1  0.36484934  0.95655979  0.38316352  1
