# generated using pymatgen
data_Mg(GaO2)2
_symmetry_space_group_name_H-M   'P 1'
_cell_length_a   5.82586039
_cell_length_b   5.91650004
_cell_length_c   8.25791203
_cell_angle_alpha   90.00000000
_cell_angle_beta   90.00000000
_cell_angle_gamma   90.00000000
_symmetry_Int_Tables_number   1
_chemical_formula_structural   Mg(GaO2)2
_chemical_formula_sum   'Mg4 Ga8 O16'
_cell_volume   284.63951882
_cell_formula_units_Z   4
loop_
 _symmetry_equiv_pos_site_id
 _symmetry_equiv_pos_as_xyz
  1  'x, y, z'
loop_
 _atom_site_type_symbol
 _atom_site_label
 _atom_site_symmetry_multiplicity
 _atom_site_fract_x
 _atom_site_fract_y
 _atom_site_fract_z
 _atom_site_occupancy
  Mg  Mg1  1  0.25000000  0.25000000  0.25000000  1
  Mg  Mg1  1  0.75000000  0.25000000  0.25000000  1
  Ga  Ga1  1  0.50000000  0.25000000  0.63532213  1
  Ga  Ga1  1  0.50000000  0.75000000  0.36467787  1
  Ga  Ga2  1  0.50000000  0.00000000  0.00000000  1
  Ga  Ga2  1  0.00000000  0.00000000  0.50000000  1
  O  O1  1  0.50000000  0.00962554  0.23778486  1
  O  O1  1  0.00000000  0.99037446  0.73778486  1
  O  O2  1  0.76375484  0.75000000  0.50051473  1
  O  O2  1  0.23624516  0.75000000  0.50051473  1
  O  O2  1  0.76375484  0.25000000  0.49948527  1
  O  O2  1  0.23624516  0.25000000  0.49948527  1
  O  O1  1  0.00000000  0.00962554  0.26221514  1
  O  O1  1  0.50000000  0.99037446  0.76221514  1
  Mg  Mg1  1  0.75000000  0.75000000  0.75000000  1
  Mg  Mg1  1  0.25000000  0.75000000  0.75000000  1
  Ga  Ga1  1  0.00000000  0.75000000  0.13532213  1
  Ga  Ga1  1  0.00000000  0.25000000  0.86467787  1
  Ga  Ga2  1  0.00000000  0.50000000  0.50000000  1
  Ga  Ga2  1  0.50000000  0.50000000  0.00000000  1
  O  O1  1  0.00000000  0.50962554  0.73778486  1
  O  O1  1  0.50000000  0.49037446  0.23778486  1
  O  O2  1  0.26375484  0.25000000  0.00051473  1
  O  O2  1  0.73624516  0.25000000  0.00051473  1
  O  O2  1  0.26375484  0.75000000  0.99948527  1
  O  O2  1  0.73624516  0.75000000  0.99948527  1
  O  O1  1  0.50000000  0.50962554  0.76221514  1
  O  O1  1  0.00000000  0.49037446  0.26221514  1
