# generated using pymatgen
data_Mg(ReO4)2
_symmetry_space_group_name_H-M   'P 1'
_cell_length_a   5.75399154
_cell_length_b   5.75399154
_cell_length_c   6.42975114
_cell_angle_alpha   90.00000000
_cell_angle_beta   90.00000000
_cell_angle_gamma   120.00000000
_symmetry_Int_Tables_number   1
_chemical_formula_structural   Mg(ReO4)2
_chemical_formula_sum   'Mg1 Re2 O8'
_cell_volume   184.35852853
_cell_formula_units_Z   1
loop_
 _symmetry_equiv_pos_site_id
 _symmetry_equiv_pos_as_xyz
  1  'x, y, z'
loop_
 _atom_site_type_symbol
 _atom_site_label
 _atom_site_symmetry_multiplicity
 _atom_site_fract_x
 _atom_site_fract_y
 _atom_site_fract_z
 _atom_site_occupancy
  Mg  Mg1  1  0.00000000  0.00000000  0.00000000  1
  Re  Re1  1  0.66666667  0.33333333  0.27469528  1
  Re  Re1  1  0.33333333  0.66666667  0.72530472  1
  O  O1  1  0.33645618  0.16822809  0.18407363  1
  O  O1  1  0.83177191  0.16822809  0.18407363  1
  O  O2  1  0.66666667  0.33333333  0.54334855  1
  O  O1  1  0.16822809  0.33645618  0.81592637  1
  O  O1  1  0.83177191  0.66354382  0.18407363  1
  O  O2  1  0.33333333  0.66666667  0.45665145  1
  O  O1  1  0.16822809  0.83177191  0.81592637  1
  O  O1  1  0.66354382  0.83177191  0.81592637  1
