# generated using pymatgen
data_Mg(SbO3)2
_symmetry_space_group_name_H-M   'P 1'
_cell_length_a   4.67823147
_cell_length_b   4.67823147
_cell_length_c   9.31467084
_cell_angle_alpha   90.00000000
_cell_angle_beta   90.00000000
_cell_angle_gamma   90.00000000
_symmetry_Int_Tables_number   1
_chemical_formula_structural   Mg(SbO3)2
_chemical_formula_sum   'Mg2 Sb4 O12'
_cell_volume   203.85948632
_cell_formula_units_Z   2
loop_
 _symmetry_equiv_pos_site_id
 _symmetry_equiv_pos_as_xyz
  1  'x, y, z'
loop_
 _atom_site_type_symbol
 _atom_site_label
 _atom_site_symmetry_multiplicity
 _atom_site_fract_x
 _atom_site_fract_y
 _atom_site_fract_z
 _atom_site_occupancy
  Mg  Mg1  1  0.00000000  0.00000000  0.00000000  1
  Mg  Mg1  1  0.50000000  0.50000000  0.50000000  1
  Sb  Sb1  1  0.50000000  0.50000000  0.83253723  1
  Sb  Sb1  1  0.00000000  0.00000000  0.33253723  1
  Sb  Sb1  1  0.50000000  0.50000000  0.16746277  1
  Sb  Sb1  1  0.00000000  0.00000000  0.66746277  1
  O  O1  1  0.69743334  0.30256666  0.67100757  1
  O  O1  1  0.30256666  0.69743334  0.67100757  1
  O  O1  1  0.69743334  0.30256666  0.32899243  1
  O  O1  1  0.80256666  0.80256666  0.17100757  1
  O  O1  1  0.19743334  0.19743334  0.17100757  1
  O  O1  1  0.19743334  0.19743334  0.82899243  1
  O  O2  1  0.30917280  0.69082720  0.00000000  1
  O  O2  1  0.80917280  0.80917280  0.50000000  1
  O  O2  1  0.19082720  0.19082720  0.50000000  1
  O  O2  1  0.69082720  0.30917280  0.00000000  1
  O  O1  1  0.30256666  0.69743334  0.32899243  1
  O  O1  1  0.80256666  0.80256666  0.82899243  1
