# generated using pymatgen
data_Mg(SbO2)2
_symmetry_space_group_name_H-M   'P 1'
_cell_length_a   8.42113731
_cell_length_b   8.42113731
_cell_length_c   5.98725548
_cell_angle_alpha   90.00000000
_cell_angle_beta   90.00000000
_cell_angle_gamma   90.00000000
_symmetry_Int_Tables_number   1
_chemical_formula_structural   Mg(SbO2)2
_chemical_formula_sum   'Mg4 Sb8 O16'
_cell_volume   424.58953656
_cell_formula_units_Z   4
loop_
 _symmetry_equiv_pos_site_id
 _symmetry_equiv_pos_as_xyz
  1  'x, y, z'
loop_
 _atom_site_type_symbol
 _atom_site_label
 _atom_site_symmetry_multiplicity
 _atom_site_fract_x
 _atom_site_fract_y
 _atom_site_fract_z
 _atom_site_occupancy
  Mg  Mg1  1  0.50000000  0.00000000  0.25000000  1
  Mg  Mg1  1  0.00000000  0.50000000  0.75000000  1
  Mg  Mg1  1  0.50000000  0.00000000  0.75000000  1
  Mg  Mg1  1  0.00000000  0.50000000  0.25000000  1
  Sb  Sb1  1  0.82713670  0.16450176  0.00000000  1
  Sb  Sb1  1  0.16450176  0.17286330  0.50000000  1
  Sb  Sb1  1  0.83549824  0.82713670  0.50000000  1
  Sb  Sb1  1  0.32713670  0.33549824  0.00000000  1
  Sb  Sb1  1  0.67286330  0.66450176  0.00000000  1
  Sb  Sb1  1  0.17286330  0.83549824  0.00000000  1
  Sb  Sb1  1  0.33549824  0.67286330  0.50000000  1
  Sb  Sb1  1  0.66450176  0.32713670  0.50000000  1
  O  O1  1  0.59648039  0.13898633  0.00000000  1
  O  O1  1  0.13898633  0.40351961  0.50000000  1
  O  O1  1  0.86101367  0.59648039  0.50000000  1
  O  O1  1  0.09648039  0.36101367  0.00000000  1
  O  O1  1  0.90351961  0.63898633  0.00000000  1
  O  O1  1  0.40351961  0.86101367  0.00000000  1
  O  O1  1  0.36101367  0.90351961  0.50000000  1
  O  O1  1  0.63898633  0.09648039  0.50000000  1
  O  O2  1  0.67577552  0.82422448  0.25000000  1
  O  O2  1  0.82422448  0.32422448  0.75000000  1
  O  O2  1  0.17577552  0.67577552  0.75000000  1
  O  O2  1  0.32422448  0.17577552  0.25000000  1
  O  O2  1  0.32422448  0.17577552  0.75000000  1
  O  O2  1  0.17577552  0.67577552  0.25000000  1
  O  O2  1  0.82422448  0.32422448  0.25000000  1
  O  O2  1  0.67577552  0.82422448  0.75000000  1
