# generated using pymatgen
data_Mg2GeO4
_symmetry_space_group_name_H-M   'P 1'
_cell_length_a   10.31462920
_cell_length_b   6.03769402
_cell_length_c   4.94765422
_cell_angle_alpha   90.00000000
_cell_angle_beta   90.00000000
_cell_angle_gamma   90.00000000
_symmetry_Int_Tables_number   1
_chemical_formula_structural   Mg2GeO4
_chemical_formula_sum   'Mg8 Ge4 O16'
_cell_volume   308.12295899
_cell_formula_units_Z   4
loop_
 _symmetry_equiv_pos_site_id
 _symmetry_equiv_pos_as_xyz
  1  'x, y, z'
loop_
 _atom_site_type_symbol
 _atom_site_label
 _atom_site_symmetry_multiplicity
 _atom_site_fract_x
 _atom_site_fract_y
 _atom_site_fract_z
 _atom_site_occupancy
  Mg  Mg1  1  0.50000000  0.50000000  0.50000000  1
  Mg  Mg1  1  0.00000000  0.50000000  0.00000000  1
  Mg  Mg1  1  0.50000000  0.00000000  0.50000000  1
  Mg  Mg1  1  0.00000000  0.00000000  0.00000000  1
  Mg  Mg2  1  0.72456536  0.25000000  0.99344156  1
  Mg  Mg2  1  0.77543464  0.75000000  0.49344156  1
  Mg  Mg2  1  0.27543464  0.75000000  0.00655844  1
  Mg  Mg2  1  0.22456536  0.25000000  0.50655844  1
  Ge  Ge1  1  0.40520596  0.25000000  0.06234178  1
  Ge  Ge1  1  0.09479404  0.75000000  0.56234178  1
  Ge  Ge1  1  0.59479404  0.75000000  0.93765822  1
  Ge  Ge1  1  0.90520596  0.25000000  0.43765822  1
  O  O1  1  0.16531184  0.98161728  0.73636058  1
  O  O1  1  0.33468816  0.01838272  0.23636058  1
  O  O1  1  0.83468816  0.48161728  0.26363942  1
  O  O1  1  0.66531184  0.51838272  0.76363942  1
  O  O1  1  0.83468816  0.01838272  0.26363942  1
  O  O1  1  0.66531184  0.98161728  0.76363942  1
  O  O1  1  0.16531184  0.51838272  0.73636058  1
  O  O1  1  0.33468816  0.48161728  0.23636058  1
  O  O2  1  0.56163428  0.25000000  0.23085698  1
  O  O2  1  0.93836572  0.75000000  0.73085698  1
  O  O2  1  0.43836572  0.75000000  0.76914302  1
  O  O2  1  0.06163428  0.25000000  0.26914302  1
  O  O3  1  0.40782961  0.25000000  0.70569250  1
  O  O3  1  0.09217039  0.75000000  0.20569250  1
  O  O3  1  0.59217039  0.75000000  0.29430750  1
  O  O3  1  0.90782961  0.25000000  0.79430750  1
