# generated using pymatgen
data_Mg2PtO4
_symmetry_space_group_name_H-M   'P 1'
_cell_length_a   5.92527542
_cell_length_b   6.14262872
_cell_length_c   8.51290098
_cell_angle_alpha   90.00000000
_cell_angle_beta   90.00000000
_cell_angle_gamma   90.00000000
_symmetry_Int_Tables_number   1
_chemical_formula_structural   Mg2PtO4
_chemical_formula_sum   'Mg8 Pt4 O16'
_cell_volume   309.84207363
_cell_formula_units_Z   4
loop_
 _symmetry_equiv_pos_site_id
 _symmetry_equiv_pos_as_xyz
  1  'x, y, z'
loop_
 _atom_site_type_symbol
 _atom_site_label
 _atom_site_symmetry_multiplicity
 _atom_site_fract_x
 _atom_site_fract_y
 _atom_site_fract_z
 _atom_site_occupancy
  Mg  Mg1  1  0.50000000  0.75000000  0.35598024  1
  Mg  Mg1  1  0.50000000  0.25000000  0.64401976  1
  Mg  Mg2  1  0.25000000  0.75000000  0.75000000  1
  Mg  Mg2  1  0.75000000  0.75000000  0.75000000  1
  Pt  Pt1  1  0.00000000  0.50000000  0.50000000  1
  Pt  Pt1  1  0.50000000  0.50000000  0.00000000  1
  O  O1  1  0.77549911  0.25000000  0.49851666  1
  O  O1  1  0.22450089  0.25000000  0.49851666  1
  O  O2  1  0.00000000  0.47916158  0.26218294  1
  O  O2  1  0.50000000  0.52083842  0.76218294  1
  O  O2  1  0.50000000  0.47916158  0.23781706  1
  O  O1  1  0.77549911  0.75000000  0.50148334  1
  O  O2  1  0.00000000  0.52083842  0.73781706  1
  O  O1  1  0.22450089  0.75000000  0.50148334  1
  Mg  Mg1  1  0.00000000  0.25000000  0.85598024  1
  Mg  Mg1  1  0.00000000  0.75000000  0.14401976  1
  Mg  Mg2  1  0.75000000  0.25000000  0.25000000  1
  Mg  Mg2  1  0.25000000  0.25000000  0.25000000  1
  Pt  Pt1  1  0.50000000  0.00000000  0.00000000  1
  Pt  Pt1  1  0.00000000  0.00000000  0.50000000  1
  O  O1  1  0.27549911  0.75000000  0.99851666  1
  O  O1  1  0.72450089  0.75000000  0.99851666  1
  O  O2  1  0.50000000  0.97916158  0.76218294  1
  O  O2  1  0.00000000  0.02083842  0.26218294  1
  O  O2  1  0.00000000  0.97916158  0.73781706  1
  O  O1  1  0.27549911  0.25000000  0.00148334  1
  O  O2  1  0.50000000  0.02083842  0.23781706  1
  O  O1  1  0.72450089  0.25000000  0.00148334  1
