# generated using pymatgen
data_Mg2SnO4
_symmetry_space_group_name_H-M   'P 1'
_cell_length_a   6.05352387
_cell_length_b   6.23118439
_cell_length_c   8.62007226
_cell_angle_alpha   90.00000000
_cell_angle_beta   90.00000000
_cell_angle_gamma   90.00000000
_symmetry_Int_Tables_number   1
_chemical_formula_structural   Mg2SnO4
_chemical_formula_sum   'Mg8 Sn4 O16'
_cell_volume   325.15449996
_cell_formula_units_Z   4
loop_
 _symmetry_equiv_pos_site_id
 _symmetry_equiv_pos_as_xyz
  1  'x, y, z'
loop_
 _atom_site_type_symbol
 _atom_site_label
 _atom_site_symmetry_multiplicity
 _atom_site_fract_x
 _atom_site_fract_y
 _atom_site_fract_z
 _atom_site_occupancy
  Mg  Mg1  1  0.50000000  0.75000000  0.36212326  1
  Mg  Mg1  1  0.50000000  0.25000000  0.63787674  1
  Mg  Mg2  1  0.25000000  0.75000000  0.75000000  1
  Mg  Mg2  1  0.75000000  0.75000000  0.75000000  1
  Sn  Sn1  1  0.00000000  0.50000000  0.50000000  1
  Sn  Sn1  1  0.50000000  0.50000000  0.00000000  1
  O  O1  1  0.76515975  0.25000000  0.49598266  1
  O  O2  1  0.00000000  0.48140450  0.26354930  1
  O  O1  1  0.23484025  0.25000000  0.49598266  1
  O  O2  1  0.50000000  0.51859550  0.76354930  1
  O  O2  1  0.50000000  0.48140450  0.23645070  1
  O  O2  1  0.00000000  0.51859550  0.73645070  1
  O  O1  1  0.76515975  0.75000000  0.50401734  1
  O  O1  1  0.23484025  0.75000000  0.50401734  1
  Mg  Mg1  1  0.00000000  0.25000000  0.86212326  1
  Mg  Mg1  1  0.00000000  0.75000000  0.13787674  1
  Mg  Mg2  1  0.75000000  0.25000000  0.25000000  1
  Mg  Mg2  1  0.25000000  0.25000000  0.25000000  1
  Sn  Sn1  1  0.50000000  0.00000000  0.00000000  1
  Sn  Sn1  1  0.00000000  0.00000000  0.50000000  1
  O  O1  1  0.26515975  0.75000000  0.99598266  1
  O  O2  1  0.50000000  0.98140450  0.76354930  1
  O  O1  1  0.73484025  0.75000000  0.99598266  1
  O  O2  1  0.00000000  0.01859550  0.26354930  1
  O  O2  1  0.00000000  0.98140450  0.73645070  1
  O  O2  1  0.50000000  0.01859550  0.23645070  1
  O  O1  1  0.26515975  0.25000000  0.00401734  1
  O  O1  1  0.73484025  0.25000000  0.00401734  1
