# generated using pymatgen
data_Mg2SiO4
_symmetry_space_group_name_H-M   'P 1'
_cell_length_a   10.19307905
_cell_length_b   5.98006082
_cell_length_c   4.76262781
_cell_angle_alpha   90.00000000
_cell_angle_beta   90.00000000
_cell_angle_gamma   90.00000000
_symmetry_Int_Tables_number   1
_chemical_formula_structural   Mg2SiO4
_chemical_formula_sum   'Mg8 Si4 O16'
_cell_volume   290.30708648
_cell_formula_units_Z   4
loop_
 _symmetry_equiv_pos_site_id
 _symmetry_equiv_pos_as_xyz
  1  'x, y, z'
loop_
 _atom_site_type_symbol
 _atom_site_label
 _atom_site_symmetry_multiplicity
 _atom_site_fract_x
 _atom_site_fract_y
 _atom_site_fract_z
 _atom_site_occupancy
  Mg  Mg1  1  0.50000000  0.50000000  0.50000000  1
  Mg  Mg1  1  0.00000000  0.50000000  0.00000000  1
  Mg  Mg1  1  0.50000000  0.00000000  0.50000000  1
  Mg  Mg1  1  0.00000000  0.00000000  0.00000000  1
  Mg  Mg2  1  0.77664085  0.25000000  0.50841416  1
  Mg  Mg2  1  0.72335915  0.75000000  0.00841416  1
  Mg  Mg2  1  0.22335915  0.75000000  0.49158584  1
  Mg  Mg2  1  0.27664085  0.25000000  0.99158584  1
  Si  Si1  1  0.09376421  0.25000000  0.42693198  1
  Si  Si1  1  0.40623579  0.75000000  0.92693198  1
  Si  Si1  1  0.90623579  0.75000000  0.57306802  1
  Si  Si1  1  0.59376421  0.25000000  0.07306802  1
  O  O1  1  0.33659548  0.96832514  0.77592892  1
  O  O1  1  0.16340452  0.03167486  0.27592892  1
  O  O1  1  0.66340452  0.46832514  0.22407108  1
  O  O1  1  0.83659548  0.53167486  0.72407108  1
  O  O1  1  0.66340452  0.03167486  0.22407108  1
  O  O1  1  0.83659548  0.96832514  0.72407108  1
  O  O1  1  0.33659548  0.53167486  0.77592892  1
  O  O1  1  0.16340452  0.46832514  0.27592892  1
  O  O2  1  0.94576759  0.25000000  0.27773350  1
  O  O2  1  0.55423241  0.75000000  0.77773350  1
  O  O2  1  0.05423241  0.75000000  0.72226650  1
  O  O2  1  0.44576759  0.25000000  0.22226650  1
  O  O3  1  0.09172046  0.25000000  0.76853322  1
  O  O3  1  0.40827954  0.75000000  0.26853322  1
  O  O3  1  0.90827954  0.75000000  0.23146678  1
  O  O3  1  0.59172046  0.25000000  0.73146678  1
