# generated using pymatgen
data_Mg2TiO4
_symmetry_space_group_name_H-M   'P 1'
_cell_length_a   5.98531928
_cell_length_b   5.98531928
_cell_length_c   8.39837371
_cell_angle_alpha   90.00000000
_cell_angle_beta   90.00000000
_cell_angle_gamma   90.00000000
_symmetry_Int_Tables_number   1
_chemical_formula_structural   Mg2TiO4
_chemical_formula_sum   'Mg8 Ti4 O16'
_cell_volume   300.86373311
_cell_formula_units_Z   4
loop_
 _symmetry_equiv_pos_site_id
 _symmetry_equiv_pos_as_xyz
  1  'x, y, z'
loop_
 _atom_site_type_symbol
 _atom_site_label
 _atom_site_symmetry_multiplicity
 _atom_site_fract_x
 _atom_site_fract_y
 _atom_site_fract_z
 _atom_site_occupancy
  Mg  Mg1  1  0.00000000  0.75097368  0.50000000  1
  Mg  Mg1  1  0.00000000  0.24902632  0.00000000  1
  Mg  Mg1  1  0.75097368  0.00000000  0.25000000  1
  Mg  Mg2  1  0.74861952  0.74861952  0.87500000  1
  Mg  Mg2  1  0.74861952  0.25138048  0.62500000  1
  Mg  Mg2  1  0.25138048  0.74861952  0.12500000  1
  Mg  Mg2  1  0.25138048  0.25138048  0.37500000  1
  Mg  Mg1  1  0.24902632  0.00000000  0.75000000  1
  Ti  Ti1  1  0.76121972  0.50000000  0.25000000  1
  Ti  Ti1  1  0.50000000  0.76121972  0.50000000  1
  Ti  Ti1  1  0.50000000  0.23878028  0.00000000  1
  Ti  Ti1  1  0.23878028  0.50000000  0.75000000  1
  O  O1  1  0.97360252  0.73823932  0.25231950  1
  O  O1  1  0.97360252  0.26176068  0.24768050  1
  O  O2  1  0.73887590  0.51680610  0.48426548  1
  O  O2  1  0.73887590  0.48319390  0.01573452  1
  O  O1  1  0.73823932  0.97360252  0.49768050  1
  O  O1  1  0.73823932  0.02639748  0.00231950  1
  O  O2  1  0.51680610  0.73887590  0.26573452  1
  O  O2  1  0.51680610  0.26112410  0.23426548  1
  O  O2  1  0.48319390  0.73887590  0.73426548  1
  O  O2  1  0.48319390  0.26112410  0.76573452  1
  O  O1  1  0.26176068  0.02639748  0.99768050  1
  O  O1  1  0.26176068  0.97360252  0.50231950  1
  O  O2  1  0.26112410  0.51680610  0.51573452  1
  O  O2  1  0.26112410  0.48319390  0.98426548  1
  O  O1  1  0.02639748  0.73823932  0.74768050  1
  O  O1  1  0.02639748  0.26176068  0.75231950  1
