# generated using pymatgen
data_Mg3(BO3)2
_symmetry_space_group_name_H-M   'P 1'
_cell_length_a   4.50258848
_cell_length_b   5.37824502
_cell_length_c   8.42605105
_cell_angle_alpha   90.00000000
_cell_angle_beta   90.00000000
_cell_angle_gamma   90.00000000
_symmetry_Int_Tables_number   1
_chemical_formula_structural   Mg3(BO3)2
_chemical_formula_sum   'Mg6 B4 O12'
_cell_volume   204.04545476
_cell_formula_units_Z   2
loop_
 _symmetry_equiv_pos_site_id
 _symmetry_equiv_pos_as_xyz
  1  'x, y, z'
loop_
 _atom_site_type_symbol
 _atom_site_label
 _atom_site_symmetry_multiplicity
 _atom_site_fract_x
 _atom_site_fract_y
 _atom_site_fract_z
 _atom_site_occupancy
  Mg  Mg1  1  0.00000000  0.50000000  0.81320806  1
  Mg  Mg1  1  0.50000000  0.00000000  0.68679194  1
  Mg  Mg1  1  0.00000000  0.50000000  0.18679194  1
  Mg  Mg1  1  0.50000000  0.00000000  0.31320806  1
  Mg  Mg2  1  0.50000000  0.50000000  0.50000000  1
  Mg  Mg2  1  0.00000000  0.00000000  0.00000000  1
  B  B1  1  0.04685545  0.24278588  0.50000000  1
  B  B1  1  0.45314455  0.74278588  0.00000000  1
  B  B1  1  0.95314455  0.75721412  0.50000000  1
  B  B1  1  0.54685545  0.25721412  0.00000000  1
  O  O1  1  0.29719177  0.79604410  0.13950128  1
  O  O1  1  0.79719177  0.70395590  0.36049872  1
  O  O1  1  0.29719177  0.79604410  0.86049872  1
  O  O1  1  0.70280823  0.20395590  0.86049872  1
  O  O1  1  0.79719177  0.70395590  0.63950128  1
  O  O1  1  0.20280823  0.29604410  0.63950128  1
  O  O2  1  0.25030998  0.32356349  0.00000000  1
  O  O2  1  0.75030998  0.17643651  0.50000000  1
  O  O2  1  0.24969002  0.82356349  0.50000000  1
  O  O2  1  0.74969002  0.67643651  0.00000000  1
  O  O1  1  0.70280823  0.20395590  0.13950128  1
  O  O1  1  0.20280823  0.29604410  0.36049872  1
