# generated using pymatgen
data_Mg3(AsO4)2
_symmetry_space_group_name_H-M   'P 1'
_cell_length_a   5.33647233
_cell_length_b   8.36520998
_cell_length_c   9.03154688
_cell_angle_alpha   90.00000000
_cell_angle_beta   120.25491284
_cell_angle_gamma   90.00000000
_symmetry_Int_Tables_number   1
_chemical_formula_structural   Mg3(AsO4)2
_chemical_formula_sum   'Mg6 As4 O16'
_cell_volume   348.25918646
_cell_formula_units_Z   2
loop_
 _symmetry_equiv_pos_site_id
 _symmetry_equiv_pos_as_xyz
  1  'x, y, z'
loop_
 _atom_site_type_symbol
 _atom_site_label
 _atom_site_symmetry_multiplicity
 _atom_site_fract_x
 _atom_site_fract_y
 _atom_site_fract_z
 _atom_site_occupancy
  Mg  Mg1  1  0.50000000  0.00000000  0.50000000  1
  Mg  Mg2  1  0.50259448  0.35683164  0.60355732  1
  Mg  Mg2  1  0.49740552  0.85683164  0.89644268  1
  Mg  Mg1  1  0.50000000  0.50000000  0.00000000  1
  Mg  Mg2  1  0.50259448  0.14316836  0.10355732  1
  Mg  Mg2  1  0.49740552  0.64316836  0.39644268  1
  As  As1  1  0.15078252  0.30406490  0.19542210  1
  As  As1  1  0.84921748  0.80406490  0.30457790  1
  As  As1  1  0.15078252  0.19593510  0.69542210  1
  As  As1  1  0.84921748  0.69593510  0.80457790  1
  O  O1  1  0.67032758  0.87653724  0.74010500  1
  O  O2  1  0.29764179  0.43647556  0.36142410  1
  O  O3  1  0.76381327  0.64829974  0.95833336  1
  O  O4  1  0.21331343  0.80186502  0.38556448  1
  O  O3  1  0.23618673  0.14829974  0.54166664  1
  O  O1  1  0.32967242  0.37653724  0.75989500  1
  O  O4  1  0.78668657  0.30186502  0.11443552  1
  O  O2  1  0.70235821  0.93647556  0.13857590  1
  O  O2  1  0.29764179  0.06352444  0.86142410  1
  O  O4  1  0.21331343  0.69813498  0.88556448  1
  O  O1  1  0.67032758  0.62346276  0.24010500  1
  O  O3  1  0.76381327  0.85170026  0.45833336  1
  O  O4  1  0.78668657  0.19813498  0.61443552  1
  O  O3  1  0.23618673  0.35170026  0.04166664  1
  O  O2  1  0.70235821  0.56352444  0.63857590  1
  O  O1  1  0.32967242  0.12346276  0.25989500  1
