# generated using pymatgen
data_Mg3V2O8
_symmetry_space_group_name_H-M   'P 1'
_cell_length_a   6.04366667
_cell_length_b   11.43644156
_cell_length_c   8.30469524
_cell_angle_alpha   90.00000000
_cell_angle_beta   90.00000000
_cell_angle_gamma   90.00000000
_symmetry_Int_Tables_number   1
_chemical_formula_structural   Mg3V2O8
_chemical_formula_sum   'Mg12 V8 O32'
_cell_volume   574.00426390
_cell_formula_units_Z   4
loop_
 _symmetry_equiv_pos_site_id
 _symmetry_equiv_pos_as_xyz
  1  'x, y, z'
loop_
 _atom_site_type_symbol
 _atom_site_label
 _atom_site_symmetry_multiplicity
 _atom_site_fract_x
 _atom_site_fract_y
 _atom_site_fract_z
 _atom_site_occupancy
  Mg  Mg1  1  0.50000000  0.00000000  0.00000000  1
  Mg  Mg1  1  0.00000000  0.00000000  0.50000000  1
  Mg  Mg2  1  0.25000000  0.13608527  0.75000000  1
  Mg  Mg2  1  0.75000000  0.36391473  0.25000000  1
  Mg  Mg2  1  0.75000000  0.13608527  0.75000000  1
  Mg  Mg2  1  0.25000000  0.36391473  0.25000000  1
  V  V1  1  0.50000000  0.38052009  0.88007513  1
  V  V1  1  0.00000000  0.11947991  0.11992487  1
  V  V1  1  0.50000000  0.11947991  0.38007513  1
  V  V1  1  0.00000000  0.38052009  0.61992487  1
  O  O1  1  0.22987740  0.38252091  0.50045453  1
  O  O1  1  0.72987740  0.11747909  0.49954547  1
  O  O1  1  0.77012260  0.11747909  0.00045453  1
  O  O1  1  0.27012260  0.38252091  0.99954547  1
  O  O1  1  0.27012260  0.11747909  0.49954547  1
  O  O1  1  0.77012260  0.38252091  0.50045453  1
  O  O1  1  0.72987740  0.38252091  0.99954547  1
  O  O1  1  0.22987740  0.11747909  0.00045453  1
  O  O2  1  0.00000000  0.00331409  0.74558444  1
  O  O2  1  0.50000000  0.49668591  0.25441556  1
  O  O3  1  0.50000000  0.25185236  0.77300776  1
  O  O3  1  0.00000000  0.24814764  0.22699224  1
  O  O3  1  0.50000000  0.24814764  0.27300776  1
  O  O3  1  0.00000000  0.25185236  0.72699224  1
  O  O2  1  0.50000000  0.00331409  0.75441556  1
  O  O2  1  0.00000000  0.49668591  0.24558444  1
  Mg  Mg1  1  0.00000000  0.50000000  0.00000000  1
  Mg  Mg1  1  0.50000000  0.50000000  0.50000000  1
  Mg  Mg2  1  0.75000000  0.63608527  0.75000000  1
  Mg  Mg2  1  0.25000000  0.86391473  0.25000000  1
  Mg  Mg2  1  0.25000000  0.63608527  0.75000000  1
  Mg  Mg2  1  0.75000000  0.86391473  0.25000000  1
  V  V1  1  0.00000000  0.88052009  0.88007513  1
  V  V1  1  0.50000000  0.61947991  0.11992487  1
  V  V1  1  0.00000000  0.61947991  0.38007513  1
  V  V1  1  0.50000000  0.88052009  0.61992487  1
  O  O1  1  0.72987740  0.88252091  0.50045453  1
  O  O1  1  0.22987740  0.61747909  0.49954547  1
  O  O1  1  0.27012260  0.61747909  0.00045453  1
  O  O1  1  0.77012260  0.88252091  0.99954547  1
  O  O1  1  0.77012260  0.61747909  0.49954547  1
  O  O1  1  0.27012260  0.88252091  0.50045453  1
  O  O1  1  0.22987740  0.88252091  0.99954547  1
  O  O1  1  0.72987740  0.61747909  0.00045453  1
  O  O2  1  0.50000000  0.50331409  0.74558444  1
  O  O2  1  0.00000000  0.99668591  0.25441556  1
  O  O3  1  0.00000000  0.75185236  0.77300776  1
  O  O3  1  0.50000000  0.74814764  0.22699224  1
  O  O3  1  0.00000000  0.74814764  0.27300776  1
  O  O3  1  0.50000000  0.75185236  0.72699224  1
  O  O2  1  0.00000000  0.50331409  0.75441556  1
  O  O2  1  0.50000000  0.99668591  0.24558444  1
