# generated using pymatgen
data_Mg4Nb2O9
_symmetry_space_group_name_H-M   'P 1'
_cell_length_a   5.17434524
_cell_length_b   5.17434524
_cell_length_c   14.02568574
_cell_angle_alpha   90.00000000
_cell_angle_beta   90.00000000
_cell_angle_gamma   120.00000000
_symmetry_Int_Tables_number   1
_chemical_formula_structural   Mg4Nb2O9
_chemical_formula_sum   'Mg8 Nb4 O18'
_cell_volume   325.21123393
_cell_formula_units_Z   2
loop_
 _symmetry_equiv_pos_site_id
 _symmetry_equiv_pos_as_xyz
  1  'x, y, z'
loop_
 _atom_site_type_symbol
 _atom_site_label
 _atom_site_symmetry_multiplicity
 _atom_site_fract_x
 _atom_site_fract_y
 _atom_site_fract_z
 _atom_site_occupancy
  Mg  Mg1  1  0.33333333  0.66666667  0.01669162  1
  Mg  Mg1  1  0.66666667  0.33333333  0.48330838  1
  Mg  Mg1  1  0.66666667  0.33333333  0.98330838  1
  Mg  Mg1  1  0.33333333  0.66666667  0.51669162  1
  Mg  Mg2  1  0.33333333  0.66666667  0.80840189  1
  Mg  Mg2  1  0.66666667  0.33333333  0.69159811  1
  Mg  Mg2  1  0.66666667  0.33333333  0.19159811  1
  Mg  Mg2  1  0.33333333  0.66666667  0.30840189  1
  Nb  Nb1  1  0.00000000  0.00000000  0.85818432  1
  Nb  Nb1  1  0.00000000  0.00000000  0.64181568  1
  Nb  Nb1  1  0.00000000  0.00000000  0.14181568  1
  Nb  Nb1  1  0.00000000  0.00000000  0.35818432  1
  O  O1  1  0.32030053  0.34983314  0.41571335  1
  O  O1  1  0.65016686  0.97046739  0.41571335  1
  O  O1  1  0.02953261  0.67969947  0.41571335  1
  O  O1  1  0.34983314  0.32030053  0.08428665  1
  O  O1  1  0.97046739  0.65016686  0.08428665  1
  O  O1  1  0.67969947  0.02953261  0.08428665  1
  O  O1  1  0.67969947  0.65016686  0.58428665  1
  O  O1  1  0.34983314  0.02953261  0.58428665  1
  O  O1  1  0.97046739  0.32030053  0.58428665  1
  O  O1  1  0.65016686  0.67969947  0.91571335  1
  O  O1  1  0.02953261  0.34983314  0.91571335  1
  O  O1  1  0.32030053  0.97046739  0.91571335  1
  O  O2  1  0.29033112  0.29033112  0.75000000  1
  O  O2  1  0.70966888  0.00000000  0.75000000  1
  O  O2  1  0.00000000  0.70966888  0.75000000  1
  O  O2  1  0.70966888  0.70966888  0.25000000  1
  O  O2  1  0.29033112  0.00000000  0.25000000  1
  O  O2  1  0.00000000  0.29033112  0.25000000  1
