# generated using pymatgen
data_Mg4Ta2O9
_symmetry_space_group_name_H-M   'P 1'
_cell_length_a   5.15873030
_cell_length_b   5.15873030
_cell_length_c   14.00893323
_cell_angle_alpha   90.00000000
_cell_angle_beta   90.00000000
_cell_angle_gamma   120.00000000
_symmetry_Int_Tables_number   1
_chemical_formula_structural   Mg4Ta2O9
_chemical_formula_sum   'Mg8 Ta4 O18'
_cell_volume   322.86527934
_cell_formula_units_Z   2
loop_
 _symmetry_equiv_pos_site_id
 _symmetry_equiv_pos_as_xyz
  1  'x, y, z'
loop_
 _atom_site_type_symbol
 _atom_site_label
 _atom_site_symmetry_multiplicity
 _atom_site_fract_x
 _atom_site_fract_y
 _atom_site_fract_z
 _atom_site_occupancy
  Mg  Mg1  1  0.66666667  0.33333333  0.51668889  1
  Mg  Mg1  1  0.33333333  0.66666667  0.98331111  1
  Mg  Mg1  1  0.33333333  0.66666667  0.48331111  1
  Mg  Mg1  1  0.66666667  0.33333333  0.01668889  1
  Mg  Mg2  1  0.66666667  0.33333333  0.30960666  1
  Mg  Mg2  1  0.33333333  0.66666667  0.19039334  1
  Mg  Mg2  1  0.33333333  0.66666667  0.69039334  1
  Mg  Mg2  1  0.66666667  0.33333333  0.80960666  1
  Ta  Ta1  1  0.00000000  0.00000000  0.85706165  1
  Ta  Ta1  1  0.00000000  0.00000000  0.64293835  1
  Ta  Ta1  1  0.00000000  0.00000000  0.14293835  1
  Ta  Ta1  1  0.00000000  0.00000000  0.35706165  1
  O  O1  1  0.00000000  0.28831819  0.25000000  1
  O  O1  1  0.28831819  0.00000000  0.25000000  1
  O  O1  1  0.71168181  0.71168181  0.25000000  1
  O  O1  1  0.00000000  0.71168181  0.75000000  1
  O  O1  1  0.71168181  0.00000000  0.75000000  1
  O  O1  1  0.28831819  0.28831819  0.75000000  1
  O  O2  1  0.02938910  0.68139455  0.08457565  1
  O  O2  1  0.31860545  0.34799455  0.08457565  1
  O  O2  1  0.65200545  0.97061090  0.08457565  1
  O  O2  1  0.68139455  0.02938910  0.41542435  1
  O  O2  1  0.34799455  0.31860545  0.41542435  1
  O  O2  1  0.97061090  0.65200545  0.41542435  1
  O  O2  1  0.02938910  0.34799455  0.58457565  1
  O  O2  1  0.65200545  0.68139455  0.58457565  1
  O  O2  1  0.31860545  0.97061090  0.58457565  1
  O  O2  1  0.34799455  0.02938910  0.91542435  1
  O  O2  1  0.68139455  0.65200545  0.91542435  1
  O  O2  1  0.97061090  0.31860545  0.91542435  1
