# generated using pymatgen
data_MgAlBO4
_symmetry_space_group_name_H-M   'P 1'
_cell_length_a   9.87432447
_cell_length_b   5.68611444
_cell_length_c   4.33563405
_cell_angle_alpha   90.00000000
_cell_angle_beta   90.00000000
_cell_angle_gamma   90.00000000
_symmetry_Int_Tables_number   1
_chemical_formula_structural   MgAlBO4
_chemical_formula_sum   'Mg4 Al4 B4 O16'
_cell_volume   243.43084589
_cell_formula_units_Z   4
loop_
 _symmetry_equiv_pos_site_id
 _symmetry_equiv_pos_as_xyz
  1  'x, y, z'
loop_
 _atom_site_type_symbol
 _atom_site_label
 _atom_site_symmetry_multiplicity
 _atom_site_fract_x
 _atom_site_fract_y
 _atom_site_fract_z
 _atom_site_occupancy
  Mg  Mg1  1  0.72464609  0.25000000  0.98522775  1
  Mg  Mg1  1  0.77535391  0.75000000  0.48522775  1
  Mg  Mg1  1  0.27535391  0.75000000  0.01477225  1
  Mg  Mg1  1  0.22464609  0.25000000  0.51477225  1
  Al  Al1  1  0.00000000  0.00000000  0.00000000  1
  Al  Al1  1  0.50000000  0.00000000  0.50000000  1
  Al  Al1  1  0.00000000  0.50000000  0.00000000  1
  Al  Al1  1  0.50000000  0.50000000  0.50000000  1
  B  B1  1  0.08679469  0.75000000  0.59096619  1
  B  B1  1  0.91320531  0.25000000  0.40903381  1
  B  B1  1  0.58679469  0.75000000  0.90903381  1
  B  B1  1  0.41320531  0.25000000  0.09096619  1
  O  O1  1  0.85072014  0.03847546  0.26545562  1
  O  O1  1  0.64927986  0.96152454  0.76545562  1
  O  O1  1  0.14927986  0.53847546  0.73454438  1
  O  O1  1  0.35072014  0.46152454  0.23454438  1
  O  O1  1  0.64927986  0.53847546  0.76545562  1
  O  O1  1  0.14927986  0.96152454  0.73454438  1
  O  O1  1  0.85072014  0.46152454  0.26545562  1
  O  O1  1  0.35072014  0.03847546  0.23454438  1
  O  O2  1  0.41916637  0.25000000  0.75811205  1
  O  O2  1  0.08083363  0.75000000  0.25811205  1
  O  O2  1  0.58083363  0.75000000  0.24188795  1
  O  O2  1  0.91916637  0.25000000  0.74188795  1
  O  O3  1  0.05598040  0.25000000  0.24613713  1
  O  O3  1  0.44401960  0.75000000  0.74613713  1
  O  O3  1  0.94401960  0.75000000  0.75386287  1
  O  O3  1  0.55598040  0.25000000  0.25386287  1
