# generated using pymatgen
data_MgAl2O4
_symmetry_space_group_name_H-M   'P 1'
_cell_length_a   8.10533400
_cell_length_b   8.10533400
_cell_length_c   8.10533400
_cell_angle_alpha   90.00000000
_cell_angle_beta   90.00000000
_cell_angle_gamma   90.00000000
_symmetry_Int_Tables_number   1
_chemical_formula_structural   MgAl2O4
_chemical_formula_sum   'Mg8 Al16 O32'
_cell_volume   532.49158274
_cell_formula_units_Z   8
loop_
 _symmetry_equiv_pos_site_id
 _symmetry_equiv_pos_as_xyz
  1  'x, y, z'
loop_
 _atom_site_type_symbol
 _atom_site_label
 _atom_site_symmetry_multiplicity
 _atom_site_fract_x
 _atom_site_fract_y
 _atom_site_fract_z
 _atom_site_occupancy
  Mg  Mg1  1  0.25000000  0.25000000  0.25000000  1
  Mg  Mg1  1  0.00000000  0.00000000  0.00000000  1
  Al  Al1  1  0.12500000  0.87500000  0.37500000  1
  Al  Al1  1  0.12500000  0.12500000  0.62500000  1
  Al  Al1  1  0.37500000  0.12500000  0.87500000  1
  Al  Al1  1  0.37500000  0.87500000  0.12500000  1
  O  O1  1  0.36149662  0.86149662  0.36149662  1
  O  O1  1  0.38850338  0.11149662  0.11149662  1
  O  O1  1  0.11149662  0.11149662  0.38850338  1
  O  O1  1  0.11149662  0.88850338  0.61149662  1
  O  O1  1  0.13850338  0.63850338  0.36149662  1
  O  O1  1  0.13850338  0.86149662  0.13850338  1
  O  O1  1  0.38850338  0.88850338  0.88850338  1
  O  O1  1  0.36149662  0.63850338  0.13850338  1
  Mg  Mg1  1  0.25000000  0.75000000  0.75000000  1
  Mg  Mg1  1  0.00000000  0.50000000  0.50000000  1
  Al  Al1  1  0.12500000  0.37500000  0.87500000  1
  Al  Al1  1  0.12500000  0.62500000  0.12500000  1
  Al  Al1  1  0.37500000  0.62500000  0.37500000  1
  Al  Al1  1  0.37500000  0.37500000  0.62500000  1
  O  O1  1  0.36149662  0.36149662  0.86149662  1
  O  O1  1  0.38850338  0.61149662  0.61149662  1
  O  O1  1  0.11149662  0.61149662  0.88850338  1
  O  O1  1  0.11149662  0.38850338  0.11149662  1
  O  O1  1  0.13850338  0.13850338  0.86149662  1
  O  O1  1  0.13850338  0.36149662  0.63850338  1
  O  O1  1  0.38850338  0.38850338  0.38850338  1
  O  O1  1  0.36149662  0.13850338  0.63850338  1
  Mg  Mg1  1  0.75000000  0.25000000  0.75000000  1
  Mg  Mg1  1  0.50000000  0.00000000  0.50000000  1
  Al  Al1  1  0.62500000  0.87500000  0.87500000  1
  Al  Al1  1  0.62500000  0.12500000  0.12500000  1
  Al  Al1  1  0.87500000  0.12500000  0.37500000  1
  Al  Al1  1  0.87500000  0.87500000  0.62500000  1
  O  O1  1  0.86149662  0.86149662  0.86149662  1
  O  O1  1  0.88850338  0.11149662  0.61149662  1
  O  O1  1  0.61149662  0.11149662  0.88850338  1
  O  O1  1  0.61149662  0.88850338  0.11149662  1
  O  O1  1  0.63850338  0.63850338  0.86149662  1
  O  O1  1  0.63850338  0.86149662  0.63850338  1
  O  O1  1  0.88850338  0.88850338  0.38850338  1
  O  O1  1  0.86149662  0.63850338  0.63850338  1
  Mg  Mg1  1  0.75000000  0.75000000  0.25000000  1
  Mg  Mg1  1  0.50000000  0.50000000  0.00000000  1
  Al  Al1  1  0.62500000  0.37500000  0.37500000  1
  Al  Al1  1  0.62500000  0.62500000  0.62500000  1
  Al  Al1  1  0.87500000  0.62500000  0.87500000  1
  Al  Al1  1  0.87500000  0.37500000  0.12500000  1
  O  O1  1  0.86149662  0.36149662  0.36149662  1
  O  O1  1  0.88850338  0.61149662  0.11149662  1
  O  O1  1  0.61149662  0.61149662  0.38850338  1
  O  O1  1  0.61149662  0.38850338  0.61149662  1
  O  O1  1  0.63850338  0.13850338  0.36149662  1
  O  O1  1  0.63850338  0.36149662  0.13850338  1
  O  O1  1  0.88850338  0.38850338  0.88850338  1
  O  O1  1  0.86149662  0.13850338  0.13850338  1
