# generated using pymatgen
data_MgGeO3
_symmetry_space_group_name_H-M   'P 1'
_cell_length_a   9.64455269
_cell_length_b   8.96097369
_cell_length_c   5.20083667
_cell_angle_alpha   90.00000000
_cell_angle_beta   100.53716795
_cell_angle_gamma   90.00000000
_symmetry_Int_Tables_number   1
_chemical_formula_structural   MgGeO3
_chemical_formula_sum   'Mg8 Ge8 O24'
_cell_volume   441.90032484
_cell_formula_units_Z   8
loop_
 _symmetry_equiv_pos_site_id
 _symmetry_equiv_pos_as_xyz
  1  'x, y, z'
loop_
 _atom_site_type_symbol
 _atom_site_label
 _atom_site_symmetry_multiplicity
 _atom_site_fract_x
 _atom_site_fract_y
 _atom_site_fract_z
 _atom_site_occupancy
  Mg  Mg1  1  0.00000000  0.09176295  0.25000000  1
  Mg  Mg1  1  0.00000000  0.90823705  0.75000000  1
  Mg  Mg2  1  0.00000000  0.73042692  0.25000000  1
  Mg  Mg2  1  0.00000000  0.26957308  0.75000000  1
  Ge  Ge1  1  0.19952601  0.40426432  0.28985610  1
  Ge  Ge1  1  0.80047399  0.40426432  0.21014390  1
  Ge  Ge1  1  0.80047399  0.59573568  0.71014390  1
  Ge  Ge1  1  0.19952601  0.59573568  0.78985610  1
  O  O1  1  0.13715159  0.57202208  0.10072948  1
  O  O1  1  0.86284841  0.57202208  0.39927052  1
  O  O1  1  0.86284841  0.42797792  0.89927052  1
  O  O1  1  0.13715159  0.42797792  0.60072948  1
  O  O2  1  0.11665266  0.74612340  0.61461636  1
  O  O2  1  0.88334734  0.74612340  0.88538364  1
  O  O2  1  0.88334734  0.25387660  0.38538364  1
  O  O2  1  0.11665266  0.25387660  0.11461636  1
  O  O3  1  0.38600193  0.40973824  0.37079690  1
  O  O3  1  0.61399807  0.40973824  0.12920310  1
  O  O3  1  0.61399807  0.59026176  0.62920310  1
  O  O3  1  0.38600193  0.59026176  0.87079690  1
  Mg  Mg1  1  0.50000000  0.59176295  0.25000000  1
  Mg  Mg1  1  0.50000000  0.40823705  0.75000000  1
  Mg  Mg2  1  0.50000000  0.23042692  0.25000000  1
  Mg  Mg2  1  0.50000000  0.76957308  0.75000000  1
  Ge  Ge1  1  0.69952601  0.90426432  0.28985610  1
  Ge  Ge1  1  0.30047399  0.90426432  0.21014390  1
  Ge  Ge1  1  0.30047399  0.09573568  0.71014390  1
  Ge  Ge1  1  0.69952601  0.09573568  0.78985610  1
  O  O1  1  0.63715159  0.07202208  0.10072948  1
  O  O1  1  0.36284841  0.07202208  0.39927052  1
  O  O1  1  0.36284841  0.92797792  0.89927052  1
  O  O1  1  0.63715159  0.92797792  0.60072948  1
  O  O2  1  0.61665266  0.24612340  0.61461636  1
  O  O2  1  0.38334734  0.24612340  0.88538364  1
  O  O2  1  0.38334734  0.75387660  0.38538364  1
  O  O2  1  0.61665266  0.75387660  0.11461636  1
  O  O3  1  0.88600193  0.90973824  0.37079690  1
  O  O3  1  0.11399807  0.90973824  0.12920310  1
  O  O3  1  0.11399807  0.09026176  0.62920310  1
  O  O3  1  0.88600193  0.09026176  0.87079690  1
