# generated using pymatgen
data_MgSn(BO3)2
_symmetry_space_group_name_H-M   'P 1'
_cell_length_a   4.72937619
_cell_length_b   4.72937619
_cell_length_c   14.90000227
_cell_angle_alpha   90.00000000
_cell_angle_beta   90.00000000
_cell_angle_gamma   120.00000000
_symmetry_Int_Tables_number   1
_chemical_formula_structural   MgSn(BO3)2
_chemical_formula_sum   'Mg3 Sn3 B6 O18'
_cell_volume   288.61884663
_cell_formula_units_Z   3
loop_
 _symmetry_equiv_pos_site_id
 _symmetry_equiv_pos_as_xyz
  1  'x, y, z'
loop_
 _atom_site_type_symbol
 _atom_site_label
 _atom_site_symmetry_multiplicity
 _atom_site_fract_x
 _atom_site_fract_y
 _atom_site_fract_z
 _atom_site_occupancy
  Mg  Mg1  1  0.00000000  0.00000000  0.00000000  1
  Sn  Sn1  1  0.33333333  0.66666667  0.16666667  1
  B  B1  1  0.66666667  0.33333333  0.08543271  1
  B  B1  1  0.00000000  0.00000000  0.24790062  1
  O  O1  1  0.37448910  0.04081112  0.08467355  1
  O  O1  1  0.66632202  0.62551090  0.08467355  1
  O  O1  1  0.70747779  0.99965536  0.24865979  1
  O  O1  1  0.29217757  0.29252221  0.24865979  1
  O  O1  1  0.00034464  0.70782243  0.24865979  1
  O  O1  1  0.95918888  0.33367798  0.08467355  1
  Mg  Mg1  1  0.66666667  0.33333333  0.33333333  1
  Sn  Sn1  1  -0.00000000  0.00000000  0.50000000  1
  B  B1  1  0.33333333  0.66666667  0.41876605  1
  B  B1  1  0.66666667  0.33333333  0.58123395  1
  O  O1  1  0.04115576  0.37414445  0.41800688  1
  O  O1  1  0.33298869  0.95884424  0.41800688  1
  O  O1  1  0.37414445  0.33298869  0.58199312  1
  O  O1  1  0.95884424  0.62585555  0.58199312  1
  O  O1  1  0.66701131  0.04115576  0.58199312  1
  O  O1  1  0.62585555  0.66701131  0.41800688  1
  Mg  Mg1  1  0.33333333  0.66666667  0.66666667  1
  Sn  Sn1  1  0.66666667  0.33333333  0.83333333  1
  B  B1  1  0.00000000  0.00000000  0.75209938  1
  B  B1  1  0.33333333  0.66666667  0.91456729  1
  O  O1  1  0.70782243  0.70747779  0.75134021  1
  O  O1  1  0.99965536  0.29217757  0.75134021  1
  O  O1  1  0.04081112  0.66632202  0.91532645  1
  O  O1  1  0.62551090  0.95918888  0.91532645  1
  O  O1  1  0.33367798  0.37448910  0.91532645  1
  O  O1  1  0.29252221  0.00034464  0.75134021  1
