# generated using pymatgen
data_MgTi2O5
_symmetry_space_group_name_H-M   'P 1'
_cell_length_a   3.75324092
_cell_length_b   9.73930165
_cell_length_c   9.98789864
_cell_angle_alpha   90.00000000
_cell_angle_beta   90.00000000
_cell_angle_gamma   90.00000000
_symmetry_Int_Tables_number   1
_chemical_formula_structural   MgTi2O5
_chemical_formula_sum   'Mg4 Ti8 O20'
_cell_volume   365.09710207
_cell_formula_units_Z   4
loop_
 _symmetry_equiv_pos_site_id
 _symmetry_equiv_pos_as_xyz
  1  'x, y, z'
loop_
 _atom_site_type_symbol
 _atom_site_label
 _atom_site_symmetry_multiplicity
 _atom_site_fract_x
 _atom_site_fract_y
 _atom_site_fract_z
 _atom_site_occupancy
  Mg  Mg1  1  0.00000000  0.19805253  0.75000000  1
  Mg  Mg1  1  0.50000000  0.30194747  0.25000000  1
  Ti  Ti1  1  0.50000000  0.36588068  0.56563368  1
  Ti  Ti1  1  0.00000000  0.13411932  0.43436632  1
  Ti  Ti1  1  0.50000000  0.36588068  0.93436632  1
  Ti  Ti1  1  0.00000000  0.13411932  0.06563368  1
  O  O1  1  0.00000000  0.31253161  0.56188886  1
  O  O1  1  0.50000000  0.18746839  0.43811114  1
  O  O1  1  0.50000000  0.18746839  0.06188886  1
  O  O1  1  0.00000000  0.31253161  0.93811114  1
  O  O2  1  0.00000000  0.04737050  0.61382395  1
  O  O2  1  0.50000000  0.45262950  0.38617605  1
  O  O3  1  0.50000000  0.28366243  0.75000000  1
  O  O3  1  0.00000000  0.21633757  0.25000000  1
  O  O2  1  0.00000000  0.04737050  0.88617605  1
  O  O2  1  0.50000000  0.45262950  0.11382395  1
  Mg  Mg1  1  0.50000000  0.69805253  0.75000000  1
  Mg  Mg1  1  0.00000000  0.80194747  0.25000000  1
  Ti  Ti1  1  0.00000000  0.86588068  0.56563368  1
  Ti  Ti1  1  0.50000000  0.63411932  0.43436632  1
  Ti  Ti1  1  0.00000000  0.86588068  0.93436632  1
  Ti  Ti1  1  0.50000000  0.63411932  0.06563368  1
  O  O1  1  0.50000000  0.81253161  0.56188886  1
  O  O1  1  0.00000000  0.68746839  0.43811114  1
  O  O1  1  0.00000000  0.68746839  0.06188886  1
  O  O1  1  0.50000000  0.81253161  0.93811114  1
  O  O2  1  0.50000000  0.54737050  0.61382395  1
  O  O2  1  0.00000000  0.95262950  0.38617605  1
  O  O3  1  0.00000000  0.78366243  0.75000000  1
  O  O3  1  0.50000000  0.71633757  0.25000000  1
  O  O2  1  0.50000000  0.54737050  0.88617605  1
  O  O2  1  0.00000000  0.95262950  0.11382395  1
