# generated using pymatgen
data_MgTiO3
_symmetry_space_group_name_H-M   'P 1'
_cell_length_a   5.06241839
_cell_length_b   5.06241839
_cell_length_c   13.86313904
_cell_angle_alpha   90.00000000
_cell_angle_beta   90.00000000
_cell_angle_gamma   120.00000000
_symmetry_Int_Tables_number   1
_chemical_formula_structural   MgTiO3
_chemical_formula_sum   'Mg6 Ti6 O18'
_cell_volume   307.68638575
_cell_formula_units_Z   6
loop_
 _symmetry_equiv_pos_site_id
 _symmetry_equiv_pos_as_xyz
  1  'x, y, z'
loop_
 _atom_site_type_symbol
 _atom_site_label
 _atom_site_symmetry_multiplicity
 _atom_site_fract_x
 _atom_site_fract_y
 _atom_site_fract_z
 _atom_site_occupancy
  Mg  Mg1  1  0.33333333  0.66666667  0.31148596  1
  Mg  Mg1  1  0.33333333  0.66666667  0.02184738  1
  Ti  Ti1  1  0.66666667  0.33333333  0.18780313  1
  Ti  Ti1  1  0.00000000  0.00000000  0.14553020  1
  O  O1  1  0.98051634  0.29392806  0.24693242  1
  O  O1  1  0.31341173  0.01948366  0.24693242  1
  O  O1  1  0.70607194  0.68658827  0.24693242  1
  O  O1  1  0.68615033  0.03940527  0.08640092  1
  O  O1  1  0.96059473  0.64674506  0.08640092  1
  O  O1  1  0.35325494  0.31384967  0.08640092  1
  Mg  Mg1  1  0.00000000  0.00000000  0.64481929  1
  Mg  Mg1  1  0.00000000  0.00000000  0.35518071  1
  Ti  Ti1  1  0.33333333  0.66666667  0.52113646  1
  Ti  Ti1  1  0.66666667  0.33333333  0.47886354  1
  O  O1  1  0.64718300  0.62726140  0.58026575  1
  O  O1  1  0.98007839  0.35281700  0.58026575  1
  O  O1  1  0.37273860  0.01992161  0.58026575  1
  O  O1  1  0.35281700  0.37273860  0.41973425  1
  O  O1  1  0.62726140  0.98007839  0.41973425  1
  O  O1  1  0.01992161  0.64718300  0.41973425  1
  Mg  Mg1  1  0.66666667  0.33333333  0.97815262  1
  Mg  Mg1  1  0.66666667  0.33333333  0.68851404  1
  Ti  Ti1  1  0.00000000  0.00000000  0.85446980  1
  Ti  Ti1  1  0.33333333  0.66666667  0.81219687  1
  O  O1  1  0.31384967  0.96059473  0.91359908  1
  O  O1  1  0.64674506  0.68615033  0.91359908  1
  O  O1  1  0.03940527  0.35325494  0.91359908  1
  O  O1  1  0.01948366  0.70607194  0.75306758  1
  O  O1  1  0.29392806  0.31341173  0.75306758  1
  O  O1  1  0.68658827  0.98051634  0.75306758  1
