# generated using pymatgen
data_MgV2O6
_symmetry_space_group_name_H-M   'P 1'
_cell_length_a   9.26413255
_cell_length_b   3.48374768
_cell_length_c   6.65689940
_cell_angle_alpha   90.00000000
_cell_angle_beta   113.85287801
_cell_angle_gamma   90.00000000
_symmetry_Int_Tables_number   1
_chemical_formula_structural   MgV2O6
_chemical_formula_sum   'Mg2 V4 O12'
_cell_volume   196.49359465
_cell_formula_units_Z   2
loop_
 _symmetry_equiv_pos_site_id
 _symmetry_equiv_pos_as_xyz
  1  'x, y, z'
loop_
 _atom_site_type_symbol
 _atom_site_label
 _atom_site_symmetry_multiplicity
 _atom_site_fract_x
 _atom_site_fract_y
 _atom_site_fract_z
 _atom_site_occupancy
  Mg  Mg1  1  0.00000000  0.00000000  0.50000000  1
  V  V1  1  0.31407770  0.50000000  0.85427175  1
  V  V1  1  0.68592230  0.50000000  0.14572825  1
  O  O1  1  0.30944238  0.00000000  0.93929814  1
  O  O1  1  0.69055762  0.00000000  0.06070186  1
  O  O2  1  0.02827390  0.00000000  0.21272217  1
  O  O3  1  0.15431916  0.50000000  0.61271558  1
  O  O2  1  0.97172610  0.00000000  0.78727783  1
  O  O3  1  0.84568084  0.50000000  0.38728442  1
  Mg  Mg1  1  0.50000000  0.50000000  0.50000000  1
  V  V1  1  0.81407770  0.00000000  0.85427175  1
  V  V1  1  0.18592230  0.00000000  0.14572825  1
  O  O1  1  0.80944238  0.50000000  0.93929814  1
  O  O1  1  0.19055762  0.50000000  0.06070186  1
  O  O2  1  0.52827390  0.50000000  0.21272217  1
  O  O3  1  0.65431916  0.00000000  0.61271558  1
  O  O2  1  0.47172610  0.50000000  0.78727783  1
  O  O3  1  0.34568084  0.00000000  0.38728442  1
