# generated using pymatgen
data_MoPbO4
_symmetry_space_group_name_H-M   'P 1'
_cell_length_a   5.41564492
_cell_length_b   5.41564492
_cell_length_c   11.92632046
_cell_angle_alpha   90.00000000
_cell_angle_beta   90.00000000
_cell_angle_gamma   90.00000000
_symmetry_Int_Tables_number   1
_chemical_formula_structural   MoPbO4
_chemical_formula_sum   'Mo4 Pb4 O16'
_cell_volume   349.78955610
_cell_formula_units_Z   4
loop_
 _symmetry_equiv_pos_site_id
 _symmetry_equiv_pos_as_xyz
  1  'x, y, z'
loop_
 _atom_site_type_symbol
 _atom_site_label
 _atom_site_symmetry_multiplicity
 _atom_site_fract_x
 _atom_site_fract_y
 _atom_site_fract_z
 _atom_site_occupancy
  Mo  Mo1  1  0.00000000  0.00000000  0.50000000  1
  Mo  Mo1  1  0.50000000  0.00000000  0.25000000  1
  Pb  Pb1  1  0.50000000  0.50000000  0.50000000  1
  Pb  Pb1  1  0.00000000  0.50000000  0.25000000  1
  O  O1  1  0.85526768  0.23635864  0.41694542  1
  O  O1  1  0.14473232  0.76364136  0.41694542  1
  O  O1  1  0.76364136  0.35526768  0.66694542  1
  O  O1  1  0.23635864  0.64473232  0.66694542  1
  O  O1  1  0.64473232  0.76364136  0.33305458  1
  O  O1  1  0.35526768  0.23635864  0.33305458  1
  O  O1  1  0.23635864  0.14473232  0.58305458  1
  O  O1  1  0.76364136  0.85526768  0.58305458  1
  Mo  Mo1  1  0.50000000  0.50000000  0.00000000  1
  Mo  Mo1  1  0.00000000  0.50000000  0.75000000  1
  Pb  Pb1  1  0.00000000  0.00000000  0.00000000  1
  Pb  Pb1  1  0.50000000  0.00000000  0.75000000  1
  O  O1  1  0.35526768  0.73635864  0.91694542  1
  O  O1  1  0.64473232  0.26364136  0.91694542  1
  O  O1  1  0.26364136  0.85526768  0.16694542  1
  O  O1  1  0.73635864  0.14473232  0.16694542  1
  O  O1  1  0.14473232  0.26364136  0.83305458  1
  O  O1  1  0.85526768  0.73635864  0.83305458  1
  O  O1  1  0.73635864  0.64473232  0.08305458  1
  O  O1  1  0.26364136  0.35526768  0.08305458  1
