# generated using pymatgen
data_MoPb2O5
_symmetry_space_group_name_H-M   'P 1'
_cell_length_a   14.11722900
_cell_length_b   5.76939089
_cell_length_c   7.28541516
_cell_angle_alpha   90.00000000
_cell_angle_beta   112.86753603
_cell_angle_gamma   90.00000000
_symmetry_Int_Tables_number   1
_chemical_formula_structural   MoPb2O5
_chemical_formula_sum   'Mo4 Pb8 O20'
_cell_volume   546.74477441
_cell_formula_units_Z   4
loop_
 _symmetry_equiv_pos_site_id
 _symmetry_equiv_pos_as_xyz
  1  'x, y, z'
loop_
 _atom_site_type_symbol
 _atom_site_label
 _atom_site_symmetry_multiplicity
 _atom_site_fract_x
 _atom_site_fract_y
 _atom_site_fract_z
 _atom_site_occupancy
  Mo  Mo1  1  0.33052835  0.50000000  0.33940406  1
  Mo  Mo1  1  0.16947165  0.00000000  0.66059594  1
  Pb  Pb1  1  0.01073630  0.50000000  0.25597202  1
  Pb  Pb1  1  0.48926370  0.00000000  0.74402798  1
  Pb  Pb2  1  0.13699216  0.00000000  0.11092898  1
  Pb  Pb2  1  0.36300784  0.50000000  0.88907102  1
  O  O1  1  0.00000000  0.25322650  0.00000000  1
  O  O1  1  0.00000000  0.74677350  0.00000000  1
  O  O2  1  0.19846732  0.50000000  0.30777494  1
  O  O2  1  0.30153268  0.00000000  0.69222506  1
  O  O3  1  0.14664721  0.24642896  0.78623754  1
  O  O3  1  0.35335279  0.74642896  0.21376246  1
  O  O4  1  0.41222874  0.50000000  0.60146510  1
  O  O4  1  0.08777126  0.00000000  0.39853490  1
  O  O3  1  0.14664721  0.75357104  0.78623754  1
  O  O3  1  0.35335279  0.25357104  0.21376246  1
  Mo  Mo1  1  0.83052835  0.00000000  0.33940406  1
  Mo  Mo1  1  0.66947165  0.50000000  0.66059594  1
  Pb  Pb1  1  0.51073630  0.00000000  0.25597202  1
  Pb  Pb1  1  0.98926370  0.50000000  0.74402798  1
  Pb  Pb2  1  0.63699216  0.50000000  0.11092898  1
  Pb  Pb2  1  0.86300784  0.00000000  0.88907102  1
  O  O1  1  0.50000000  0.75322650  0.00000000  1
  O  O1  1  0.50000000  0.24677350  0.00000000  1
  O  O2  1  0.69846732  0.00000000  0.30777494  1
  O  O2  1  0.80153268  0.50000000  0.69222506  1
  O  O3  1  0.64664721  0.74642896  0.78623754  1
  O  O3  1  0.85335279  0.24642896  0.21376246  1
  O  O4  1  0.91222874  0.00000000  0.60146510  1
  O  O4  1  0.58777126  0.50000000  0.39853490  1
  O  O3  1  0.64664721  0.25357104  0.78623754  1
  O  O3  1  0.85335279  0.75357104  0.21376246  1
