# generated using pymatgen
data_Na14Cd2O9
_symmetry_space_group_name_H-M   'P 1'
_cell_length_a   6.70179412
_cell_length_b   6.70179412
_cell_length_c   9.31835081
_cell_angle_alpha   90.00000000
_cell_angle_beta   90.00000000
_cell_angle_gamma   120.00000000
_symmetry_Int_Tables_number   1
_chemical_formula_structural   Na14Cd2O9
_chemical_formula_sum   'Na14 Cd2 O9'
_cell_volume   362.45312784
_cell_formula_units_Z   1
loop_
 _symmetry_equiv_pos_site_id
 _symmetry_equiv_pos_as_xyz
  1  'x, y, z'
loop_
 _atom_site_type_symbol
 _atom_site_label
 _atom_site_symmetry_multiplicity
 _atom_site_fract_x
 _atom_site_fract_y
 _atom_site_fract_z
 _atom_site_occupancy
  Na  Na1  1  0.64123100  0.68266710  0.09258798  1
  Na  Na1  1  0.68266710  0.04143610  0.90741202  1
  Na  Na1  1  0.04143610  0.35876900  0.09258798  1
  Na  Na2  1  0.93917675  0.31381408  0.59074848  1
  Na  Na1  1  0.31733290  0.95856390  0.09258798  1
  Na  Na3  1  0.00000000  0.00000000  0.74574236  1
  Na  Na3  1  0.00000000  0.00000000  0.25425764  1
  Na  Na1  1  0.35876900  0.31733290  0.90741202  1
  Na  Na2  1  0.62536267  0.93917675  0.40925152  1
  Na  Na2  1  0.68618592  0.62536267  0.59074848  1
  Na  Na2  1  0.37463733  0.06082325  0.59074848  1
  Na  Na2  1  0.06082325  0.68618592  0.40925152  1
  Na  Na2  1  0.31381408  0.37463733  0.40925152  1
  Na  Na1  1  0.95856390  0.64123100  0.90741202  1
  Cd  Cd1  1  0.66666667  0.33333333  0.25971154  1
  Cd  Cd1  1  0.33333333  0.66666667  0.74028846  1
  O  O1  1  0.03702098  0.69456909  0.65934050  1
  O  O1  1  0.30543091  0.34245189  0.65934050  1
  O  O1  1  0.65754811  0.96297902  0.65934050  1
  O  O1  1  0.96297902  0.30543091  0.34065950  1
  O  O1  1  0.69456909  0.65754811  0.34065950  1
  O  O1  1  0.34245189  0.03702098  0.34065950  1
  O  O2  1  0.00000000  0.00000000  0.00000000  1
  O  O3  1  0.66666667  0.33333333  0.02318990  1
  O  O3  1  0.33333333  0.66666667  0.97681010  1
