# generated using pymatgen
data_Na2BeB2O5
_symmetry_space_group_name_H-M   'P 1'
_cell_length_a   5.77165031
_cell_length_b   8.15932423
_cell_length_c   8.81610163
_cell_angle_alpha   90.00000000
_cell_angle_beta   100.15532807
_cell_angle_gamma   90.00000000
_symmetry_Int_Tables_number   1
_chemical_formula_structural   Na2BeB2O5
_chemical_formula_sum   'Na8 Be4 B8 O20'
_cell_volume   408.67022910
_cell_formula_units_Z   4
loop_
 _symmetry_equiv_pos_site_id
 _symmetry_equiv_pos_as_xyz
  1  'x, y, z'
loop_
 _atom_site_type_symbol
 _atom_site_label
 _atom_site_symmetry_multiplicity
 _atom_site_fract_x
 _atom_site_fract_y
 _atom_site_fract_z
 _atom_site_occupancy
  Na  Na1  1  0.48676202  0.80401674  0.92600504  1
  Na  Na1  1  0.51323798  0.80401674  0.57399496  1
  Na  Na1  1  0.51323798  0.19598326  0.07399496  1
  Na  Na1  1  0.48676202  0.19598326  0.42600504  1
  Be  Be1  1  0.50000000  0.21201262  0.75000000  1
  Be  Be1  1  0.50000000  0.78798738  0.25000000  1
  B  B1  1  0.83363926  0.99492420  0.82373866  1
  B  B1  1  0.16636074  0.99492420  0.67626134  1
  B  B1  1  0.83363926  0.00507580  0.32373866  1
  B  B1  1  0.16636074  0.00507580  0.17626134  1
  O  O1  1  0.34211767  0.67062796  0.34179286  1
  O  O1  1  0.34211767  0.32937204  0.84179286  1
  O  O2  1  0.66812388  0.90865844  0.37376504  1
  O  O2  1  0.33187612  0.90865844  0.12623496  1
  O  O2  1  0.33187612  0.09134156  0.62623496  1
  O  O2  1  0.66812388  0.09134156  0.87376504  1
  O  O3  1  0.50000000  0.42419938  0.25000000  1
  O  O3  1  0.50000000  0.57580062  0.75000000  1
  O  O1  1  0.65788233  0.32937204  0.65820714  1
  O  O1  1  0.65788233  0.67062796  0.15820714  1
  Na  Na1  1  0.98676202  0.30401674  0.92600504  1
  Na  Na1  1  0.01323798  0.30401674  0.57399496  1
  Na  Na1  1  0.01323798  0.69598326  0.07399496  1
  Na  Na1  1  0.98676202  0.69598326  0.42600504  1
  Be  Be1  1  0.00000000  0.71201262  0.75000000  1
  Be  Be1  1  0.00000000  0.28798738  0.25000000  1
  B  B1  1  0.33363926  0.49492420  0.82373866  1
  B  B1  1  0.66636074  0.49492420  0.67626134  1
  B  B1  1  0.33363926  0.50507580  0.32373866  1
  B  B1  1  0.66636074  0.50507580  0.17626134  1
  O  O1  1  0.84211767  0.17062796  0.34179286  1
  O  O1  1  0.84211767  0.82937204  0.84179286  1
  O  O2  1  0.16812388  0.40865844  0.37376504  1
  O  O2  1  0.83187612  0.40865844  0.12623496  1
  O  O2  1  0.83187612  0.59134156  0.62623496  1
  O  O2  1  0.16812388  0.59134156  0.87376504  1
  O  O3  1  0.00000000  0.92419938  0.25000000  1
  O  O3  1  0.00000000  0.07580062  0.75000000  1
  O  O1  1  0.15788233  0.82937204  0.65820714  1
  O  O1  1  0.15788233  0.17062796  0.15820714  1
