# generated using pymatgen
data_Na2BiO3
_symmetry_space_group_name_H-M   'P 1'
_cell_length_a   5.87862877
_cell_length_b   10.16399322
_cell_length_c   11.10037657
_cell_angle_alpha   90.00000000
_cell_angle_beta   99.62739790
_cell_angle_gamma   90.00000000
_symmetry_Int_Tables_number   1
_chemical_formula_structural   Na2BiO3
_chemical_formula_sum   'Na16 Bi8 O24'
_cell_volume   653.91019333
_cell_formula_units_Z   8
loop_
 _symmetry_equiv_pos_site_id
 _symmetry_equiv_pos_as_xyz
  1  'x, y, z'
loop_
 _atom_site_type_symbol
 _atom_site_label
 _atom_site_symmetry_multiplicity
 _atom_site_fract_x
 _atom_site_fract_y
 _atom_site_fract_z
 _atom_site_occupancy
  Na  Na1  1  0.76329990  0.08568214  0.49785349  1
  Na  Na1  1  0.76329990  0.91431786  0.99785349  1
  Na  Na2  1  0.75000000  0.25000000  0.00000000  1
  Na  Na3  1  0.50000000  0.41475158  0.75000000  1
  Na  Na3  1  0.50000000  0.58524842  0.25000000  1
  Na  Na1  1  0.23670010  0.08568214  0.00214651  1
  Na  Na2  1  0.75000000  0.75000000  0.50000000  1
  Na  Na1  1  0.23670010  0.91431786  0.50214651  1
  Bi  Bi1  1  0.50000000  0.08093476  0.75000000  1
  Bi  Bi2  1  0.50000000  0.74814676  0.75000000  1
  Bi  Bi1  1  0.50000000  0.91906524  0.25000000  1
  Bi  Bi2  1  0.50000000  0.25185324  0.25000000  1
  O  O1  1  0.87972688  0.09909604  0.86383428  1
  O  O2  1  0.66350034  0.24379678  0.63990750  1
  O  O1  1  0.87972688  0.90090396  0.36383428  1
  O  O3  1  0.60425098  0.90017234  0.63497642  1
  O  O2  1  0.66350034  0.75620322  0.13990750  1
  O  O3  1  0.60425098  0.09982766  0.13497642  1
  O  O3  1  0.39574902  0.90017234  0.86502358  1
  O  O2  1  0.33649966  0.24379678  0.86009250  1
  O  O3  1  0.39574902  0.09982766  0.36502358  1
  O  O1  1  0.12027312  0.09909604  0.63616572  1
  O  O2  1  0.33649966  0.75620322  0.36009250  1
  O  O1  1  0.12027312  0.90090396  0.13616572  1
  Na  Na1  1  0.26329990  0.58568214  0.49785349  1
  Na  Na1  1  0.26329990  0.41431786  0.99785349  1
  Na  Na2  1  0.25000000  0.75000000  0.00000000  1
  Na  Na3  1  0.00000000  0.91475158  0.75000000  1
  Na  Na3  1  0.00000000  0.08524842  0.25000000  1
  Na  Na1  1  0.73670010  0.58568214  0.00214651  1
  Na  Na2  1  0.25000000  0.25000000  0.50000000  1
  Na  Na1  1  0.73670010  0.41431786  0.50214651  1
  Bi  Bi1  1  0.00000000  0.58093476  0.75000000  1
  Bi  Bi2  1  0.00000000  0.24814676  0.75000000  1
  Bi  Bi1  1  0.00000000  0.41906524  0.25000000  1
  Bi  Bi2  1  0.00000000  0.75185324  0.25000000  1
  O  O1  1  0.37972688  0.59909604  0.86383428  1
  O  O2  1  0.16350034  0.74379678  0.63990750  1
  O  O1  1  0.37972688  0.40090396  0.36383428  1
  O  O3  1  0.10425098  0.40017234  0.63497642  1
  O  O2  1  0.16350034  0.25620322  0.13990750  1
  O  O3  1  0.10425098  0.59982766  0.13497642  1
  O  O3  1  0.89574902  0.40017234  0.86502358  1
  O  O2  1  0.83649966  0.74379678  0.86009250  1
  O  O3  1  0.89574902  0.59982766  0.36502358  1
  O  O1  1  0.62027312  0.59909604  0.63616572  1
  O  O2  1  0.83649966  0.25620322  0.36009250  1
  O  O1  1  0.62027312  0.40090396  0.13616572  1
