# generated using pymatgen
data_Na2CrO4
_symmetry_space_group_name_H-M   'P 1'
_cell_length_a   5.82779994
_cell_length_b   9.13934076
_cell_length_c   7.03950262
_cell_angle_alpha   90.00000000
_cell_angle_beta   90.00000000
_cell_angle_gamma   90.00000000
_symmetry_Int_Tables_number   1
_chemical_formula_structural   Na2CrO4
_chemical_formula_sum   'Na8 Cr4 O16'
_cell_volume   374.93974540
_cell_formula_units_Z   4
loop_
 _symmetry_equiv_pos_site_id
 _symmetry_equiv_pos_as_xyz
  1  'x, y, z'
loop_
 _atom_site_type_symbol
 _atom_site_label
 _atom_site_symmetry_multiplicity
 _atom_site_fract_x
 _atom_site_fract_y
 _atom_site_fract_z
 _atom_site_occupancy
  Na  Na1  1  0.00000000  0.81680180  0.75000000  1
  Na  Na1  1  0.00000000  0.18319820  0.25000000  1
  Na  Na2  1  0.00000000  0.50000000  0.50000000  1
  Na  Na2  1  0.00000000  0.50000000  0.00000000  1
  Cr  Cr1  1  0.00000000  0.14585014  0.75000000  1
  Cr  Cr1  1  0.00000000  0.85414986  0.25000000  1
  O  O1  1  0.00000000  0.74917520  0.05965524  1
  O  O1  1  0.00000000  0.25082480  0.55965524  1
  O  O1  1  0.00000000  0.25082480  0.94034476  1
  O  O1  1  0.00000000  0.74917520  0.44034476  1
  O  O2  1  0.73200794  0.53914688  0.75000000  1
  O  O2  1  0.26799206  0.46085312  0.25000000  1
  O  O2  1  0.26799206  0.53914688  0.75000000  1
  O  O2  1  0.73200794  0.46085312  0.25000000  1
  Na  Na1  1  0.50000000  0.31680180  0.75000000  1
  Na  Na1  1  0.50000000  0.68319820  0.25000000  1
  Na  Na2  1  0.50000000  0.00000000  0.50000000  1
  Na  Na2  1  0.50000000  0.00000000  0.00000000  1
  Cr  Cr1  1  0.50000000  0.64585014  0.75000000  1
  Cr  Cr1  1  0.50000000  0.35414986  0.25000000  1
  O  O1  1  0.50000000  0.24917520  0.05965524  1
  O  O1  1  0.50000000  0.75082480  0.55965524  1
  O  O1  1  0.50000000  0.75082480  0.94034476  1
  O  O1  1  0.50000000  0.24917520  0.44034476  1
  O  O2  1  0.23200794  0.03914688  0.75000000  1
  O  O2  1  0.76799206  0.96085312  0.25000000  1
  O  O2  1  0.76799206  0.03914688  0.75000000  1
  O  O2  1  0.23200794  0.96085312  0.25000000  1
