# generated using pymatgen
data_Na2GeO3
_symmetry_space_group_name_H-M   'P 1'
_cell_length_a   10.85291556
_cell_length_b   6.22624223
_cell_length_c   4.87606350
_cell_angle_alpha   90.00000000
_cell_angle_beta   90.00000000
_cell_angle_gamma   90.00000000
_symmetry_Int_Tables_number   1
_chemical_formula_structural   Na2GeO3
_chemical_formula_sum   'Na8 Ge4 O12'
_cell_volume   329.48965917
_cell_formula_units_Z   4
loop_
 _symmetry_equiv_pos_site_id
 _symmetry_equiv_pos_as_xyz
  1  'x, y, z'
loop_
 _atom_site_type_symbol
 _atom_site_label
 _atom_site_symmetry_multiplicity
 _atom_site_fract_x
 _atom_site_fract_y
 _atom_site_fract_z
 _atom_site_occupancy
  Na  Na1  1  0.16778747  0.33874088  0.49865016  1
  Na  Na1  1  0.33221253  0.83874088  0.49865016  1
  Na  Na1  1  0.33221253  0.16125912  0.99865016  1
  Na  Na1  1  0.16778747  0.66125912  0.99865016  1
  Ge  Ge1  1  0.00000000  0.83361802  0.53376362  1
  Ge  Ge1  1  0.00000000  0.16638198  0.03376362  1
  O  O1  1  0.00000000  0.11110550  0.40784326  1
  O  O1  1  0.00000000  0.88889450  0.90784326  1
  O  O2  1  0.36052201  0.20041084  0.47284640  1
  O  O2  1  0.13947799  0.29958916  0.97284640  1
  O  O2  1  0.13947799  0.70041084  0.47284640  1
  O  O2  1  0.36052201  0.79958916  0.97284640  1
  Na  Na1  1  0.66778747  0.83874088  0.49865016  1
  Na  Na1  1  0.83221253  0.33874088  0.49865016  1
  Na  Na1  1  0.83221253  0.66125912  0.99865016  1
  Na  Na1  1  0.66778747  0.16125912  0.99865016  1
  Ge  Ge1  1  0.50000000  0.33361802  0.53376362  1
  Ge  Ge1  1  0.50000000  0.66638198  0.03376362  1
  O  O1  1  0.50000000  0.61110550  0.40784326  1
  O  O1  1  0.50000000  0.38889450  0.90784326  1
  O  O2  1  0.86052201  0.70041084  0.47284640  1
  O  O2  1  0.63947799  0.79958916  0.97284640  1
  O  O2  1  0.63947799  0.20041084  0.47284640  1
  O  O2  1  0.86052201  0.29958916  0.97284640  1
