# generated using pymatgen
data_Na2MgSiO4
_symmetry_space_group_name_H-M   'P 1'
_cell_length_a   5.24517715
_cell_length_b   5.50674343
_cell_length_c   8.67819661
_cell_angle_alpha   90.00000000
_cell_angle_beta   127.00559668
_cell_angle_gamma   90.00000000
_symmetry_Int_Tables_number   1
_chemical_formula_structural   Na2MgSiO4
_chemical_formula_sum   'Na4 Mg2 Si2 O8'
_cell_volume   200.17098878
_cell_formula_units_Z   2
loop_
 _symmetry_equiv_pos_site_id
 _symmetry_equiv_pos_as_xyz
  1  'x, y, z'
loop_
 _atom_site_type_symbol
 _atom_site_label
 _atom_site_symmetry_multiplicity
 _atom_site_fract_x
 _atom_site_fract_y
 _atom_site_fract_z
 _atom_site_occupancy
  Na  Na1  1  0.26232345  0.33331975  0.75031212  1
  Na  Na2  1  0.51450294  0.18204131  0.50578644  1
  Na  Na1  1  0.26232345  0.66668025  0.25031212  1
  Na  Na2  1  0.51450294  0.81795869  0.00578644  1
  Mg  Mg1  1  0.99896019  0.18412825  0.99950076  1
  Mg  Mg1  1  0.99896019  0.81587175  0.49950076  1
  Si  Si1  1  0.74731992  0.31436498  0.25237332  1
  Si  Si1  1  0.74731992  0.68563502  0.75237332  1
  O  O1  1  0.69143488  0.79213732  0.55662808  1
  O  O1  1  0.69143488  0.20786268  0.05662808  1
  O  O2  1  0.02401006  0.84210654  0.94613532  1
  O  O2  1  0.02401006  0.15789346  0.44613532  1
  O  O3  1  0.40983806  0.28998509  0.22556328  1
  O  O4  1  0.85213051  0.60324722  0.28015068  1
  O  O4  1  0.85213051  0.39675278  0.78015068  1
  O  O3  1  0.40983806  0.71001491  0.72556328  1
