# generated using pymatgen
data_Na2MoO4
_symmetry_space_group_name_H-M   'P 1'
_cell_length_a   9.03100030
_cell_length_b   9.03100030
_cell_length_c   9.03100030
_cell_angle_alpha   90.00000000
_cell_angle_beta   90.00000000
_cell_angle_gamma   90.00000000
_symmetry_Int_Tables_number   1
_chemical_formula_structural   Na2MoO4
_chemical_formula_sum   'Na16 Mo8 O32'
_cell_volume   736.55905019
_cell_formula_units_Z   8
loop_
 _symmetry_equiv_pos_site_id
 _symmetry_equiv_pos_as_xyz
  1  'x, y, z'
loop_
 _atom_site_type_symbol
 _atom_site_label
 _atom_site_symmetry_multiplicity
 _atom_site_fract_x
 _atom_site_fract_y
 _atom_site_fract_z
 _atom_site_occupancy
  Na  Na1  1  0.12500000  0.12500000  0.62500000  1
  Na  Na1  1  0.12500000  0.87500000  0.37500000  1
  Na  Na1  1  0.37500000  0.87500000  0.12500000  1
  Na  Na1  1  0.37500000  0.12500000  0.87500000  1
  Mo  Mo1  1  0.00000000  0.00000000  0.00000000  1
  Mo  Mo1  1  0.25000000  0.25000000  0.25000000  1
  O  O1  1  0.36465030  0.86465030  0.86465030  1
  O  O1  1  0.38534970  0.61465030  0.11465030  1
  O  O1  1  0.11465030  0.61465030  0.38534970  1
  O  O1  1  0.11465030  0.88534970  0.11465030  1
  O  O1  1  0.13534970  0.13534970  0.36465030  1
  O  O1  1  0.13534970  0.86465030  0.63534970  1
  O  O1  1  0.38534970  0.88534970  0.38534970  1
  O  O1  1  0.36465030  0.13534970  0.13534970  1
  Na  Na1  1  0.12500000  0.62500000  0.12500000  1
  Na  Na1  1  0.12500000  0.37500000  0.87500000  1
  Na  Na1  1  0.37500000  0.37500000  0.62500000  1
  Na  Na1  1  0.37500000  0.62500000  0.37500000  1
  Mo  Mo1  1  0.00000000  0.50000000  0.50000000  1
  Mo  Mo1  1  0.25000000  0.75000000  0.75000000  1
  O  O1  1  0.36465030  0.36465030  0.36465030  1
  O  O1  1  0.38534970  0.11465030  0.61465030  1
  O  O1  1  0.11465030  0.11465030  0.88534970  1
  O  O1  1  0.11465030  0.38534970  0.61465030  1
  O  O1  1  0.13534970  0.63534970  0.86465030  1
  O  O1  1  0.13534970  0.36465030  0.13534970  1
  O  O1  1  0.38534970  0.38534970  0.88534970  1
  O  O1  1  0.36465030  0.63534970  0.63534970  1
  Na  Na1  1  0.62500000  0.12500000  0.12500000  1
  Na  Na1  1  0.62500000  0.87500000  0.87500000  1
  Na  Na1  1  0.87500000  0.87500000  0.62500000  1
  Na  Na1  1  0.87500000  0.12500000  0.37500000  1
  Mo  Mo1  1  0.50000000  0.00000000  0.50000000  1
  Mo  Mo1  1  0.75000000  0.25000000  0.75000000  1
  O  O1  1  0.86465030  0.86465030  0.36465030  1
  O  O1  1  0.88534970  0.61465030  0.61465030  1
  O  O1  1  0.61465030  0.61465030  0.88534970  1
  O  O1  1  0.61465030  0.88534970  0.61465030  1
  O  O1  1  0.63534970  0.13534970  0.86465030  1
  O  O1  1  0.63534970  0.86465030  0.13534970  1
  O  O1  1  0.88534970  0.88534970  0.88534970  1
  O  O1  1  0.86465030  0.13534970  0.63534970  1
  Na  Na1  1  0.62500000  0.62500000  0.62500000  1
  Na  Na1  1  0.62500000  0.37500000  0.37500000  1
  Na  Na1  1  0.87500000  0.37500000  0.12500000  1
  Na  Na1  1  0.87500000  0.62500000  0.87500000  1
  Mo  Mo1  1  0.50000000  0.50000000  0.00000000  1
  Mo  Mo1  1  0.75000000  0.75000000  0.25000000  1
  O  O1  1  0.86465030  0.36465030  0.86465030  1
  O  O1  1  0.88534970  0.11465030  0.11465030  1
  O  O1  1  0.61465030  0.11465030  0.38534970  1
  O  O1  1  0.61465030  0.38534970  0.11465030  1
  O  O1  1  0.63534970  0.63534970  0.36465030  1
  O  O1  1  0.63534970  0.36465030  0.63534970  1
  O  O1  1  0.88534970  0.38534970  0.38534970  1
  O  O1  1  0.86465030  0.63534970  0.13534970  1
