# generated using pymatgen
data_Na2PtO2
_symmetry_space_group_name_H-M   'P 1'
_cell_length_a   3.13437325
_cell_length_b   4.53635440
_cell_length_c   9.33899615
_cell_angle_alpha   90.00000000
_cell_angle_beta   90.00000000
_cell_angle_gamma   90.00000000
_symmetry_Int_Tables_number   1
_chemical_formula_structural   Na2PtO2
_chemical_formula_sum   'Na4 Pt2 O4'
_cell_volume   132.78771107
_cell_formula_units_Z   2
loop_
 _symmetry_equiv_pos_site_id
 _symmetry_equiv_pos_as_xyz
  1  'x, y, z'
loop_
 _atom_site_type_symbol
 _atom_site_label
 _atom_site_symmetry_multiplicity
 _atom_site_fract_x
 _atom_site_fract_y
 _atom_site_fract_z
 _atom_site_occupancy
  Na  Na1  1  0.50000000  0.50000000  0.17622847  1
  Na  Na1  1  0.00000000  0.00000000  0.32377153  1
  Pt  Pt1  1  0.00000000  0.00000000  0.00000000  1
  O  O1  1  0.00000000  0.50000000  0.35967583  1
  O  O1  1  0.50000000  0.00000000  0.14032417  1
  Na  Na1  1  0.00000000  0.00000000  0.67622847  1
  Na  Na1  1  0.50000000  0.50000000  0.82377153  1
  Pt  Pt1  1  0.50000000  0.50000000  0.50000000  1
  O  O1  1  0.50000000  0.00000000  0.85967583  1
  O  O1  1  0.00000000  0.50000000  0.64032417  1
