# generated using pymatgen
data_Na2PtO3
_symmetry_space_group_name_H-M   'P 1'
_cell_length_a   6.31230322
_cell_length_b   8.89411256
_cell_length_c   18.71170438
_cell_angle_alpha   90.00000000
_cell_angle_beta   90.00000000
_cell_angle_gamma   90.00000000
_symmetry_Int_Tables_number   1
_chemical_formula_structural   Na2PtO3
_chemical_formula_sum   'Na32 Pt16 O48'
_cell_volume   1050.51878230
_cell_formula_units_Z   16
loop_
 _symmetry_equiv_pos_site_id
 _symmetry_equiv_pos_as_xyz
  1  'x, y, z'
loop_
 _atom_site_type_symbol
 _atom_site_label
 _atom_site_symmetry_multiplicity
 _atom_site_fract_x
 _atom_site_fract_y
 _atom_site_fract_z
 _atom_site_occupancy
  Na  Na1  1  0.50000000  0.00000000  0.74471722  1
  Na  Na2  1  0.00000000  0.00000000  0.92014170  1
  Na  Na1  1  0.25000000  0.75000000  0.50528278  1
  Na  Na1  1  0.25000000  0.75000000  0.99471722  1
  Na  Na2  1  0.25000000  0.75000000  0.67014170  1
  Na  Na2  1  0.25000000  0.75000000  0.82985830  1
  Na  Na1  1  0.00000000  0.00000000  0.75528278  1
  Na  Na2  1  0.50000000  0.00000000  0.57985830  1
  Pt  Pt1  1  0.00000000  0.00000000  0.58354664  1
  Pt  Pt1  1  0.25000000  0.25000000  0.66645336  1
  Pt  Pt1  1  0.50000000  0.00000000  0.91645336  1
  Pt  Pt1  1  0.25000000  0.25000000  0.83354664  1
  O  O1  1  0.71129348  0.00000000  0.00000000  1
  O  O2  1  0.47753098  0.23033020  0.91076550  1
  O  O2  1  0.52246902  0.76966980  0.91076550  1
  O  O2  1  0.02246902  0.23033020  0.58923450  1
  O  O2  1  0.72753098  0.98033020  0.83923450  1
  O  O2  1  0.97753098  0.76966980  0.58923450  1
  O  O2  1  0.27246902  0.01966980  0.83923450  1
  O  O1  1  0.46129348  0.25000000  0.75000000  1
  O  O2  1  0.22753098  0.01966980  0.66076550  1
  O  O2  1  0.77246902  0.98033020  0.66076550  1
  O  O1  1  0.03870652  0.25000000  0.75000000  1
  O  O1  1  0.28870652  0.00000000  0.00000000  1
  Na  Na1  1  0.50000000  0.50000000  0.24471722  1
  Na  Na2  1  0.00000000  0.50000000  0.42014170  1
  Na  Na1  1  0.25000000  0.25000000  0.00528278  1
  Na  Na1  1  0.25000000  0.25000000  0.49471722  1
  Na  Na2  1  0.25000000  0.25000000  0.17014170  1
  Na  Na2  1  0.25000000  0.25000000  0.32985830  1
  Na  Na1  1  0.00000000  0.50000000  0.25528278  1
  Na  Na2  1  0.50000000  0.50000000  0.07985830  1
  Pt  Pt1  1  0.00000000  0.50000000  0.08354664  1
  Pt  Pt1  1  0.25000000  0.75000000  0.16645336  1
  Pt  Pt1  1  0.50000000  0.50000000  0.41645336  1
  Pt  Pt1  1  0.25000000  0.75000000  0.33354664  1
  O  O1  1  0.71129348  0.50000000  0.50000000  1
  O  O2  1  0.47753098  0.73033020  0.41076550  1
  O  O2  1  0.52246902  0.26966980  0.41076550  1
  O  O2  1  0.02246902  0.73033020  0.08923450  1
  O  O2  1  0.72753098  0.48033020  0.33923450  1
  O  O2  1  0.97753098  0.26966980  0.08923450  1
  O  O2  1  0.27246902  0.51966980  0.33923450  1
  O  O1  1  0.46129348  0.75000000  0.25000000  1
  O  O2  1  0.22753098  0.51966980  0.16076550  1
  O  O2  1  0.77246902  0.48033020  0.16076550  1
  O  O1  1  0.03870652  0.75000000  0.25000000  1
  O  O1  1  0.28870652  0.50000000  0.50000000  1
  Na  Na1  1  0.00000000  0.00000000  0.24471722  1
  Na  Na2  1  0.50000000  0.00000000  0.42014170  1
  Na  Na1  1  0.75000000  0.75000000  0.00528278  1
  Na  Na1  1  0.75000000  0.75000000  0.49471722  1
  Na  Na2  1  0.75000000  0.75000000  0.17014170  1
  Na  Na2  1  0.75000000  0.75000000  0.32985830  1
  Na  Na1  1  0.50000000  0.00000000  0.25528278  1
  Na  Na2  1  0.00000000  0.00000000  0.07985830  1
  Pt  Pt1  1  0.50000000  0.00000000  0.08354664  1
  Pt  Pt1  1  0.75000000  0.25000000  0.16645336  1
  Pt  Pt1  1  0.00000000  0.00000000  0.41645336  1
  Pt  Pt1  1  0.75000000  0.25000000  0.33354664  1
  O  O1  1  0.21129348  0.00000000  0.50000000  1
  O  O2  1  0.97753098  0.23033020  0.41076550  1
  O  O2  1  0.02246902  0.76966980  0.41076550  1
  O  O2  1  0.52246902  0.23033020  0.08923450  1
  O  O2  1  0.22753098  0.98033020  0.33923450  1
  O  O2  1  0.47753098  0.76966980  0.08923450  1
  O  O2  1  0.77246902  0.01966980  0.33923450  1
  O  O1  1  0.96129348  0.25000000  0.25000000  1
  O  O2  1  0.72753098  0.01966980  0.16076550  1
  O  O2  1  0.27246902  0.98033020  0.16076550  1
  O  O1  1  0.53870652  0.25000000  0.25000000  1
  O  O1  1  0.78870652  0.00000000  0.50000000  1
  Na  Na1  1  0.00000000  0.50000000  0.74471722  1
  Na  Na2  1  0.50000000  0.50000000  0.92014170  1
  Na  Na1  1  0.75000000  0.25000000  0.50528278  1
  Na  Na1  1  0.75000000  0.25000000  0.99471722  1
  Na  Na2  1  0.75000000  0.25000000  0.67014170  1
  Na  Na2  1  0.75000000  0.25000000  0.82985830  1
  Na  Na1  1  0.50000000  0.50000000  0.75528278  1
  Na  Na2  1  0.00000000  0.50000000  0.57985830  1
  Pt  Pt1  1  0.50000000  0.50000000  0.58354664  1
  Pt  Pt1  1  0.75000000  0.75000000  0.66645336  1
  Pt  Pt1  1  0.00000000  0.50000000  0.91645336  1
  Pt  Pt1  1  0.75000000  0.75000000  0.83354664  1
  O  O1  1  0.21129348  0.50000000  0.00000000  1
  O  O2  1  0.97753098  0.73033020  0.91076550  1
  O  O2  1  0.02246902  0.26966980  0.91076550  1
  O  O2  1  0.52246902  0.73033020  0.58923450  1
  O  O2  1  0.22753098  0.48033020  0.83923450  1
  O  O2  1  0.47753098  0.26966980  0.58923450  1
  O  O2  1  0.77246902  0.51966980  0.83923450  1
  O  O1  1  0.96129348  0.75000000  0.75000000  1
  O  O2  1  0.72753098  0.51966980  0.66076550  1
  O  O2  1  0.27246902  0.48033020  0.66076550  1
  O  O1  1  0.53870652  0.75000000  0.75000000  1
  O  O1  1  0.78870652  0.50000000  0.00000000  1
