# generated using pymatgen
data_Na2PbO3
_symmetry_space_group_name_H-M   'P 1'
_cell_length_a   5.71984313
_cell_length_b   9.91546725
_cell_length_c   11.09691896
_cell_angle_alpha   90.00000000
_cell_angle_beta   99.99843443
_cell_angle_gamma   90.00000000
_symmetry_Int_Tables_number   1
_chemical_formula_structural   Na2PbO3
_chemical_formula_sum   'Na16 Pb8 O24'
_cell_volume   619.80242152
_cell_formula_units_Z   8
loop_
 _symmetry_equiv_pos_site_id
 _symmetry_equiv_pos_as_xyz
  1  'x, y, z'
loop_
 _atom_site_type_symbol
 _atom_site_label
 _atom_site_symmetry_multiplicity
 _atom_site_fract_x
 _atom_site_fract_y
 _atom_site_fract_z
 _atom_site_occupancy
  Na  Na1  1  0.76012484  0.42019179  0.50010112  1
  Na  Na1  1  0.73987516  0.07980821  0.49989888  1
  Na  Na1  1  0.23987516  0.42019179  0.99989888  1
  Na  Na1  1  0.26012484  0.07980821  0.00010112  1
  Na  Na2  1  0.50000000  0.08445847  0.75000000  1
  Na  Na2  1  0.00000000  0.41554153  0.25000000  1
  Na  Na3  1  0.75000000  0.25000000  0.00000000  1
  Na  Na3  1  0.25000000  0.25000000  0.50000000  1
  Pb  Pb1  1  0.00000000  0.25058378  0.75000000  1
  Pb  Pb1  1  0.50000000  0.24941622  0.25000000  1
  Pb  Pb2  1  0.50000000  0.41777414  0.75000000  1
  Pb  Pb2  1  0.00000000  0.08222586  0.25000000  1
  O  O1  1  0.60431018  0.41600466  0.13678745  1
  O  O1  1  0.89568982  0.08399534  0.86321255  1
  O  O1  1  0.39568982  0.41600466  0.36321255  1
  O  O1  1  0.10431018  0.08399534  0.63678745  1
  O  O2  1  0.86046134  0.40557620  0.86425698  1
  O  O2  1  0.63953866  0.09442380  0.13574302  1
  O  O2  1  0.13953866  0.40557620  0.63574302  1
  O  O2  1  0.36046134  0.09442380  0.36425698  1
  O  O3  1  0.64104018  0.26341685  0.63714821  1
  O  O3  1  0.85895982  0.23658315  0.36285179  1
  O  O3  1  0.35895982  0.26341685  0.86285179  1
  O  O3  1  0.14104018  0.23658315  0.13714821  1
  Na  Na1  1  0.26012484  0.92019179  0.50010112  1
  Na  Na1  1  0.23987516  0.57980821  0.49989888  1
  Na  Na1  1  0.73987516  0.92019179  0.99989888  1
  Na  Na1  1  0.76012484  0.57980821  0.00010112  1
  Na  Na2  1  0.00000000  0.58445847  0.75000000  1
  Na  Na2  1  0.50000000  0.91554153  0.25000000  1
  Na  Na3  1  0.25000000  0.75000000  0.00000000  1
  Na  Na3  1  0.75000000  0.75000000  0.50000000  1
  Pb  Pb1  1  0.50000000  0.75058378  0.75000000  1
  Pb  Pb1  1  0.00000000  0.74941622  0.25000000  1
  Pb  Pb2  1  0.00000000  0.91777414  0.75000000  1
  Pb  Pb2  1  0.50000000  0.58222586  0.25000000  1
  O  O1  1  0.10431018  0.91600466  0.13678745  1
  O  O1  1  0.39568982  0.58399534  0.86321255  1
  O  O1  1  0.89568982  0.91600466  0.36321255  1
  O  O1  1  0.60431018  0.58399534  0.63678745  1
  O  O2  1  0.36046134  0.90557620  0.86425698  1
  O  O2  1  0.13953866  0.59442380  0.13574302  1
  O  O2  1  0.63953866  0.90557620  0.63574302  1
  O  O2  1  0.86046134  0.59442380  0.36425698  1
  O  O3  1  0.14104018  0.76341685  0.63714821  1
  O  O3  1  0.35895982  0.73658315  0.36285179  1
  O  O3  1  0.85895982  0.76341685  0.86285179  1
  O  O3  1  0.64104018  0.73658315  0.13714821  1
