# generated using pymatgen
data_Na2ReO3
_symmetry_space_group_name_H-M   'P 1'
_cell_length_a   5.52304226
_cell_length_b   5.52304226
_cell_length_c   12.02462369
_cell_angle_alpha   90.00000000
_cell_angle_beta   90.00000000
_cell_angle_gamma   120.00000000
_symmetry_Int_Tables_number   1
_chemical_formula_structural   Na2ReO3
_chemical_formula_sum   'Na8 Re4 O12'
_cell_volume   317.65731265
_cell_formula_units_Z   4
loop_
 _symmetry_equiv_pos_site_id
 _symmetry_equiv_pos_as_xyz
  1  'x, y, z'
loop_
 _atom_site_type_symbol
 _atom_site_label
 _atom_site_symmetry_multiplicity
 _atom_site_fract_x
 _atom_site_fract_y
 _atom_site_fract_z
 _atom_site_occupancy
  Na  Na1  1  0.66666667  0.33333333  0.25000000  1
  Na  Na1  1  0.33333333  0.66666667  0.75000000  1
  Na  Na1  1  0.33333333  0.66666667  0.25000000  1
  Na  Na1  1  0.66666667  0.33333333  0.75000000  1
  Na  Na2  1  0.66666667  0.33333333  0.00000000  1
  Na  Na2  1  0.33333333  0.66666667  0.00000000  1
  Na  Na2  1  0.33333333  0.66666667  0.50000000  1
  Na  Na2  1  0.66666667  0.33333333  0.50000000  1
  Re  Re1  1  0.00000000  0.00000000  0.15392109  1
  Re  Re1  1  0.00000000  0.00000000  0.84607891  1
  Re  Re1  1  0.00000000  0.00000000  0.65392109  1
  Re  Re1  1  0.00000000  0.00000000  0.34607891  1
  O  O1  1  0.00000000  0.67614594  0.12348977  1
  O  O1  1  0.00000000  0.32385406  0.87651023  1
  O  O1  1  0.32385406  0.32385406  0.12348977  1
  O  O1  1  0.00000000  0.32385406  0.62348977  1
  O  O1  1  0.32385406  0.32385406  0.37651023  1
  O  O1  1  0.67614594  0.67614594  0.87651023  1
  O  O1  1  0.00000000  0.67614594  0.37651023  1
  O  O1  1  0.67614594  0.67614594  0.62348977  1
  O  O1  1  0.67614594  0.00000000  0.12348977  1
  O  O1  1  0.32385406  0.00000000  0.87651023  1
  O  O1  1  0.32385406  0.00000000  0.62348977  1
  O  O1  1  0.67614594  0.00000000  0.37651023  1
