# generated using pymatgen
data_Na2SnO3
_symmetry_space_group_name_H-M   'P 1'
_cell_length_a   5.52480285
_cell_length_b   9.57839532
_cell_length_c   10.96910255
_cell_angle_alpha   90.00000000
_cell_angle_beta   99.84652346
_cell_angle_gamma   90.00000000
_symmetry_Int_Tables_number   1
_chemical_formula_structural   Na2SnO3
_chemical_formula_sum   'Na16 Sn8 O24'
_cell_volume   571.92044136
_cell_formula_units_Z   8
loop_
 _symmetry_equiv_pos_site_id
 _symmetry_equiv_pos_as_xyz
  1  'x, y, z'
loop_
 _atom_site_type_symbol
 _atom_site_label
 _atom_site_symmetry_multiplicity
 _atom_site_fract_x
 _atom_site_fract_y
 _atom_site_fract_z
 _atom_site_occupancy
  Na  Na1  1  0.73812198  0.42082059  0.49984657  1
  Na  Na2  1  0.75000000  0.25000000  0.00000000  1
  Na  Na3  1  0.00000000  0.08522699  0.25000000  1
  Na  Na2  1  0.25000000  0.25000000  0.50000000  1
  Na  Na1  1  0.23812198  0.07917941  0.99984657  1
  Na  Na1  1  0.26187802  0.42082059  0.00015343  1
  Na  Na3  1  0.50000000  0.41477301  0.75000000  1
  Na  Na1  1  0.76187802  0.07917941  0.50015343  1
  Sn  Sn1  1  0.00000000  0.41842969  0.25000000  1
  Sn  Sn2  1  0.00000000  0.24892732  0.75000000  1
  Sn  Sn2  1  0.50000000  0.25107268  0.25000000  1
  Sn  Sn1  1  0.50000000  0.08157031  0.75000000  1
  O  O1  1  0.64543192  0.40202096  0.14129344  1
  O  O2  1  0.85295502  0.26841574  0.35723572  1
  O  O2  1  0.14704498  0.26841574  0.14276428  1
  O  O3  1  0.90265482  0.41533037  0.85771903  1
  O  O1  1  0.14543192  0.09797904  0.64129344  1
  O  O3  1  0.09734518  0.41533037  0.64228097  1
  O  O3  1  0.40265482  0.08466963  0.35771903  1
  O  O1  1  0.35456808  0.40202096  0.35870656  1
  O  O3  1  0.59734518  0.08466963  0.14228097  1
  O  O2  1  0.35295502  0.23158426  0.85723572  1
  O  O2  1  0.64704498  0.23158426  0.64276428  1
  O  O1  1  0.85456808  0.09797904  0.85870656  1
  Na  Na1  1  0.23812198  0.92082059  0.49984657  1
  Na  Na2  1  0.25000000  0.75000000  0.00000000  1
  Na  Na3  1  0.50000000  0.58522699  0.25000000  1
  Na  Na2  1  0.75000000  0.75000000  0.50000000  1
  Na  Na1  1  0.73812198  0.57917941  0.99984657  1
  Na  Na1  1  0.76187802  0.92082059  0.00015343  1
  Na  Na3  1  0.00000000  0.91477301  0.75000000  1
  Na  Na1  1  0.26187802  0.57917941  0.50015343  1
  Sn  Sn1  1  0.50000000  0.91842969  0.25000000  1
  Sn  Sn2  1  0.50000000  0.74892732  0.75000000  1
  Sn  Sn2  1  0.00000000  0.75107268  0.25000000  1
  Sn  Sn1  1  0.00000000  0.58157031  0.75000000  1
  O  O1  1  0.14543192  0.90202096  0.14129344  1
  O  O2  1  0.35295502  0.76841574  0.35723572  1
  O  O2  1  0.64704498  0.76841574  0.14276428  1
  O  O3  1  0.40265482  0.91533037  0.85771903  1
  O  O1  1  0.64543192  0.59797904  0.64129344  1
  O  O3  1  0.59734518  0.91533037  0.64228097  1
  O  O3  1  0.90265482  0.58466963  0.35771903  1
  O  O1  1  0.85456808  0.90202096  0.35870656  1
  O  O3  1  0.09734518  0.58466963  0.14228097  1
  O  O2  1  0.85295502  0.73158426  0.85723572  1
  O  O2  1  0.14704498  0.73158426  0.64276428  1
  O  O1  1  0.35456808  0.59797904  0.85870656  1
