# generated using pymatgen
data_Na2Sb4O7
_symmetry_space_group_name_H-M   'P 1'
_cell_length_a   11.11886293
_cell_length_b   16.51211355
_cell_length_c   5.66625062
_cell_angle_alpha   90.00000000
_cell_angle_beta   116.32657871
_cell_angle_gamma   90.00000000
_symmetry_Int_Tables_number   1
_chemical_formula_structural   Na2Sb4O7
_chemical_formula_sum   'Na8 Sb16 O28'
_cell_volume   932.40139698
_cell_formula_units_Z   4
loop_
 _symmetry_equiv_pos_site_id
 _symmetry_equiv_pos_as_xyz
  1  'x, y, z'
loop_
 _atom_site_type_symbol
 _atom_site_label
 _atom_site_symmetry_multiplicity
 _atom_site_fract_x
 _atom_site_fract_y
 _atom_site_fract_z
 _atom_site_occupancy
  Na  Na1  1  0.42076414  0.09293590  0.42923205  1
  Na  Na1  1  0.57923586  0.09293590  0.07076795  1
  Na  Na1  1  0.57923586  0.90706410  0.57076795  1
  Na  Na1  1  0.42076414  0.90706410  0.92923205  1
  Sb  Sb1  1  0.64263594  0.75250271  0.18051691  1
  Sb  Sb1  1  0.64263594  0.24749729  0.68051691  1
  Sb  Sb1  1  0.35736406  0.24749729  0.81948309  1
  Sb  Sb1  1  0.35736406  0.75250271  0.31948309  1
  Sb  Sb2  1  0.21168240  0.06910744  0.78252126  1
  Sb  Sb2  1  0.78831760  0.06910744  0.71747874  1
  Sb  Sb2  1  0.78831760  0.93089256  0.21747874  1
  Sb  Sb2  1  0.21168240  0.93089256  0.28252126  1
  O  O1  1  0.63659226  0.86193246  0.98458362  1
  O  O2  1  0.20362734  0.81555074  0.04779370  1
  O  O1  1  0.36340774  0.13806754  0.01541638  1
  O  O1  1  0.63659226  0.13806754  0.48458362  1
  O  O3  1  0.50000000  0.19382269  0.75000000  1
  O  O3  1  0.50000000  0.80617731  0.25000000  1
  O  O2  1  0.20362734  0.18444926  0.54779370  1
  O  O2  1  0.79637266  0.18444926  0.95220630  1
  O  O2  1  0.79637266  0.81555074  0.45220630  1
  O  O4  1  0.69245028  0.01303298  0.89336031  1
  O  O4  1  0.69245028  0.98696702  0.39336031  1
  O  O4  1  0.30754972  0.98696702  0.10663969  1
  O  O1  1  0.36340774  0.86193246  0.51541638  1
  O  O4  1  0.30754972  0.01303298  0.60663969  1
  Na  Na1  1  0.92076414  0.59293590  0.42923205  1
  Na  Na1  1  0.07923586  0.59293590  0.07076795  1
  Na  Na1  1  0.07923586  0.40706410  0.57076795  1
  Na  Na1  1  0.92076414  0.40706410  0.92923205  1
  Sb  Sb1  1  0.14263594  0.25250271  0.18051691  1
  Sb  Sb1  1  0.14263594  0.74749729  0.68051691  1
  Sb  Sb1  1  0.85736406  0.74749729  0.81948309  1
  Sb  Sb1  1  0.85736406  0.25250271  0.31948309  1
  Sb  Sb2  1  0.71168240  0.56910744  0.78252126  1
  Sb  Sb2  1  0.28831760  0.56910744  0.71747874  1
  Sb  Sb2  1  0.28831760  0.43089256  0.21747874  1
  Sb  Sb2  1  0.71168240  0.43089256  0.28252126  1
  O  O1  1  0.13659226  0.36193246  0.98458362  1
  O  O2  1  0.70362734  0.31555074  0.04779370  1
  O  O1  1  0.86340774  0.63806754  0.01541638  1
  O  O1  1  0.13659226  0.63806754  0.48458362  1
  O  O3  1  0.00000000  0.69382269  0.75000000  1
  O  O3  1  0.00000000  0.30617731  0.25000000  1
  O  O2  1  0.70362734  0.68444926  0.54779370  1
  O  O2  1  0.29637266  0.68444926  0.95220630  1
  O  O2  1  0.29637266  0.31555074  0.45220630  1
  O  O4  1  0.19245028  0.51303298  0.89336031  1
  O  O4  1  0.19245028  0.48696702  0.39336031  1
  O  O4  1  0.80754972  0.48696702  0.10663969  1
  O  O1  1  0.86340774  0.36193246  0.51541638  1
  O  O4  1  0.80754972  0.51303298  0.60663969  1
