# generated using pymatgen
data_Na2TiGeO5
_symmetry_space_group_name_H-M   'P 1'
_cell_length_a   6.66603078
_cell_length_b   6.66603078
_cell_length_c   5.12460722
_cell_angle_alpha   90.00000000
_cell_angle_beta   90.00000000
_cell_angle_gamma   90.00000000
_symmetry_Int_Tables_number   1
_chemical_formula_structural   Na2TiGeO5
_chemical_formula_sum   'Na4 Ti2 Ge2 O10'
_cell_volume   227.71687422
_cell_formula_units_Z   2
loop_
 _symmetry_equiv_pos_site_id
 _symmetry_equiv_pos_as_xyz
  1  'x, y, z'
loop_
 _atom_site_type_symbol
 _atom_site_label
 _atom_site_symmetry_multiplicity
 _atom_site_fract_x
 _atom_site_fract_y
 _atom_site_fract_z
 _atom_site_occupancy
  Na  Na1  1  0.75000000  0.75000000  0.00000000  1
  Na  Na1  1  0.25000000  0.75000000  0.00000000  1
  Na  Na1  1  0.25000000  0.25000000  0.00000000  1
  Na  Na1  1  0.75000000  0.25000000  0.00000000  1
  Ti  Ti1  1  0.50000000  0.00000000  0.57684950  1
  Ti  Ti1  1  0.00000000  0.50000000  0.42315050  1
  Ge  Ge1  1  0.00000000  0.00000000  0.50000000  1
  Ge  Ge1  1  0.50000000  0.50000000  0.50000000  1
  O  O1  1  0.50000000  0.28248594  0.70183970  1
  O  O1  1  0.50000000  0.71751406  0.70183970  1
  O  O1  1  0.21751406  0.00000000  0.70183970  1
  O  O1  1  0.78248594  0.00000000  0.70183970  1
  O  O1  1  0.71751406  0.50000000  0.29816030  1
  O  O1  1  0.00000000  0.78248594  0.29816030  1
  O  O1  1  0.00000000  0.21751406  0.29816030  1
  O  O1  1  0.28248594  0.50000000  0.29816030  1
  O  O2  1  0.00000000  0.50000000  0.76337206  1
  O  O2  1  0.50000000  0.00000000  0.23662794  1
