# generated using pymatgen
data_Na2TiSiO5
_symmetry_space_group_name_H-M   'P 1'
_cell_length_a   6.46587267
_cell_length_b   6.46587267
_cell_length_c   5.04975602
_cell_angle_alpha   90.00000000
_cell_angle_beta   90.00000000
_cell_angle_gamma   90.00000000
_symmetry_Int_Tables_number   1
_chemical_formula_structural   Na2TiSiO5
_chemical_formula_sum   'Na4 Ti2 Si2 O10'
_cell_volume   211.11772229
_cell_formula_units_Z   2
loop_
 _symmetry_equiv_pos_site_id
 _symmetry_equiv_pos_as_xyz
  1  'x, y, z'
loop_
 _atom_site_type_symbol
 _atom_site_label
 _atom_site_symmetry_multiplicity
 _atom_site_fract_x
 _atom_site_fract_y
 _atom_site_fract_z
 _atom_site_occupancy
  Na  Na1  1  0.75000000  0.25000000  0.50000000  1
  Na  Na1  1  0.75000000  0.75000000  0.50000000  1
  Na  Na1  1  0.25000000  0.25000000  0.50000000  1
  Na  Na1  1  0.25000000  0.75000000  0.50000000  1
  Ti  Ti1  1  0.00000000  0.50000000  0.06691248  1
  Ti  Ti1  1  0.50000000  0.00000000  0.93308752  1
  Si  Si1  1  0.50000000  0.50000000  0.00000000  1
  Si  Si1  1  0.00000000  0.00000000  0.00000000  1
  O  O1  1  0.00000000  0.50000000  0.72130898  1
  O  O1  1  0.50000000  0.00000000  0.27869102  1
  O  O2  1  0.00000000  0.20759344  0.18736634  1
  O  O2  1  0.00000000  0.79240656  0.18736634  1
  O  O2  1  0.29240656  0.50000000  0.18736634  1
  O  O2  1  0.70759344  0.50000000  0.18736634  1
  O  O2  1  0.79240656  0.00000000  0.81263366  1
  O  O2  1  0.50000000  0.70759344  0.81263366  1
  O  O2  1  0.20759344  0.00000000  0.81263366  1
  O  O2  1  0.50000000  0.29240656  0.81263366  1
