# generated using pymatgen
data_Na2Zn2O3
_symmetry_space_group_name_H-M   'P 1'
_cell_length_a   6.05282284
_cell_length_b   6.05282284
_cell_length_c   9.27140270
_cell_angle_alpha   90.00000000
_cell_angle_beta   90.00000000
_cell_angle_gamma   90.00000000
_symmetry_Int_Tables_number   1
_chemical_formula_structural   Na2Zn2O3
_chemical_formula_sum   'Na8 Zn8 O12'
_cell_volume   339.67326795
_cell_formula_units_Z   4
loop_
 _symmetry_equiv_pos_site_id
 _symmetry_equiv_pos_as_xyz
  1  'x, y, z'
loop_
 _atom_site_type_symbol
 _atom_site_label
 _atom_site_symmetry_multiplicity
 _atom_site_fract_x
 _atom_site_fract_y
 _atom_site_fract_z
 _atom_site_occupancy
  Na  Na1  1  0.75394726  0.96279478  0.14588524  1
  Na  Na1  1  0.53720522  0.25394726  0.89588524  1
  Na  Na1  1  0.03720522  0.24605274  0.35411476  1
  Na  Na1  1  0.24605274  0.03720522  0.64588524  1
  Na  Na1  1  0.46279478  0.74605274  0.39588524  1
  Na  Na1  1  0.74605274  0.46279478  0.60411476  1
  Na  Na1  1  0.96279478  0.75394726  0.85411476  1
  Na  Na1  1  0.25394726  0.53720522  0.10411476  1
  Zn  Zn1  1  0.24195018  0.04707378  0.11401416  1
  Zn  Zn1  1  0.45292622  0.74195018  0.86401416  1
  Zn  Zn1  1  0.04707378  0.24195018  0.88598584  1
  Zn  Zn1  1  0.74195018  0.45292622  0.13598584  1
  Zn  Zn1  1  0.25804982  0.54707378  0.63598584  1
  Zn  Zn1  1  0.95292622  0.75804982  0.38598584  1
  Zn  Zn1  1  0.54707378  0.25804982  0.36401416  1
  Zn  Zn1  1  0.75804982  0.95292622  0.61401416  1
  O  O1  1  0.17096794  0.82903206  0.25000000  1
  O  O2  1  0.25865106  0.98466202  0.90897448  1
  O  O2  1  0.01533798  0.74134894  0.59102552  1
  O  O2  1  0.74134894  0.01533798  0.40897448  1
  O  O1  1  0.82903206  0.17096794  0.75000000  1
  O  O2  1  0.51533798  0.75865106  0.65897448  1
  O  O1  1  0.67096794  0.67096794  0.00000000  1
  O  O2  1  0.98466202  0.25865106  0.09102552  1
  O  O2  1  0.48466202  0.24134894  0.15897448  1
  O  O2  1  0.24134894  0.48466202  0.84102552  1
  O  O2  1  0.75865106  0.51533798  0.34102552  1
  O  O1  1  0.32903206  0.32903206  0.50000000  1
