# generated using pymatgen
data_Na2Zn(SiO3)2
_symmetry_space_group_name_H-M   'P 1'
_cell_length_a   7.08330233
_cell_length_b   21.16646910
_cell_length_c   7.42056351
_cell_angle_alpha   90.00000000
_cell_angle_beta   90.00000000
_cell_angle_gamma   90.00000000
_symmetry_Int_Tables_number   1
_chemical_formula_structural   Na2Zn(SiO3)2
_chemical_formula_sum   'Na16 Zn8 Si16 O48'
_cell_volume   1112.55395621
_cell_formula_units_Z   8
loop_
 _symmetry_equiv_pos_site_id
 _symmetry_equiv_pos_as_xyz
  1  'x, y, z'
loop_
 _atom_site_type_symbol
 _atom_site_label
 _atom_site_symmetry_multiplicity
 _atom_site_fract_x
 _atom_site_fract_y
 _atom_site_fract_z
 _atom_site_occupancy
  Na  Na1  1  0.01691240  0.67166172  0.97461508  1
  Na  Na1  1  0.48308760  0.82833828  0.97461508  1
  Na  Na1  1  0.73308760  0.92166172  0.72461508  1
  Na  Na1  1  0.76691240  0.57833828  0.72461508  1
  Zn  Zn1  1  0.75000000  0.75000000  0.74791414  1
  Zn  Zn1  1  0.50000000  0.00000000  0.99791414  1
  Si  Si1  1  0.53544098  0.66779996  0.02315950  1
  Si  Si1  1  0.96455902  0.83220004  0.02315950  1
  Si  Si1  1  0.71455902  0.91779996  0.27315950  1
  Si  Si1  1  0.78544098  0.58220004  0.27315950  1
  O  O1  1  0.46886964  0.73402048  0.10819386  1
  O  O1  1  0.03113036  0.76597952  0.10819386  1
  O  O1  1  0.28113036  0.98402048  0.85819386  1
  O  O1  1  0.21886964  0.51597952  0.85819386  1
  O  O2  1  0.84510010  0.63128508  0.44037064  1
  O  O2  1  0.65489990  0.86871492  0.44037064  1
  O  O2  1  0.90489990  0.88128508  0.19037064  1
  O  O2  1  0.59510010  0.61871492  0.19037064  1
  O  O3  1  0.70478468  0.67277904  0.87760384  1
  O  O3  1  0.79521532  0.82722096  0.87760384  1
  O  O3  1  0.95478468  0.57722096  0.12760384  1
  O  O3  1  0.54521532  0.92277904  0.12760384  1
  Na  Na1  1  0.01691240  0.17166172  0.47461508  1
  Na  Na1  1  0.48308760  0.32833828  0.47461508  1
  Na  Na1  1  0.73308760  0.42166172  0.22461508  1
  Na  Na1  1  0.76691240  0.07833828  0.22461508  1
  Zn  Zn1  1  0.75000000  0.25000000  0.24791414  1
  Zn  Zn1  1  0.50000000  0.50000000  0.49791414  1
  Si  Si1  1  0.53544098  0.16779996  0.52315950  1
  Si  Si1  1  0.96455902  0.33220004  0.52315950  1
  Si  Si1  1  0.71455902  0.41779996  0.77315950  1
  Si  Si1  1  0.78544098  0.08220004  0.77315950  1
  O  O1  1  0.46886964  0.23402048  0.60819386  1
  O  O1  1  0.03113036  0.26597952  0.60819386  1
  O  O1  1  0.28113036  0.48402048  0.35819386  1
  O  O1  1  0.21886964  0.01597952  0.35819386  1
  O  O2  1  0.84510010  0.13128508  0.94037064  1
  O  O2  1  0.65489990  0.36871492  0.94037064  1
  O  O2  1  0.90489990  0.38128508  0.69037064  1
  O  O2  1  0.59510010  0.11871492  0.69037064  1
  O  O3  1  0.70478468  0.17277904  0.37760384  1
  O  O3  1  0.79521532  0.32722096  0.37760384  1
  O  O3  1  0.95478468  0.07722096  0.62760384  1
  O  O3  1  0.54521532  0.42277904  0.62760384  1
  Na  Na1  1  0.51691240  0.67166172  0.47461508  1
  Na  Na1  1  0.98308760  0.82833828  0.47461508  1
  Na  Na1  1  0.23308760  0.92166172  0.22461508  1
  Na  Na1  1  0.26691240  0.57833828  0.22461508  1
  Zn  Zn1  1  0.25000000  0.75000000  0.24791414  1
  Zn  Zn1  1  0.00000000  0.00000000  0.49791414  1
  Si  Si1  1  0.03544098  0.66779996  0.52315950  1
  Si  Si1  1  0.46455902  0.83220004  0.52315950  1
  Si  Si1  1  0.21455902  0.91779996  0.77315950  1
  Si  Si1  1  0.28544098  0.58220004  0.77315950  1
  O  O1  1  0.96886964  0.73402048  0.60819386  1
  O  O1  1  0.53113036  0.76597952  0.60819386  1
  O  O1  1  0.78113036  0.98402048  0.35819386  1
  O  O1  1  0.71886964  0.51597952  0.35819386  1
  O  O2  1  0.34510010  0.63128508  0.94037064  1
  O  O2  1  0.15489990  0.86871492  0.94037064  1
  O  O2  1  0.40489990  0.88128508  0.69037064  1
  O  O2  1  0.09510010  0.61871492  0.69037064  1
  O  O3  1  0.20478468  0.67277904  0.37760384  1
  O  O3  1  0.29521532  0.82722096  0.37760384  1
  O  O3  1  0.45478468  0.57722096  0.62760384  1
  O  O3  1  0.04521532  0.92277904  0.62760384  1
  Na  Na1  1  0.51691240  0.17166172  0.97461508  1
  Na  Na1  1  0.98308760  0.32833828  0.97461508  1
  Na  Na1  1  0.23308760  0.42166172  0.72461508  1
  Na  Na1  1  0.26691240  0.07833828  0.72461508  1
  Zn  Zn1  1  0.25000000  0.25000000  0.74791414  1
  Zn  Zn1  1  0.00000000  0.50000000  0.99791414  1
  Si  Si1  1  0.03544098  0.16779996  0.02315950  1
  Si  Si1  1  0.46455902  0.33220004  0.02315950  1
  Si  Si1  1  0.21455902  0.41779996  0.27315950  1
  Si  Si1  1  0.28544098  0.08220004  0.27315950  1
  O  O1  1  0.96886964  0.23402048  0.10819386  1
  O  O1  1  0.53113036  0.26597952  0.10819386  1
  O  O1  1  0.78113036  0.48402048  0.85819386  1
  O  O1  1  0.71886964  0.01597952  0.85819386  1
  O  O2  1  0.34510010  0.13128508  0.44037064  1
  O  O2  1  0.15489990  0.36871492  0.44037064  1
  O  O2  1  0.40489990  0.38128508  0.19037064  1
  O  O2  1  0.09510010  0.11871492  0.19037064  1
  O  O3  1  0.20478468  0.17277904  0.87760384  1
  O  O3  1  0.29521532  0.32722096  0.87760384  1
  O  O3  1  0.45478468  0.07722096  0.12760384  1
  O  O3  1  0.04521532  0.42277904  0.12760384  1
