# generated using pymatgen
data_Na2Zn2Si2O7
_symmetry_space_group_name_H-M   'P 1'
_cell_length_a   13.58490886
_cell_length_b   9.14551154
_cell_length_c   5.04095788
_cell_angle_alpha   90.00000000
_cell_angle_beta   90.00000000
_cell_angle_gamma   90.00000000
_symmetry_Int_Tables_number   1
_chemical_formula_structural   Na2Zn2Si2O7
_chemical_formula_sum   'Na8 Zn8 Si8 O28'
_cell_volume   626.29334963
_cell_formula_units_Z   4
loop_
 _symmetry_equiv_pos_site_id
 _symmetry_equiv_pos_as_xyz
  1  'x, y, z'
loop_
 _atom_site_type_symbol
 _atom_site_label
 _atom_site_symmetry_multiplicity
 _atom_site_fract_x
 _atom_site_fract_y
 _atom_site_fract_z
 _atom_site_occupancy
  Na  Na1  1  0.25000000  0.03655270  0.01979263  1
  Na  Na1  1  0.75000000  0.46344730  0.51979263  1
  Na  Na2  1  0.50000000  0.00000000  0.00562611  1
  Na  Na2  1  0.00000000  0.00000000  0.00562611  1
  Zn  Zn1  1  0.42159256  0.21590062  0.55837073  1
  Zn  Zn1  1  0.57840744  0.28409938  0.05837073  1
  Zn  Zn1  1  0.07840744  0.21590062  0.55837073  1
  Zn  Zn1  1  0.92159256  0.28409938  0.05837073  1
  Si  Si1  1  0.36024718  0.38046126  0.04909132  1
  Si  Si1  1  0.63975282  0.11953874  0.54909132  1
  Si  Si1  1  0.13975282  0.38046126  0.04909132  1
  Si  Si1  1  0.86024718  0.11953874  0.54909132  1
  O  O1  1  0.37173953  0.04064078  0.68537566  1
  O  O1  1  0.62826047  0.45935922  0.18537566  1
  O  O1  1  0.12826047  0.04064078  0.68537566  1
  O  O1  1  0.87173953  0.45935922  0.18537566  1
  O  O2  1  0.43899826  0.26501748  0.18721515  1
  O  O2  1  0.56100174  0.23498252  0.68721515  1
  O  O2  1  0.06100174  0.26501748  0.18721515  1
  O  O2  1  0.93899826  0.23498252  0.68721515  1
  O  O3  1  0.37349106  0.38742238  0.72977754  1
  O  O3  1  0.62650894  0.11257762  0.22977754  1
  O  O3  1  0.12650894  0.38742238  0.72977754  1
  O  O3  1  0.87349106  0.11257762  0.22977754  1
  O  O4  1  0.75000000  0.18776862  0.62882048  1
  O  O4  1  0.25000000  0.31223138  0.12882048  1
  Na  Na1  1  0.25000000  0.53655270  0.51979263  1
  Na  Na1  1  0.75000000  0.96344730  0.01979263  1
  Na  Na2  1  0.50000000  0.50000000  0.50562611  1
  Na  Na2  1  0.00000000  0.50000000  0.50562611  1
  Zn  Zn1  1  0.42159256  0.71590062  0.05837073  1
  Zn  Zn1  1  0.57840744  0.78409938  0.55837073  1
  Zn  Zn1  1  0.07840744  0.71590062  0.05837073  1
  Zn  Zn1  1  0.92159256  0.78409938  0.55837073  1
  Si  Si1  1  0.36024718  0.88046126  0.54909132  1
  Si  Si1  1  0.63975282  0.61953874  0.04909132  1
  Si  Si1  1  0.13975282  0.88046126  0.54909132  1
  Si  Si1  1  0.86024718  0.61953874  0.04909132  1
  O  O1  1  0.37173953  0.54064078  0.18537566  1
  O  O1  1  0.62826047  0.95935922  0.68537566  1
  O  O1  1  0.12826047  0.54064078  0.18537566  1
  O  O1  1  0.87173953  0.95935922  0.68537566  1
  O  O2  1  0.43899826  0.76501748  0.68721515  1
  O  O2  1  0.56100174  0.73498252  0.18721515  1
  O  O2  1  0.06100174  0.76501748  0.68721515  1
  O  O2  1  0.93899826  0.73498252  0.18721515  1
  O  O3  1  0.37349106  0.88742238  0.22977754  1
  O  O3  1  0.62650894  0.61257762  0.72977754  1
  O  O3  1  0.12650894  0.88742238  0.22977754  1
  O  O3  1  0.87349106  0.61257762  0.72977754  1
  O  O4  1  0.75000000  0.68776862  0.12882048  1
  O  O4  1  0.25000000  0.81223138  0.62882048  1
