# generated using pymatgen
data_Na2ZrO3
_symmetry_space_group_name_H-M   'P 1'
_cell_length_a   5.58235909
_cell_length_b   9.68357057
_cell_length_c   10.96326835
_cell_angle_alpha   90.00000000
_cell_angle_beta   100.03239578
_cell_angle_gamma   90.00000000
_symmetry_Int_Tables_number   1
_chemical_formula_structural   Na2ZrO3
_chemical_formula_sum   'Na16 Zr8 O24'
_cell_volume   583.58137792
_cell_formula_units_Z   8
loop_
 _symmetry_equiv_pos_site_id
 _symmetry_equiv_pos_as_xyz
  1  'x, y, z'
loop_
 _atom_site_type_symbol
 _atom_site_label
 _atom_site_symmetry_multiplicity
 _atom_site_fract_x
 _atom_site_fract_y
 _atom_site_fract_z
 _atom_site_occupancy
  Na  Na1  1  0.00000000  0.08498531  0.75000000  1
  Na  Na1  1  0.50000000  0.41501469  0.25000000  1
  Na  Na2  1  0.25000000  0.25000000  0.00000000  1
  Na  Na2  1  0.75000000  0.25000000  0.50000000  1
  Na  Na3  1  0.26156682  0.42067798  0.50029529  1
  Na  Na3  1  0.73843318  0.42067798  0.99970471  1
  Na  Na3  1  0.23843318  0.07932202  0.49970471  1
  Na  Na3  1  0.76156682  0.07932202  0.00029529  1
  Zr  Zr1  1  0.00000000  0.41814678  0.75000000  1
  Zr  Zr1  1  0.50000000  0.08185322  0.25000000  1
  Zr  Zr2  1  0.00000000  0.24946827  0.25000000  1
  Zr  Zr2  1  0.50000000  0.25053173  0.75000000  1
  O  O1  1  0.09557512  0.41513795  0.14361920  1
  O  O1  1  0.90442488  0.41513795  0.35638080  1
  O  O1  1  0.40442488  0.08486205  0.85638080  1
  O  O1  1  0.59557512  0.08486205  0.64361920  1
  O  O2  1  0.14847560  0.26958584  0.64385609  1
  O  O2  1  0.85152440  0.26958584  0.85614391  1
  O  O2  1  0.35152440  0.23041416  0.35614391  1
  O  O2  1  0.64847560  0.23041416  0.14385609  1
  O  O3  1  0.35297644  0.40096070  0.85819363  1
  O  O3  1  0.64702356  0.40096070  0.64180637  1
  O  O3  1  0.14702356  0.09903930  0.14180637  1
  O  O3  1  0.85297644  0.09903930  0.35819363  1
  Na  Na1  1  0.50000000  0.58498531  0.75000000  1
  Na  Na1  1  0.00000000  0.91501469  0.25000000  1
  Na  Na2  1  0.75000000  0.75000000  0.00000000  1
  Na  Na2  1  0.25000000  0.75000000  0.50000000  1
  Na  Na3  1  0.76156682  0.92067798  0.50029529  1
  Na  Na3  1  0.23843318  0.92067798  0.99970471  1
  Na  Na3  1  0.73843318  0.57932202  0.49970471  1
  Na  Na3  1  0.26156682  0.57932202  0.00029529  1
  Zr  Zr1  1  0.50000000  0.91814678  0.75000000  1
  Zr  Zr1  1  0.00000000  0.58185322  0.25000000  1
  Zr  Zr2  1  0.50000000  0.74946827  0.25000000  1
  Zr  Zr2  1  0.00000000  0.75053173  0.75000000  1
  O  O1  1  0.59557512  0.91513795  0.14361920  1
  O  O1  1  0.40442488  0.91513795  0.35638080  1
  O  O1  1  0.90442488  0.58486205  0.85638080  1
  O  O1  1  0.09557512  0.58486205  0.64361920  1
  O  O2  1  0.64847560  0.76958584  0.64385609  1
  O  O2  1  0.35152440  0.76958584  0.85614391  1
  O  O2  1  0.85152440  0.73041416  0.35614391  1
  O  O2  1  0.14847560  0.73041416  0.14385609  1
  O  O3  1  0.85297644  0.90096070  0.85819363  1
  O  O3  1  0.14702356  0.90096070  0.64180637  1
  O  O3  1  0.64702356  0.59903930  0.14180637  1
  O  O3  1  0.35297644  0.59903930  0.35819363  1
