# generated using pymatgen
data_Na3AuO2
_symmetry_space_group_name_H-M   'P 1'
_cell_length_a   9.59912445
_cell_length_b   9.59912445
_cell_length_c   4.53158603
_cell_angle_alpha   90.00000000
_cell_angle_beta   90.00000000
_cell_angle_gamma   90.00000000
_symmetry_Int_Tables_number   1
_chemical_formula_structural   Na3AuO2
_chemical_formula_sum   'Na12 Au4 O8'
_cell_volume   417.55479294
_cell_formula_units_Z   4
loop_
 _symmetry_equiv_pos_site_id
 _symmetry_equiv_pos_as_xyz
  1  'x, y, z'
loop_
 _atom_site_type_symbol
 _atom_site_label
 _atom_site_symmetry_multiplicity
 _atom_site_fract_x
 _atom_site_fract_y
 _atom_site_fract_z
 _atom_site_occupancy
  Na  Na1  1  0.15611799  0.84388201  0.00000000  1
  Na  Na2  1  0.01406327  0.34918379  0.50000000  1
  Na  Na2  1  0.15081621  0.51406327  0.00000000  1
  Na  Na2  1  0.98593673  0.65081621  0.50000000  1
  Na  Na2  1  0.51406327  0.15081621  0.00000000  1
  Na  Na2  1  0.48593673  0.84918379  0.00000000  1
  Na  Na2  1  0.65081621  0.98593673  0.50000000  1
  Na  Na2  1  0.34918379  0.01406327  0.50000000  1
  Na  Na1  1  0.65611799  0.65611799  0.50000000  1
  Na  Na1  1  0.84388201  0.15611799  0.00000000  1
  Na  Na2  1  0.84918379  0.48593673  0.00000000  1
  Na  Na1  1  0.34388201  0.34388201  0.50000000  1
  Au  Au1  1  0.33263619  0.66736381  0.50000000  1
  Au  Au1  1  0.16736381  0.16736381  0.00000000  1
  Au  Au1  1  0.83263619  0.83263619  0.00000000  1
  Au  Au1  1  0.66736381  0.33263619  0.50000000  1
  O  O1  1  0.51637922  0.18949446  0.50000000  1
  O  O1  1  0.48362078  0.81050554  0.50000000  1
  O  O1  1  0.31050554  0.01637922  0.00000000  1
  O  O1  1  0.68949446  0.98362078  0.00000000  1
  O  O1  1  0.01637922  0.31050554  0.00000000  1
  O  O1  1  0.18949446  0.51637922  0.50000000  1
  O  O1  1  0.81050554  0.48362078  0.50000000  1
  O  O1  1  0.98362078  0.68949446  0.00000000  1
