# generated using pymatgen
data_Na3AgO2
_symmetry_space_group_name_H-M   'P 1'
_cell_length_a   5.38968268
_cell_length_b   10.76768372
_cell_length_c   5.85021035
_cell_angle_alpha   90.00000000
_cell_angle_beta   90.00000000
_cell_angle_gamma   90.00000000
_symmetry_Int_Tables_number   1
_chemical_formula_structural   Na3AgO2
_chemical_formula_sum   'Na12 Ag4 O8'
_cell_volume   339.51343844
_cell_formula_units_Z   4
loop_
 _symmetry_equiv_pos_site_id
 _symmetry_equiv_pos_as_xyz
  1  'x, y, z'
loop_
 _atom_site_type_symbol
 _atom_site_label
 _atom_site_symmetry_multiplicity
 _atom_site_fract_x
 _atom_site_fract_y
 _atom_site_fract_z
 _atom_site_occupancy
  Na  Na1  1  0.50000000  0.73943482  0.25000000  1
  Na  Na2  1  0.50000000  0.00000000  0.75000000  1
  Na  Na1  1  0.50000000  0.73943482  0.75000000  1
  Na  Na1  1  0.00000000  0.76056518  0.25000000  1
  Na  Na2  1  0.50000000  0.00000000  0.25000000  1
  Na  Na1  1  0.00000000  0.76056518  0.75000000  1
  Ag  Ag1  1  0.00000000  0.00000000  0.00000000  1
  Ag  Ag1  1  0.00000000  0.00000000  0.50000000  1
  O  O1  1  0.22637132  0.63535577  0.50000000  1
  O  O1  1  0.72637132  0.86464423  0.50000000  1
  O  O1  1  0.27362868  0.86464423  0.00000000  1
  O  O1  1  0.77362868  0.63535577  0.00000000  1
  Na  Na1  1  0.00000000  0.23943482  0.75000000  1
  Na  Na2  1  0.00000000  0.50000000  0.25000000  1
  Na  Na1  1  0.00000000  0.23943482  0.25000000  1
  Na  Na1  1  0.50000000  0.26056518  0.75000000  1
  Na  Na2  1  0.00000000  0.50000000  0.75000000  1
  Na  Na1  1  0.50000000  0.26056518  0.25000000  1
  Ag  Ag1  1  0.50000000  0.50000000  0.50000000  1
  Ag  Ag1  1  0.50000000  0.50000000  0.00000000  1
  O  O1  1  0.72637132  0.13535577  0.00000000  1
  O  O1  1  0.22637132  0.36464423  0.00000000  1
  O  O1  1  0.77362868  0.36464423  0.50000000  1
  O  O1  1  0.27362868  0.13535577  0.50000000  1
