# generated using pymatgen
data_Na3AuO3
_symmetry_space_group_name_H-M   'P 1'
_cell_length_a   9.33781179
_cell_length_b   9.33781179
_cell_length_c   4.46914078
_cell_angle_alpha   90.00000000
_cell_angle_beta   90.00000000
_cell_angle_gamma   90.00000000
_symmetry_Int_Tables_number   1
_chemical_formula_structural   Na3AuO3
_chemical_formula_sum   'Na12 Au4 O12'
_cell_volume   389.68551922
_cell_formula_units_Z   4
loop_
 _symmetry_equiv_pos_site_id
 _symmetry_equiv_pos_as_xyz
  1  'x, y, z'
loop_
 _atom_site_type_symbol
 _atom_site_label
 _atom_site_symmetry_multiplicity
 _atom_site_fract_x
 _atom_site_fract_y
 _atom_site_fract_z
 _atom_site_occupancy
  Na  Na1  1  0.12032885  0.37412313  0.50000000  1
  Na  Na1  1  0.12587687  0.62032885  0.00000000  1
  Na  Na2  1  0.14553776  0.14553776  0.00000000  1
  Na  Na2  1  0.35446224  0.64553776  0.50000000  1
  Na  Na1  1  0.37412313  0.12032885  0.50000000  1
  Na  Na1  1  0.37967115  0.87412313  0.00000000  1
  Na  Na1  1  0.62032885  0.12587687  0.00000000  1
  Na  Na1  1  0.62587687  0.87967115  0.50000000  1
  Na  Na2  1  0.64553776  0.35446224  0.50000000  1
  Na  Na2  1  0.85446224  0.85446224  0.00000000  1
  Na  Na1  1  0.87412313  0.37967115  0.00000000  1
  Na  Na1  1  0.87967115  0.62587687  0.50000000  1
  Au  Au1  1  0.11690147  0.88309853  0.50000000  1
  Au  Au1  1  0.38309853  0.38309853  0.00000000  1
  Au  Au1  1  0.61690147  0.61690147  0.00000000  1
  Au  Au1  1  0.88309853  0.11690147  0.50000000  1
  O  O1  1  0.10278543  0.10278543  0.50000000  1
  O  O2  1  0.11539475  0.67040335  0.50000000  1
  O  O2  1  0.17040335  0.38460525  0.00000000  1
  O  O2  1  0.32959665  0.88460525  0.50000000  1
  O  O2  1  0.38460525  0.17040335  0.00000000  1
  O  O1  1  0.39721457  0.60278543  0.00000000  1
  O  O1  1  0.60278543  0.39721457  0.00000000  1
  O  O2  1  0.61539475  0.82959665  0.00000000  1
  O  O2  1  0.67040335  0.11539475  0.50000000  1
  O  O2  1  0.82959665  0.61539475  0.00000000  1
  O  O2  1  0.88460525  0.32959665  0.50000000  1
  O  O1  1  0.89721457  0.89721457  0.50000000  1
