# generated using pymatgen
data_Na3BeAl(SiO4)2
_symmetry_space_group_name_H-M   'P 1'
_cell_length_a   6.82016189
_cell_length_b   7.17096390
_cell_length_c   7.28090749
_cell_angle_alpha   90.00000000
_cell_angle_beta   90.00000000
_cell_angle_gamma   90.00000000
_symmetry_Int_Tables_number   1
_chemical_formula_structural   Na3BeAl(SiO4)2
_chemical_formula_sum   'Na6 Be2 Al2 Si4 O16'
_cell_volume   356.08832338
_cell_formula_units_Z   2
loop_
 _symmetry_equiv_pos_site_id
 _symmetry_equiv_pos_as_xyz
  1  'x, y, z'
loop_
 _atom_site_type_symbol
 _atom_site_label
 _atom_site_symmetry_multiplicity
 _atom_site_fract_x
 _atom_site_fract_y
 _atom_site_fract_z
 _atom_site_occupancy
  Na  Na1  1  0.25000612  0.28803702  0.32401780  1
  Na  Na1  1  0.74999388  0.71196298  0.32401780  1
  Na  Na2  1  0.50000000  0.00000000  0.03355518  1
  Na  Na2  1  0.00000000  0.50000000  0.96644482  1
  Na  Na1  1  0.75000612  0.21196298  0.67598220  1
  Na  Na1  1  0.24999388  0.78803702  0.67598220  1
  Be  Be1  1  0.00000000  0.50000000  0.57020462  1
  Be  Be1  1  0.50000000  0.00000000  0.42979538  1
  Al  Al1  1  0.00000000  0.00000000  0.03604992  1
  Al  Al1  1  0.50000000  0.50000000  0.96395008  1
  Si  Si1  1  0.76434738  0.30379326  0.26011498  1
  Si  Si1  1  0.26434738  0.19620674  0.73988502  1
  Si  Si1  1  0.23565262  0.69620674  0.26011498  1
  Si  Si1  1  0.73565262  0.80379326  0.73988502  1
  O  O1  1  0.04041678  0.80098034  0.17252920  1
  O  O2  1  0.17619774  0.58447036  0.44540286  1
  O  O3  1  0.79399738  0.96415982  0.89553848  1
  O  O3  1  0.20600262  0.03584018  0.89553848  1
  O  O4  1  0.42044328  0.83523504  0.28998128  1
  O  O1  1  0.45958322  0.30098034  0.82747080  1
  O  O1  1  0.95958322  0.19901966  0.17252920  1
  O  O2  1  0.32380226  0.08447036  0.55459714  1
  O  O4  1  0.07955672  0.33523504  0.71001872  1
  O  O2  1  0.67619774  0.91552964  0.55459714  1
  O  O1  1  0.54041678  0.69901966  0.82747080  1
  O  O2  1  0.82380226  0.41552964  0.44540286  1
  O  O3  1  0.29399738  0.53584018  0.10446152  1
  O  O4  1  0.57955672  0.16476496  0.28998128  1
  O  O3  1  0.70600262  0.46415982  0.10446152  1
  O  O4  1  0.92044328  0.66476496  0.71001872  1
