# generated using pymatgen
data_Na3BiO3
_symmetry_space_group_name_H-M   'P 1'
_cell_length_a   9.55510685
_cell_length_b   9.55510685
_cell_length_c   9.55510685
_cell_angle_alpha   90.00000000
_cell_angle_beta   90.00000000
_cell_angle_gamma   90.00000000
_symmetry_Int_Tables_number   1
_chemical_formula_structural   Na3BiO3
_chemical_formula_sum   'Na24 Bi8 O24'
_cell_volume   872.38189478
_cell_formula_units_Z   8
loop_
 _symmetry_equiv_pos_site_id
 _symmetry_equiv_pos_as_xyz
  1  'x, y, z'
loop_
 _atom_site_type_symbol
 _atom_site_label
 _atom_site_symmetry_multiplicity
 _atom_site_fract_x
 _atom_site_fract_y
 _atom_site_fract_z
 _atom_site_occupancy
  Na  Na1  1  0.59774634  0.12357294  0.12357294  1
  Na  Na1  1  0.12357294  0.12357294  0.59774634  1
  Na  Na1  1  0.12357294  0.59774634  0.12357294  1
  Na  Na1  1  0.40225366  0.87642706  0.12357294  1
  Na  Na1  1  0.40225366  0.12357294  0.87642706  1
  Na  Na1  1  0.09774634  0.37642706  0.37642706  1
  Na  Na1  1  0.37642706  0.37642706  0.09774634  1
  Na  Na1  1  0.87642706  0.12357294  0.40225366  1
  Na  Na1  1  0.12357294  0.40225366  0.87642706  1
  Na  Na1  1  0.87642706  0.40225366  0.12357294  1
  Na  Na1  1  0.37642706  0.09774634  0.37642706  1
  Na  Na1  1  0.12357294  0.87642706  0.40225366  1
  Bi  Bi1  1  0.35921030  0.64078970  0.35921030  1
  Bi  Bi1  1  0.35921030  0.35921030  0.64078970  1
  Bi  Bi1  1  0.14078970  0.14078970  0.14078970  1
  Bi  Bi1  1  0.64078970  0.35921030  0.35921030  1
  O  O1  1  0.12739670  0.35781002  0.12739670  1
  O  O1  1  0.35781002  0.12739670  0.12739670  1
  O  O1  1  0.12739670  0.12739670  0.35781002  1
  O  O1  1  0.12739670  0.87260330  0.64218998  1
  O  O1  1  0.87260330  0.64218998  0.12739670  1
  O  O1  1  0.12739670  0.64218998  0.87260330  1
  O  O1  1  0.37260330  0.85781002  0.37260330  1
  O  O1  1  0.87260330  0.12739670  0.64218998  1
  O  O1  1  0.64218998  0.12739670  0.87260330  1
  O  O1  1  0.37260330  0.37260330  0.85781002  1
  O  O1  1  0.85781002  0.37260330  0.37260330  1
  O  O1  1  0.64218998  0.87260330  0.12739670  1
  Na  Na1  1  0.09774634  0.62357294  0.62357294  1
  Na  Na1  1  0.62357294  0.62357294  0.09774634  1
  Na  Na1  1  0.62357294  0.09774634  0.62357294  1
  Na  Na1  1  0.90225366  0.37642706  0.62357294  1
  Na  Na1  1  0.90225366  0.62357294  0.37642706  1
  Na  Na1  1  0.59774634  0.87642706  0.87642706  1
  Na  Na1  1  0.87642706  0.87642706  0.59774634  1
  Na  Na1  1  0.37642706  0.62357294  0.90225366  1
  Na  Na1  1  0.62357294  0.90225366  0.37642706  1
  Na  Na1  1  0.37642706  0.90225366  0.62357294  1
  Na  Na1  1  0.87642706  0.59774634  0.87642706  1
  Na  Na1  1  0.62357294  0.37642706  0.90225366  1
  Bi  Bi1  1  0.85921030  0.14078970  0.85921030  1
  Bi  Bi1  1  0.85921030  0.85921030  0.14078970  1
  Bi  Bi1  1  0.64078970  0.64078970  0.64078970  1
  Bi  Bi1  1  0.14078970  0.85921030  0.85921030  1
  O  O1  1  0.62739670  0.85781002  0.62739670  1
  O  O1  1  0.85781002  0.62739670  0.62739670  1
  O  O1  1  0.62739670  0.62739670  0.85781002  1
  O  O1  1  0.62739670  0.37260330  0.14218998  1
  O  O1  1  0.37260330  0.14218998  0.62739670  1
  O  O1  1  0.62739670  0.14218998  0.37260330  1
  O  O1  1  0.87260330  0.35781002  0.87260330  1
  O  O1  1  0.37260330  0.62739670  0.14218998  1
  O  O1  1  0.14218998  0.62739670  0.37260330  1
  O  O1  1  0.87260330  0.87260330  0.35781002  1
  O  O1  1  0.35781002  0.87260330  0.87260330  1
  O  O1  1  0.14218998  0.37260330  0.62739670  1
