# generated using pymatgen
data_Na3BO3
_symmetry_space_group_name_H-M   'P 1'
_cell_length_a   5.63172669
_cell_length_b   7.33005283
_cell_length_c   9.51370486
_cell_angle_alpha   90.00000000
_cell_angle_beta   123.29355408
_cell_angle_gamma   90.00000000
_symmetry_Int_Tables_number   1
_chemical_formula_structural   Na3BO3
_chemical_formula_sum   'Na12 B4 O12'
_cell_volume   328.27410951
_cell_formula_units_Z   4
loop_
 _symmetry_equiv_pos_site_id
 _symmetry_equiv_pos_as_xyz
  1  'x, y, z'
loop_
 _atom_site_type_symbol
 _atom_site_label
 _atom_site_symmetry_multiplicity
 _atom_site_fract_x
 _atom_site_fract_y
 _atom_site_fract_z
 _atom_site_occupancy
  Na  Na1  1  0.95226207  0.15056104  0.07042640  1
  Na  Na1  1  0.04773793  0.65056104  0.42957360  1
  Na  Na1  1  0.04773793  0.84943896  0.92957360  1
  Na  Na1  1  0.95226207  0.34943896  0.57042640  1
  Na  Na2  1  0.79211787  0.52739052  0.04458686  1
  Na  Na2  1  0.20788213  0.02739052  0.45541314  1
  Na  Na2  1  0.20788213  0.47260948  0.95541314  1
  Na  Na2  1  0.79211787  0.97260948  0.54458686  1
  Na  Na3  1  0.40063097  0.77995620  0.77531926  1
  Na  Na3  1  0.59936903  0.27995620  0.72468074  1
  Na  Na3  1  0.59936903  0.22004380  0.22468074  1
  Na  Na3  1  0.40063097  0.72004380  0.27531926  1
  B  B1  1  0.27887326  0.33916248  0.34651472  1
  B  B1  1  0.27887326  0.16083752  0.84651472  1
  B  B1  1  0.72112674  0.66083752  0.65348528  1
  B  B1  1  0.72112674  0.83916248  0.15348528  1
  O  O1  1  0.75003049  0.58370550  0.79597148  1
  O  O2  1  0.51694546  0.23287528  0.45468484  1
  O  O2  1  0.51694546  0.26712472  0.95468484  1
  O  O2  1  0.48305454  0.73287528  0.04531516  1
  O  O3  1  0.94413441  0.85164230  0.12941956  1
  O  O3  1  0.05586559  0.35164230  0.37058044  1
  O  O3  1  0.05586559  0.14835770  0.87058044  1
  O  O3  1  0.94413441  0.64835770  0.62941956  1
  O  O1  1  0.24996951  0.08370550  0.70402852  1
  O  O1  1  0.24996951  0.41629450  0.20402852  1
  O  O1  1  0.75003049  0.91629450  0.29597148  1
  O  O2  1  0.48305454  0.76712472  0.54531516  1
