# generated using pymatgen
data_Na3BiO4
_symmetry_space_group_name_H-M   'P 1'
_cell_length_a   5.81185452
_cell_length_b   6.65657766
_cell_length_c   5.65129203
_cell_angle_alpha   90.00000000
_cell_angle_beta   109.81926231
_cell_angle_gamma   90.00000000
_symmetry_Int_Tables_number   1
_chemical_formula_structural   Na3BiO4
_chemical_formula_sum   'Na6 Bi2 O8'
_cell_volume   205.68162133
_cell_formula_units_Z   2
loop_
 _symmetry_equiv_pos_site_id
 _symmetry_equiv_pos_as_xyz
  1  'x, y, z'
loop_
 _atom_site_type_symbol
 _atom_site_label
 _atom_site_symmetry_multiplicity
 _atom_site_fract_x
 _atom_site_fract_y
 _atom_site_fract_z
 _atom_site_occupancy
  Na  Na1  1  0.00000000  0.38148574  0.25000000  1
  Na  Na2  1  0.50000000  0.39799768  0.75000000  1
  Na  Na3  1  0.50000000  0.13032892  0.25000000  1
  Na  Na3  1  0.50000000  0.86967108  0.75000000  1
  Na  Na1  1  0.00000000  0.61851426  0.75000000  1
  Na  Na2  1  0.50000000  0.60200232  0.25000000  1
  Bi  Bi1  1  0.00000000  0.86218032  0.25000000  1
  Bi  Bi1  1  0.00000000  0.13781968  0.75000000  1
  O  O1  1  0.76155810  0.65017162  0.02840342  1
  O  O1  1  0.23844190  0.65017162  0.47159658  1
  O  O1  1  0.23844190  0.34982838  0.97159658  1
  O  O1  1  0.76155810  0.34982838  0.52840342  1
  O  O2  1  0.78721928  0.89746590  0.50123014  1
  O  O2  1  0.21278072  0.89746590  0.99876986  1
  O  O2  1  0.78721928  0.10253410  0.00123014  1
  O  O2  1  0.21278072  0.10253410  0.49876986  1
