# generated using pymatgen
data_Na3Ca2TaO6
_symmetry_space_group_name_H-M   'P 1'
_cell_length_a   6.52821723
_cell_length_b   9.39912439
_cell_length_c   19.48686330
_cell_angle_alpha   90.00000000
_cell_angle_beta   90.00000000
_cell_angle_gamma   90.00000000
_symmetry_Int_Tables_number   1
_chemical_formula_structural   Na3Ca2TaO6
_chemical_formula_sum   'Na24 Ca16 Ta8 O48'
_cell_volume   1195.70469122
_cell_formula_units_Z   8
loop_
 _symmetry_equiv_pos_site_id
 _symmetry_equiv_pos_as_xyz
  1  'x, y, z'
loop_
 _atom_site_type_symbol
 _atom_site_label
 _atom_site_symmetry_multiplicity
 _atom_site_fract_x
 _atom_site_fract_y
 _atom_site_fract_z
 _atom_site_occupancy
  Na  Na1  1  0.00000000  0.00000000  0.00000000  1
  Na  Na2  1  0.25000000  0.75000000  0.58621671  1
  Na  Na2  1  0.00000000  0.00000000  0.83621671  1
  Na  Na2  1  0.50000000  0.00000000  0.66378329  1
  Na  Na1  1  0.25000000  0.75000000  0.75000000  1
  Na  Na2  1  0.25000000  0.75000000  0.91378329  1
  Ca  Ca1  1  0.25000000  0.25000000  0.58069732  1
  Ca  Ca1  1  0.25000000  0.25000000  0.91930268  1
  Ca  Ca1  1  0.00000000  0.00000000  0.66930268  1
  Ca  Ca1  1  0.50000000  0.00000000  0.83069732  1
  Ta  Ta1  1  0.25000000  0.25000000  0.75000000  1
  Ta  Ta1  1  0.50000000  0.00000000  0.00000000  1
  O  O1  1  0.50000000  0.78591318  0.00000000  1
  O  O1  1  0.50000000  0.21408682  0.00000000  1
  O  O1  1  0.25000000  0.46408682  0.75000000  1
  O  O1  1  0.25000000  0.03591318  0.75000000  1
  O  O2  1  0.71752720  0.99635312  0.92599023  1
  O  O2  1  0.21752720  0.00364688  0.57400977  1
  O  O2  1  0.78247280  0.99635312  0.57400977  1
  O  O2  1  0.28247280  0.00364688  0.92599023  1
  O  O2  1  0.46752720  0.24635312  0.82400977  1
  O  O2  1  0.03247280  0.24635312  0.67599023  1
  O  O2  1  0.96752720  0.75364688  0.67599023  1
  O  O2  1  0.53247280  0.75364688  0.82400977  1
  Na  Na1  1  0.00000000  0.50000000  0.50000000  1
  Na  Na2  1  0.25000000  0.25000000  0.08621671  1
  Na  Na2  1  0.00000000  0.50000000  0.33621671  1
  Na  Na2  1  0.50000000  0.50000000  0.16378329  1
  Na  Na1  1  0.25000000  0.25000000  0.25000000  1
  Na  Na2  1  0.25000000  0.25000000  0.41378329  1
  Ca  Ca1  1  0.25000000  0.75000000  0.08069732  1
  Ca  Ca1  1  0.25000000  0.75000000  0.41930268  1
  Ca  Ca1  1  0.00000000  0.50000000  0.16930268  1
  Ca  Ca1  1  0.50000000  0.50000000  0.33069732  1
  Ta  Ta1  1  0.25000000  0.75000000  0.25000000  1
  Ta  Ta1  1  0.50000000  0.50000000  0.50000000  1
  O  O1  1  0.50000000  0.28591318  0.50000000  1
  O  O1  1  0.50000000  0.71408682  0.50000000  1
  O  O1  1  0.25000000  0.96408682  0.25000000  1
  O  O1  1  0.25000000  0.53591318  0.25000000  1
  O  O2  1  0.71752720  0.49635312  0.42599023  1
  O  O2  1  0.21752720  0.50364688  0.07400977  1
  O  O2  1  0.78247280  0.49635312  0.07400977  1
  O  O2  1  0.28247280  0.50364688  0.42599023  1
  O  O2  1  0.46752720  0.74635312  0.32400977  1
  O  O2  1  0.03247280  0.74635312  0.17599023  1
  O  O2  1  0.96752720  0.25364688  0.17599023  1
  O  O2  1  0.53247280  0.25364688  0.32400977  1
  Na  Na1  1  0.50000000  0.00000000  0.50000000  1
  Na  Na2  1  0.75000000  0.75000000  0.08621671  1
  Na  Na2  1  0.50000000  0.00000000  0.33621671  1
  Na  Na2  1  0.00000000  0.00000000  0.16378329  1
  Na  Na1  1  0.75000000  0.75000000  0.25000000  1
  Na  Na2  1  0.75000000  0.75000000  0.41378329  1
  Ca  Ca1  1  0.75000000  0.25000000  0.08069732  1
  Ca  Ca1  1  0.75000000  0.25000000  0.41930268  1
  Ca  Ca1  1  0.50000000  0.00000000  0.16930268  1
  Ca  Ca1  1  0.00000000  0.00000000  0.33069732  1
  Ta  Ta1  1  0.75000000  0.25000000  0.25000000  1
  Ta  Ta1  1  0.00000000  0.00000000  0.50000000  1
  O  O1  1  0.00000000  0.78591318  0.50000000  1
  O  O1  1  0.00000000  0.21408682  0.50000000  1
  O  O1  1  0.75000000  0.46408682  0.25000000  1
  O  O1  1  0.75000000  0.03591318  0.25000000  1
  O  O2  1  0.21752720  0.99635312  0.42599023  1
  O  O2  1  0.71752720  0.00364688  0.07400977  1
  O  O2  1  0.28247280  0.99635312  0.07400977  1
  O  O2  1  0.78247280  0.00364688  0.42599023  1
  O  O2  1  0.96752720  0.24635312  0.32400977  1
  O  O2  1  0.53247280  0.24635312  0.17599023  1
  O  O2  1  0.46752720  0.75364688  0.17599023  1
  O  O2  1  0.03247280  0.75364688  0.32400977  1
  Na  Na1  1  0.50000000  0.50000000  0.00000000  1
  Na  Na2  1  0.75000000  0.25000000  0.58621671  1
  Na  Na2  1  0.50000000  0.50000000  0.83621671  1
  Na  Na2  1  0.00000000  0.50000000  0.66378329  1
  Na  Na1  1  0.75000000  0.25000000  0.75000000  1
  Na  Na2  1  0.75000000  0.25000000  0.91378329  1
  Ca  Ca1  1  0.75000000  0.75000000  0.58069732  1
  Ca  Ca1  1  0.75000000  0.75000000  0.91930268  1
  Ca  Ca1  1  0.50000000  0.50000000  0.66930268  1
  Ca  Ca1  1  0.00000000  0.50000000  0.83069732  1
  Ta  Ta1  1  0.75000000  0.75000000  0.75000000  1
  Ta  Ta1  1  0.00000000  0.50000000  0.00000000  1
  O  O1  1  0.00000000  0.28591318  0.00000000  1
  O  O1  1  0.00000000  0.71408682  0.00000000  1
  O  O1  1  0.75000000  0.96408682  0.75000000  1
  O  O1  1  0.75000000  0.53591318  0.75000000  1
  O  O2  1  0.21752720  0.49635312  0.92599023  1
  O  O2  1  0.71752720  0.50364688  0.57400977  1
  O  O2  1  0.28247280  0.49635312  0.57400977  1
  O  O2  1  0.78247280  0.50364688  0.92599023  1
  O  O2  1  0.96752720  0.74635312  0.82400977  1
  O  O2  1  0.53247280  0.74635312  0.67599023  1
  O  O2  1  0.46752720  0.25364688  0.67599023  1
  O  O2  1  0.03247280  0.25364688  0.82400977  1
