# generated using pymatgen
data_Na3Ca2BiO6
_symmetry_space_group_name_H-M   'P 1'
_cell_length_a   6.66802945
_cell_length_b   9.55945136
_cell_length_c   19.86374114
_cell_angle_alpha   90.00000000
_cell_angle_beta   90.00000000
_cell_angle_gamma   90.00000000
_symmetry_Int_Tables_number   1
_chemical_formula_structural   Na3Ca2BiO6
_chemical_formula_sum   'Na24 Ca16 Bi8 O48'
_cell_volume   1266.16855487
_cell_formula_units_Z   8
loop_
 _symmetry_equiv_pos_site_id
 _symmetry_equiv_pos_as_xyz
  1  'x, y, z'
loop_
 _atom_site_type_symbol
 _atom_site_label
 _atom_site_symmetry_multiplicity
 _atom_site_fract_x
 _atom_site_fract_y
 _atom_site_fract_z
 _atom_site_occupancy
  Na  Na1  1  0.25000000  0.25000000  0.58659310  1
  Na  Na1  1  0.25000000  0.25000000  0.91340690  1
  Na  Na1  1  0.00000000  0.00000000  0.66340690  1
  Na  Na1  1  0.50000000  0.00000000  0.83659310  1
  Na  Na2  1  0.50000000  0.00000000  0.00000000  1
  Na  Na2  1  0.25000000  0.25000000  0.75000000  1
  Ca  Ca1  1  0.25000000  0.75000000  0.58060519  1
  Ca  Ca1  1  0.00000000  0.00000000  0.83060519  1
  Ca  Ca1  1  0.25000000  0.75000000  0.91939481  1
  Ca  Ca1  1  0.50000000  0.00000000  0.66939481  1
  Bi  Bi1  1  0.25000000  0.75000000  0.75000000  1
  Bi  Bi1  1  0.00000000  0.00000000  0.00000000  1
  O  O1  1  0.02300034  0.74606296  0.67227767  1
  O  O1  1  0.47699966  0.74606296  0.82772233  1
  O  O1  1  0.52300034  0.25393704  0.82772233  1
  O  O1  1  0.77300034  0.00393704  0.92227767  1
  O  O2  1  0.50000000  0.72502254  0.00000000  1
  O  O1  1  0.27300034  0.99606296  0.57772233  1
  O  O2  1  0.25000000  0.52497746  0.75000000  1
  O  O2  1  0.25000000  0.97502254  0.75000000  1
  O  O1  1  0.22699966  0.99606296  0.92227767  1
  O  O1  1  0.72699966  0.00393704  0.57772233  1
  O  O1  1  0.97699966  0.25393704  0.67227767  1
  O  O2  1  0.50000000  0.27497746  0.00000000  1
  Na  Na1  1  0.25000000  0.75000000  0.08659310  1
  Na  Na1  1  0.25000000  0.75000000  0.41340690  1
  Na  Na1  1  0.00000000  0.50000000  0.16340690  1
  Na  Na1  1  0.50000000  0.50000000  0.33659310  1
  Na  Na2  1  0.50000000  0.50000000  0.50000000  1
  Na  Na2  1  0.25000000  0.75000000  0.25000000  1
  Ca  Ca1  1  0.25000000  0.25000000  0.08060519  1
  Ca  Ca1  1  0.00000000  0.50000000  0.33060519  1
  Ca  Ca1  1  0.25000000  0.25000000  0.41939481  1
  Ca  Ca1  1  0.50000000  0.50000000  0.16939481  1
  Bi  Bi1  1  0.25000000  0.25000000  0.25000000  1
  Bi  Bi1  1  0.00000000  0.50000000  0.50000000  1
  O  O1  1  0.02300034  0.24606296  0.17227767  1
  O  O1  1  0.47699966  0.24606296  0.32772233  1
  O  O1  1  0.52300034  0.75393704  0.32772233  1
  O  O1  1  0.77300034  0.50393704  0.42227767  1
  O  O2  1  0.50000000  0.22502254  0.50000000  1
  O  O1  1  0.27300034  0.49606296  0.07772233  1
  O  O2  1  0.25000000  0.02497746  0.25000000  1
  O  O2  1  0.25000000  0.47502254  0.25000000  1
  O  O1  1  0.22699966  0.49606296  0.42227767  1
  O  O1  1  0.72699966  0.50393704  0.07772233  1
  O  O1  1  0.97699966  0.75393704  0.17227767  1
  O  O2  1  0.50000000  0.77497746  0.50000000  1
  Na  Na1  1  0.75000000  0.25000000  0.08659310  1
  Na  Na1  1  0.75000000  0.25000000  0.41340690  1
  Na  Na1  1  0.50000000  0.00000000  0.16340690  1
  Na  Na1  1  0.00000000  0.00000000  0.33659310  1
  Na  Na2  1  0.00000000  0.00000000  0.50000000  1
  Na  Na2  1  0.75000000  0.25000000  0.25000000  1
  Ca  Ca1  1  0.75000000  0.75000000  0.08060519  1
  Ca  Ca1  1  0.50000000  0.00000000  0.33060519  1
  Ca  Ca1  1  0.75000000  0.75000000  0.41939481  1
  Ca  Ca1  1  0.00000000  0.00000000  0.16939481  1
  Bi  Bi1  1  0.75000000  0.75000000  0.25000000  1
  Bi  Bi1  1  0.50000000  0.00000000  0.50000000  1
  O  O1  1  0.52300034  0.74606296  0.17227767  1
  O  O1  1  0.97699966  0.74606296  0.32772233  1
  O  O1  1  0.02300034  0.25393704  0.32772233  1
  O  O1  1  0.27300034  0.00393704  0.42227767  1
  O  O2  1  0.00000000  0.72502254  0.50000000  1
  O  O1  1  0.77300034  0.99606296  0.07772233  1
  O  O2  1  0.75000000  0.52497746  0.25000000  1
  O  O2  1  0.75000000  0.97502254  0.25000000  1
  O  O1  1  0.72699966  0.99606296  0.42227767  1
  O  O1  1  0.22699966  0.00393704  0.07772233  1
  O  O1  1  0.47699966  0.25393704  0.17227767  1
  O  O2  1  0.00000000  0.27497746  0.50000000  1
  Na  Na1  1  0.75000000  0.75000000  0.58659310  1
  Na  Na1  1  0.75000000  0.75000000  0.91340690  1
  Na  Na1  1  0.50000000  0.50000000  0.66340690  1
  Na  Na1  1  0.00000000  0.50000000  0.83659310  1
  Na  Na2  1  0.00000000  0.50000000  0.00000000  1
  Na  Na2  1  0.75000000  0.75000000  0.75000000  1
  Ca  Ca1  1  0.75000000  0.25000000  0.58060519  1
  Ca  Ca1  1  0.50000000  0.50000000  0.83060519  1
  Ca  Ca1  1  0.75000000  0.25000000  0.91939481  1
  Ca  Ca1  1  0.00000000  0.50000000  0.66939481  1
  Bi  Bi1  1  0.75000000  0.25000000  0.75000000  1
  Bi  Bi1  1  0.50000000  0.50000000  0.00000000  1
  O  O1  1  0.52300034  0.24606296  0.67227767  1
  O  O1  1  0.97699966  0.24606296  0.82772233  1
  O  O1  1  0.02300034  0.75393704  0.82772233  1
  O  O1  1  0.27300034  0.50393704  0.92227767  1
  O  O2  1  0.00000000  0.22502254  0.00000000  1
  O  O1  1  0.77300034  0.49606296  0.57772233  1
  O  O2  1  0.75000000  0.02497746  0.75000000  1
  O  O2  1  0.75000000  0.47502254  0.75000000  1
  O  O1  1  0.72699966  0.49606296  0.92227767  1
  O  O1  1  0.22699966  0.50393704  0.57772233  1
  O  O1  1  0.47699966  0.75393704  0.67227767  1
  O  O2  1  0.00000000  0.77497746  0.00000000  1
