# generated using pymatgen
data_Na3CuO2
_symmetry_space_group_name_H-M   'P 1'
_cell_length_a   9.31815649
_cell_length_b   9.31815649
_cell_length_c   4.50762189
_cell_angle_alpha   90.00000000
_cell_angle_beta   90.00000000
_cell_angle_gamma   90.00000000
_symmetry_Int_Tables_number   1
_chemical_formula_structural   Na3CuO2
_chemical_formula_sum   'Na12 Cu4 O8'
_cell_volume   391.38797606
_cell_formula_units_Z   4
loop_
 _symmetry_equiv_pos_site_id
 _symmetry_equiv_pos_as_xyz
  1  'x, y, z'
loop_
 _atom_site_type_symbol
 _atom_site_label
 _atom_site_symmetry_multiplicity
 _atom_site_fract_x
 _atom_site_fract_y
 _atom_site_fract_z
 _atom_site_occupancy
  Na  Na1  1  0.47829289  0.84705019  0.00000000  1
  Na  Na1  1  0.65294981  0.97829289  0.50000000  1
  Na  Na2  1  0.64608487  0.64608487  0.50000000  1
  Na  Na2  1  0.85391513  0.14608487  0.00000000  1
  Na  Na1  1  0.84705019  0.47829289  0.00000000  1
  Na  Na1  1  0.02170711  0.34705019  0.50000000  1
  Na  Na1  1  0.97829289  0.65294981  0.50000000  1
  Na  Na1  1  0.15294981  0.52170711  0.00000000  1
  Na  Na2  1  0.14608487  0.85391513  0.00000000  1
  Na  Na2  1  0.35391513  0.35391513  0.50000000  1
  Na  Na1  1  0.34705019  0.02170711  0.50000000  1
  Na  Na1  1  0.52170711  0.15294981  0.00000000  1
  Cu  Cu1  1  0.67108030  0.32891970  0.50000000  1
  Cu  Cu1  1  0.82891970  0.82891970  0.00000000  1
  Cu  Cu1  1  0.17108030  0.17108030  0.00000000  1
  Cu  Cu1  1  0.32891970  0.67108030  0.50000000  1
  O  O1  1  0.53310466  0.19723174  0.50000000  1
  O  O1  1  0.69723174  0.96689534  0.00000000  1
  O  O1  1  0.80276826  0.46689534  0.50000000  1
  O  O1  1  0.96689534  0.69723174  0.00000000  1
  O  O1  1  0.03310466  0.30276826  0.00000000  1
  O  O1  1  0.19723174  0.53310466  0.50000000  1
  O  O1  1  0.30276826  0.03310466  0.00000000  1
  O  O1  1  0.46689534  0.80276826  0.50000000  1
