# generated using pymatgen
data_Na3ReO5
_symmetry_space_group_name_H-M   'P 1'
_cell_length_a   5.46190274
_cell_length_b   5.46190274
_cell_length_c   13.55146211
_cell_angle_alpha   90.00000000
_cell_angle_beta   90.00000000
_cell_angle_gamma   120.00000000
_symmetry_Int_Tables_number   1
_chemical_formula_structural   Na3ReO5
_chemical_formula_sum   'Na9 Re3 O15'
_cell_volume   350.11015772
_cell_formula_units_Z   3
loop_
 _symmetry_equiv_pos_site_id
 _symmetry_equiv_pos_as_xyz
  1  'x, y, z'
loop_
 _atom_site_type_symbol
 _atom_site_label
 _atom_site_symmetry_multiplicity
 _atom_site_fract_x
 _atom_site_fract_y
 _atom_site_fract_z
 _atom_site_occupancy
  Na  Na1  1  0.69553068  0.62222142  0.24939507  1
  Na  Na1  1  0.92669074  0.30446932  0.91606173  1
  Na  Na1  1  0.37777858  0.07330926  0.58272840  1
  Na  Na1  1  0.62222142  0.69553068  0.75060493  1
  Na  Na1  1  0.07330926  0.37777858  0.41727160  1
  Na  Na1  1  0.30446932  0.92669074  0.08393827  1
  Na  Na2  1  0.27725565  0.00000000  0.83333333  1
  Na  Na2  1  0.72274435  0.72274435  0.50000000  1
  Na  Na2  1  0.00000000  0.27725565  0.16666667  1
  Re  Re1  1  0.37573960  0.00000000  0.33333333  1
  Re  Re1  1  0.62426040  0.62426040  0.00000000  1
  Re  Re1  1  0.00000000  0.37573960  0.66666667  1
  O  O1  1  0.65612967  0.15981927  0.72936022  1
  O  O1  1  0.50368960  0.34387033  0.39602688  1
  O  O1  1  0.84018073  0.49631040  0.06269355  1
  O  O2  1  0.70313399  0.00000000  0.33333333  1
  O  O2  1  0.29686601  0.29686601  0.00000000  1
  O  O2  1  0.00000000  0.70313399  0.66666667  1
  O  O1  1  0.15981927  0.65612967  0.27063978  1
  O  O1  1  0.49631040  0.84018073  0.93730645  1
  O  O1  1  0.34387033  0.50368960  0.60397312  1
  O  O3  1  0.16483287  0.32400633  0.77571672  1
  O  O3  1  0.15917346  0.83516713  0.44238338  1
  O  O3  1  0.67599367  0.84082654  0.10905005  1
  O  O3  1  0.32400633  0.16483287  0.22428328  1
  O  O3  1  0.83516713  0.15917346  0.55761662  1
  O  O3  1  0.84082654  0.67599367  0.89094995  1
