# generated using pymatgen
data_Na3SbO3
_symmetry_space_group_name_H-M   'P 1'
_cell_length_a   9.39394535
_cell_length_b   9.39394535
_cell_length_c   9.39394535
_cell_angle_alpha   90.00000000
_cell_angle_beta   90.00000000
_cell_angle_gamma   90.00000000
_symmetry_Int_Tables_number   1
_chemical_formula_structural   Na3SbO3
_chemical_formula_sum   'Na24 Sb8 O24'
_cell_volume   828.98006561
_cell_formula_units_Z   8
loop_
 _symmetry_equiv_pos_site_id
 _symmetry_equiv_pos_as_xyz
  1  'x, y, z'
loop_
 _atom_site_type_symbol
 _atom_site_label
 _atom_site_symmetry_multiplicity
 _atom_site_fract_x
 _atom_site_fract_y
 _atom_site_fract_z
 _atom_site_occupancy
  Na  Na1  1  0.60241068  0.12256360  0.12256360  1
  Na  Na1  1  0.12256360  0.12256360  0.60241068  1
  Na  Na1  1  0.12256360  0.60241068  0.12256360  1
  Na  Na1  1  0.39758932  0.87743640  0.12256360  1
  Na  Na1  1  0.39758932  0.12256360  0.87743640  1
  Na  Na1  1  0.10241068  0.37743640  0.37743640  1
  Na  Na1  1  0.37743640  0.37743640  0.10241068  1
  Na  Na1  1  0.87743640  0.12256360  0.39758932  1
  Na  Na1  1  0.12256360  0.39758932  0.87743640  1
  Na  Na1  1  0.87743640  0.39758932  0.12256360  1
  Na  Na1  1  0.37743640  0.10241068  0.37743640  1
  Na  Na1  1  0.12256360  0.87743640  0.39758932  1
  Sb  Sb1  1  0.35722052  0.64277948  0.35722052  1
  Sb  Sb1  1  0.35722052  0.35722052  0.64277948  1
  Sb  Sb1  1  0.14277948  0.14277948  0.14277948  1
  Sb  Sb1  1  0.64277948  0.35722052  0.35722052  1
  O  O1  1  0.12854978  0.35181620  0.12854978  1
  O  O1  1  0.35181620  0.12854978  0.12854978  1
  O  O1  1  0.12854978  0.12854978  0.35181620  1
  O  O1  1  0.12854978  0.87145022  0.64818380  1
  O  O1  1  0.87145022  0.64818380  0.12854978  1
  O  O1  1  0.12854978  0.64818380  0.87145022  1
  O  O1  1  0.37145022  0.85181620  0.37145022  1
  O  O1  1  0.87145022  0.12854978  0.64818380  1
  O  O1  1  0.64818380  0.12854978  0.87145022  1
  O  O1  1  0.37145022  0.37145022  0.85181620  1
  O  O1  1  0.85181620  0.37145022  0.37145022  1
  O  O1  1  0.64818380  0.87145022  0.12854978  1
  Na  Na1  1  0.10241068  0.62256360  0.62256360  1
  Na  Na1  1  0.62256360  0.62256360  0.10241068  1
  Na  Na1  1  0.62256360  0.10241068  0.62256360  1
  Na  Na1  1  0.89758932  0.37743640  0.62256360  1
  Na  Na1  1  0.89758932  0.62256360  0.37743640  1
  Na  Na1  1  0.60241068  0.87743640  0.87743640  1
  Na  Na1  1  0.87743640  0.87743640  0.60241068  1
  Na  Na1  1  0.37743640  0.62256360  0.89758932  1
  Na  Na1  1  0.62256360  0.89758932  0.37743640  1
  Na  Na1  1  0.37743640  0.89758932  0.62256360  1
  Na  Na1  1  0.87743640  0.60241068  0.87743640  1
  Na  Na1  1  0.62256360  0.37743640  0.89758932  1
  Sb  Sb1  1  0.85722052  0.14277948  0.85722052  1
  Sb  Sb1  1  0.85722052  0.85722052  0.14277948  1
  Sb  Sb1  1  0.64277948  0.64277948  0.64277948  1
  Sb  Sb1  1  0.14277948  0.85722052  0.85722052  1
  O  O1  1  0.62854978  0.85181620  0.62854978  1
  O  O1  1  0.85181620  0.62854978  0.62854978  1
  O  O1  1  0.62854978  0.62854978  0.85181620  1
  O  O1  1  0.62854978  0.37145022  0.14818380  1
  O  O1  1  0.37145022  0.14818380  0.62854978  1
  O  O1  1  0.62854978  0.14818380  0.37145022  1
  O  O1  1  0.87145022  0.35181620  0.87145022  1
  O  O1  1  0.37145022  0.62854978  0.14818380  1
  O  O1  1  0.14818380  0.62854978  0.37145022  1
  O  O1  1  0.87145022  0.87145022  0.35181620  1
  O  O1  1  0.35181620  0.87145022  0.87145022  1
  O  O1  1  0.14818380  0.37145022  0.62854978  1
