# generated using pymatgen
data_Na3TlO2
_symmetry_space_group_name_H-M   'P 1'
_cell_length_a   11.37955420
_cell_length_b   6.65418430
_cell_length_c   5.30128448
_cell_angle_alpha   90.00000000
_cell_angle_beta   90.00000000
_cell_angle_gamma   90.00000000
_symmetry_Int_Tables_number   1
_chemical_formula_structural   Na3TlO2
_chemical_formula_sum   'Na12 Tl4 O8'
_cell_volume   401.42201233
_cell_formula_units_Z   4
loop_
 _symmetry_equiv_pos_site_id
 _symmetry_equiv_pos_as_xyz
  1  'x, y, z'
loop_
 _atom_site_type_symbol
 _atom_site_label
 _atom_site_symmetry_multiplicity
 _atom_site_fract_x
 _atom_site_fract_y
 _atom_site_fract_z
 _atom_site_occupancy
  Na  Na1  1  0.16622085  0.50162666  0.24618914  1
  Na  Na1  1  0.33377915  0.00162666  0.74618914  1
  Na  Na1  1  0.66622085  0.50162666  0.25381086  1
  Na  Na1  1  0.83377915  0.49837334  0.75381086  1
  Na  Na2  1  0.42323312  0.75000000  0.24803524  1
  Na  Na2  1  0.07676688  0.25000000  0.74803524  1
  Na  Na2  1  0.57676688  0.25000000  0.75196476  1
  Na  Na2  1  0.92323312  0.75000000  0.25196476  1
  Na  Na1  1  0.83377915  0.00162666  0.75381086  1
  Na  Na1  1  0.66622085  0.99837334  0.25381086  1
  Na  Na1  1  0.16622085  0.99837334  0.24618914  1
  Na  Na1  1  0.33377915  0.49837334  0.74618914  1
  Tl  Tl1  1  0.90908421  0.25000000  0.24087470  1
  Tl  Tl1  1  0.59091579  0.75000000  0.74087470  1
  Tl  Tl1  1  0.09091579  0.75000000  0.75912530  1
  Tl  Tl1  1  0.40908421  0.25000000  0.25912530  1
  O  O1  1  0.74156294  0.25000000  0.99203772  1
  O  O1  1  0.75843706  0.75000000  0.49203772  1
  O  O1  1  0.25843706  0.75000000  0.00796228  1
  O  O1  1  0.24156294  0.25000000  0.50796228  1
  O  O2  1  0.00000000  0.00000000  0.00000000  1
  O  O2  1  0.50000000  0.00000000  0.50000000  1
  O  O2  1  0.00000000  0.50000000  0.00000000  1
  O  O2  1  0.50000000  0.50000000  0.50000000  1
