# generated using pymatgen
data_Na4As2O7
_symmetry_space_group_name_H-M   'P 1'
_cell_length_a   5.94908932
_cell_length_b   10.05534596
_cell_length_c   12.24990404
_cell_angle_alpha   90.00000000
_cell_angle_beta   92.74784861
_cell_angle_gamma   90.00000000
_symmetry_Int_Tables_number   1
_chemical_formula_structural   Na4As2O7
_chemical_formula_sum   'Na16 As8 O28'
_cell_volume   731.94853945
_cell_formula_units_Z   4
loop_
 _symmetry_equiv_pos_site_id
 _symmetry_equiv_pos_as_xyz
  1  'x, y, z'
loop_
 _atom_site_type_symbol
 _atom_site_label
 _atom_site_symmetry_multiplicity
 _atom_site_fract_x
 _atom_site_fract_y
 _atom_site_fract_z
 _atom_site_occupancy
  Na  Na1  1  0.65755074  0.67549079  0.87167971  1
  Na  Na1  1  0.34244926  0.67549079  0.62832029  1
  Na  Na1  1  0.34244926  0.32450921  0.12832029  1
  Na  Na1  1  0.65755074  0.32450921  0.37167971  1
  Na  Na2  1  0.69146274  0.98947113  0.40475079  1
  Na  Na2  1  0.30853726  0.98947113  0.09524921  1
  Na  Na2  1  0.30853726  0.01052887  0.59524921  1
  Na  Na2  1  0.69146274  0.01052887  0.90475079  1
  As  As1  1  0.35526128  0.34583619  0.63783922  1
  As  As1  1  0.64473872  0.34583619  0.86216078  1
  As  As1  1  0.64473872  0.65416381  0.36216078  1
  As  As1  1  0.35526128  0.65416381  0.13783922  1
  O  O1  1  0.23153964  0.79246091  0.18576359  1
  O  O1  1  0.76846036  0.79246091  0.31423641  1
  O  O1  1  0.76846036  0.20753909  0.81423641  1
  O  O1  1  0.23153964  0.20753909  0.68576359  1
  O  O2  1  0.67500848  0.03464356  0.09205052  1
  O  O2  1  0.32499152  0.03464356  0.40794948  1
  O  O2  1  0.32499152  0.96535644  0.90794948  1
  O  O2  1  0.67500848  0.96535644  0.59205052  1
  O  O3  1  0.56955592  0.68016556  0.05457114  1
  O  O3  1  0.43044408  0.68016556  0.44542886  1
  O  O3  1  0.43044408  0.31983444  0.94542886  1
  O  O3  1  0.56955592  0.31983444  0.55457114  1
  O  O4  1  0.50000000  0.43465273  0.75000000  1
  O  O4  1  0.50000000  0.56534727  0.25000000  1
  Na  Na1  1  0.15755074  0.17549079  0.87167971  1
  Na  Na1  1  0.84244926  0.17549079  0.62832029  1
  Na  Na1  1  0.84244926  0.82450921  0.12832029  1
  Na  Na1  1  0.15755074  0.82450921  0.37167971  1
  Na  Na2  1  0.19146274  0.48947113  0.40475079  1
  Na  Na2  1  0.80853726  0.48947113  0.09524921  1
  Na  Na2  1  0.80853726  0.51052887  0.59524921  1
  Na  Na2  1  0.19146274  0.51052887  0.90475079  1
  As  As1  1  0.85526128  0.84583619  0.63783922  1
  As  As1  1  0.14473872  0.84583619  0.86216078  1
  As  As1  1  0.14473872  0.15416381  0.36216078  1
  As  As1  1  0.85526128  0.15416381  0.13783922  1
  O  O1  1  0.73153964  0.29246091  0.18576359  1
  O  O1  1  0.26846036  0.29246091  0.31423641  1
  O  O1  1  0.26846036  0.70753909  0.81423641  1
  O  O1  1  0.73153964  0.70753909  0.68576359  1
  O  O2  1  0.17500848  0.53464356  0.09205052  1
  O  O2  1  0.82499152  0.53464356  0.40794948  1
  O  O2  1  0.82499152  0.46535644  0.90794948  1
  O  O2  1  0.17500848  0.46535644  0.59205052  1
  O  O3  1  0.06955592  0.18016556  0.05457114  1
  O  O3  1  0.93044408  0.18016556  0.44542886  1
  O  O3  1  0.93044408  0.81983444  0.94542886  1
  O  O3  1  0.06955592  0.81983444  0.55457114  1
  O  O4  1  0.00000000  0.93465273  0.75000000  1
  O  O4  1  0.00000000  0.06534727  0.25000000  1
