# generated using pymatgen
data_Na4B2O5
_symmetry_space_group_name_H-M   'P 1'
_cell_length_a   10.56447705
_cell_length_b   7.90201027
_cell_length_c   6.18890770
_cell_angle_alpha   90.00000000
_cell_angle_beta   110.41282368
_cell_angle_gamma   90.00000000
_symmetry_Int_Tables_number   1
_chemical_formula_structural   Na4B2O5
_chemical_formula_sum   'Na16 B8 O20'
_cell_volume   484.20995064
_cell_formula_units_Z   4
loop_
 _symmetry_equiv_pos_site_id
 _symmetry_equiv_pos_as_xyz
  1  'x, y, z'
loop_
 _atom_site_type_symbol
 _atom_site_label
 _atom_site_symmetry_multiplicity
 _atom_site_fract_x
 _atom_site_fract_y
 _atom_site_fract_z
 _atom_site_occupancy
  Na  Na1  1  0.14149424  0.82607620  0.27361302  1
  Na  Na1  1  0.85850576  0.82607620  0.22638698  1
  Na  Na1  1  0.85850576  0.17392380  0.72638698  1
  Na  Na1  1  0.14149424  0.17392380  0.77361302  1
  Na  Na2  1  0.13292882  0.53699294  0.92466028  1
  Na  Na2  1  0.86707118  0.53699294  0.57533972  1
  Na  Na2  1  0.86707118  0.46300706  0.07533972  1
  Na  Na2  1  0.13292882  0.46300706  0.42466028  1
  B  B1  1  0.90845706  0.16095810  0.33402800  1
  B  B1  1  0.09154294  0.16095810  0.16597200  1
  B  B1  1  0.09154294  0.83904190  0.66597200  1
  B  B1  1  0.90845706  0.83904190  0.83402800  1
  O  O1  1  0.00000000  0.93124790  0.75000000  1
  O  O1  1  0.00000000  0.06875210  0.25000000  1
  O  O2  1  0.95569978  0.69650906  0.96169012  1
  O  O2  1  0.04430022  0.69650906  0.53830988  1
  O  O3  1  0.28175932  0.59637340  0.28572174  1
  O  O3  1  0.71824068  0.59637340  0.21427826  1
  O  O3  1  0.71824068  0.40362660  0.71427826  1
  O  O3  1  0.28175932  0.40362660  0.78572174  1
  O  O2  1  0.95569978  0.30349094  0.46169012  1
  O  O2  1  0.04430022  0.30349094  0.03830988  1
  Na  Na1  1  0.64149424  0.32607620  0.27361302  1
  Na  Na1  1  0.35850576  0.32607620  0.22638698  1
  Na  Na1  1  0.35850576  0.67392380  0.72638698  1
  Na  Na1  1  0.64149424  0.67392380  0.77361302  1
  Na  Na2  1  0.63292882  0.03699294  0.92466028  1
  Na  Na2  1  0.36707118  0.03699294  0.57533972  1
  Na  Na2  1  0.36707118  0.96300706  0.07533972  1
  Na  Na2  1  0.63292882  0.96300706  0.42466028  1
  B  B1  1  0.40845706  0.66095810  0.33402800  1
  B  B1  1  0.59154294  0.66095810  0.16597200  1
  B  B1  1  0.59154294  0.33904190  0.66597200  1
  B  B1  1  0.40845706  0.33904190  0.83402800  1
  O  O1  1  0.50000000  0.43124790  0.75000000  1
  O  O1  1  0.50000000  0.56875210  0.25000000  1
  O  O2  1  0.45569978  0.19650906  0.96169012  1
  O  O2  1  0.54430022  0.19650906  0.53830988  1
  O  O3  1  0.78175932  0.09637340  0.28572174  1
  O  O3  1  0.21824068  0.09637340  0.21427826  1
  O  O3  1  0.21824068  0.90362660  0.71427826  1
  O  O3  1  0.78175932  0.90362660  0.78572174  1
  O  O2  1  0.45569978  0.80349094  0.46169012  1
  O  O2  1  0.54430022  0.80349094  0.03830988  1
