# generated using pymatgen
data_Na4GeO4
_symmetry_space_group_name_H-M   'P 1'
_cell_length_a   5.64940135
_cell_length_b   5.66194632
_cell_length_c   8.55224992
_cell_angle_alpha   81.54045518
_cell_angle_beta   71.26319963
_cell_angle_gamma   68.33802058
_symmetry_Int_Tables_number   1
_chemical_formula_structural   Na4GeO4
_chemical_formula_sum   'Na8 Ge2 O8'
_cell_volume   240.63803425
_cell_formula_units_Z   2
loop_
 _symmetry_equiv_pos_site_id
 _symmetry_equiv_pos_as_xyz
  1  'x, y, z'
loop_
 _atom_site_type_symbol
 _atom_site_label
 _atom_site_symmetry_multiplicity
 _atom_site_fract_x
 _atom_site_fract_y
 _atom_site_fract_z
 _atom_site_occupancy
  Na  Na1  1  0.97943232  0.23476470  0.06609052  1
  Na  Na2  1  0.44551476  0.74319611  0.10128998  1
  Na  Na3  1  0.89015131  0.77229931  0.31763776  1
  Na  Na4  1  0.25812900  0.74416413  0.51109690  1
  Na  Na4  1  0.74187100  0.25583587  0.48890310  1
  Na  Na2  1  0.55448524  0.25680389  0.89871002  1
  Na  Na1  1  0.02056768  0.76523530  0.93390948  1
  Na  Na3  1  0.10984869  0.22770069  0.68236224  1
  Ge  Ge1  1  0.34258188  0.22073931  0.25620354  1
  Ge  Ge1  1  0.65741812  0.77926069  0.74379646  1
  O  O1  1  0.33269893  0.97389401  0.86405164  1
  O  O2  1  0.79731775  0.52243450  0.87717392  1
  O  O2  1  0.20268225  0.47756550  0.12282608  1
  O  O3  1  0.86489610  0.97295831  0.69531372  1
  O  O3  1  0.13510390  0.02704169  0.30468628  1
  O  O4  1  0.64719456  0.65498411  0.56723586  1
  O  O1  1  0.66730107  0.02610599  0.13594836  1
  O  O4  1  0.35280544  0.34501589  0.43276414  1
