# generated using pymatgen
data_Na4SnO3
_symmetry_space_group_name_H-M   'P 1'
_cell_length_a   5.76783246
_cell_length_b   16.51753901
_cell_length_c   5.83661736
_cell_angle_alpha   90.00000000
_cell_angle_beta   109.97472586
_cell_angle_gamma   90.00000000
_symmetry_Int_Tables_number   1
_chemical_formula_structural   Na4SnO3
_chemical_formula_sum   'Na16 Sn4 O12'
_cell_volume   522.60636710
_cell_formula_units_Z   4
loop_
 _symmetry_equiv_pos_site_id
 _symmetry_equiv_pos_as_xyz
  1  'x, y, z'
loop_
 _atom_site_type_symbol
 _atom_site_label
 _atom_site_symmetry_multiplicity
 _atom_site_fract_x
 _atom_site_fract_y
 _atom_site_fract_z
 _atom_site_occupancy
  Na  Na1  1  0.50993013  0.03368383  0.25200538  1
  Na  Na2  1  0.49330870  0.45700631  0.21763507  1
  Na  Na3  1  0.54226503  0.14041600  0.69311977  1
  Na  Na3  1  0.04226503  0.35958400  0.19311977  1
  Na  Na4  1  0.49375101  0.24656739  0.24885146  1
  Na  Na4  1  0.99375101  0.25343261  0.74885146  1
  Na  Na2  1  0.99330870  0.04299369  0.71763507  1
  Na  Na1  1  0.00993013  0.46631617  0.75200538  1
  Sn  Sn1  1  0.48934907  0.35672600  0.74913997  1
  Sn  Sn1  1  0.98934907  0.14327400  0.24913997  1
  O  O1  1  0.28806009  0.33849291  0.97341645  1
  O  O1  1  0.78806009  0.16150709  0.47341645  1
  O  O2  1  0.25402610  0.43455067  0.51080393  1
  O  O2  1  0.75402610  0.06544933  0.01080393  1
  O  O3  1  0.73531036  0.43822668  0.96252898  1
  O  O3  1  0.23531036  0.06177332  0.46252898  1
  Na  Na1  1  0.00993013  0.53368383  0.25200538  1
  Na  Na2  1  0.99330870  0.95700631  0.21763507  1
  Na  Na3  1  0.04226503  0.64041600  0.69311977  1
  Na  Na3  1  0.54226503  0.85958400  0.19311977  1
  Na  Na4  1  0.99375101  0.74656739  0.24885146  1
  Na  Na4  1  0.49375101  0.75343261  0.74885146  1
  Na  Na2  1  0.49330870  0.54299369  0.71763507  1
  Na  Na1  1  0.50993013  0.96631617  0.75200538  1
  Sn  Sn1  1  0.98934907  0.85672600  0.74913997  1
  Sn  Sn1  1  0.48934907  0.64327400  0.24913997  1
  O  O1  1  0.78806009  0.83849291  0.97341645  1
  O  O1  1  0.28806009  0.66150709  0.47341645  1
  O  O2  1  0.75402610  0.93455067  0.51080393  1
  O  O2  1  0.25402610  0.56544933  0.01080393  1
  O  O3  1  0.23531036  0.93822668  0.96252898  1
  O  O3  1  0.73531036  0.56177332  0.46252898  1
