# generated using pymatgen
data_Na4SnO4
_symmetry_space_group_name_H-M   'P 1'
_cell_length_a   5.83659040
_cell_length_b   5.84576964
_cell_length_c   8.77816836
_cell_angle_alpha   82.40916364
_cell_angle_beta   71.12098164
_cell_angle_gamma   68.60361215
_symmetry_Int_Tables_number   1
_chemical_formula_structural   Na4SnO4
_chemical_formula_sum   'Na8 Sn2 O8'
_cell_volume   263.82791458
_cell_formula_units_Z   2
loop_
 _symmetry_equiv_pos_site_id
 _symmetry_equiv_pos_as_xyz
  1  'x, y, z'
loop_
 _atom_site_type_symbol
 _atom_site_label
 _atom_site_symmetry_multiplicity
 _atom_site_fract_x
 _atom_site_fract_y
 _atom_site_fract_z
 _atom_site_occupancy
  Na  Na1  1  0.25486218  0.24412746  0.00692292  1
  Na  Na1  1  0.74513782  0.75587254  0.99307708  1
  Na  Na2  1  0.01928555  0.26409455  0.43517442  1
  Na  Na2  1  0.98071445  0.73590545  0.56482558  1
  Na  Na3  1  0.43610106  0.25010188  0.59450464  1
  Na  Na3  1  0.56389894  0.74989812  0.40549536  1
  Na  Na4  1  0.11251195  0.72050166  0.19737030  1
  Na  Na4  1  0.88748805  0.27949834  0.80262970  1
  Sn  Sn1  1  0.34004906  0.72173006  0.76613044  1
  Sn  Sn1  1  0.65995094  0.27826994  0.23386956  1
  O  O1  1  0.12233647  0.51496314  0.80496186  1
  O  O1  1  0.87766353  0.48503686  0.19503814  1
  O  O2  1  0.79962947  0.01224493  0.38086436  1
  O  O2  1  0.20037053  0.98775507  0.61913564  1
  O  O3  1  0.31896617  0.48062022  0.37303592  1
  O  O3  1  0.68103383  0.51937978  0.62696408  1
  O  O4  1  0.34991836  0.84072578  0.96131642  1
  O  O4  1  0.65008164  0.15927422  0.03868358  1
