# generated using pymatgen
data_Na4Ti5O12
_symmetry_space_group_name_H-M   'P 1'
_cell_length_a   5.30990342
_cell_length_b   5.30990342
_cell_length_c   9.54140940
_cell_angle_alpha   90.00000000
_cell_angle_beta   90.00000000
_cell_angle_gamma   120.00000000
_symmetry_Int_Tables_number   1
_chemical_formula_structural   Na4Ti5O12
_chemical_formula_sum   'Na4 Ti5 O12'
_cell_volume   232.97880170
_cell_formula_units_Z   1
loop_
 _symmetry_equiv_pos_site_id
 _symmetry_equiv_pos_as_xyz
  1  'x, y, z'
loop_
 _atom_site_type_symbol
 _atom_site_label
 _atom_site_symmetry_multiplicity
 _atom_site_fract_x
 _atom_site_fract_y
 _atom_site_fract_z
 _atom_site_occupancy
  Na  Na1  1  0.66666667  0.33333333  0.09603403  1
  Na  Na1  1  0.33333333  0.66666667  0.90396597  1
  Na  Na2  1  0.00000000  0.00000000  0.69110823  1
  Na  Na2  1  0.00000000  0.00000000  0.30889177  1
  Ti  Ti1  1  0.33333333  0.66666667  0.52613387  1
  Ti  Ti2  1  0.00000000  0.00000000  0.00000000  1
  Ti  Ti3  1  0.33333333  0.66666667  0.21982890  1
  Ti  Ti1  1  0.66666667  0.33333333  0.47386613  1
  Ti  Ti3  1  0.66666667  0.33333333  0.78017110  1
  O  O1  1  0.98193294  0.57262120  0.62224731  1
  O  O1  1  0.42737880  0.40931175  0.62224731  1
  O  O1  1  0.59068825  0.01806706  0.62224731  1
  O  O2  1  0.90893410  0.24012896  0.87838716  1
  O  O2  1  0.33119485  0.09106590  0.87838716  1
  O  O1  1  0.40931175  0.98193294  0.37775269  1
  O  O2  1  0.24012896  0.33119485  0.12161284  1
  O  O2  1  0.66880515  0.90893410  0.12161284  1
  O  O1  1  0.01806706  0.42737880  0.37775269  1
  O  O2  1  0.75987104  0.66880515  0.87838716  1
  O  O1  1  0.57262120  0.59068825  0.37775269  1
  O  O2  1  0.09106590  0.75987104  0.12161284  1
