# generated using pymatgen
data_Na4TiO4
_symmetry_space_group_name_H-M   'P 1'
_cell_length_a   5.70026334
_cell_length_b   5.71203557
_cell_length_c   8.61928691
_cell_angle_alpha   81.84199235
_cell_angle_beta   71.38821525
_cell_angle_gamma   68.47103268
_symmetry_Int_Tables_number   1
_chemical_formula_structural   Na4TiO4
_chemical_formula_sum   'Na8 Ti2 O8'
_cell_volume   247.31416489
_cell_formula_units_Z   2
loop_
 _symmetry_equiv_pos_site_id
 _symmetry_equiv_pos_as_xyz
  1  'x, y, z'
loop_
 _atom_site_type_symbol
 _atom_site_label
 _atom_site_symmetry_multiplicity
 _atom_site_fract_x
 _atom_site_fract_y
 _atom_site_fract_z
 _atom_site_occupancy
  Na  Na1  1  0.74204271  0.25637131  0.48958726  1
  Na  Na1  1  0.25795729  0.74362869  0.51041274  1
  Na  Na2  1  0.44256499  0.74490870  0.09981452  1
  Na  Na2  1  0.55743501  0.25509130  0.90018548  1
  Na  Na3  1  0.97874352  0.23426429  0.06625942  1
  Na  Na3  1  0.02125648  0.76573571  0.93374058  1
  Na  Na4  1  0.88843413  0.77264416  0.31378432  1
  Na  Na4  1  0.11156587  0.22735584  0.68621568  1
  Ti  Ti1  1  0.65831202  0.78005381  0.74142866  1
  Ti  Ti1  1  0.34168798  0.21994619  0.25857134  1
  O  O1  1  0.86801604  0.97675146  0.69522560  1
  O  O1  1  0.13198396  0.02324854  0.30477440  1
  O  O2  1  0.66998557  0.02518036  0.13390976  1
  O  O2  1  0.33001443  0.97481964  0.86609024  1
  O  O3  1  0.20449651  0.47843326  0.12153114  1
  O  O3  1  0.79550349  0.52156674  0.87846886  1
  O  O4  1  0.35007579  0.34262455  0.44104030  1
  O  O4  1  0.64992421  0.65737545  0.55895970  1
