# generated using pymatgen
data_Na5NbO5
_symmetry_space_group_name_H-M   'P 1'
_cell_length_a   6.24350933
_cell_length_b   10.12723586
_cell_length_c   9.95547226
_cell_angle_alpha   90.00000000
_cell_angle_beta   106.59716868
_cell_angle_gamma   90.00000000
_symmetry_Int_Tables_number   1
_chemical_formula_structural   Na5NbO5
_chemical_formula_sum   'Na20 Nb4 O20'
_cell_volume   603.25325251
_cell_formula_units_Z   4
loop_
 _symmetry_equiv_pos_site_id
 _symmetry_equiv_pos_as_xyz
  1  'x, y, z'
loop_
 _atom_site_type_symbol
 _atom_site_label
 _atom_site_symmetry_multiplicity
 _atom_site_fract_x
 _atom_site_fract_y
 _atom_site_fract_z
 _atom_site_occupancy
  Na  Na1  1  0.83792078  0.84135017  0.42302311  1
  Na  Na1  1  0.16207922  0.84135017  0.07697689  1
  Na  Na2  1  0.67082994  0.11471091  0.55064481  1
  Na  Na2  1  0.32917006  0.11471091  0.94935519  1
  Na  Na2  1  0.32917006  0.88528909  0.44935519  1
  Na  Na2  1  0.67082994  0.88528909  0.05064481  1
  Na  Na3  1  0.50000000  0.16707012  0.25000000  1
  Na  Na3  1  0.50000000  0.83292988  0.75000000  1
  Na  Na1  1  0.83792078  0.15864983  0.92302311  1
  Na  Na1  1  0.16207922  0.15864983  0.57697689  1
  Nb  Nb1  1  0.50000000  0.59144585  0.25000000  1
  Nb  Nb1  1  0.50000000  0.40855415  0.75000000  1
  O  O1  1  0.50000000  0.59705221  0.75000000  1
  O  O1  1  0.50000000  0.40294779  0.25000000  1
  O  O2  1  0.36451944  0.32958697  0.88318346  1
  O  O2  1  0.63548056  0.32958697  0.61681654  1
  O  O3  1  0.29970148  0.10772448  0.39749587  1
  O  O3  1  0.70029852  0.10772448  0.10250413  1
  O  O3  1  0.70029852  0.89227552  0.60250413  1
  O  O3  1  0.29970148  0.89227552  0.89749587  1
  O  O2  1  0.63548056  0.67041303  0.11681654  1
  O  O2  1  0.36451944  0.67041303  0.38318346  1
  Na  Na1  1  0.33792078  0.34135017  0.42302311  1
  Na  Na1  1  0.66207922  0.34135017  0.07697689  1
  Na  Na2  1  0.17082994  0.61471091  0.55064481  1
  Na  Na2  1  0.82917006  0.61471091  0.94935519  1
  Na  Na2  1  0.82917006  0.38528909  0.44935519  1
  Na  Na2  1  0.17082994  0.38528909  0.05064481  1
  Na  Na3  1  0.00000000  0.66707012  0.25000000  1
  Na  Na3  1  0.00000000  0.33292988  0.75000000  1
  Na  Na1  1  0.33792078  0.65864983  0.92302311  1
  Na  Na1  1  0.66207922  0.65864983  0.57697689  1
  Nb  Nb1  1  0.00000000  0.09144585  0.25000000  1
  Nb  Nb1  1  0.00000000  0.90855415  0.75000000  1
  O  O1  1  0.00000000  0.09705221  0.75000000  1
  O  O1  1  0.00000000  0.90294779  0.25000000  1
  O  O2  1  0.86451944  0.82958697  0.88318346  1
  O  O2  1  0.13548056  0.82958697  0.61681654  1
  O  O3  1  0.79970148  0.60772448  0.39749587  1
  O  O3  1  0.20029852  0.60772448  0.10250413  1
  O  O3  1  0.20029852  0.39227552  0.60250413  1
  O  O3  1  0.79970148  0.39227552  0.89749587  1
  O  O2  1  0.13548056  0.17041303  0.11681654  1
  O  O2  1  0.86451944  0.17041303  0.38318346  1
