# generated using pymatgen
data_Na5TaO5
_symmetry_space_group_name_H-M   'P 1'
_cell_length_a   6.23035151
_cell_length_b   10.12232627
_cell_length_c   9.93874097
_cell_angle_alpha   90.00000000
_cell_angle_beta   106.68280868
_cell_angle_gamma   90.00000000
_symmetry_Int_Tables_number   1
_chemical_formula_structural   Na5TaO5
_chemical_formula_sum   'Na20 Ta4 O20'
_cell_volume   600.41061126
_cell_formula_units_Z   4
loop_
 _symmetry_equiv_pos_site_id
 _symmetry_equiv_pos_as_xyz
  1  'x, y, z'
loop_
 _atom_site_type_symbol
 _atom_site_label
 _atom_site_symmetry_multiplicity
 _atom_site_fract_x
 _atom_site_fract_y
 _atom_site_fract_z
 _atom_site_occupancy
  Na  Na1  1  0.16319624  0.15850693  0.57752837  1
  Na  Na1  1  0.83680376  0.15850693  0.92247163  1
  Na  Na2  1  0.32916890  0.11490004  0.94990317  1
  Na  Na2  1  0.67083110  0.11490004  0.55009683  1
  Na  Na2  1  0.67083110  0.88509996  0.05009683  1
  Na  Na2  1  0.32916890  0.88509996  0.44990317  1
  Na  Na3  1  0.50000000  0.16817245  0.25000000  1
  Na  Na3  1  0.50000000  0.83182755  0.75000000  1
  Na  Na1  1  0.16319624  0.84149307  0.07752837  1
  Na  Na1  1  0.83680376  0.84149307  0.42247163  1
  Ta  Ta1  1  0.50000000  0.59192937  0.25000000  1
  Ta  Ta1  1  0.50000000  0.40807063  0.75000000  1
  O  O1  1  0.50000000  0.40419515  0.25000000  1
  O  O1  1  0.50000000  0.59580485  0.75000000  1
  O  O2  1  0.63454290  0.67094692  0.11712031  1
  O  O2  1  0.36545710  0.67094692  0.38287969  1
  O  O3  1  0.29807470  0.10720224  0.39640785  1
  O  O3  1  0.70192530  0.10720224  0.10359215  1
  O  O3  1  0.70192530  0.89279776  0.60359215  1
  O  O3  1  0.29807470  0.89279776  0.89640785  1
  O  O2  1  0.36545710  0.32905308  0.88287969  1
  O  O2  1  0.63454290  0.32905308  0.61712031  1
  Na  Na1  1  0.66319624  0.65850693  0.57752837  1
  Na  Na1  1  0.33680376  0.65850693  0.92247163  1
  Na  Na2  1  0.82916890  0.61490004  0.94990317  1
  Na  Na2  1  0.17083110  0.61490004  0.55009683  1
  Na  Na2  1  0.17083110  0.38509996  0.05009683  1
  Na  Na2  1  0.82916890  0.38509996  0.44990317  1
  Na  Na3  1  0.00000000  0.66817245  0.25000000  1
  Na  Na3  1  0.00000000  0.33182755  0.75000000  1
  Na  Na1  1  0.66319624  0.34149307  0.07752837  1
  Na  Na1  1  0.33680376  0.34149307  0.42247163  1
  Ta  Ta1  1  0.00000000  0.09192937  0.25000000  1
  Ta  Ta1  1  0.00000000  0.90807063  0.75000000  1
  O  O1  1  0.00000000  0.90419515  0.25000000  1
  O  O1  1  0.00000000  0.09580485  0.75000000  1
  O  O2  1  0.13454290  0.17094692  0.11712031  1
  O  O2  1  0.86545710  0.17094692  0.38287969  1
  O  O3  1  0.79807470  0.60720224  0.39640785  1
  O  O3  1  0.20192530  0.60720224  0.10359215  1
  O  O3  1  0.20192530  0.39279776  0.60359215  1
  O  O3  1  0.79807470  0.39279776  0.89640785  1
  O  O2  1  0.86545710  0.82905308  0.88287969  1
  O  O2  1  0.13454290  0.82905308  0.61712031  1
