# generated using pymatgen
data_Na6PbO5
_symmetry_space_group_name_H-M   'P 1'
_cell_length_a   10.61525065
_cell_length_b   5.65456914
_cell_length_c   10.87129911
_cell_angle_alpha   90.00000000
_cell_angle_beta   90.00000000
_cell_angle_gamma   90.00000000
_symmetry_Int_Tables_number   1
_chemical_formula_structural   Na6PbO5
_chemical_formula_sum   'Na24 Pb4 O20'
_cell_volume   652.54612842
_cell_formula_units_Z   4
loop_
 _symmetry_equiv_pos_site_id
 _symmetry_equiv_pos_as_xyz
  1  'x, y, z'
loop_
 _atom_site_type_symbol
 _atom_site_label
 _atom_site_symmetry_multiplicity
 _atom_site_fract_x
 _atom_site_fract_y
 _atom_site_fract_z
 _atom_site_occupancy
  Na  Na1  1  0.00000000  0.67552326  0.44034029  1
  Na  Na1  1  0.00000000  0.67552326  0.05965971  1
  Na  Na1  1  0.00000000  0.32447674  0.94034029  1
  Na  Na2  1  0.79808793  0.37011722  0.75000000  1
  Na  Na3  1  0.78100305  0.00000000  0.50000000  1
  Na  Na2  1  0.70191207  0.87011722  0.75000000  1
  Na  Na3  1  0.71899695  0.50000000  0.00000000  1
  Na  Na1  1  0.00000000  0.32447674  0.55965971  1
  Na  Na2  1  0.79808793  0.62988278  0.25000000  1
  Na  Na3  1  0.71899695  0.50000000  0.50000000  1
  Na  Na3  1  0.78100305  0.00000000  0.00000000  1
  Na  Na2  1  0.70191207  0.12988278  0.25000000  1
  Pb  Pb1  1  0.00000000  0.79492494  0.75000000  1
  Pb  Pb1  1  0.00000000  0.20507506  0.25000000  1
  O  O1  1  0.00000000  0.82584150  0.25000000  1
  O  O2  1  0.64060548  0.19459304  0.61268613  1
  O  O2  1  0.85939452  0.69459304  0.88731387  1
  O  O2  1  0.64060548  0.19459304  0.88731387  1
  O  O2  1  0.85939452  0.30540696  0.11268613  1
  O  O2  1  0.85939452  0.30540696  0.38731387  1
  O  O2  1  0.85939452  0.69459304  0.61268613  1
  O  O2  1  0.64060548  0.80540696  0.38731387  1
  O  O1  1  0.00000000  0.17415850  0.75000000  1
  O  O2  1  0.64060548  0.80540696  0.11268613  1
  Na  Na1  1  0.50000000  0.17552326  0.44034029  1
  Na  Na1  1  0.50000000  0.17552326  0.05965971  1
  Na  Na1  1  0.50000000  0.82447674  0.94034029  1
  Na  Na2  1  0.29808793  0.87011722  0.75000000  1
  Na  Na3  1  0.28100305  0.50000000  0.50000000  1
  Na  Na2  1  0.20191207  0.37011722  0.75000000  1
  Na  Na3  1  0.21899695  0.00000000  0.00000000  1
  Na  Na1  1  0.50000000  0.82447674  0.55965971  1
  Na  Na2  1  0.29808793  0.12988278  0.25000000  1
  Na  Na3  1  0.21899695  0.00000000  0.50000000  1
  Na  Na3  1  0.28100305  0.50000000  0.00000000  1
  Na  Na2  1  0.20191207  0.62988278  0.25000000  1
  Pb  Pb1  1  0.50000000  0.29492494  0.75000000  1
  Pb  Pb1  1  0.50000000  0.70507506  0.25000000  1
  O  O1  1  0.50000000  0.32584150  0.25000000  1
  O  O2  1  0.14060548  0.69459304  0.61268613  1
  O  O2  1  0.35939452  0.19459304  0.88731387  1
  O  O2  1  0.14060548  0.69459304  0.88731387  1
  O  O2  1  0.35939452  0.80540696  0.11268613  1
  O  O2  1  0.35939452  0.80540696  0.38731387  1
  O  O2  1  0.35939452  0.19459304  0.61268613  1
  O  O2  1  0.14060548  0.30540696  0.38731387  1
  O  O1  1  0.50000000  0.67415850  0.75000000  1
  O  O2  1  0.14060548  0.30540696  0.11268613  1
