# generated using pymatgen
data_NaAgO
_symmetry_space_group_name_H-M   'P 1'
_cell_length_a   9.32030727
_cell_length_b   9.32030727
_cell_length_c   4.57315438
_cell_angle_alpha   90.00000000
_cell_angle_beta   90.00000000
_cell_angle_gamma   90.00000000
_symmetry_Int_Tables_number   1
_chemical_formula_structural   NaAgO
_chemical_formula_sum   'Na8 Ag8 O8'
_cell_volume   397.26135803
_cell_formula_units_Z   8
loop_
 _symmetry_equiv_pos_site_id
 _symmetry_equiv_pos_as_xyz
  1  'x, y, z'
loop_
 _atom_site_type_symbol
 _atom_site_label
 _atom_site_symmetry_multiplicity
 _atom_site_fract_x
 _atom_site_fract_y
 _atom_site_fract_z
 _atom_site_occupancy
  Na  Na1  1  0.83888874  0.50000000  0.00000000  1
  Na  Na1  1  0.00000000  0.33888874  0.50000000  1
  Na  Na1  1  0.00000000  0.66111126  0.50000000  1
  Na  Na1  1  0.16111126  0.50000000  0.00000000  1
  Ag  Ag1  1  0.84167188  0.15832812  0.00000000  1
  Ag  Ag1  1  0.34167188  0.34167188  0.50000000  1
  Ag  Ag1  1  0.15832812  0.15832812  0.00000000  1
  Ag  Ag1  1  0.65832812  0.34167188  0.50000000  1
  O  O1  1  0.81022268  0.50000000  0.50000000  1
  O  O1  1  0.00000000  0.31022268  0.00000000  1
  O  O1  1  0.00000000  0.68977732  0.00000000  1
  O  O1  1  0.18977732  0.50000000  0.50000000  1
  Na  Na1  1  0.33888874  0.00000000  0.50000000  1
  Na  Na1  1  0.50000000  0.83888874  0.00000000  1
  Na  Na1  1  0.50000000  0.16111126  0.00000000  1
  Na  Na1  1  0.66111126  0.00000000  0.50000000  1
  Ag  Ag1  1  0.34167188  0.65832812  0.50000000  1
  Ag  Ag1  1  0.84167188  0.84167188  0.00000000  1
  Ag  Ag1  1  0.65832812  0.65832812  0.50000000  1
  Ag  Ag1  1  0.15832812  0.84167188  0.00000000  1
  O  O1  1  0.31022268  0.00000000  0.00000000  1
  O  O1  1  0.50000000  0.81022268  0.50000000  1
  O  O1  1  0.50000000  0.18977732  0.50000000  1
  O  O1  1  0.68977732  0.00000000  0.00000000  1
