# generated using pymatgen
data_NaAgO2
_symmetry_space_group_name_H-M   'P 1'
_cell_length_a   6.38305068
_cell_length_b   2.97164273
_cell_length_c   6.15418059
_cell_angle_alpha   90.00000000
_cell_angle_beta   119.53044221
_cell_angle_gamma   90.00000000
_symmetry_Int_Tables_number   1
_chemical_formula_structural   NaAgO2
_chemical_formula_sum   'Na2 Ag2 O4'
_cell_volume   101.56902105
_cell_formula_units_Z   2
loop_
 _symmetry_equiv_pos_site_id
 _symmetry_equiv_pos_as_xyz
  1  'x, y, z'
loop_
 _atom_site_type_symbol
 _atom_site_label
 _atom_site_symmetry_multiplicity
 _atom_site_fract_x
 _atom_site_fract_y
 _atom_site_fract_z
 _atom_site_occupancy
  Na  Na1  1  0.50000000  0.50000000  0.50000000  1
  Ag  Ag1  1  0.00000000  0.00000000  0.00000000  1
  O  O1  1  0.42300384  0.00000000  0.75394098  1
  O  O1  1  0.57699616  0.00000000  0.24605902  1
  Na  Na1  1  0.00000000  0.00000000  0.50000000  1
  Ag  Ag1  1  0.50000000  0.50000000  0.00000000  1
  O  O1  1  0.92300384  0.50000000  0.75394098  1
  O  O1  1  0.07699616  0.50000000  0.24605902  1
