# generated using pymatgen
data_NaAlO2
_symmetry_space_group_name_H-M   'P 1'
_cell_length_a   5.40279905
_cell_length_b   6.96039640
_cell_length_c   5.19896326
_cell_angle_alpha   90.00000000
_cell_angle_beta   90.00000000
_cell_angle_gamma   90.00000000
_symmetry_Int_Tables_number   1
_chemical_formula_structural   NaAlO2
_chemical_formula_sum   'Na4 Al4 O8'
_cell_volume   195.51025251
_cell_formula_units_Z   4
loop_
 _symmetry_equiv_pos_site_id
 _symmetry_equiv_pos_as_xyz
  1  'x, y, z'
loop_
 _atom_site_type_symbol
 _atom_site_label
 _atom_site_symmetry_multiplicity
 _atom_site_fract_x
 _atom_site_fract_y
 _atom_site_fract_z
 _atom_site_occupancy
  Na  Na1  1  0.42953740  0.12255020  0.48452262  1
  Na  Na1  1  0.07046260  0.62255020  0.98452262  1
  Na  Na1  1  0.57046260  0.87744980  0.98452262  1
  Na  Na1  1  0.92953740  0.37744980  0.48452262  1
  Al  Al1  1  0.56330359  0.37404784  0.00002783  1
  Al  Al1  1  0.43669641  0.62595216  0.50002783  1
  Al  Al1  1  0.93669641  0.87404784  0.50002783  1
  Al  Al1  1  0.06330359  0.12595216  0.00002783  1
  O  O1  1  0.87917573  0.32978920  0.92577791  1
  O  O1  1  0.12082427  0.67021080  0.42577791  1
  O  O1  1  0.62082427  0.82978920  0.42577791  1
  O  O1  1  0.37917573  0.17021080  0.92577791  1
  O  O2  1  0.53554616  0.41874250  0.33401597  1
  O  O2  1  0.03554616  0.08125750  0.33401597  1
  O  O2  1  0.96445384  0.91874250  0.83401597  1
  O  O2  1  0.46445384  0.58125750  0.83401597  1
