# generated using pymatgen
data_NaAuO2
_symmetry_space_group_name_H-M   'P 1'
_cell_length_a   6.54194442
_cell_length_b   3.01214784
_cell_length_c   6.07751830
_cell_angle_alpha   90.00000000
_cell_angle_beta   118.77553869
_cell_angle_gamma   90.00000000
_symmetry_Int_Tables_number   1
_chemical_formula_structural   NaAuO2
_chemical_formula_sum   'Na2 Au2 O4'
_cell_volume   104.97053544
_cell_formula_units_Z   2
loop_
 _symmetry_equiv_pos_site_id
 _symmetry_equiv_pos_as_xyz
  1  'x, y, z'
loop_
 _atom_site_type_symbol
 _atom_site_label
 _atom_site_symmetry_multiplicity
 _atom_site_fract_x
 _atom_site_fract_y
 _atom_site_fract_z
 _atom_site_occupancy
  Na  Na1  1  0.50000000  0.00000000  0.50000000  1
  Au  Au1  1  0.00000000  0.50000000  0.00000000  1
  O  O1  1  0.40992836  0.50000000  0.75094438  1
  O  O1  1  0.59007164  0.50000000  0.24905562  1
  Na  Na1  1  0.00000000  0.50000000  0.50000000  1
  Au  Au1  1  0.50000000  0.00000000  0.00000000  1
  O  O1  1  0.90992836  0.00000000  0.75094438  1
  O  O1  1  0.09007164  0.00000000  0.24905562  1
