# generated using pymatgen
data_NaBe4SbO7
_symmetry_space_group_name_H-M   'P 1'
_cell_length_a   5.44748781
_cell_length_b   5.44748781
_cell_length_c   8.87972895
_cell_angle_alpha   90.00000000
_cell_angle_beta   90.00000000
_cell_angle_gamma   120.00000000
_symmetry_Int_Tables_number   1
_chemical_formula_structural   NaBe4SbO7
_chemical_formula_sum   'Na2 Be8 Sb2 O14'
_cell_volume   228.20380200
_cell_formula_units_Z   2
loop_
 _symmetry_equiv_pos_site_id
 _symmetry_equiv_pos_as_xyz
  1  'x, y, z'
loop_
 _atom_site_type_symbol
 _atom_site_label
 _atom_site_symmetry_multiplicity
 _atom_site_fract_x
 _atom_site_fract_y
 _atom_site_fract_z
 _atom_site_occupancy
  Na  Na1  1  0.33333333  0.66666667  0.37392882  1
  Na  Na1  1  0.66666667  0.33333333  0.87392882  1
  Be  Be1  1  0.66880022  0.83440011  0.68664190  1
  Be  Be1  1  0.83440011  0.16559989  0.18664190  1
  Be  Be1  1  0.83440011  0.66880022  0.18664190  1
  Be  Be1  1  0.33119978  0.16559989  0.18664190  1
  Be  Be2  1  0.00000000  0.00000000  0.43932322  1
  Be  Be2  1  0.00000000  0.00000000  0.93932322  1
  Be  Be1  1  0.16559989  0.83440011  0.68664190  1
  Be  Be1  1  0.16559989  0.33119978  0.68664190  1
  Sb  Sb1  1  0.33333333  0.66666667  0.99956418  1
  Sb  Sb1  1  0.66666667  0.33333333  0.49956418  1
  O  O1  1  0.16086179  0.32172358  0.87116274  1
  O  O2  1  0.00000000  0.00000000  0.12481622  1
  O  O2  1  0.00000000  0.00000000  0.62481622  1
  O  O1  1  0.83913821  0.67827642  0.37116274  1
  O  O1  1  0.83913821  0.16086179  0.37116274  1
  O  O1  1  0.67827642  0.83913821  0.87116274  1
  O  O3  1  0.99014519  0.49507260  0.12898322  1
  O  O3  1  0.49507260  0.50492740  0.62898322  1
  O  O3  1  0.49507260  0.99014519  0.62898322  1
  O  O3  1  0.50492740  0.00985481  0.12898322  1
  O  O3  1  0.50492740  0.49507260  0.12898322  1
  O  O3  1  0.00985481  0.50492740  0.62898322  1
  O  O1  1  0.32172358  0.16086179  0.37116274  1
  O  O1  1  0.16086179  0.83913821  0.87116274  1
