# generated using pymatgen
data_NaBiO2
_symmetry_space_group_name_H-M   'P 1'
_cell_length_a   7.18533038
_cell_length_b   7.04037814
_cell_length_c   5.89195466
_cell_angle_alpha   90.00000000
_cell_angle_beta   126.75404430
_cell_angle_gamma   90.00000000
_symmetry_Int_Tables_number   1
_chemical_formula_structural   NaBiO2
_chemical_formula_sum   'Na4 Bi4 O8'
_cell_volume   238.80825749
_cell_formula_units_Z   4
loop_
 _symmetry_equiv_pos_site_id
 _symmetry_equiv_pos_as_xyz
  1  'x, y, z'
loop_
 _atom_site_type_symbol
 _atom_site_label
 _atom_site_symmetry_multiplicity
 _atom_site_fract_x
 _atom_site_fract_y
 _atom_site_fract_z
 _atom_site_occupancy
  Na  Na1  1  0.50000000  0.87242672  0.75000000  1
  Na  Na1  1  0.00000000  0.62757328  0.25000000  1
  Bi  Bi1  1  0.00000000  0.12200232  0.25000000  1
  Bi  Bi1  1  0.50000000  0.37799768  0.75000000  1
  O  O1  1  0.71768404  0.41536602  0.24611302  1
  O  O1  1  0.28231596  0.41536602  0.25388698  1
  O  O1  1  0.21768404  0.08463398  0.74611302  1
  O  O1  1  0.78231596  0.08463398  0.75388698  1
  Na  Na1  1  0.00000000  0.37242672  0.75000000  1
  Na  Na1  1  0.50000000  0.12757328  0.25000000  1
  Bi  Bi1  1  0.50000000  0.62200232  0.25000000  1
  Bi  Bi1  1  0.00000000  0.87799768  0.75000000  1
  O  O1  1  0.21768404  0.91536602  0.24611302  1
  O  O1  1  0.78231596  0.91536602  0.25388698  1
  O  O1  1  0.71768404  0.58463398  0.74611302  1
  O  O1  1  0.28231596  0.58463398  0.75388698  1
