# generated using pymatgen
data_NaBiO3
_symmetry_space_group_name_H-M   'P 1'
_cell_length_a   5.60694297
_cell_length_b   5.60694297
_cell_length_c   15.81934409
_cell_angle_alpha   90.00000000
_cell_angle_beta   90.00000000
_cell_angle_gamma   120.00000000
_symmetry_Int_Tables_number   1
_chemical_formula_structural   NaBiO3
_chemical_formula_sum   'Na6 Bi6 O18'
_cell_volume   430.69653845
_cell_formula_units_Z   6
loop_
 _symmetry_equiv_pos_site_id
 _symmetry_equiv_pos_as_xyz
  1  'x, y, z'
loop_
 _atom_site_type_symbol
 _atom_site_label
 _atom_site_symmetry_multiplicity
 _atom_site_fract_x
 _atom_site_fract_y
 _atom_site_fract_z
 _atom_site_occupancy
  Na  Na1  1  0.66666667  0.33333333  0.19520420  1
  Na  Na1  1  0.00000000  0.00000000  0.13812914  1
  Bi  Bi1  1  0.33333333  0.66666667  0.32301286  1
  Bi  Bi1  1  0.33333333  0.66666667  0.01032047  1
  O  O1  1  0.28027465  0.96569340  0.25716071  1
  O  O1  1  0.68541875  0.71972535  0.25716071  1
  O  O1  1  0.03430660  0.31458125  0.25716071  1
  O  O1  1  0.38639201  0.36763993  0.07617263  1
  O  O1  1  0.63236007  0.01875208  0.07617263  1
  O  O1  1  0.98124792  0.61360799  0.07617263  1
  Na  Na1  1  0.33333333  0.66666667  0.52853753  1
  Na  Na1  1  0.66666667  0.33333333  0.47146247  1
  Bi  Bi1  1  0.00000000  0.00000000  0.65634620  1
  Bi  Bi1  1  0.00000000  0.00000000  0.34365380  1
  O  O1  1  0.94694132  0.29902673  0.59049404  1
  O  O1  1  0.35208541  0.05305868  0.59049404  1
  O  O1  1  0.70097327  0.64791459  0.59049404  1
  O  O1  1  0.05305868  0.70097327  0.40950596  1
  O  O1  1  0.29902673  0.35208541  0.40950596  1
  O  O1  1  0.64791459  0.94694132  0.40950596  1
  Na  Na1  1  0.00000000  0.00000000  0.86187086  1
  Na  Na1  1  0.33333333  0.66666667  0.80479580  1
  Bi  Bi1  1  0.66666667  0.33333333  0.98967953  1
  Bi  Bi1  1  0.66666667  0.33333333  0.67698714  1
  O  O1  1  0.61360799  0.63236007  0.92382737  1
  O  O1  1  0.01875208  0.38639201  0.92382737  1
  O  O1  1  0.36763993  0.98124792  0.92382737  1
  O  O1  1  0.71972535  0.03430660  0.74283929  1
  O  O1  1  0.96569340  0.68541875  0.74283929  1
  O  O1  1  0.31458125  0.28027465  0.74283929  1
