# generated using pymatgen
data_NaBi(MoO4)2
_symmetry_space_group_name_H-M   'P 1'
_cell_length_a   5.24687670
_cell_length_b   5.24687670
_cell_length_c   11.37943814
_cell_angle_alpha   90.00000000
_cell_angle_beta   90.00000000
_cell_angle_gamma   90.00000000
_symmetry_Int_Tables_number   1
_chemical_formula_structural   NaBi(MoO4)2
_chemical_formula_sum   'Na2 Bi2 Mo4 O16'
_cell_volume   313.27269005
_cell_formula_units_Z   2
loop_
 _symmetry_equiv_pos_site_id
 _symmetry_equiv_pos_as_xyz
  1  'x, y, z'
loop_
 _atom_site_type_symbol
 _atom_site_label
 _atom_site_symmetry_multiplicity
 _atom_site_fract_x
 _atom_site_fract_y
 _atom_site_fract_z
 _atom_site_occupancy
  Na  Na1  1  0.00000000  0.50000000  0.25000000  1
  Bi  Bi1  1  0.50000000  0.50000000  0.00000000  1
  Mo  Mo1  1  0.00000000  0.00000000  0.00000000  1
  Mo  Mo2  1  0.50000000  0.00000000  0.25000000  1
  O  O1  1  0.34808962  0.75936752  0.16182134  1
  O  O1  1  0.65191038  0.24063248  0.16182134  1
  O  O1  1  0.74063248  0.84808962  0.33817866  1
  O  O1  1  0.25936752  0.15191038  0.33817866  1
  O  O2  1  0.25654130  0.65778232  0.41552199  1
  O  O2  1  0.74345870  0.34221768  0.41552199  1
  O  O2  1  0.84221768  0.75654130  0.08447801  1
  O  O2  1  0.15778232  0.24345870  0.08447801  1
  Na  Na1  1  0.50000000  0.00000000  0.75000000  1
  Bi  Bi1  1  0.00000000  0.00000000  0.50000000  1
  Mo  Mo1  1  0.50000000  0.50000000  0.50000000  1
  Mo  Mo2  1  0.00000000  0.50000000  0.75000000  1
  O  O1  1  0.84808962  0.25936752  0.66182134  1
  O  O1  1  0.15191038  0.74063248  0.66182134  1
  O  O1  1  0.24063248  0.34808962  0.83817866  1
  O  O1  1  0.75936752  0.65191038  0.83817866  1
  O  O2  1  0.75654130  0.15778232  0.91552199  1
  O  O2  1  0.24345870  0.84221768  0.91552199  1
  O  O2  1  0.34221768  0.25654130  0.58447801  1
  O  O2  1  0.65778232  0.74345870  0.58447801  1
