# generated using pymatgen
data_NaBO2
_symmetry_space_group_name_H-M   'P 1'
_cell_length_a   11.81038848
_cell_length_b   11.81038848
_cell_length_c   6.31057790
_cell_angle_alpha   90.00000000
_cell_angle_beta   90.00000000
_cell_angle_gamma   120.00000000
_symmetry_Int_Tables_number   1
_chemical_formula_structural   NaBO2
_chemical_formula_sum   'Na18 B18 O36'
_cell_volume   762.30387979
_cell_formula_units_Z   18
loop_
 _symmetry_equiv_pos_site_id
 _symmetry_equiv_pos_as_xyz
  1  'x, y, z'
loop_
 _atom_site_type_symbol
 _atom_site_label
 _atom_site_symmetry_multiplicity
 _atom_site_fract_x
 _atom_site_fract_y
 _atom_site_fract_z
 _atom_site_occupancy
  Na  Na1  1  0.33333333  0.10366431  0.41666667  1
  Na  Na1  1  0.22966903  0.89633569  0.08333333  1
  Na  Na1  1  0.43699764  0.00000000  0.75000000  1
  Na  Na1  1  0.00000000  0.56300236  0.25000000  1
  Na  Na1  1  0.10366431  0.77033097  0.58333333  1
  Na  Na1  1  0.89633569  0.66666667  0.91666667  1
  B  B1  1  0.00000000  0.87780684  0.25000000  1
  B  B1  1  0.33333333  0.78885983  0.41666667  1
  B  B1  1  0.54447350  0.21114017  0.08333333  1
  B  B1  1  0.12219316  0.00000000  0.75000000  1
  B  B1  1  0.78885983  0.45552650  0.58333333  1
  B  B1  1  0.21114017  0.66666667  0.91666667  1
  O  O1  1  0.11770905  0.00000000  0.25000000  1
  O  O1  1  0.54895762  0.21562429  0.58333333  1
  O  O1  1  0.00000000  0.88229095  0.75000000  1
  O  O1  1  0.33333333  0.78437571  0.91666667  1
  O  O1  1  0.21562429  0.66666667  0.41666667  1
  O  O1  1  0.78437571  0.45104238  0.08333333  1
  O  O2  1  0.09983891  0.66666667  0.91666667  1
  O  O2  1  0.90016109  0.56682776  0.58333333  1
  O  O2  1  0.00000000  0.76650558  0.25000000  1
  O  O2  1  0.23349442  0.00000000  0.75000000  1
  O  O2  1  0.43317224  0.09983891  0.08333333  1
  O  O2  1  0.33333333  0.90016109  0.41666667  1
  Na  Na1  1  0.00000000  0.43699764  0.75000000  1
  Na  Na1  1  0.89633569  0.22966903  0.41666667  1
  Na  Na1  1  0.10366431  0.33333333  0.08333333  1
  Na  Na1  1  0.66666667  0.89633569  0.58333333  1
  Na  Na1  1  0.77033097  0.10366431  0.91666667  1
  Na  Na1  1  0.56300236  0.00000000  0.25000000  1
  B  B1  1  0.66666667  0.21114017  0.58333333  1
  B  B1  1  -0.00000000  0.12219316  0.75000000  1
  B  B1  1  0.21114017  0.54447350  0.41666667  1
  B  B1  1  0.78885983  0.33333333  0.08333333  1
  B  B1  1  0.45552650  0.78885983  0.91666667  1
  B  B1  1  0.87780684  0.00000000  0.25000000  1
  O  O1  1  0.78437571  0.33333333  0.58333333  1
  O  O1  1  0.21562429  0.54895762  0.91666667  1
  O  O1  1  0.66666667  0.21562429  0.08333333  1
  O  O1  1  -0.00000000  0.11770905  0.25000000  1
  O  O1  1  0.88229095  0.00000000  0.75000000  1
  O  O1  1  0.45104238  0.78437571  0.41666667  1
  O  O2  1  0.76650558  0.00000000  0.25000000  1
  O  O2  1  0.56682776  0.90016109  0.91666667  1
  O  O2  1  0.66666667  0.09983891  0.58333333  1
  O  O2  1  0.90016109  0.33333333  0.08333333  1
  O  O2  1  0.09983891  0.43317224  0.41666667  1
  O  O2  1  0.00000000  0.23349442  0.75000000  1
  Na  Na1  1  0.66666667  0.77033097  0.08333333  1
  Na  Na1  1  0.56300236  0.56300236  0.75000000  1
  Na  Na1  1  0.77033097  0.66666667  0.41666667  1
  Na  Na1  1  0.33333333  0.22966903  0.91666667  1
  Na  Na1  1  0.43699764  0.43699764  0.25000000  1
  Na  Na1  1  0.22966903  0.33333333  0.58333333  1
  B  B1  1  0.33333333  0.54447350  0.91666667  1
  B  B1  1  0.66666667  0.45552650  0.08333333  1
  B  B1  1  0.87780684  0.87780684  0.75000000  1
  B  B1  1  0.45552650  0.66666667  0.41666667  1
  B  B1  1  0.12219316  0.12219316  0.25000000  1
  B  B1  1  0.54447350  0.33333333  0.58333333  1
  O  O1  1  0.45104238  0.66666667  0.91666667  1
  O  O1  1  0.88229095  0.88229095  0.25000000  1
  O  O1  1  0.33333333  0.54895762  0.41666667  1
  O  O1  1  0.66666667  0.45104238  0.58333333  1
  O  O1  1  0.54895762  0.33333333  0.08333333  1
  O  O1  1  0.11770905  0.11770905  0.75000000  1
  O  O2  1  0.43317224  0.33333333  0.58333333  1
  O  O2  1  0.23349442  0.23349442  0.25000000  1
  O  O2  1  0.33333333  0.43317224  0.91666667  1
  O  O2  1  0.56682776  0.66666667  0.41666667  1
  O  O2  1  0.76650558  0.76650558  0.75000000  1
  O  O2  1  0.66666667  0.56682776  0.08333333  1
