# generated using pymatgen
data_NaCaAsO4
_symmetry_space_group_name_H-M   'P 1'
_cell_length_a   11.45741876
_cell_length_b   6.61222744
_cell_length_c   5.21282356
_cell_angle_alpha   90.00000000
_cell_angle_beta   90.00000000
_cell_angle_gamma   90.00000000
_symmetry_Int_Tables_number   1
_chemical_formula_structural   NaCaAsO4
_chemical_formula_sum   'Na4 Ca4 As4 O16'
_cell_volume   394.91860654
_cell_formula_units_Z   4
loop_
 _symmetry_equiv_pos_site_id
 _symmetry_equiv_pos_as_xyz
  1  'x, y, z'
loop_
 _atom_site_type_symbol
 _atom_site_label
 _atom_site_symmetry_multiplicity
 _atom_site_fract_x
 _atom_site_fract_y
 _atom_site_fract_z
 _atom_site_occupancy
  Na  Na1  1  0.00000000  0.50000000  0.50000000  1
  Na  Na1  1  0.50000000  0.00000000  0.00000000  1
  Na  Na1  1  0.00000000  0.00000000  0.50000000  1
  Na  Na1  1  0.50000000  0.50000000  0.00000000  1
  Ca  Ca1  1  0.22032757  0.25000000  0.00535386  1
  Ca  Ca1  1  0.72032757  0.25000000  0.49464614  1
  Ca  Ca1  1  0.77967243  0.75000000  0.99464614  1
  Ca  Ca1  1  0.27967243  0.75000000  0.50535386  1
  As  As1  1  0.90334985  0.25000000  0.93180080  1
  As  As1  1  0.40334985  0.25000000  0.56819920  1
  As  As1  1  0.09665015  0.75000000  0.06819920  1
  As  As1  1  0.59665015  0.75000000  0.43180080  1
  O  O1  1  0.04193636  0.25000000  0.80969916  1
  O  O1  1  0.54193636  0.25000000  0.69030084  1
  O  O1  1  0.95806364  0.75000000  0.19030084  1
  O  O1  1  0.45806364  0.75000000  0.30969916  1
  O  O2  1  0.89782342  0.25000000  0.25790214  1
  O  O2  1  0.39782342  0.25000000  0.24209786  1
  O  O2  1  0.10217658  0.75000000  0.74209786  1
  O  O2  1  0.60217658  0.75000000  0.75790214  1
  O  O3  1  0.83224919  0.04758106  0.79185794  1
  O  O3  1  0.33224919  0.45241894  0.70814206  1
  O  O3  1  0.16775081  0.54758106  0.20814206  1
  O  O3  1  0.66775081  0.95241894  0.29185794  1
  O  O3  1  0.16775081  0.95241894  0.20814206  1
  O  O3  1  0.66775081  0.54758106  0.29185794  1
  O  O3  1  0.83224919  0.45241894  0.79185794  1
  O  O3  1  0.33224919  0.04758106  0.70814206  1
