# generated using pymatgen
data_NaCaVO4
_symmetry_space_group_name_H-M   'P 1'
_cell_length_a   5.85955074
_cell_length_b   9.24173896
_cell_length_c   7.07763861
_cell_angle_alpha   90.00000000
_cell_angle_beta   90.00000000
_cell_angle_gamma   90.00000000
_symmetry_Int_Tables_number   1
_chemical_formula_structural   NaCaVO4
_chemical_formula_sum   'Na4 Ca4 V4 O16'
_cell_volume   383.27138857
_cell_formula_units_Z   4
loop_
 _symmetry_equiv_pos_site_id
 _symmetry_equiv_pos_as_xyz
  1  'x, y, z'
loop_
 _atom_site_type_symbol
 _atom_site_label
 _atom_site_symmetry_multiplicity
 _atom_site_fract_x
 _atom_site_fract_y
 _atom_site_fract_z
 _atom_site_occupancy
  Na  Na1  1  0.00000000  0.82215870  0.75000000  1
  Na  Na1  1  0.00000000  0.17784130  0.25000000  1
  Ca  Ca1  1  0.00000000  0.50000000  0.50000000  1
  Ca  Ca1  1  0.00000000  0.50000000  0.00000000  1
  V  V1  1  0.00000000  0.14693288  0.75000000  1
  V  V1  1  0.00000000  0.85306712  0.25000000  1
  O  O1  1  0.00000000  0.74608830  0.05483912  1
  O  O1  1  0.00000000  0.25391170  0.55483912  1
  O  O1  1  0.00000000  0.25391170  0.94516088  1
  O  O1  1  0.00000000  0.74608830  0.44516088  1
  O  O2  1  0.74100222  0.53523784  0.75000000  1
  O  O2  1  0.25899778  0.46476216  0.25000000  1
  O  O2  1  0.25899778  0.53523784  0.75000000  1
  O  O2  1  0.74100222  0.46476216  0.25000000  1
  Na  Na1  1  0.50000000  0.32215870  0.75000000  1
  Na  Na1  1  0.50000000  0.67784130  0.25000000  1
  Ca  Ca1  1  0.50000000  0.00000000  0.50000000  1
  Ca  Ca1  1  0.50000000  0.00000000  0.00000000  1
  V  V1  1  0.50000000  0.64693288  0.75000000  1
  V  V1  1  0.50000000  0.35306712  0.25000000  1
  O  O1  1  0.50000000  0.24608830  0.05483912  1
  O  O1  1  0.50000000  0.75391170  0.55483912  1
  O  O1  1  0.50000000  0.75391170  0.94516088  1
  O  O1  1  0.50000000  0.24608830  0.44516088  1
  O  O2  1  0.24100222  0.03523784  0.75000000  1
  O  O2  1  0.75899778  0.96476216  0.25000000  1
  O  O2  1  0.75899778  0.03523784  0.75000000  1
  O  O2  1  0.24100222  0.96476216  0.25000000  1
