# generated using pymatgen
data_NaCuO
_symmetry_space_group_name_H-M   'P 1'
_cell_length_a   8.69570859
_cell_length_b   8.69570859
_cell_length_c   4.60967865
_cell_angle_alpha   90.00000000
_cell_angle_beta   90.00000000
_cell_angle_gamma   90.00000000
_symmetry_Int_Tables_number   1
_chemical_formula_structural   NaCuO
_chemical_formula_sum   'Na8 Cu8 O8'
_cell_volume   348.56245474
_cell_formula_units_Z   8
loop_
 _symmetry_equiv_pos_site_id
 _symmetry_equiv_pos_as_xyz
  1  'x, y, z'
loop_
 _atom_site_type_symbol
 _atom_site_label
 _atom_site_symmetry_multiplicity
 _atom_site_fract_x
 _atom_site_fract_y
 _atom_site_fract_z
 _atom_site_occupancy
  Na  Na1  1  0.17206714  0.50000000  0.00000000  1
  Na  Na1  1  0.00000000  0.67206714  0.50000000  1
  Na  Na1  1  0.00000000  0.32793286  0.50000000  1
  Na  Na1  1  0.82793286  0.50000000  0.00000000  1
  Cu  Cu1  1  0.64771630  0.35228370  0.50000000  1
  Cu  Cu1  1  0.14771630  0.14771630  0.00000000  1
  Cu  Cu1  1  0.35228370  0.35228370  0.50000000  1
  Cu  Cu1  1  0.85228370  0.14771630  0.00000000  1
  O  O1  1  0.20526012  0.50000000  0.50000000  1
  O  O1  1  0.00000000  0.70526012  0.00000000  1
  O  O1  1  0.00000000  0.29473988  0.00000000  1
  O  O1  1  0.79473988  0.50000000  0.50000000  1
  Na  Na1  1  0.67206714  0.00000000  0.50000000  1
  Na  Na1  1  0.50000000  0.17206714  0.00000000  1
  Na  Na1  1  0.50000000  0.82793286  0.00000000  1
  Na  Na1  1  0.32793286  0.00000000  0.50000000  1
  Cu  Cu1  1  0.14771630  0.85228370  0.00000000  1
  Cu  Cu1  1  0.64771630  0.64771630  0.50000000  1
  Cu  Cu1  1  0.85228370  0.85228370  0.00000000  1
  Cu  Cu1  1  0.35228370  0.64771630  0.50000000  1
  O  O1  1  0.70526012  0.00000000  0.00000000  1
  O  O1  1  0.50000000  0.20526012  0.50000000  1
  O  O1  1  0.50000000  0.79473988  0.50000000  1
  O  O1  1  0.29473988  0.00000000  0.00000000  1
