# generated using pymatgen
data_NaCuO2
_symmetry_space_group_name_H-M   'P 1'
_cell_length_a   3.58305570
_cell_length_b   10.70122418
_cell_length_c   5.28406958
_cell_angle_alpha   90.00000000
_cell_angle_beta   90.00000000
_cell_angle_gamma   90.00000000
_symmetry_Int_Tables_number   1
_chemical_formula_structural   NaCuO2
_chemical_formula_sum   'Na4 Cu4 O8'
_cell_volume   202.60751476
_cell_formula_units_Z   4
loop_
 _symmetry_equiv_pos_site_id
 _symmetry_equiv_pos_as_xyz
  1  'x, y, z'
loop_
 _atom_site_type_symbol
 _atom_site_label
 _atom_site_symmetry_multiplicity
 _atom_site_fract_x
 _atom_site_fract_y
 _atom_site_fract_z
 _atom_site_occupancy
  Na  Na1  1  0.00000000  0.28926791  0.75000000  1
  Na  Na1  1  0.50000000  0.21073209  0.25000000  1
  Cu  Cu1  1  0.00000000  0.00336806  0.75000000  1
  Cu  Cu1  1  0.50000000  0.49663194  0.25000000  1
  O  O1  1  0.50000000  0.38524858  0.99341166  1
  O  O1  1  0.00000000  0.11475142  0.00658834  1
  O  O1  1  0.50000000  0.38524858  0.50658834  1
  O  O1  1  0.00000000  0.11475142  0.49341166  1
  Na  Na1  1  0.50000000  0.78926791  0.75000000  1
  Na  Na1  1  0.00000000  0.71073209  0.25000000  1
  Cu  Cu1  1  0.50000000  0.50336806  0.75000000  1
  Cu  Cu1  1  0.00000000  0.99663194  0.25000000  1
  O  O1  1  0.00000000  0.88524858  0.99341166  1
  O  O1  1  0.50000000  0.61475142  0.00658834  1
  O  O1  1  0.00000000  0.88524858  0.50658834  1
  O  O1  1  0.50000000  0.61475142  0.49341166  1
