# generated using pymatgen
data_NaGeSbO5
_symmetry_space_group_name_H-M   'P 1'
_cell_length_a   6.74043317
_cell_length_b   8.96519555
_cell_length_c   7.27456095
_cell_angle_alpha   90.00000000
_cell_angle_beta   114.69674475
_cell_angle_gamma   90.00000000
_symmetry_Int_Tables_number   1
_chemical_formula_structural   NaGeSbO5
_chemical_formula_sum   'Na4 Ge4 Sb4 O20'
_cell_volume   399.38757477
_cell_formula_units_Z   4
loop_
 _symmetry_equiv_pos_site_id
 _symmetry_equiv_pos_as_xyz
  1  'x, y, z'
loop_
 _atom_site_type_symbol
 _atom_site_label
 _atom_site_symmetry_multiplicity
 _atom_site_fract_x
 _atom_site_fract_y
 _atom_site_fract_z
 _atom_site_occupancy
  Na  Na1  1  0.50000000  0.83397710  0.25000000  1
  Na  Na1  1  0.50000000  0.16602290  0.75000000  1
  Ge  Ge1  1  0.50000000  0.81239268  0.75000000  1
  Ge  Ge1  1  0.50000000  0.18760732  0.25000000  1
  Sb  Sb1  1  0.00000000  0.00000000  0.00000000  1
  Sb  Sb1  1  0.00000000  0.00000000  0.50000000  1
  O  O1  1  0.50000000  0.58178514  0.25000000  1
  O  O1  1  0.50000000  0.41821486  0.75000000  1
  O  O2  1  0.38383370  0.70080344  0.88318430  1
  O  O2  1  0.61616630  0.70080344  0.61681570  1
  O  O2  1  0.61616630  0.29919656  0.11681570  1
  O  O2  1  0.38383370  0.29919656  0.38318430  1
  O  O3  1  0.30895666  0.06279510  0.07303160  1
  O  O3  1  0.69104334  0.06279510  0.42696840  1
  O  O3  1  0.69104334  0.93720490  0.92696840  1
  O  O3  1  0.30895666  0.93720490  0.57303160  1
  Na  Na1  1  0.00000000  0.33397710  0.25000000  1
  Na  Na1  1  0.00000000  0.66602290  0.75000000  1
  Ge  Ge1  1  0.00000000  0.31239268  0.75000000  1
  Ge  Ge1  1  0.00000000  0.68760732  0.25000000  1
  Sb  Sb1  1  0.50000000  0.50000000  0.00000000  1
  Sb  Sb1  1  0.50000000  0.50000000  0.50000000  1
  O  O1  1  0.00000000  0.08178514  0.25000000  1
  O  O1  1  0.00000000  0.91821486  0.75000000  1
  O  O2  1  0.88383370  0.20080344  0.88318430  1
  O  O2  1  0.11616630  0.20080344  0.61681570  1
  O  O2  1  0.11616630  0.79919656  0.11681570  1
  O  O2  1  0.88383370  0.79919656  0.38318430  1
  O  O3  1  0.80895666  0.56279510  0.07303160  1
  O  O3  1  0.19104334  0.56279510  0.42696840  1
  O  O3  1  0.19104334  0.43720490  0.92696840  1
  O  O3  1  0.80895666  0.43720490  0.57303160  1
