# generated using pymatgen
data_NaIn(GeO3)2
_symmetry_space_group_name_H-M   'P 1'
_cell_length_a   10.35024122
_cell_length_b   9.15211907
_cell_length_c   5.63743408
_cell_angle_alpha   90.00000000
_cell_angle_beta   106.72904501
_cell_angle_gamma   90.00000000
_symmetry_Int_Tables_number   1
_chemical_formula_structural   NaIn(GeO3)2
_chemical_formula_sum   'Na4 In4 Ge8 O24'
_cell_volume   511.41390420
_cell_formula_units_Z   4
loop_
 _symmetry_equiv_pos_site_id
 _symmetry_equiv_pos_as_xyz
  1  'x, y, z'
loop_
 _atom_site_type_symbol
 _atom_site_label
 _atom_site_symmetry_multiplicity
 _atom_site_fract_x
 _atom_site_fract_y
 _atom_site_fract_z
 _atom_site_occupancy
  Na  Na1  1  0.00000000  0.30425600  0.75000000  1
  Na  Na1  1  0.00000000  0.69574400  0.25000000  1
  In  In1  1  0.00000000  0.89911960  0.75000000  1
  In  In1  1  0.00000000  0.10088040  0.25000000  1
  Ge  Ge1  1  0.79069434  0.59147600  0.74659342  1
  Ge  Ge1  1  0.20930566  0.59147600  0.75340658  1
  Ge  Ge1  1  0.20930566  0.40852400  0.25340658  1
  Ge  Ge1  1  0.79069434  0.40852400  0.24659342  1
  O  O1  1  0.85736308  0.76338248  0.84996144  1
  O  O1  1  0.14263692  0.76338248  0.65003856  1
  O  O1  1  0.14263692  0.23661752  0.15003856  1
  O  O1  1  0.85736308  0.23661752  0.34996144  1
  O  O2  1  0.61083495  0.58566386  0.64443854  1
  O  O2  1  0.38916505  0.58566386  0.85556146  1
  O  O2  1  0.38916505  0.41433614  0.35556146  1
  O  O2  1  0.61083495  0.41433614  0.14443854  1
  O  O3  1  0.86169611  0.52873784  0.50754152  1
  O  O3  1  0.13830389  0.52873784  0.99245848  1
  O  O3  1  0.13830389  0.47126216  0.49245848  1
  O  O3  1  0.86169611  0.47126216  0.00754152  1
  Na  Na1  1  0.50000000  0.80425600  0.75000000  1
  Na  Na1  1  0.50000000  0.19574400  0.25000000  1
  In  In1  1  0.50000000  0.39911960  0.75000000  1
  In  In1  1  0.50000000  0.60088040  0.25000000  1
  Ge  Ge1  1  0.29069434  0.09147600  0.74659342  1
  Ge  Ge1  1  0.70930566  0.09147600  0.75340658  1
  Ge  Ge1  1  0.70930566  0.90852400  0.25340658  1
  Ge  Ge1  1  0.29069434  0.90852400  0.24659342  1
  O  O1  1  0.35736308  0.26338248  0.84996144  1
  O  O1  1  0.64263692  0.26338248  0.65003856  1
  O  O1  1  0.64263692  0.73661752  0.15003856  1
  O  O1  1  0.35736308  0.73661752  0.34996144  1
  O  O2  1  0.11083495  0.08566386  0.64443854  1
  O  O2  1  0.88916505  0.08566386  0.85556146  1
  O  O2  1  0.88916505  0.91433614  0.35556146  1
  O  O2  1  0.11083495  0.91433614  0.14443854  1
  O  O3  1  0.36169611  0.02873784  0.50754152  1
  O  O3  1  0.63830389  0.02873784  0.99245848  1
  O  O3  1  0.63830389  0.97126216  0.49245848  1
  O  O3  1  0.36169611  0.97126216  0.00754152  1
