# generated using pymatgen
data_NaIn(SiO3)2
_symmetry_space_group_name_H-M   'P 1'
_cell_length_a   9.98911506
_cell_length_b   9.17844828
_cell_length_c   5.41057023
_cell_angle_alpha   90.00000000
_cell_angle_beta   107.71233549
_cell_angle_gamma   90.00000000
_symmetry_Int_Tables_number   1
_chemical_formula_structural   NaIn(SiO3)2
_chemical_formula_sum   'Na4 In4 Si8 O24'
_cell_volume   472.55033382
_cell_formula_units_Z   4
loop_
 _symmetry_equiv_pos_site_id
 _symmetry_equiv_pos_as_xyz
  1  'x, y, z'
loop_
 _atom_site_type_symbol
 _atom_site_label
 _atom_site_symmetry_multiplicity
 _atom_site_fract_x
 _atom_site_fract_y
 _atom_site_fract_z
 _atom_site_occupancy
  Na  Na1  1  0.00000000  0.70028992  0.75000000  1
  Na  Na1  1  0.00000000  0.29971008  0.25000000  1
  In  In1  1  0.00000000  0.10456120  0.75000000  1
  In  In1  1  0.00000000  0.89543880  0.25000000  1
  Si  Si1  1  0.20749019  0.58628270  0.24596212  1
  Si  Si1  1  0.79250981  0.58628270  0.25403788  1
  Si  Si1  1  0.20749019  0.41371730  0.74596212  1
  Si  Si1  1  0.79250981  0.41371730  0.75403788  1
  O  O1  1  0.85757960  0.74563537  0.32798786  1
  O  O2  1  0.15026561  0.48856593  0.97434596  1
  O  O2  1  0.15026561  0.51143407  0.47434596  1
  O  O2  1  0.84973439  0.51143407  0.02565404  1
  O  O3  1  0.38022422  0.41828506  0.84249234  1
  O  O3  1  0.61977578  0.41828506  0.65750766  1
  O  O1  1  0.14242040  0.74563537  0.17201214  1
  O  O3  1  0.38022422  0.58171494  0.34249234  1
  O  O1  1  0.14242040  0.25436463  0.67201214  1
  O  O1  1  0.85757960  0.25436463  0.82798786  1
  O  O3  1  0.61977578  0.58171494  0.15750766  1
  O  O2  1  0.84973439  0.48856593  0.52565404  1
  Na  Na1  1  0.50000000  0.20028992  0.75000000  1
  Na  Na1  1  0.50000000  0.79971008  0.25000000  1
  In  In1  1  0.50000000  0.60456120  0.75000000  1
  In  In1  1  0.50000000  0.39543880  0.25000000  1
  Si  Si1  1  0.70749019  0.08628270  0.24596212  1
  Si  Si1  1  0.29250981  0.08628270  0.25403788  1
  Si  Si1  1  0.70749019  0.91371730  0.74596212  1
  Si  Si1  1  0.29250981  0.91371730  0.75403788  1
  O  O1  1  0.35757960  0.24563537  0.32798786  1
  O  O2  1  0.65026561  0.98856593  0.97434596  1
  O  O2  1  0.65026561  0.01143407  0.47434596  1
  O  O2  1  0.34973439  0.01143407  0.02565404  1
  O  O3  1  0.88022422  0.91828506  0.84249234  1
  O  O3  1  0.11977578  0.91828506  0.65750766  1
  O  O1  1  0.64242040  0.24563537  0.17201214  1
  O  O3  1  0.88022422  0.08171494  0.34249234  1
  O  O1  1  0.64242040  0.75436463  0.67201214  1
  O  O1  1  0.35757960  0.75436463  0.82798786  1
  O  O3  1  0.11977578  0.08171494  0.15750766  1
  O  O2  1  0.34973439  0.98856593  0.52565404  1
