# generated using pymatgen
data_NaIn(WO4)2
_symmetry_space_group_name_H-M   'P 1'
_cell_length_a   10.08158470
_cell_length_b   5.82907477
_cell_length_c   5.04807737
_cell_angle_alpha   90.00000000
_cell_angle_beta   91.10608818
_cell_angle_gamma   90.00000000
_symmetry_Int_Tables_number   1
_chemical_formula_structural   NaIn(WO4)2
_chemical_formula_sum   'Na2 In2 W4 O16'
_cell_volume   296.60160767
_cell_formula_units_Z   2
loop_
 _symmetry_equiv_pos_site_id
 _symmetry_equiv_pos_as_xyz
  1  'x, y, z'
loop_
 _atom_site_type_symbol
 _atom_site_label
 _atom_site_symmetry_multiplicity
 _atom_site_fract_x
 _atom_site_fract_y
 _atom_site_fract_z
 _atom_site_occupancy
  Na  Na1  1  0.00000000  0.32137030  0.75000000  1
  Na  Na1  1  0.00000000  0.67862970  0.25000000  1
  In  In1  1  0.50000000  0.68766064  0.25000000  1
  In  In1  1  0.50000000  0.31233936  0.75000000  1
  W  W1  1  0.74685799  0.17643016  0.24408086  1
  W  W1  1  0.74685799  0.82356984  0.74408086  1
  W  W1  1  0.25314201  0.82356984  0.75591914  1
  W  W1  1  0.25314201  0.17643016  0.25591914  1
  O  O1  1  0.83625087  0.09642264  0.93433942  1
  O  O2  1  0.86244581  0.63180924  0.87907004  1
  O  O3  1  0.36495976  0.09874472  0.95339824  1
  O  O1  1  0.16374913  0.09642264  0.56566058  1
  O  O3  1  0.36495976  0.90125528  0.45339824  1
  O  O1  1  0.83625087  0.90357736  0.43433942  1
  O  O4  1  0.38138998  0.37943738  0.39228578  1
  O  O4  1  0.61861002  0.37943738  0.10771422  1
  O  O2  1  0.13755419  0.36819076  0.12092996  1
  O  O4  1  0.61861002  0.62056262  0.60771422  1
  O  O2  1  0.13755419  0.63180924  0.62092996  1
  O  O1  1  0.16374913  0.90357736  0.06566058  1
  O  O3  1  0.63504024  0.09874472  0.54660176  1
  O  O2  1  0.86244581  0.36819076  0.37907004  1
  O  O4  1  0.38138998  0.62056262  0.89228578  1
  O  O3  1  0.63504024  0.90125528  0.04660176  1
