# generated using pymatgen
data_NaLaO2
_symmetry_space_group_name_H-M   'P 1'
_cell_length_a   4.75445306
_cell_length_b   4.75445306
_cell_length_c   11.36179130
_cell_angle_alpha   90.00000000
_cell_angle_beta   90.00000000
_cell_angle_gamma   90.00000000
_symmetry_Int_Tables_number   1
_chemical_formula_structural   NaLaO2
_chemical_formula_sum   'Na4 La4 O8'
_cell_volume   256.83129159
_cell_formula_units_Z   4
loop_
 _symmetry_equiv_pos_site_id
 _symmetry_equiv_pos_as_xyz
  1  'x, y, z'
loop_
 _atom_site_type_symbol
 _atom_site_label
 _atom_site_symmetry_multiplicity
 _atom_site_fract_x
 _atom_site_fract_y
 _atom_site_fract_z
 _atom_site_occupancy
  Na  Na1  1  0.00000000  0.50000000  0.75000000  1
  Na  Na1  1  0.00000000  0.00000000  0.50000000  1
  La  La1  1  0.50000000  0.00000000  0.75000000  1
  La  La1  1  0.50000000  0.50000000  0.50000000  1
  O  O1  1  0.00000000  0.50000000  0.46521578  1
  O  O1  1  0.50000000  0.50000000  0.28478422  1
  O  O1  1  0.50000000  0.50000000  0.71521578  1
  O  O1  1  0.50000000  0.00000000  0.53478422  1
  Na  Na1  1  0.50000000  0.00000000  0.25000000  1
  Na  Na1  1  0.50000000  0.50000000  0.00000000  1
  La  La1  1  0.00000000  0.50000000  0.25000000  1
  La  La1  1  0.00000000  0.00000000  0.00000000  1
  O  O1  1  0.50000000  0.00000000  0.96521578  1
  O  O1  1  0.00000000  0.00000000  0.78478422  1
  O  O1  1  0.00000000  0.00000000  0.21521578  1
  O  O1  1  0.00000000  0.50000000  0.03478422  1
