# generated using pymatgen
data_NaLa2TaO6
_symmetry_space_group_name_H-M   'P 1'
_cell_length_a   5.64771219
_cell_length_b   5.93844185
_cell_length_c   9.79997695
_cell_angle_alpha   90.00000000
_cell_angle_beta   124.25029370
_cell_angle_gamma   90.00000000
_symmetry_Int_Tables_number   1
_chemical_formula_structural   NaLa2TaO6
_chemical_formula_sum   'Na2 La4 Ta2 O12'
_cell_volume   271.68059406
_cell_formula_units_Z   2
loop_
 _symmetry_equiv_pos_site_id
 _symmetry_equiv_pos_as_xyz
  1  'x, y, z'
loop_
 _atom_site_type_symbol
 _atom_site_label
 _atom_site_symmetry_multiplicity
 _atom_site_fract_x
 _atom_site_fract_y
 _atom_site_fract_z
 _atom_site_occupancy
  Na  Na1  1  0.00000000  0.00000000  0.00000000  1
  Na  Na1  1  0.00000000  0.50000000  0.50000000  1
  La  La1  1  0.77251068  0.56023597  0.75492272  1
  La  La1  1  0.22748932  0.06023597  0.74507728  1
  La  La1  1  0.77251068  0.93976403  0.25492272  1
  La  La1  1  0.22748932  0.43976403  0.24507728  1
  Ta  Ta1  1  0.50000000  0.00000000  0.50000000  1
  Ta  Ta1  1  0.50000000  0.50000000  0.00000000  1
  O  O1  1  0.74261254  0.22167474  0.07126550  1
  O  O1  1  0.25738746  0.72167474  0.42873450  1
  O  O1  1  0.25738746  0.77832526  0.92873450  1
  O  O1  1  0.74261254  0.27832526  0.57126550  1
  O  O2  1  0.61082822  0.55319059  0.22979084  1
  O  O2  1  0.38917178  0.05319059  0.27020916  1
  O  O2  1  0.38917178  0.44680941  0.77020916  1
  O  O2  1  0.61082822  0.94680941  0.72979084  1
  O  O3  1  0.83911098  0.82265955  0.55174888  1
  O  O3  1  0.16088902  0.32265955  0.94825112  1
  O  O3  1  0.16088902  0.17734045  0.44825112  1
  O  O3  1  0.83911098  0.67734045  0.05174888  1
