# generated using pymatgen
data_NaLi2AsO4
_symmetry_space_group_name_H-M   'P 1'
_cell_length_a   6.94711865
_cell_length_b   5.24578386
_cell_length_c   5.05319103
_cell_angle_alpha   90.00000000
_cell_angle_beta   90.00000000
_cell_angle_gamma   90.00000000
_symmetry_Int_Tables_number   1
_chemical_formula_structural   NaLi2AsO4
_chemical_formula_sum   'Na2 Li4 As2 O8'
_cell_volume   184.15385945
_cell_formula_units_Z   2
loop_
 _symmetry_equiv_pos_site_id
 _symmetry_equiv_pos_as_xyz
  1  'x, y, z'
loop_
 _atom_site_type_symbol
 _atom_site_label
 _atom_site_symmetry_multiplicity
 _atom_site_fract_x
 _atom_site_fract_y
 _atom_site_fract_z
 _atom_site_occupancy
  Na  Na1  1  0.00000000  0.20298940  0.47837363  1
  Na  Na1  1  0.50000000  0.79701060  0.97837363  1
  Li  Li1  1  0.74937298  0.67741660  0.49160847  1
  Li  Li1  1  0.24937298  0.32258340  0.99160847  1
  Li  Li1  1  0.25062702  0.67741660  0.49160847  1
  Li  Li1  1  0.75062702  0.32258340  0.99160847  1
  As  As1  1  0.50000000  0.18804813  0.50091825  1
  As  As1  1  0.00000000  0.81195187  0.00091825  1
  O  O1  1  0.00000000  0.13363548  0.93305218  1
  O  O2  1  0.00000000  0.77456194  0.33902712  1
  O  O1  1  0.50000000  0.86636452  0.43305218  1
  O  O2  1  0.50000000  0.22543806  0.83902712  1
  O  O3  1  0.79827278  0.67163494  0.87265544  1
  O  O3  1  0.70172722  0.32836506  0.37265544  1
  O  O3  1  0.29827278  0.32836506  0.37265544  1
  O  O3  1  0.20172722  0.67163494  0.87265544  1
