# generated using pymatgen
data_NaLiV2O6
_symmetry_space_group_name_H-M   'P 1'
_cell_length_a   10.01184996
_cell_length_b   9.95442593
_cell_length_c   5.77264990
_cell_angle_alpha   90.00000000
_cell_angle_beta   111.88761298
_cell_angle_gamma   90.00000000
_symmetry_Int_Tables_number   1
_chemical_formula_structural   NaLiV2O6
_chemical_formula_sum   'Na4 Li4 V8 O24'
_cell_volume   533.84458441
_cell_formula_units_Z   4
loop_
 _symmetry_equiv_pos_site_id
 _symmetry_equiv_pos_as_xyz
  1  'x, y, z'
loop_
 _atom_site_type_symbol
 _atom_site_label
 _atom_site_symmetry_multiplicity
 _atom_site_fract_x
 _atom_site_fract_y
 _atom_site_fract_z
 _atom_site_occupancy
  Na  Na1  1  0.00000000  0.89784994  0.75000000  1
  Na  Na1  1  0.00000000  0.10215006  0.25000000  1
  Li  Li1  1  0.00000000  0.78667942  0.25000000  1
  Li  Li1  1  0.00000000  0.21332058  0.75000000  1
  V  V1  1  0.81292838  0.58424752  0.79081691  1
  V  V1  1  0.18707162  0.58424752  0.70918309  1
  V  V1  1  0.18707162  0.41575248  0.20918309  1
  V  V1  1  0.81292838  0.41575248  0.29081691  1
  O  O1  1  0.63278842  0.59118618  0.67859306  1
  O  O1  1  0.36721158  0.59118618  0.82140694  1
  O  O1  1  0.36721158  0.40881382  0.32140694  1
  O  O1  1  0.63278842  0.40881382  0.17859306  1
  O  O2  1  0.88225746  0.73347076  0.90021569  1
  O  O2  1  0.11774254  0.73347076  0.59978431  1
  O  O2  1  0.11774254  0.26652924  0.09978431  1
  O  O2  1  0.88225746  0.26652924  0.40021569  1
  O  O3  1  0.86525624  0.53615680  0.53765133  1
  O  O3  1  0.13474376  0.53615680  0.96234867  1
  O  O3  1  0.13474376  0.46384320  0.46234867  1
  O  O3  1  0.86525624  0.46384320  0.03765133  1
  Na  Na1  1  0.50000000  0.39784994  0.75000000  1
  Na  Na1  1  0.50000000  0.60215006  0.25000000  1
  Li  Li1  1  0.50000000  0.28667942  0.25000000  1
  Li  Li1  1  0.50000000  0.71332058  0.75000000  1
  V  V1  1  0.31292838  0.08424752  0.79081691  1
  V  V1  1  0.68707162  0.08424752  0.70918309  1
  V  V1  1  0.68707162  0.91575248  0.20918309  1
  V  V1  1  0.31292838  0.91575248  0.29081691  1
  O  O1  1  0.13278842  0.09118618  0.67859306  1
  O  O1  1  0.86721158  0.09118618  0.82140694  1
  O  O1  1  0.86721158  0.90881382  0.32140694  1
  O  O1  1  0.13278842  0.90881382  0.17859306  1
  O  O2  1  0.38225746  0.23347076  0.90021569  1
  O  O2  1  0.61774254  0.23347076  0.59978431  1
  O  O2  1  0.61774254  0.76652924  0.09978431  1
  O  O2  1  0.38225746  0.76652924  0.40021569  1
  O  O3  1  0.36525624  0.03615680  0.53765133  1
  O  O3  1  0.63474376  0.03615680  0.96234867  1
  O  O3  1  0.63474376  0.96384320  0.46234867  1
  O  O3  1  0.36525624  0.96384320  0.03765133  1
