# generated using pymatgen
data_NaNbO3
_symmetry_space_group_name_H-M   'P 1'
_cell_length_a   5.35660334
_cell_length_b   5.35660334
_cell_length_c   15.43985425
_cell_angle_alpha   90.00000000
_cell_angle_beta   90.00000000
_cell_angle_gamma   120.00000000
_symmetry_Int_Tables_number   1
_chemical_formula_structural   NaNbO3
_chemical_formula_sum   'Na6 Nb6 O18'
_cell_volume   383.66554932
_cell_formula_units_Z   6
loop_
 _symmetry_equiv_pos_site_id
 _symmetry_equiv_pos_as_xyz
  1  'x, y, z'
loop_
 _atom_site_type_symbol
 _atom_site_label
 _atom_site_symmetry_multiplicity
 _atom_site_fract_x
 _atom_site_fract_y
 _atom_site_fract_z
 _atom_site_occupancy
  Na  Na1  1  0.33333333  0.66666667  0.02476251  1
  Na  Na1  1  0.33333333  0.66666667  0.30857083  1
  Nb  Nb1  1  0.00000000  0.00000000  0.14797307  1
  Nb  Nb1  1  0.66666667  0.33333333  0.18536026  1
  O  O1  1  0.95037505  0.27024268  0.24016630  1
  O  O1  1  0.31986763  0.04962495  0.24016630  1
  O  O1  1  0.72975732  0.68013237  0.24016630  1
  O  O1  1  0.71629162  0.06309065  0.09316703  1
  O  O1  1  0.34679903  0.28370838  0.09316703  1
  O  O1  1  0.93690935  0.65320097  0.09316703  1
  Na  Na1  1  0.00000000  0.00000000  0.35809584  1
  Na  Na1  1  0.00000000  0.00000000  0.64190416  1
  Nb  Nb1  1  0.66666667  0.33333333  0.48130641  1
  Nb  Nb1  1  0.33333333  0.66666667  0.51869359  1
  O  O1  1  0.61704171  0.60357601  0.57349964  1
  O  O1  1  0.98653430  0.38295829  0.57349964  1
  O  O1  1  0.39642399  0.01346570  0.57349964  1
  O  O1  1  0.38295829  0.39642399  0.42650036  1
  O  O1  1  0.01346570  0.61704171  0.42650036  1
  O  O1  1  0.60357601  0.98653430  0.42650036  1
  Na  Na1  1  0.66666667  0.33333333  0.69142917  1
  Na  Na1  1  0.66666667  0.33333333  0.97523749  1
  Nb  Nb1  1  0.33333333  0.66666667  0.81463974  1
  Nb  Nb1  1  0.00000000  0.00000000  0.85202693  1
  O  O1  1  0.28370838  0.93690935  0.90683297  1
  O  O1  1  0.65320097  0.71629162  0.90683297  1
  O  O1  1  0.06309065  0.34679903  0.90683297  1
  O  O1  1  0.04962495  0.72975732  0.75983370  1
  O  O1  1  0.68013237  0.95037505  0.75983370  1
  O  O1  1  0.27024268  0.31986763  0.75983370  1
