# generated using pymatgen
data_NaSbO3
_symmetry_space_group_name_H-M   'P 1'
_cell_length_a   5.32437513
_cell_length_b   5.32437513
_cell_length_c   15.80314093
_cell_angle_alpha   90.00000000
_cell_angle_beta   90.00000000
_cell_angle_gamma   120.00000000
_symmetry_Int_Tables_number   1
_chemical_formula_structural   NaSbO3
_chemical_formula_sum   'Na6 Sb6 O18'
_cell_volume   387.98178584
_cell_formula_units_Z   6
loop_
 _symmetry_equiv_pos_site_id
 _symmetry_equiv_pos_as_xyz
  1  'x, y, z'
loop_
 _atom_site_type_symbol
 _atom_site_label
 _atom_site_symmetry_multiplicity
 _atom_site_fract_x
 _atom_site_fract_y
 _atom_site_fract_z
 _atom_site_occupancy
  Na  Na1  1  0.33333333  0.66666667  0.30545031  1
  Na  Na1  1  0.33333333  0.66666667  0.02788302  1
  Sb  Sb1  1  0.66666667  0.33333333  0.17291640  1
  Sb  Sb1  1  0.00000000  0.00000000  0.16041694  1
  O  O1  1  0.95678676  0.67797975  0.23838670  1
  O  O1  1  0.32202025  0.27880701  0.23838670  1
  O  O1  1  0.72119299  0.04321324  0.23838670  1
  O  O1  1  0.70987991  0.65535359  0.09494663  1
  O  O1  1  0.94547368  0.29012009  0.09494663  1
  O  O1  1  0.34464641  0.05452632  0.09494663  1
  Na  Na1  1  0.00000000  0.00000000  0.63878364  1
  Na  Na1  1  0.00000000  0.00000000  0.36121636  1
  Sb  Sb1  1  0.33333333  0.66666667  0.50624973  1
  Sb  Sb1  1  0.66666667  0.33333333  0.49375027  1
  O  O1  1  0.62345342  0.01131308  0.57172004  1
  O  O1  1  0.98868692  0.61214034  0.57172004  1
  O  O1  1  0.38785966  0.37654658  0.57172004  1
  O  O1  1  0.37654658  0.98868692  0.42827996  1
  O  O1  1  0.61214034  0.62345342  0.42827996  1
  O  O1  1  0.01131308  0.38785966  0.42827996  1
  Na  Na1  1  0.66666667  0.33333333  0.97211698  1
  Na  Na1  1  0.66666667  0.33333333  0.69454969  1
  Sb  Sb1  1  0.00000000  0.00000000  0.83958306  1
  Sb  Sb1  1  0.33333333  0.66666667  0.82708360  1
  O  O1  1  0.29012009  0.34464641  0.90505337  1
  O  O1  1  0.65535359  0.94547368  0.90505337  1
  O  O1  1  0.05452632  0.70987991  0.90505337  1
  O  O1  1  0.04321324  0.32202025  0.76161330  1
  O  O1  1  0.27880701  0.95678676  0.76161330  1
  O  O1  1  0.67797975  0.72119299  0.76161330  1
