# generated using pymatgen
data_NaSc(SiO3)2
_symmetry_space_group_name_H-M   'P 1'
_cell_length_a   9.86354687
_cell_length_b   9.00426300
_cell_length_c   5.36545655
_cell_angle_alpha   90.00000000
_cell_angle_beta   107.73076499
_cell_angle_gamma   90.00000000
_symmetry_Int_Tables_number   1
_chemical_formula_structural   NaSc(SiO3)2
_chemical_formula_sum   'Na4 Sc4 Si8 O24'
_cell_volume   453.89153343
_cell_formula_units_Z   4
loop_
 _symmetry_equiv_pos_site_id
 _symmetry_equiv_pos_as_xyz
  1  'x, y, z'
loop_
 _atom_site_type_symbol
 _atom_site_label
 _atom_site_symmetry_multiplicity
 _atom_site_fract_x
 _atom_site_fract_y
 _atom_site_fract_z
 _atom_site_occupancy
  Na  Na1  1  0.00000000  0.29865659  0.25000000  1
  Na  Na1  1  0.00000000  0.70134341  0.75000000  1
  Sc  Sc1  1  0.00000000  0.89769856  0.25000000  1
  Sc  Sc1  1  0.00000000  0.10230144  0.75000000  1
  Si  Si1  1  0.20891542  0.58786106  0.25332774  1
  Si  Si1  1  0.20891542  0.41213894  0.75332774  1
  Si  Si1  1  0.79108458  0.58786106  0.24667226  1
  Si  Si1  1  0.79108458  0.41213894  0.74667226  1
  O  O1  1  0.14830711  0.50455791  0.47319312  1
  O  O1  1  0.85169289  0.50455791  0.02680688  1
  O  O1  1  0.85169289  0.49544209  0.52680688  1
  O  O1  1  0.14830711  0.49544209  0.97319312  1
  O  O2  1  0.14019005  0.75100593  0.19233754  1
  O  O2  1  0.85980995  0.75100593  0.30766246  1
  O  O2  1  0.85980995  0.24899407  0.80766246  1
  O  O2  1  0.14019005  0.24899407  0.69233754  1
  O  O3  1  0.38300036  0.42005213  0.85371666  1
  O  O3  1  0.61699964  0.42005213  0.64628334  1
  O  O3  1  0.61699964  0.57994787  0.14628334  1
  O  O3  1  0.38300036  0.57994787  0.35371666  1
  Na  Na1  1  0.50000000  0.79865659  0.25000000  1
  Na  Na1  1  0.50000000  0.20134341  0.75000000  1
  Sc  Sc1  1  0.50000000  0.39769856  0.25000000  1
  Sc  Sc1  1  0.50000000  0.60230144  0.75000000  1
  Si  Si1  1  0.70891542  0.08786106  0.25332774  1
  Si  Si1  1  0.70891542  0.91213894  0.75332774  1
  Si  Si1  1  0.29108458  0.08786106  0.24667226  1
  Si  Si1  1  0.29108458  0.91213894  0.74667226  1
  O  O1  1  0.64830711  0.00455791  0.47319312  1
  O  O1  1  0.35169289  0.00455791  0.02680688  1
  O  O1  1  0.35169289  0.99544209  0.52680688  1
  O  O1  1  0.64830711  0.99544209  0.97319312  1
  O  O2  1  0.64019005  0.25100593  0.19233754  1
  O  O2  1  0.35980995  0.25100593  0.30766246  1
  O  O2  1  0.35980995  0.74899407  0.80766246  1
  O  O2  1  0.64019005  0.74899407  0.69233754  1
  O  O3  1  0.88300036  0.92005213  0.85371666  1
  O  O3  1  0.11699964  0.92005213  0.64628334  1
  O  O3  1  0.11699964  0.07994787  0.14628334  1
  O  O3  1  0.88300036  0.07994787  0.35371666  1
