# generated using pymatgen
data_NaSc(GeO3)2
_symmetry_space_group_name_H-M   'P 1'
_cell_length_a   10.30482653
_cell_length_b   9.09288071
_cell_length_c   5.62684803
_cell_angle_alpha   90.00000000
_cell_angle_beta   107.96092543
_cell_angle_gamma   90.00000000
_symmetry_Int_Tables_number   1
_chemical_formula_structural   NaSc(GeO3)2
_chemical_formula_sum   'Na4 Sc4 Ge8 O24'
_cell_volume   501.54489360
_cell_formula_units_Z   4
loop_
 _symmetry_equiv_pos_site_id
 _symmetry_equiv_pos_as_xyz
  1  'x, y, z'
loop_
 _atom_site_type_symbol
 _atom_site_label
 _atom_site_symmetry_multiplicity
 _atom_site_fract_x
 _atom_site_fract_y
 _atom_site_fract_z
 _atom_site_occupancy
  Na  Na1  1  0.00000000  0.29937265  0.25000000  1
  Na  Na1  1  0.00000000  0.70062735  0.75000000  1
  Sc  Sc1  1  0.00000000  0.90337634  0.25000000  1
  Sc  Sc1  1  0.00000000  0.09662366  0.75000000  1
  Ge  Ge1  1  0.21257789  0.59265776  0.26144096  1
  Ge  Ge1  1  0.78742211  0.59265776  0.23855904  1
  Ge  Ge1  1  0.78742211  0.40734224  0.73855904  1
  Ge  Ge1  1  0.21257789  0.40734224  0.76144096  1
  O  O1  1  0.13699009  0.49871589  0.96873690  1
  O  O1  1  0.86300991  0.49871589  0.53126310  1
  O  O1  1  0.86300991  0.50128411  0.03126310  1
  O  O1  1  0.13699009  0.50128411  0.46873690  1
  O  O2  1  0.14323979  0.23038423  0.69715304  1
  O  O2  1  0.85676021  0.23038423  0.80284696  1
  O  O2  1  0.85676021  0.76961577  0.30284696  1
  O  O2  1  0.14323979  0.76961577  0.19715304  1
  O  O3  1  0.39370836  0.58308222  0.36313642  1
  O  O3  1  0.60629164  0.58308222  0.13686358  1
  O  O3  1  0.60629164  0.41691778  0.63686358  1
  O  O3  1  0.39370836  0.41691778  0.86313642  1
  Na  Na1  1  0.50000000  0.79937265  0.25000000  1
  Na  Na1  1  0.50000000  0.20062735  0.75000000  1
  Sc  Sc1  1  0.50000000  0.40337634  0.25000000  1
  Sc  Sc1  1  0.50000000  0.59662366  0.75000000  1
  Ge  Ge1  1  0.71257789  0.09265776  0.26144096  1
  Ge  Ge1  1  0.28742211  0.09265776  0.23855904  1
  Ge  Ge1  1  0.28742211  0.90734224  0.73855904  1
  Ge  Ge1  1  0.71257789  0.90734224  0.76144096  1
  O  O1  1  0.63699009  0.99871589  0.96873690  1
  O  O1  1  0.36300991  0.99871589  0.53126310  1
  O  O1  1  0.36300991  0.00128411  0.03126310  1
  O  O1  1  0.63699009  0.00128411  0.46873690  1
  O  O2  1  0.64323979  0.73038423  0.69715304  1
  O  O2  1  0.35676021  0.73038423  0.80284696  1
  O  O2  1  0.35676021  0.26961577  0.30284696  1
  O  O2  1  0.64323979  0.26961577  0.19715304  1
  O  O3  1  0.89370836  0.08308222  0.36313642  1
  O  O3  1  0.10629164  0.08308222  0.13686358  1
  O  O3  1  0.10629164  0.91691778  0.63686358  1
  O  O3  1  0.89370836  0.91691778  0.86313642  1
