# generated using pymatgen
data_NaScO2
_symmetry_space_group_name_H-M   'P 1'
_cell_length_a   3.13007239
_cell_length_b   3.13007239
_cell_length_c   16.03776249
_cell_angle_alpha   90.00000000
_cell_angle_beta   90.00000000
_cell_angle_gamma   120.00000000
_symmetry_Int_Tables_number   1
_chemical_formula_structural   NaScO2
_chemical_formula_sum   'Na3 Sc3 O6'
_cell_volume   136.07651343
_cell_formula_units_Z   3
loop_
 _symmetry_equiv_pos_site_id
 _symmetry_equiv_pos_as_xyz
  1  'x, y, z'
loop_
 _atom_site_type_symbol
 _atom_site_label
 _atom_site_symmetry_multiplicity
 _atom_site_fract_x
 _atom_site_fract_y
 _atom_site_fract_z
 _atom_site_occupancy
  Na  Na1  1  0.66666667  0.33333333  0.83333333  1
  Sc  Sc1  1  0.00000000  0.00000000  0.00000000  1
  O  O1  1  0.33333333  0.66666667  0.93122727  1
  O  O1  1  0.00000000  0.00000000  0.73543940  1
  Na  Na1  1  0.33333333  0.66666667  0.16666667  1
  Sc  Sc1  1  0.66666667  0.33333333  0.33333333  1
  O  O1  1  0.00000000  0.00000000  0.26456060  1
  O  O1  1  0.66666667  0.33333333  0.06877273  1
  Na  Na1  1  -0.00000000  -0.00000000  0.50000000  1
  Sc  Sc1  1  0.33333333  0.66666667  0.66666667  1
  O  O1  1  0.66666667  0.33333333  0.59789393  1
  O  O1  1  0.33333333  0.66666667  0.40210607  1
