# generated using pymatgen
data_NaSc(WO4)2
_symmetry_space_group_name_H-M   'P 1'
_cell_length_a   9.99176510
_cell_length_b   5.75528650
_cell_length_c   5.00764513
_cell_angle_alpha   90.00000000
_cell_angle_beta   91.04737354
_cell_angle_gamma   90.00000000
_symmetry_Int_Tables_number   1
_chemical_formula_structural   NaSc(WO4)2
_chemical_formula_sum   'Na2 Sc2 W4 O16'
_cell_volume   287.91887819
_cell_formula_units_Z   2
loop_
 _symmetry_equiv_pos_site_id
 _symmetry_equiv_pos_as_xyz
  1  'x, y, z'
loop_
 _atom_site_type_symbol
 _atom_site_label
 _atom_site_symmetry_multiplicity
 _atom_site_fract_x
 _atom_site_fract_y
 _atom_site_fract_z
 _atom_site_occupancy
  Na  Na1  1  0.50000000  0.31523464  0.25000000  1
  Na  Na1  1  0.50000000  0.68476536  0.75000000  1
  Sc  Sc1  1  0.00000000  0.31984964  0.25000000  1
  Sc  Sc1  1  0.00000000  0.68015036  0.75000000  1
  W  W1  1  0.24261407  0.17962102  0.74906346  1
  W  W1  1  0.75738593  0.82037898  0.25093654  1
  W  W1  1  0.75738593  0.17962102  0.75093654  1
  W  W1  1  0.24261407  0.82037898  0.24906346  1
  O  O1  1  0.35927914  0.62454728  0.38009850  1
  O  O1  1  0.64072086  0.37545272  0.61990150  1
  O  O1  1  0.64072086  0.62454728  0.11990150  1
  O  O1  1  0.35927914  0.37545272  0.88009850  1
  O  O2  1  0.33406306  0.09437726  0.43986978  1
  O  O2  1  0.66593694  0.90562274  0.56013022  1
  O  O2  1  0.66593694  0.09437726  0.06013022  1
  O  O2  1  0.33406306  0.90562274  0.93986978  1
  O  O3  1  0.13078423  0.11252456  0.05765486  1
  O  O3  1  0.86921577  0.88747544  0.94234514  1
  O  O3  1  0.86921577  0.11252456  0.44234514  1
  O  O3  1  0.13078423  0.88747544  0.55765486  1
  O  O4  1  0.11279631  0.62216748  0.09918558  1
  O  O4  1  0.88720369  0.37783252  0.90081442  1
  O  O4  1  0.88720369  0.62216748  0.40081442  1
  O  O4  1  0.11279631  0.37783252  0.59918558  1
