# generated using pymatgen
data_NaSr3SbO6
_symmetry_space_group_name_H-M   'P 1'
_cell_length_a   9.74475437
_cell_length_b   9.74475437
_cell_length_c   11.54482908
_cell_angle_alpha   90.00000000
_cell_angle_beta   90.00000000
_cell_angle_gamma   120.00000000
_symmetry_Int_Tables_number   1
_chemical_formula_structural   NaSr3SbO6
_chemical_formula_sum   'Na6 Sr18 Sb6 O36'
_cell_volume   949.42340249
_cell_formula_units_Z   6
loop_
 _symmetry_equiv_pos_site_id
 _symmetry_equiv_pos_as_xyz
  1  'x, y, z'
loop_
 _atom_site_type_symbol
 _atom_site_label
 _atom_site_symmetry_multiplicity
 _atom_site_fract_x
 _atom_site_fract_y
 _atom_site_fract_z
 _atom_site_occupancy
  Na  Na1  1  0.00000000  0.00000000  0.75000000  1
  Na  Na1  1  0.00000000  0.00000000  0.25000000  1
  Sr  Sr1  1  0.33333333  0.31530221  0.41666667  1
  Sr  Sr1  1  0.68469779  0.01803112  0.41666667  1
  Sr  Sr1  1  0.01803112  0.33333333  0.58333333  1
  Sr  Sr1  1  0.66666667  0.68469779  0.58333333  1
  Sr  Sr1  1  0.31530221  0.98196888  0.58333333  1
  Sr  Sr1  1  0.98196888  0.66666667  0.41666667  1
  Sb  Sb1  1  0.00000000  0.00000000  0.50000000  1
  Sb  Sb1  1  0.00000000  0.00000000  0.00000000  1
  O  O1  1  0.84697360  0.35857459  0.43408223  1
  O  O1  1  0.64142541  0.48839901  0.43408223  1
  O  O1  1  0.51160099  0.15302640  0.43408223  1
  O  O1  1  0.15506567  0.97475874  0.39925111  1
  O  O1  1  0.02524126  0.18030693  0.39925111  1
  O  O1  1  0.81969307  0.84493433  0.39925111  1
  O  O1  1  0.15302640  0.64142541  0.56591777  1
  O  O1  1  0.35857459  0.51160099  0.56591777  1
  O  O1  1  0.48839901  0.84697360  0.56591777  1
  O  O1  1  0.84493433  0.02524126  0.60074889  1
  O  O1  1  0.18030693  0.15506567  0.60074889  1
  O  O1  1  0.97475874  0.81969307  0.60074889  1
  Na  Na1  1  0.66666667  0.33333333  0.08333333  1
  Na  Na1  1  0.66666667  0.33333333  0.58333333  1
  Sr  Sr1  1  0.00000000  0.64863555  0.75000000  1
  Sr  Sr1  1  0.35136445  0.35136445  0.75000000  1
  Sr  Sr1  1  0.68469779  0.66666667  0.91666667  1
  Sr  Sr1  1  0.33333333  0.01803112  0.91666667  1
  Sr  Sr1  1  0.98196888  0.31530221  0.91666667  1
  Sr  Sr1  1  0.64863555  0.00000000  0.75000000  1
  Sb  Sb1  1  0.66666667  0.33333333  0.83333333  1
  Sb  Sb1  1  0.66666667  0.33333333  0.33333333  1
  O  O1  1  0.51364026  0.69190792  0.76741556  1
  O  O1  1  0.30809208  0.82173234  0.76741556  1
  O  O1  1  0.17826766  0.48635974  0.76741556  1
  O  O1  1  0.82173234  0.30809208  0.73258444  1
  O  O1  1  0.69190792  0.51364026  0.73258444  1
  O  O1  1  0.48635974  0.17826766  0.73258444  1
  O  O1  1  0.81969307  0.97475874  0.89925111  1
  O  O1  1  0.02524126  0.84493433  0.89925111  1
  O  O1  1  0.15506567  0.18030693  0.89925111  1
  O  O1  1  0.51160099  0.35857459  0.93408223  1
  O  O1  1  0.84697360  0.48839901  0.93408223  1
  O  O1  1  0.64142541  0.15302640  0.93408223  1
  Na  Na1  1  0.33333333  0.66666667  0.41666667  1
  Na  Na1  1  0.33333333  0.66666667  0.91666667  1
  Sr  Sr1  1  0.66666667  0.98196888  0.08333333  1
  Sr  Sr1  1  0.01803112  0.68469779  0.08333333  1
  Sr  Sr1  1  0.35136445  0.00000000  0.25000000  1
  Sr  Sr1  1  0.00000000  0.35136445  0.25000000  1
  Sr  Sr1  1  0.64863555  0.64863555  0.25000000  1
  Sr  Sr1  1  0.31530221  0.33333333  0.08333333  1
  Sb  Sb1  1  0.33333333  0.66666667  0.16666667  1
  Sb  Sb1  1  0.33333333  0.66666667  0.66666667  1
  O  O1  1  0.18030693  0.02524126  0.10074889  1
  O  O1  1  0.97475874  0.15506567  0.10074889  1
  O  O1  1  0.84493433  0.81969307  0.10074889  1
  O  O1  1  0.48839901  0.64142541  0.06591777  1
  O  O1  1  0.35857459  0.84697360  0.06591777  1
  O  O1  1  0.15302640  0.51160099  0.06591777  1
  O  O1  1  0.48635974  0.30809208  0.23258444  1
  O  O1  1  0.69190792  0.17826766  0.23258444  1
  O  O1  1  0.82173234  0.51364026  0.23258444  1
  O  O1  1  0.17826766  0.69190792  0.26741556  1
  O  O1  1  0.51364026  0.82173234  0.26741556  1
  O  O1  1  0.30809208  0.48635974  0.26741556  1
