# generated using pymatgen
data_NaSr3NbO6
_symmetry_space_group_name_H-M   'P 1'
_cell_length_a   9.75235969
_cell_length_b   9.75235969
_cell_length_c   11.53829688
_cell_angle_alpha   90.00000000
_cell_angle_beta   90.00000000
_cell_angle_gamma   120.00000000
_symmetry_Int_Tables_number   1
_chemical_formula_structural   NaSr3NbO6
_chemical_formula_sum   'Na6 Sr18 Nb6 O36'
_cell_volume   950.36790718
_cell_formula_units_Z   6
loop_
 _symmetry_equiv_pos_site_id
 _symmetry_equiv_pos_as_xyz
  1  'x, y, z'
loop_
 _atom_site_type_symbol
 _atom_site_label
 _atom_site_symmetry_multiplicity
 _atom_site_fract_x
 _atom_site_fract_y
 _atom_site_fract_z
 _atom_site_occupancy
  Na  Na1  1  0.00000000  0.00000000  0.75000000  1
  Na  Na1  1  0.00000000  0.00000000  0.25000000  1
  Sr  Sr1  1  0.68615991  0.66666667  0.41666667  1
  Sr  Sr1  1  0.33333333  0.01949324  0.41666667  1
  Sr  Sr1  1  0.98050676  0.31384009  0.41666667  1
  Sr  Sr1  1  0.31384009  0.33333333  0.58333333  1
  Sr  Sr1  1  0.66666667  0.98050676  0.58333333  1
  Sr  Sr1  1  0.01949324  0.68615991  0.58333333  1
  Nb  Nb1  1  0.00000000  0.00000000  0.00000000  1
  Nb  Nb1  1  0.00000000  0.00000000  0.50000000  1
  O  O1  1  0.48830077  0.64068773  0.56586255  1
  O  O1  1  0.35931227  0.84761304  0.56586255  1
  O  O1  1  0.15238696  0.51169923  0.56586255  1
  O  O1  1  0.18094637  0.02597893  0.60080411  1
  O  O1  1  0.97402107  0.15496744  0.60080411  1
  O  O1  1  0.84503256  0.81905363  0.60080411  1
  O  O1  1  0.51169923  0.35931227  0.43413745  1
  O  O1  1  0.64068773  0.15238696  0.43413745  1
  O  O1  1  0.84761304  0.48830077  0.43413745  1
  O  O1  1  0.81905363  0.97402107  0.39919589  1
  O  O1  1  0.15496744  0.18094637  0.39919589  1
  O  O1  1  0.02597893  0.84503256  0.39919589  1
  Na  Na1  1  0.66666667  0.33333333  0.08333333  1
  Na  Na1  1  0.66666667  0.33333333  0.58333333  1
  Sr  Sr1  1  0.35282657  0.00000000  0.75000000  1
  Sr  Sr1  1  0.00000000  0.35282657  0.75000000  1
  Sr  Sr1  1  0.64717343  0.64717343  0.75000000  1
  Sr  Sr1  1  0.98050676  0.66666667  0.91666667  1
  Sr  Sr1  1  0.33333333  0.31384009  0.91666667  1
  Sr  Sr1  1  0.68615991  0.01949324  0.91666667  1
  Nb  Nb1  1  0.66666667  0.33333333  0.33333333  1
  Nb  Nb1  1  0.66666667  0.33333333  0.83333333  1
  O  O1  1  0.15496744  0.97402107  0.89919589  1
  O  O1  1  0.02597893  0.18094637  0.89919589  1
  O  O1  1  0.81905363  0.84503256  0.89919589  1
  O  O1  1  0.84761304  0.35931227  0.93413745  1
  O  O1  1  0.64068773  0.48830077  0.93413745  1
  O  O1  1  0.51169923  0.15238696  0.93413745  1
  O  O1  1  0.17836589  0.69264560  0.76747078  1
  O  O1  1  0.30735440  0.48572029  0.76747078  1
  O  O1  1  0.51427971  0.82163411  0.76747078  1
  O  O1  1  0.48572029  0.30735440  0.73252922  1
  O  O1  1  0.82163411  0.51427971  0.73252922  1
  O  O1  1  0.69264560  0.17836589  0.73252922  1
  Na  Na1  1  0.33333333  0.66666667  0.41666667  1
  Na  Na1  1  0.33333333  0.66666667  0.91666667  1
  Sr  Sr1  1  0.01949324  0.33333333  0.08333333  1
  Sr  Sr1  1  0.66666667  0.68615991  0.08333333  1
  Sr  Sr1  1  0.31384009  0.98050676  0.08333333  1
  Sr  Sr1  1  0.64717343  0.00000000  0.25000000  1
  Sr  Sr1  1  0.00000000  0.64717343  0.25000000  1
  Sr  Sr1  1  0.35282657  0.35282657  0.25000000  1
  Nb  Nb1  1  0.33333333  0.66666667  0.66666667  1
  Nb  Nb1  1  0.33333333  0.66666667  0.16666667  1
  O  O1  1  0.82163411  0.30735440  0.23252922  1
  O  O1  1  0.69264560  0.51427971  0.23252922  1
  O  O1  1  0.48572029  0.17836589  0.23252922  1
  O  O1  1  0.51427971  0.69264560  0.26747078  1
  O  O1  1  0.30735440  0.82163411  0.26747078  1
  O  O1  1  0.17836589  0.48572029  0.26747078  1
  O  O1  1  0.84503256  0.02597893  0.10080411  1
  O  O1  1  0.97402107  0.81905363  0.10080411  1
  O  O1  1  0.18094637  0.15496744  0.10080411  1
  O  O1  1  0.15238696  0.64068773  0.06586255  1
  O  O1  1  0.48830077  0.84761304  0.06586255  1
  O  O1  1  0.35931227  0.51169923  0.06586255  1
