# generated using pymatgen
data_NaSr3BiO6
_symmetry_space_group_name_H-M   'P 1'
_cell_length_a   9.93020455
_cell_length_b   9.93020455
_cell_length_c   11.71147831
_cell_angle_alpha   90.00000000
_cell_angle_beta   90.00000000
_cell_angle_gamma   120.00000000
_symmetry_Int_Tables_number   1
_chemical_formula_structural   NaSr3BiO6
_chemical_formula_sum   'Na6 Sr18 Bi6 O36'
_cell_volume   1000.13526104
_cell_formula_units_Z   6
loop_
 _symmetry_equiv_pos_site_id
 _symmetry_equiv_pos_as_xyz
  1  'x, y, z'
loop_
 _atom_site_type_symbol
 _atom_site_label
 _atom_site_symmetry_multiplicity
 _atom_site_fract_x
 _atom_site_fract_y
 _atom_site_fract_z
 _atom_site_occupancy
  Na  Na1  1  0.00000000  0.00000000  0.25000000  1
  Na  Na1  1  0.00000000  0.00000000  0.75000000  1
  Sr  Sr1  1  0.33333333  0.01725052  0.41666667  1
  Sr  Sr1  1  0.31608281  0.33333333  0.58333333  1
  Sr  Sr1  1  0.68391719  0.66666667  0.41666667  1
  Sr  Sr1  1  0.66666667  0.98274948  0.58333333  1
  Sr  Sr1  1  0.98274948  0.31608281  0.41666667  1
  Sr  Sr1  1  0.01725052  0.68391719  0.58333333  1
  Bi  Bi1  1  0.00000000  0.00000000  0.00000000  1
  Bi  Bi1  1  0.00000000  0.00000000  0.50000000  1
  O  O1  1  0.96943428  0.15825677  0.60409985  1
  O  O1  1  0.18882249  0.03056572  0.60409985  1
  O  O1  1  0.81117751  0.96943428  0.39590015  1
  O  O1  1  0.63610095  0.14451084  0.43743319  1
  O  O1  1  0.15825677  0.18882249  0.39590015  1
  O  O1  1  0.03056572  0.84174323  0.39590015  1
  O  O1  1  0.50840990  0.36389905  0.43743319  1
  O  O1  1  0.85548916  0.49159010  0.43743319  1
  O  O1  1  0.36389905  0.85548916  0.56256681  1
  O  O1  1  0.84174323  0.81117751  0.60409985  1
  O  O1  1  0.49159010  0.63610095  0.56256681  1
  O  O1  1  0.14451084  0.50840990  0.56256681  1
  Na  Na1  1  0.66666667  0.33333333  0.58333333  1
  Na  Na1  1  0.66666667  0.33333333  0.08333333  1
  Sr  Sr1  1  0.00000000  0.35058385  0.75000000  1
  Sr  Sr1  1  0.98274948  0.66666667  0.91666667  1
  Sr  Sr1  1  0.35058385  0.00000000  0.75000000  1
  Sr  Sr1  1  0.33333333  0.31608281  0.91666667  1
  Sr  Sr1  1  0.64941615  0.64941615  0.75000000  1
  Sr  Sr1  1  0.68391719  0.01725052  0.91666667  1
  Bi  Bi1  1  0.66666667  0.33333333  0.33333333  1
  Bi  Bi1  1  0.66666667  0.33333333  0.83333333  1
  O  O1  1  0.63610095  0.49159010  0.93743319  1
  O  O1  1  0.85548916  0.36389905  0.93743319  1
  O  O1  1  0.47784418  0.30276761  0.72923348  1
  O  O1  1  0.30276761  0.47784418  0.77076652  1
  O  O1  1  0.82492344  0.52215582  0.72923348  1
  O  O1  1  0.69723239  0.17507656  0.72923348  1
  O  O1  1  0.17507656  0.69723239  0.77076652  1
  O  O1  1  0.52215582  0.82492344  0.77076652  1
  O  O1  1  0.03056572  0.18882249  0.89590015  1
  O  O1  1  0.50840990  0.14451084  0.93743319  1
  O  O1  1  0.15825677  0.96943428  0.89590015  1
  O  O1  1  0.81117751  0.84174323  0.89590015  1
  Na  Na1  1  0.33333333  0.66666667  0.91666667  1
  Na  Na1  1  0.33333333  0.66666667  0.41666667  1
  Sr  Sr1  1  0.66666667  0.68391719  0.08333333  1
  Sr  Sr1  1  0.64941615  0.00000000  0.25000000  1
  Sr  Sr1  1  0.01725052  0.33333333  0.08333333  1
  Sr  Sr1  1  0.00000000  0.64941615  0.25000000  1
  Sr  Sr1  1  0.31608281  0.98274948  0.08333333  1
  Sr  Sr1  1  0.35058385  0.35058385  0.25000000  1
  Bi  Bi1  1  0.33333333  0.66666667  0.66666667  1
  Bi  Bi1  1  0.33333333  0.66666667  0.16666667  1
  O  O1  1  0.30276761  0.82492344  0.27076652  1
  O  O1  1  0.52215582  0.69723239  0.27076652  1
  O  O1  1  0.14451084  0.63610095  0.06256681  1
  O  O1  1  0.96943428  0.81117751  0.10409985  1
  O  O1  1  0.49159010  0.85548916  0.06256681  1
  O  O1  1  0.36389905  0.50840990  0.06256681  1
  O  O1  1  0.84174323  0.03056572  0.10409985  1
  O  O1  1  0.18882249  0.15825677  0.10409985  1
  O  O1  1  0.69723239  0.52215582  0.22923348  1
  O  O1  1  0.17507656  0.47784418  0.27076652  1
  O  O1  1  0.82492344  0.30276761  0.22923348  1
  O  O1  1  0.47784418  0.17507656  0.22923348  1
