# generated using pymatgen
data_NaSr3TaO6
_symmetry_space_group_name_H-M   'P 1'
_cell_length_a   9.74012671
_cell_length_b   9.74012671
_cell_length_c   11.52560597
_cell_angle_alpha   90.00000000
_cell_angle_beta   90.00000000
_cell_angle_gamma   120.00000000
_symmetry_Int_Tables_number   1
_chemical_formula_structural   NaSr3TaO6
_chemical_formula_sum   'Na6 Sr18 Ta6 O36'
_cell_volume   946.94250980
_cell_formula_units_Z   6
loop_
 _symmetry_equiv_pos_site_id
 _symmetry_equiv_pos_as_xyz
  1  'x, y, z'
loop_
 _atom_site_type_symbol
 _atom_site_label
 _atom_site_symmetry_multiplicity
 _atom_site_fract_x
 _atom_site_fract_y
 _atom_site_fract_z
 _atom_site_occupancy
  Na  Na1  1  0.00000000  0.00000000  0.25000000  1
  Na  Na1  1  0.00000000  0.00000000  0.75000000  1
  Sr  Sr1  1  0.01845162  0.68511828  0.58333333  1
  Sr  Sr1  1  0.31488172  0.33333333  0.58333333  1
  Sr  Sr1  1  0.66666667  0.98154838  0.58333333  1
  Sr  Sr1  1  0.98154838  0.31488172  0.41666667  1
  Sr  Sr1  1  0.68511828  0.66666667  0.41666667  1
  Sr  Sr1  1  0.33333333  0.01845162  0.41666667  1
  Ta  Ta1  1  0.00000000  0.00000000  0.50000000  1
  Ta  Ta1  1  0.00000000  0.00000000  0.00000000  1
  O  O1  1  0.82025741  0.97435779  0.39979628  1
  O  O1  1  0.02564221  0.84589962  0.39979628  1
  O  O1  1  0.15410038  0.17974259  0.39979628  1
  O  O1  1  0.51256629  0.35897554  0.43353706  1
  O  O1  1  0.64102446  0.15359075  0.43353706  1
  O  O1  1  0.84640925  0.48743371  0.43353706  1
  O  O1  1  0.17974259  0.02564221  0.60020372  1
  O  O1  1  0.97435779  0.15410038  0.60020372  1
  O  O1  1  0.84589962  0.82025741  0.60020372  1
  O  O1  1  0.48743371  0.64102446  0.56646294  1
  O  O1  1  0.15359075  0.51256629  0.56646294  1
  O  O1  1  0.35897554  0.84640925  0.56646294  1
  Na  Na1  1  0.66666667  0.33333333  0.58333333  1
  Na  Na1  1  0.66666667  0.33333333  0.08333333  1
  Sr  Sr1  1  0.68511828  0.01845162  0.91666667  1
  Sr  Sr1  1  0.98154838  0.66666667  0.91666667  1
  Sr  Sr1  1  0.33333333  0.31488172  0.91666667  1
  Sr  Sr1  1  0.64821505  0.64821505  0.75000000  1
  Sr  Sr1  1  0.35178495  0.00000000  0.75000000  1
  Sr  Sr1  1  -0.00000000  0.35178495  0.75000000  1
  Ta  Ta1  1  0.66666667  0.33333333  0.83333333  1
  Ta  Ta1  1  0.66666667  0.33333333  0.33333333  1
  O  O1  1  0.48692408  0.30769113  0.73312961  1
  O  O1  1  0.69230887  0.17923295  0.73312961  1
  O  O1  1  0.82076705  0.51307592  0.73312961  1
  O  O1  1  0.17923295  0.69230887  0.76687039  1
  O  O1  1  0.30769113  0.48692408  0.76687039  1
  O  O1  1  0.51307592  0.82076705  0.76687039  1
  O  O1  1  0.84640925  0.35897554  0.93353706  1
  O  O1  1  0.64102446  0.48743371  0.93353706  1
  O  O1  1  0.51256629  0.15359075  0.93353706  1
  O  O1  1  0.15410038  0.97435779  0.89979628  1
  O  O1  1  0.82025741  0.84589962  0.89979628  1
  O  O1  1  0.02564221  0.17974259  0.89979628  1
  Na  Na1  1  0.33333333  0.66666667  0.91666667  1
  Na  Na1  1  0.33333333  0.66666667  0.41666667  1
  Sr  Sr1  1  0.35178495  0.35178495  0.25000000  1
  Sr  Sr1  1  0.64821505  -0.00000000  0.25000000  1
  Sr  Sr1  1  0.00000000  0.64821505  0.25000000  1
  Sr  Sr1  1  0.31488172  0.98154838  0.08333333  1
  Sr  Sr1  1  0.01845162  0.33333333  0.08333333  1
  Sr  Sr1  1  0.66666667  0.68511828  0.08333333  1
  Ta  Ta1  1  0.33333333  0.66666667  0.16666667  1
  Ta  Ta1  1  0.33333333  0.66666667  0.66666667  1
  O  O1  1  0.15359075  0.64102446  0.06646294  1
  O  O1  1  0.35897554  0.51256629  0.06646294  1
  O  O1  1  0.48743371  0.84640925  0.06646294  1
  O  O1  1  0.84589962  0.02564221  0.10020372  1
  O  O1  1  0.97435779  0.82025741  0.10020372  1
  O  O1  1  0.17974259  0.15410038  0.10020372  1
  O  O1  1  0.51307592  0.69230887  0.26687039  1
  O  O1  1  0.30769113  0.82076705  0.26687039  1
  O  O1  1  0.17923295  0.48692408  0.26687039  1
  O  O1  1  0.82076705  0.30769113  0.23312961  1
  O  O1  1  0.48692408  0.17923295  0.23312961  1
  O  O1  1  0.69230887  0.51307592  0.23312961  1
