# generated using pymatgen
data_NaTaGeO5
_symmetry_space_group_name_H-M   'P 1'
_cell_length_a   6.84357885
_cell_length_b   8.96080053
_cell_length_c   7.43267579
_cell_angle_alpha   90.00000000
_cell_angle_beta   114.76811461
_cell_angle_gamma   90.00000000
_symmetry_Int_Tables_number   1
_chemical_formula_structural   NaTaGeO5
_chemical_formula_sum   'Na4 Ta4 Ge4 O20'
_cell_volume   413.87221590
_cell_formula_units_Z   4
loop_
 _symmetry_equiv_pos_site_id
 _symmetry_equiv_pos_as_xyz
  1  'x, y, z'
loop_
 _atom_site_type_symbol
 _atom_site_label
 _atom_site_symmetry_multiplicity
 _atom_site_fract_x
 _atom_site_fract_y
 _atom_site_fract_z
 _atom_site_occupancy
  Na  Na1  1  0.50000000  0.17474480  0.75000000  1
  Na  Na1  1  0.50000000  0.82525520  0.25000000  1
  Ta  Ta1  1  0.00000000  0.00000000  0.00000000  1
  Ta  Ta1  1  0.00000000  0.00000000  0.50000000  1
  Ge  Ge1  1  0.50000000  0.18387654  0.25000000  1
  Ge  Ge1  1  0.50000000  0.81612346  0.75000000  1
  O  O1  1  0.50000000  0.56632608  0.25000000  1
  O  O1  1  0.50000000  0.43367392  0.75000000  1
  O  O2  1  0.39761920  0.70432486  0.88906854  1
  O  O2  1  0.60238080  0.70432486  0.61093146  1
  O  O2  1  0.60238080  0.29567514  0.11093146  1
  O  O2  1  0.39761920  0.29567514  0.38906854  1
  O  O3  1  0.30384356  0.06052800  0.08500554  1
  O  O3  1  0.69615644  0.06052800  0.41499446  1
  O  O3  1  0.69615644  0.93947200  0.91499446  1
  O  O3  1  0.30384356  0.93947200  0.58500554  1
  Na  Na1  1  0.00000000  0.67474480  0.75000000  1
  Na  Na1  1  0.00000000  0.32525520  0.25000000  1
  Ta  Ta1  1  0.50000000  0.50000000  0.00000000  1
  Ta  Ta1  1  0.50000000  0.50000000  0.50000000  1
  Ge  Ge1  1  0.00000000  0.68387654  0.25000000  1
  Ge  Ge1  1  0.00000000  0.31612346  0.75000000  1
  O  O1  1  0.00000000  0.06632608  0.25000000  1
  O  O1  1  0.00000000  0.93367392  0.75000000  1
  O  O2  1  0.89761920  0.20432486  0.88906854  1
  O  O2  1  0.10238080  0.20432486  0.61093146  1
  O  O2  1  0.10238080  0.79567514  0.11093146  1
  O  O2  1  0.89761920  0.79567514  0.38906854  1
  O  O3  1  0.80384356  0.56052800  0.08500554  1
  O  O3  1  0.19615644  0.56052800  0.41499446  1
  O  O3  1  0.19615644  0.43947200  0.91499446  1
  O  O3  1  0.80384356  0.43947200  0.58500554  1
