# generated using pymatgen
data_NaVCdO4
_symmetry_space_group_name_H-M   'P 1'
_cell_length_a   5.82962772
_cell_length_b   9.13352700
_cell_length_c   7.00254962
_cell_angle_alpha   90.00000000
_cell_angle_beta   90.00000000
_cell_angle_gamma   90.00000000
_symmetry_Int_Tables_number   1
_chemical_formula_structural   NaVCdO4
_chemical_formula_sum   'Na4 V4 Cd4 O16'
_cell_volume   372.85118926
_cell_formula_units_Z   4
loop_
 _symmetry_equiv_pos_site_id
 _symmetry_equiv_pos_as_xyz
  1  'x, y, z'
loop_
 _atom_site_type_symbol
 _atom_site_label
 _atom_site_symmetry_multiplicity
 _atom_site_fract_x
 _atom_site_fract_y
 _atom_site_fract_z
 _atom_site_occupancy
  Na  Na1  1  0.00000000  0.68051420  0.75000000  1
  Na  Na1  1  0.00000000  0.31948580  0.25000000  1
  V  V1  1  0.00000000  0.64921272  0.25000000  1
  V  V1  1  0.00000000  0.35078728  0.75000000  1
  Cd  Cd1  1  0.00000000  0.00000000  0.00000000  1
  Cd  Cd1  1  0.00000000  0.00000000  0.50000000  1
  O  O1  1  0.24263348  0.46443870  0.75000000  1
  O  O1  1  0.75736652  0.53556130  0.25000000  1
  O  O1  1  0.24263348  0.53556130  0.25000000  1
  O  O1  1  0.75736652  0.46443870  0.75000000  1
  O  O2  1  0.00000000  0.75774308  0.05350042  1
  O  O2  1  0.00000000  0.24225692  0.55350042  1
  O  O2  1  0.00000000  0.75774308  0.44649958  1
  O  O2  1  0.00000000  0.24225692  0.94649958  1
  Na  Na1  1  0.50000000  0.18051420  0.75000000  1
  Na  Na1  1  0.50000000  0.81948580  0.25000000  1
  V  V1  1  0.50000000  0.14921272  0.25000000  1
  V  V1  1  0.50000000  0.85078728  0.75000000  1
  Cd  Cd1  1  0.50000000  0.50000000  0.00000000  1
  Cd  Cd1  1  0.50000000  0.50000000  0.50000000  1
  O  O1  1  0.74263348  0.96443870  0.75000000  1
  O  O1  1  0.25736652  0.03556130  0.25000000  1
  O  O1  1  0.74263348  0.03556130  0.25000000  1
  O  O1  1  0.25736652  0.96443870  0.75000000  1
  O  O2  1  0.50000000  0.25774308  0.05350042  1
  O  O2  1  0.50000000  0.74225692  0.55350042  1
  O  O2  1  0.50000000  0.25774308  0.44649958  1
  O  O2  1  0.50000000  0.74225692  0.94649958  1
