# generated using pymatgen
data_NaVO3
_symmetry_space_group_name_H-M   'P 1'
_cell_length_a   10.64085425
_cell_length_b   9.42396702
_cell_length_c   5.90135800
_cell_angle_alpha   90.00000000
_cell_angle_beta   110.40883484
_cell_angle_gamma   90.00000000
_symmetry_Int_Tables_number   1
_chemical_formula_structural   NaVO3
_chemical_formula_sum   'Na8 V8 O24'
_cell_volume   554.63538613
_cell_formula_units_Z   8
loop_
 _symmetry_equiv_pos_site_id
 _symmetry_equiv_pos_as_xyz
  1  'x, y, z'
loop_
 _atom_site_type_symbol
 _atom_site_label
 _atom_site_symmetry_multiplicity
 _atom_site_fract_x
 _atom_site_fract_y
 _atom_site_fract_z
 _atom_site_occupancy
  Na  Na1  1  0.00000000  0.08795086  0.25000000  1
  Na  Na1  1  0.00000000  0.91204914  0.75000000  1
  Na  Na2  1  0.00000000  0.71954638  0.25000000  1
  Na  Na2  1  0.00000000  0.28045362  0.75000000  1
  V  V1  1  0.79227660  0.41105294  0.27193627  1
  V  V1  1  0.79227660  0.58894706  0.77193627  1
  V  V1  1  0.20772340  0.41105294  0.22806373  1
  V  V1  1  0.20772340  0.58894706  0.72806373  1
  O  O1  1  0.14759134  0.50181000  0.43928198  1
  O  O1  1  0.14759134  0.49819000  0.93928198  1
  O  O2  1  0.14147284  0.25024948  0.17428306  1
  O  O2  1  0.14147284  0.74975052  0.67428306  1
  O  O3  1  0.37459124  0.40002758  0.33425791  1
  O  O3  1  0.37459124  0.59997242  0.83425791  1
  O  O3  1  0.62540876  0.40002758  0.16574209  1
  O  O3  1  0.62540876  0.59997242  0.66574209  1
  O  O2  1  0.85852716  0.25024948  0.32571694  1
  O  O2  1  0.85852716  0.74975052  0.82571694  1
  O  O1  1  0.85240866  0.50181000  0.06071802  1
  O  O1  1  0.85240866  0.49819000  0.56071802  1
  Na  Na1  1  0.50000000  0.58795086  0.25000000  1
  Na  Na1  1  0.50000000  0.41204914  0.75000000  1
  Na  Na2  1  0.50000000  0.21954638  0.25000000  1
  Na  Na2  1  0.50000000  0.78045362  0.75000000  1
  V  V1  1  0.29227660  0.91105294  0.27193627  1
  V  V1  1  0.29227660  0.08894706  0.77193627  1
  V  V1  1  0.70772340  0.91105294  0.22806373  1
  V  V1  1  0.70772340  0.08894706  0.72806373  1
  O  O1  1  0.64759134  0.00181000  0.43928198  1
  O  O1  1  0.64759134  0.99819000  0.93928198  1
  O  O2  1  0.64147284  0.75024948  0.17428306  1
  O  O2  1  0.64147284  0.24975052  0.67428306  1
  O  O3  1  0.87459124  0.90002758  0.33425791  1
  O  O3  1  0.87459124  0.09997242  0.83425791  1
  O  O3  1  0.12540876  0.90002758  0.16574209  1
  O  O3  1  0.12540876  0.09997242  0.66574209  1
  O  O2  1  0.35852716  0.75024948  0.32571694  1
  O  O2  1  0.35852716  0.24975052  0.82571694  1
  O  O1  1  0.35240866  0.00181000  0.06071802  1
  O  O1  1  0.35240866  0.99819000  0.56071802  1
