# generated using pymatgen
data_NaYGeO4
_symmetry_space_group_name_H-M   'P 1'
_cell_length_a   11.41050685
_cell_length_b   6.41646145
_cell_length_c   5.26554487
_cell_angle_alpha   90.00000000
_cell_angle_beta   90.00000000
_cell_angle_gamma   90.00000000
_symmetry_Int_Tables_number   1
_chemical_formula_structural   NaYGeO4
_chemical_formula_sum   'Na4 Y4 Ge4 O16'
_cell_volume   385.51727490
_cell_formula_units_Z   4
loop_
 _symmetry_equiv_pos_site_id
 _symmetry_equiv_pos_as_xyz
  1  'x, y, z'
loop_
 _atom_site_type_symbol
 _atom_site_label
 _atom_site_symmetry_multiplicity
 _atom_site_fract_x
 _atom_site_fract_y
 _atom_site_fract_z
 _atom_site_occupancy
  Na  Na1  1  0.50000000  0.50000000  0.50000000  1
  Na  Na1  1  0.50000000  0.00000000  0.50000000  1
  Na  Na1  1  0.00000000  0.50000000  0.00000000  1
  Na  Na1  1  0.00000000  0.00000000  0.00000000  1
  Y  Y1  1  0.22334021  0.25000000  0.50447868  1
  Y  Y1  1  0.77665979  0.75000000  0.49552132  1
  Y  Y1  1  0.72334021  0.25000000  0.99552132  1
  Y  Y1  1  0.27665979  0.75000000  0.00447868  1
  Ge  Ge1  1  0.09568998  0.75000000  0.44573590  1
  Ge  Ge1  1  0.59568998  0.75000000  0.05426410  1
  Ge  Ge1  1  0.90431002  0.25000000  0.55426410  1
  Ge  Ge1  1  0.40431002  0.25000000  0.94573590  1
  O  O1  1  0.17357349  0.96080338  0.28865590  1
  O  O1  1  0.32642651  0.03919662  0.78865590  1
  O  O1  1  0.82642651  0.46080338  0.71134410  1
  O  O1  1  0.67357349  0.53919662  0.21134410  1
  O  O1  1  0.82642651  0.03919662  0.71134410  1
  O  O1  1  0.67357349  0.96080338  0.21134410  1
  O  O1  1  0.17357349  0.53919662  0.28865590  1
  O  O1  1  0.32642651  0.46080338  0.78865590  1
  O  O2  1  0.04835464  0.25000000  0.68116544  1
  O  O2  1  0.45164536  0.75000000  0.18116544  1
  O  O2  1  0.95164536  0.75000000  0.31883456  1
  O  O2  1  0.54835464  0.25000000  0.81883456  1
  O  O3  1  0.89171861  0.25000000  0.22138086  1
  O  O3  1  0.60828139  0.75000000  0.72138086  1
  O  O3  1  0.10828139  0.75000000  0.77861914  1
  O  O3  1  0.39171861  0.25000000  0.27861914  1
