# generated using pymatgen
data_NaYO2
_symmetry_space_group_name_H-M   'P 1'
_cell_length_a   6.57013679
_cell_length_b   13.10796444
_cell_length_c   5.89408388
_cell_angle_alpha   90.00000000
_cell_angle_beta   122.93810368
_cell_angle_gamma   90.00000000
_symmetry_Int_Tables_number   1
_chemical_formula_structural   NaYO2
_chemical_formula_sum   'Na8 Y8 O16'
_cell_volume   426.01187033
_cell_formula_units_Z   8
loop_
 _symmetry_equiv_pos_site_id
 _symmetry_equiv_pos_as_xyz
  1  'x, y, z'
loop_
 _atom_site_type_symbol
 _atom_site_label
 _atom_site_symmetry_multiplicity
 _atom_site_fract_x
 _atom_site_fract_y
 _atom_site_fract_z
 _atom_site_occupancy
  Na  Na1  1  0.50000000  0.68070336  0.25000000  1
  Na  Na2  1  0.00000000  0.94393988  0.25000000  1
  Na  Na1  1  0.00000000  0.81929664  0.75000000  1
  Na  Na2  1  0.50000000  0.55606012  0.75000000  1
  Y  Y1  1  0.00000000  0.56711552  0.75000000  1
  Y  Y1  1  0.50000000  0.93288448  0.25000000  1
  Y  Y2  1  0.50000000  0.80702834  0.75000000  1
  Y  Y2  1  0.00000000  0.69297166  0.25000000  1
  O  O1  1  0.79170496  0.56335621  0.29155346  1
  O  O1  1  0.20829504  0.56335621  0.20844654  1
  O  O1  1  0.70829504  0.93664379  0.70844654  1
  O  O1  1  0.29170496  0.93664379  0.79155346  1
  O  O2  1  0.27051888  0.81188766  0.29025258  1
  O  O2  1  0.77051888  0.68811234  0.79025258  1
  O  O2  1  0.22948112  0.68811234  0.70974742  1
  O  O2  1  0.72948112  0.81188766  0.20974742  1
  Na  Na1  1  0.00000000  0.18070336  0.25000000  1
  Na  Na2  1  0.50000000  0.44393988  0.25000000  1
  Na  Na1  1  0.50000000  0.31929664  0.75000000  1
  Na  Na2  1  0.00000000  0.05606012  0.75000000  1
  Y  Y1  1  0.50000000  0.06711552  0.75000000  1
  Y  Y1  1  0.00000000  0.43288448  0.25000000  1
  Y  Y2  1  0.00000000  0.30702834  0.75000000  1
  Y  Y2  1  0.50000000  0.19297166  0.25000000  1
  O  O1  1  0.29170496  0.06335621  0.29155346  1
  O  O1  1  0.70829504  0.06335621  0.20844654  1
  O  O1  1  0.20829504  0.43664379  0.70844654  1
  O  O1  1  0.79170496  0.43664379  0.79155346  1
  O  O2  1  0.77051888  0.31188766  0.29025258  1
  O  O2  1  0.27051888  0.18811234  0.79025258  1
  O  O2  1  0.72948112  0.18811234  0.70974742  1
  O  O2  1  0.22948112  0.31188766  0.20974742  1
