# generated using pymatgen
data_NaYSiO4
_symmetry_space_group_name_H-M   'P 1'
_cell_length_a   11.12944951
_cell_length_b   6.38063500
_cell_length_c   5.10396986
_cell_angle_alpha   90.00000000
_cell_angle_beta   90.00000000
_cell_angle_gamma   90.00000000
_symmetry_Int_Tables_number   1
_chemical_formula_structural   NaYSiO4
_chemical_formula_sum   'Na4 Y4 Si4 O16'
_cell_volume   362.44798208
_cell_formula_units_Z   4
loop_
 _symmetry_equiv_pos_site_id
 _symmetry_equiv_pos_as_xyz
  1  'x, y, z'
loop_
 _atom_site_type_symbol
 _atom_site_label
 _atom_site_symmetry_multiplicity
 _atom_site_fract_x
 _atom_site_fract_y
 _atom_site_fract_z
 _atom_site_occupancy
  Na  Na1  1  0.50000000  0.00000000  0.00000000  1
  Na  Na1  1  0.50000000  0.50000000  0.00000000  1
  Na  Na1  1  0.00000000  0.50000000  0.50000000  1
  Na  Na1  1  0.00000000  0.00000000  0.50000000  1
  Y  Y1  1  0.22026432  0.75000000  0.99960974  1
  Y  Y1  1  0.77973568  0.25000000  0.00039026  1
  Y  Y1  1  0.72026432  0.75000000  0.50039026  1
  Y  Y1  1  0.27973568  0.25000000  0.49960974  1
  Si  Si1  1  0.09837487  0.25000000  0.06217850  1
  Si  Si1  1  0.59837487  0.25000000  0.43782150  1
  Si  Si1  1  0.90162513  0.75000000  0.93782150  1
  Si  Si1  1  0.40162513  0.75000000  0.56217850  1
  O  O1  1  0.38887741  0.75000000  0.24579426  1
  O  O1  1  0.61112259  0.25000000  0.75420574  1
  O  O1  1  0.88887741  0.75000000  0.25420574  1
  O  O1  1  0.11112259  0.25000000  0.74579426  1
  O  O2  1  0.46065184  0.25000000  0.32778964  1
  O  O2  1  0.53934816  0.75000000  0.67221036  1
  O  O2  1  0.96065184  0.25000000  0.17221036  1
  O  O2  1  0.03934816  0.75000000  0.82778964  1
  O  O3  1  0.17062360  0.05023562  0.20376174  1
  O  O3  1  0.82937640  0.55023562  0.79623826  1
  O  O3  1  0.67062360  0.05023562  0.29623826  1
  O  O3  1  0.32937640  0.55023562  0.70376174  1
  O  O3  1  0.32937640  0.94976438  0.70376174  1
  O  O3  1  0.67062360  0.44976438  0.29623826  1
  O  O3  1  0.82937640  0.94976438  0.79623826  1
  O  O3  1  0.17062360  0.44976438  0.20376174  1
