data_image0
_chemical_formula_structural       ONb2O4
_chemical_formula_sum              "O5 Nb2"
_cell_length_a       6.88833
_cell_length_b       3.9351
_cell_length_c       3.99237
_cell_angle_alpha    90.002
_cell_angle_beta     90.4967
_cell_angle_gamma    73.4032

_space_group_name_H-M_alt    "P 1"
_space_group_IT_number       1

loop_
  _space_group_symop_operation_xyz
  'x, y, z'

loop_
  _atom_site_type_symbol
  _atom_site_label
  _atom_site_symmetry_multiplicity
  _atom_site_fract_x
  _atom_site_fract_y
  _atom_site_fract_z
  _atom_site_occupancy
  O   O1        1.0  -0.00000  0.50000  1.00000  1.0000
  Nb  Nb1       1.0  0.29334  0.35331  0.04658  1.0000
  Nb  Nb1       1.0  0.70666  0.64669  0.95342  1.0000
  O   O2        1.0  0.62959  0.18521  0.99711  1.0000
  O   O2        1.0  0.37041  0.81479  0.00289  1.0000
  O   O3        1.0  0.70306  0.64849  0.48924  1.0000
  O   O3        1.0  0.29694  0.35151  0.51076  1.0000
