# generated using pymatgen
data_Nb2SnO6
_symmetry_space_group_name_H-M   'P 1'
_cell_length_a   17.16898090
_cell_length_b   4.90849811
_cell_length_c   5.60081730
_cell_angle_alpha   90.00000000
_cell_angle_beta   91.59560460
_cell_angle_gamma   90.00000000
_symmetry_Int_Tables_number   1
_chemical_formula_structural   Nb2SnO6
_chemical_formula_sum   'Nb8 Sn4 O24'
_cell_volume   471.81975731
_cell_formula_units_Z   4
loop_
 _symmetry_equiv_pos_site_id
 _symmetry_equiv_pos_as_xyz
  1  'x, y, z'
loop_
 _atom_site_type_symbol
 _atom_site_label
 _atom_site_symmetry_multiplicity
 _atom_site_fract_x
 _atom_site_fract_y
 _atom_site_fract_z
 _atom_site_occupancy
  Nb  Nb1  1  0.16950159  0.75997024  0.17209630  1
  Nb  Nb1  1  0.33049841  0.25997024  0.32790370  1
  Nb  Nb1  1  0.33049841  0.74002976  0.82790370  1
  Nb  Nb1  1  0.16950159  0.24002976  0.67209630  1
  Sn  Sn1  1  0.00000000  0.23138076  0.25000000  1
  Sn  Sn1  1  0.00000000  0.76861924  0.75000000  1
  O  O1  1  0.28017075  0.56066412  0.14764291  1
  O  O1  1  0.21982925  0.06066412  0.35235709  1
  O  O1  1  0.21982925  0.93933588  0.85235709  1
  O  O1  1  0.28017075  0.43933588  0.64764291  1
  O  O2  1  0.14136570  0.53542739  0.42355673  1
  O  O2  1  0.35863430  0.03542739  0.07644327  1
  O  O3  1  0.07203078  0.07700588  0.58695805  1
  O  O3  1  0.42796922  0.57700588  0.91304195  1
  O  O3  1  0.42796922  0.42299412  0.41304195  1
  O  O3  1  0.07203078  0.92299412  0.08695805  1
  O  O2  1  0.14136570  0.46457261  0.92355673  1
  O  O2  1  0.35863430  0.96457261  0.57644327  1
  Nb  Nb1  1  0.66950159  0.25997024  0.17209630  1
  Nb  Nb1  1  0.83049841  0.75997024  0.32790370  1
  Nb  Nb1  1  0.83049841  0.24002976  0.82790370  1
  Nb  Nb1  1  0.66950159  0.74002976  0.67209630  1
  Sn  Sn1  1  0.50000000  0.73138076  0.25000000  1
  Sn  Sn1  1  0.50000000  0.26861924  0.75000000  1
  O  O1  1  0.78017075  0.06066412  0.14764291  1
  O  O1  1  0.71982925  0.56066412  0.35235709  1
  O  O1  1  0.71982925  0.43933588  0.85235709  1
  O  O1  1  0.78017075  0.93933588  0.64764291  1
  O  O2  1  0.64136570  0.03542739  0.42355673  1
  O  O2  1  0.85863430  0.53542739  0.07644327  1
  O  O3  1  0.57203078  0.57700588  0.58695805  1
  O  O3  1  0.92796922  0.07700588  0.91304195  1
  O  O3  1  0.92796922  0.92299412  0.41304195  1
  O  O3  1  0.57203078  0.42299412  0.08695805  1
  O  O2  1  0.64136570  0.96457261  0.92355673  1
  O  O2  1  0.85863430  0.46457261  0.57644327  1
