# generated using pymatgen
data_NbAlO4
_symmetry_space_group_name_H-M   'P 1'
_cell_length_a   12.20751295
_cell_length_b   3.78610670
_cell_length_c   6.50740963
_cell_angle_alpha   90.00000000
_cell_angle_beta   107.84195040
_cell_angle_gamma   90.00000000
_symmetry_Int_Tables_number   1
_chemical_formula_structural   NbAlO4
_chemical_formula_sum   'Nb4 Al4 O16'
_cell_volume   286.30039034
_cell_formula_units_Z   4
loop_
 _symmetry_equiv_pos_site_id
 _symmetry_equiv_pos_as_xyz
  1  'x, y, z'
loop_
 _atom_site_type_symbol
 _atom_site_label
 _atom_site_symmetry_multiplicity
 _atom_site_fract_x
 _atom_site_fract_y
 _atom_site_fract_z
 _atom_site_occupancy
  Nb  Nb1  1  0.60503185  0.50000000  0.23594384  1
  Nb  Nb1  1  0.89496815  0.00000000  0.76405616  1
  Al  Al1  1  0.79795821  0.00000000  0.17563736  1
  Al  Al1  1  0.70204179  0.50000000  0.82436264  1
  O  O1  1  0.85598423  0.50000000  0.79669586  1
  O  O1  1  0.64401577  0.00000000  0.20330414  1
  O  O2  1  0.73657840  0.00000000  0.85851458  1
  O  O2  1  0.76342160  0.50000000  0.14148542  1
  O  O3  1  0.85944589  0.00000000  0.47210100  1
  O  O3  1  0.64055411  0.50000000  0.52789900  1
  O  O4  1  0.94228546  0.00000000  0.13653756  1
  O  O4  1  0.55771454  0.50000000  0.86346244  1
  Nb  Nb1  1  0.10503185  0.00000000  0.23594384  1
  Nb  Nb1  1  0.39496815  0.50000000  0.76405616  1
  Al  Al1  1  0.29795821  0.50000000  0.17563736  1
  Al  Al1  1  0.20204179  0.00000000  0.82436264  1
  O  O1  1  0.35598423  0.00000000  0.79669586  1
  O  O1  1  0.14401577  0.50000000  0.20330414  1
  O  O2  1  0.23657840  0.50000000  0.85851458  1
  O  O2  1  0.26342160  0.00000000  0.14148542  1
  O  O3  1  0.35944589  0.50000000  0.47210100  1
  O  O3  1  0.14055411  0.00000000  0.52789900  1
  O  O4  1  0.44228546  0.50000000  0.13653756  1
  O  O4  1  0.05771454  0.00000000  0.86346244  1
