# generated using pymatgen
data_NbGaO4
_symmetry_space_group_name_H-M   'P 1'
_cell_length_a   12.57094164
_cell_length_b   3.81581406
_cell_length_c   6.64743017
_cell_angle_alpha   90.00000000
_cell_angle_beta   107.98495814
_cell_angle_gamma   90.00000000
_symmetry_Int_Tables_number   1
_chemical_formula_structural   NbGaO4
_chemical_formula_sum   'Nb4 Ga4 O16'
_cell_volume   303.28585273
_cell_formula_units_Z   4
loop_
 _symmetry_equiv_pos_site_id
 _symmetry_equiv_pos_as_xyz
  1  'x, y, z'
loop_
 _atom_site_type_symbol
 _atom_site_label
 _atom_site_symmetry_multiplicity
 _atom_site_fract_x
 _atom_site_fract_y
 _atom_site_fract_z
 _atom_site_occupancy
  Nb  Nb1  1  0.60387822  0.50000000  0.23128904  1
  Nb  Nb1  1  0.89612178  0.00000000  0.76871096  1
  Ga  Ga1  1  0.69731087  0.50000000  0.81648236  1
  Ga  Ga1  1  0.80268913  0.00000000  0.18351764  1
  O  O1  1  0.86283159  0.00000000  0.48242948  1
  O  O1  1  0.63716841  0.50000000  0.51757052  1
  O  O2  1  0.94517786  0.00000000  0.13313306  1
  O  O2  1  0.55482214  0.50000000  0.86686694  1
  O  O3  1  0.75887161  0.50000000  0.14495498  1
  O  O3  1  0.74112839  0.00000000  0.85504502  1
  O  O4  1  0.86044983  0.50000000  0.79736164  1
  O  O4  1  0.63955017  0.00000000  0.20263836  1
  Nb  Nb1  1  0.10387822  0.00000000  0.23128904  1
  Nb  Nb1  1  0.39612178  0.50000000  0.76871096  1
  Ga  Ga1  1  0.19731087  0.00000000  0.81648236  1
  Ga  Ga1  1  0.30268913  0.50000000  0.18351764  1
  O  O1  1  0.36283159  0.50000000  0.48242948  1
  O  O1  1  0.13716841  0.00000000  0.51757052  1
  O  O2  1  0.44517786  0.50000000  0.13313306  1
  O  O2  1  0.05482214  0.00000000  0.86686694  1
  O  O3  1  0.25887161  0.00000000  0.14495498  1
  O  O3  1  0.24112839  0.50000000  0.85504502  1
  O  O4  1  0.36044983  0.00000000  0.79736164  1
  O  O4  1  0.13955017  0.50000000  0.20263836  1
