# generated using pymatgen
data_NbInO4
_symmetry_space_group_name_H-M   'P 1'
_cell_length_a   4.90090553
_cell_length_b   5.83750564
_cell_length_c   5.18524488
_cell_angle_alpha   90.00000000
_cell_angle_beta   90.96291520
_cell_angle_gamma   90.00000000
_symmetry_Int_Tables_number   1
_chemical_formula_structural   NbInO4
_chemical_formula_sum   'Nb2 In2 O8'
_cell_volume   148.32405181
_cell_formula_units_Z   2
loop_
 _symmetry_equiv_pos_site_id
 _symmetry_equiv_pos_as_xyz
  1  'x, y, z'
loop_
 _atom_site_type_symbol
 _atom_site_label
 _atom_site_symmetry_multiplicity
 _atom_site_fract_x
 _atom_site_fract_y
 _atom_site_fract_z
 _atom_site_occupancy
  Nb  Nb1  1  0.00000000  0.17842824  0.75000000  1
  Nb  Nb1  1  0.00000000  0.82157176  0.25000000  1
  In  In1  1  0.50000000  0.68132230  0.75000000  1
  In  In1  1  0.50000000  0.31867770  0.25000000  1
  O  O1  1  0.74058934  0.61643789  0.09972796  1
  O  O1  1  0.25941066  0.61643789  0.40027204  1
  O  O1  1  0.25941066  0.38356211  0.90027204  1
  O  O1  1  0.74058934  0.38356211  0.59972796  1
  O  O2  1  0.78548116  0.09933768  0.06113056  1
  O  O2  1  0.21451884  0.09933768  0.43886944  1
  O  O2  1  0.21451884  0.90066232  0.93886944  1
  O  O2  1  0.78548116  0.90066232  0.56113056  1
