# generated using pymatgen
data_NbSbO4
_symmetry_space_group_name_H-M   'P 1'
_cell_length_a   5.56682717
_cell_length_b   4.94151169
_cell_length_c   11.82170228
_cell_angle_alpha   90.00000000
_cell_angle_beta   90.00000000
_cell_angle_gamma   90.00000000
_symmetry_Int_Tables_number   1
_chemical_formula_structural   NbSbO4
_chemical_formula_sum   'Nb4 Sb4 O16'
_cell_volume   325.19778788
_cell_formula_units_Z   4
loop_
 _symmetry_equiv_pos_site_id
 _symmetry_equiv_pos_as_xyz
  1  'x, y, z'
loop_
 _atom_site_type_symbol
 _atom_site_label
 _atom_site_symmetry_multiplicity
 _atom_site_fract_x
 _atom_site_fract_y
 _atom_site_fract_z
 _atom_site_occupancy
  Nb  Nb1  1  0.60886532  0.51379796  0.00181444  1
  Nb  Nb1  1  0.39113468  0.48620204  0.50181444  1
  Nb  Nb1  1  0.10886532  0.98620204  0.00181444  1
  Nb  Nb1  1  0.89113468  0.01379796  0.50181444  1
  Sb  Sb1  1  0.96408116  0.45607444  0.75486379  1
  Sb  Sb1  1  0.03591884  0.54392556  0.25486379  1
  Sb  Sb1  1  0.46408116  0.04392556  0.75486379  1
  Sb  Sb1  1  0.53591884  0.95607444  0.25486379  1
  O  O1  1  0.85878380  0.21499698  0.04290910  1
  O  O1  1  0.14121620  0.78500302  0.54290910  1
  O  O1  1  0.35878380  0.28500302  0.04290910  1
  O  O1  1  0.64121620  0.71499698  0.54290910  1
  O  O2  1  0.64736308  0.33591484  0.83940230  1
  O  O2  1  0.35263692  0.66408516  0.33940230  1
  O  O2  1  0.14736308  0.16408516  0.83940230  1
  O  O2  1  0.85263692  0.83591484  0.33940230  1
  O  O3  1  0.81447672  0.16708620  0.65020523  1
  O  O3  1  0.18552328  0.83291380  0.15020523  1
  O  O3  1  0.31447672  0.33291380  0.65020523  1
  O  O3  1  0.68552328  0.66708620  0.15020523  1
  O  O4  1  0.57000754  0.19374348  0.43590514  1
  O  O4  1  0.42999246  0.80625652  0.93590514  1
  O  O4  1  0.07000754  0.30625652  0.43590514  1
  O  O4  1  0.92999246  0.69374348  0.93590514  1
