# generated using pymatgen
data_Pb3O4
_symmetry_space_group_name_H-M   'P 1'
_cell_length_a   8.80410338
_cell_length_b   8.80410338
_cell_length_c   6.69886664
_cell_angle_alpha   90.00000000
_cell_angle_beta   90.00000000
_cell_angle_gamma   90.00000000
_symmetry_Int_Tables_number   1
_chemical_formula_structural   Pb3O4
_chemical_formula_sum   'Pb12 O16'
_cell_volume   519.24413412
_cell_formula_units_Z   4
loop_
 _symmetry_equiv_pos_site_id
 _symmetry_equiv_pos_as_xyz
  1  'x, y, z'
loop_
 _atom_site_type_symbol
 _atom_site_label
 _atom_site_symmetry_multiplicity
 _atom_site_fract_x
 _atom_site_fract_y
 _atom_site_fract_z
 _atom_site_occupancy
  Pb  Pb1  1  0.50000000  0.00000000  0.25000000  1
  Pb  Pb1  1  0.00000000  0.50000000  0.75000000  1
  Pb  Pb1  1  0.50000000  0.00000000  0.75000000  1
  Pb  Pb1  1  0.00000000  0.50000000  0.25000000  1
  Pb  Pb2  1  0.66243387  0.35774109  0.00000000  1
  Pb  Pb2  1  0.35774109  0.33756613  0.50000000  1
  Pb  Pb2  1  0.64225891  0.66243387  0.50000000  1
  Pb  Pb2  1  0.33756613  0.64225891  0.00000000  1
  Pb  Pb2  1  0.16243387  0.14225891  0.00000000  1
  Pb  Pb2  1  0.83756613  0.85774109  0.00000000  1
  Pb  Pb2  1  0.14225891  0.83756613  0.50000000  1
  Pb  Pb2  1  0.85774109  0.16243387  0.50000000  1
  O  O1  1  0.67354886  0.82645114  0.25000000  1
  O  O1  1  0.82645114  0.32645114  0.75000000  1
  O  O1  1  0.17354886  0.67354886  0.75000000  1
  O  O1  1  0.32645114  0.17354886  0.25000000  1
  O  O1  1  0.32645114  0.17354886  0.75000000  1
  O  O1  1  0.17354886  0.67354886  0.25000000  1
  O  O1  1  0.82645114  0.32645114  0.25000000  1
  O  O1  1  0.67354886  0.82645114  0.75000000  1
  O  O2  1  0.63951683  0.09186981  0.00000000  1
  O  O2  1  0.09186981  0.36048317  0.50000000  1
  O  O2  1  0.90813019  0.63951683  0.50000000  1
  O  O2  1  0.36048317  0.90813019  0.00000000  1
  O  O2  1  0.13951683  0.40813019  0.00000000  1
  O  O2  1  0.86048317  0.59186981  0.00000000  1
  O  O2  1  0.40813019  0.86048317  0.50000000  1
  O  O2  1  0.59186981  0.13951683  0.50000000  1
