# generated using pymatgen
data_PbWO4
_symmetry_space_group_name_H-M   'P 1'
_cell_length_a   5.55485670
_cell_length_b   4.98286751
_cell_length_c   13.52044950
_cell_angle_alpha   90.00000000
_cell_angle_beta   108.57848061
_cell_angle_gamma   90.00000000
_symmetry_Int_Tables_number   1
_chemical_formula_structural   PbWO4
_chemical_formula_sum   'Pb4 W4 O16'
_cell_volume   354.73204215
_cell_formula_units_Z   4
loop_
 _symmetry_equiv_pos_site_id
 _symmetry_equiv_pos_as_xyz
  1  'x, y, z'
loop_
 _atom_site_type_symbol
 _atom_site_label
 _atom_site_symmetry_multiplicity
 _atom_site_fract_x
 _atom_site_fract_y
 _atom_site_fract_z
 _atom_site_occupancy
  Pb  Pb1  1  0.83428116  0.69895456  0.34734697  1
  Pb  Pb1  1  0.16571884  0.19895456  0.15265303  1
  Pb  Pb1  1  0.16571884  0.30104544  0.65265303  1
  Pb  Pb1  1  0.83428116  0.80104544  0.84734697  1
  W  W1  1  0.39036073  0.24927631  0.42241632  1
  W  W1  1  0.60963927  0.74927631  0.07758368  1
  W  W1  1  0.60963927  0.75072369  0.57758368  1
  W  W1  1  0.39036073  0.25072369  0.92241632  1
  O  O1  1  0.26876572  0.54651872  0.47966648  1
  O  O1  1  0.73123428  0.04651872  0.02033352  1
  O  O1  1  0.73123428  0.45348128  0.52033352  1
  O  O1  1  0.26876572  0.95348128  0.97966648  1
  O  O2  1  0.61314085  0.94157136  0.44045919  1
  O  O2  1  0.38685915  0.44157136  0.05954081  1
  O  O2  1  0.38685915  0.05842864  0.55954081  1
  O  O2  1  0.61314085  0.55842864  0.94045919  1
  O  O3  1  0.08871503  0.11682608  0.34484905  1
  O  O3  1  0.91128497  0.61682608  0.15515095  1
  O  O3  1  0.91128497  0.88317392  0.65515095  1
  O  O3  1  0.08871503  0.38317392  0.84484905  1
  O  O4  1  0.47123283  0.38871267  0.31280614  1
  O  O4  1  0.52876717  0.88871267  0.18719386  1
  O  O4  1  0.52876717  0.61128733  0.68719386  1
  O  O4  1  0.47123283  0.11128733  0.81280614  1
