# generated using pymatgen
data_Rb2Be2O3
_symmetry_space_group_name_H-M   'P 1'
_cell_length_a   10.61040436
_cell_length_b   5.35296136
_cell_length_c   7.67915681
_cell_angle_alpha   90.00000000
_cell_angle_beta   90.00000000
_cell_angle_gamma   90.00000000
_symmetry_Int_Tables_number   1
_chemical_formula_structural   Rb2Be2O3
_chemical_formula_sum   'Rb8 Be8 O12'
_cell_volume   436.15371836
_cell_formula_units_Z   4
loop_
 _symmetry_equiv_pos_site_id
 _symmetry_equiv_pos_as_xyz
  1  'x, y, z'
loop_
 _atom_site_type_symbol
 _atom_site_label
 _atom_site_symmetry_multiplicity
 _atom_site_fract_x
 _atom_site_fract_y
 _atom_site_fract_z
 _atom_site_occupancy
  Rb  Rb1  1  0.08639584  0.25000000  0.87312884  1
  Rb  Rb2  1  0.11239818  0.75000000  0.51191374  1
  Rb  Rb2  1  0.38760182  0.25000000  0.01191374  1
  Rb  Rb1  1  0.41360416  0.75000000  0.37312884  1
  Rb  Rb1  1  0.58639584  0.25000000  0.62687116  1
  Rb  Rb2  1  0.61239818  0.75000000  0.98808626  1
  Rb  Rb2  1  0.88760182  0.25000000  0.48808626  1
  Rb  Rb1  1  0.91360416  0.75000000  0.12687116  1
  Be  Be1  1  0.16354874  0.25000000  0.28189246  1
  Be  Be2  1  0.20823532  0.75000000  0.11135182  1
  Be  Be2  1  0.29176468  0.25000000  0.61135182  1
  Be  Be1  1  0.33645126  0.75000000  0.78189246  1
  Be  Be1  1  0.66354874  0.25000000  0.21810754  1
  Be  Be2  1  0.70823532  0.75000000  0.38864818  1
  Be  Be2  1  0.79176468  0.25000000  0.88864818  1
  Be  Be1  1  0.83645126  0.75000000  0.71810754  1
  O  O1  1  0.17901340  0.25000000  0.48330024  1
  O  O2  1  0.15337520  0.99900435  0.18171560  1
  O  O2  1  0.15337520  0.50099565  0.18171560  1
  O  O2  1  0.34662480  0.00099565  0.68171560  1
  O  O2  1  0.34662480  0.49900435  0.68171560  1
  O  O1  1  0.32098660  0.75000000  0.98330024  1
  O  O1  1  0.67901340  0.25000000  0.01669976  1
  O  O2  1  0.65337520  0.99900435  0.31828440  1
  O  O2  1  0.65337520  0.50099565  0.31828440  1
  O  O2  1  0.84662480  0.49900435  0.81828440  1
  O  O2  1  0.84662480  0.00099565  0.81828440  1
  O  O1  1  0.82098660  0.75000000  0.51669976  1
