# generated using pymatgen
data_Rb2CeO3
_symmetry_space_group_name_H-M   'P 1'
_cell_length_a   6.36766258
_cell_length_b   10.98292681
_cell_length_c   6.87362322
_cell_angle_alpha   90.00000000
_cell_angle_beta   108.39189953
_cell_angle_gamma   90.00000000
_symmetry_Int_Tables_number   1
_chemical_formula_structural   Rb2CeO3
_chemical_formula_sum   'Rb8 Ce4 O12'
_cell_volume   456.15636796
_cell_formula_units_Z   4
loop_
 _symmetry_equiv_pos_site_id
 _symmetry_equiv_pos_as_xyz
  1  'x, y, z'
loop_
 _atom_site_type_symbol
 _atom_site_label
 _atom_site_symmetry_multiplicity
 _atom_site_fract_x
 _atom_site_fract_y
 _atom_site_fract_z
 _atom_site_occupancy
  Rb  Rb1  1  0.00000000  0.00000000  0.00000000  1
  Rb  Rb2  1  0.50000000  0.00000000  0.50000000  1
  Rb  Rb3  1  0.50000000  0.15595542  0.00000000  1
  Rb  Rb3  1  0.50000000  0.84404458  0.00000000  1
  Ce  Ce1  1  0.50000000  0.66716322  0.50000000  1
  Ce  Ce1  1  0.50000000  0.33283678  0.50000000  1
  O  O1  1  0.16889882  0.00000000  0.68604846  1
  O  O2  1  0.76393553  0.19841576  0.68933309  1
  O  O2  1  0.76393553  0.80158424  0.68933309  1
  O  O2  1  0.23606447  0.19841576  0.31066691  1
  O  O2  1  0.23606447  0.80158424  0.31066691  1
  O  O1  1  0.83110118  0.00000000  0.31395154  1
  Rb  Rb1  1  0.50000000  0.50000000  0.00000000  1
  Rb  Rb2  1  0.00000000  0.50000000  0.50000000  1
  Rb  Rb3  1  0.00000000  0.65595542  0.00000000  1
  Rb  Rb3  1  0.00000000  0.34404458  0.00000000  1
  Ce  Ce1  1  0.00000000  0.16716322  0.50000000  1
  Ce  Ce1  1  0.00000000  0.83283678  0.50000000  1
  O  O1  1  0.66889882  0.50000000  0.68604846  1
  O  O2  1  0.26393553  0.69841576  0.68933309  1
  O  O2  1  0.26393553  0.30158424  0.68933309  1
  O  O2  1  0.73606447  0.69841576  0.31066691  1
  O  O2  1  0.73606447  0.30158424  0.31066691  1
  O  O1  1  0.33110118  0.50000000  0.31395154  1
