# generated using pymatgen
data_Rb2CrO4
_symmetry_space_group_name_H-M   'P 1'
_cell_length_a   7.97365855
_cell_length_b   6.02497684
_cell_length_c   10.69843316
_cell_angle_alpha   90.00000000
_cell_angle_beta   90.00000000
_cell_angle_gamma   90.00000000
_symmetry_Int_Tables_number   1
_chemical_formula_structural   Rb2CrO4
_chemical_formula_sum   'Rb8 Cr4 O16'
_cell_volume   513.96458387
_cell_formula_units_Z   4
loop_
 _symmetry_equiv_pos_site_id
 _symmetry_equiv_pos_as_xyz
  1  'x, y, z'
loop_
 _atom_site_type_symbol
 _atom_site_label
 _atom_site_symmetry_multiplicity
 _atom_site_fract_x
 _atom_site_fract_y
 _atom_site_fract_z
 _atom_site_occupancy
  Rb  Rb1  1  0.01445768  0.25000000  0.30419140  1
  Rb  Rb1  1  0.98554232  0.75000000  0.69580860  1
  Rb  Rb1  1  0.51445768  0.25000000  0.19580860  1
  Rb  Rb1  1  0.48554232  0.75000000  0.80419140  1
  Rb  Rb2  1  0.33326890  0.25000000  0.58668642  1
  Rb  Rb2  1  0.66673110  0.75000000  0.41331358  1
  Rb  Rb2  1  0.83326890  0.25000000  0.91331358  1
  Rb  Rb2  1  0.16673110  0.75000000  0.08668642  1
  Cr  Cr1  1  0.76790598  0.25000000  0.57848554  1
  Cr  Cr1  1  0.23209402  0.75000000  0.42151446  1
  Cr  Cr1  1  0.26790598  0.25000000  0.92151446  1
  Cr  Cr1  1  0.73209402  0.75000000  0.07848554  1
  O  O1  1  0.30597250  0.97521230  0.35118704  1
  O  O1  1  0.69402750  0.47521230  0.64881296  1
  O  O1  1  0.80597250  0.52478770  0.14881296  1
  O  O1  1  0.19402750  0.02478770  0.85118704  1
  O  O1  1  0.69402750  0.02478770  0.64881296  1
  O  O1  1  0.30597250  0.52478770  0.35118704  1
  O  O1  1  0.19402750  0.47521230  0.85118704  1
  O  O1  1  0.80597250  0.97521230  0.14881296  1
  O  O2  1  0.70344540  0.25000000  0.43057298  1
  O  O2  1  0.29655460  0.75000000  0.56942702  1
  O  O2  1  0.20344540  0.25000000  0.06942702  1
  O  O2  1  0.79655460  0.75000000  0.93057298  1
  O  O3  1  0.52465564  0.75000000  0.08421946  1
  O  O3  1  0.47534436  0.25000000  0.91578054  1
  O  O3  1  0.02465564  0.75000000  0.41578054  1
  O  O3  1  0.97534436  0.25000000  0.58421946  1
