# generated using pymatgen
data_Rb2HgO2
_symmetry_space_group_name_H-M   'P 1'
_cell_length_a   4.11888469
_cell_length_b   4.11888469
_cell_length_c   14.19791208
_cell_angle_alpha   90.00000000
_cell_angle_beta   90.00000000
_cell_angle_gamma   90.00000000
_symmetry_Int_Tables_number   1
_chemical_formula_structural   Rb2HgO2
_chemical_formula_sum   'Rb4 Hg2 O4'
_cell_volume   240.87057508
_cell_formula_units_Z   2
loop_
 _symmetry_equiv_pos_site_id
 _symmetry_equiv_pos_as_xyz
  1  'x, y, z'
loop_
 _atom_site_type_symbol
 _atom_site_label
 _atom_site_symmetry_multiplicity
 _atom_site_fract_x
 _atom_site_fract_y
 _atom_site_fract_z
 _atom_site_occupancy
  Rb  Rb1  1  0.00000000  0.00000000  0.66707297  1
  Rb  Rb1  1  0.50000000  0.50000000  0.83292703  1
  Hg  Hg1  1  0.00000000  0.00000000  0.00000000  1
  O  O1  1  0.00000000  0.00000000  0.86059746  1
  O  O1  1  0.50000000  0.50000000  0.63940254  1
  Rb  Rb1  1  0.50000000  0.50000000  0.16707297  1
  Rb  Rb1  1  0.00000000  0.00000000  0.33292703  1
  Hg  Hg1  1  0.50000000  0.50000000  0.50000000  1
  O  O1  1  0.50000000  0.50000000  0.36059746  1
  O  O1  1  0.00000000  0.00000000  0.13940254  1
