# generated using pymatgen
data_Rb2Li2SiO4
_symmetry_space_group_name_H-M   'P 1'
_cell_length_a   5.46534827
_cell_length_b   5.64318820
_cell_length_c   8.63093513
_cell_angle_alpha   83.46445976
_cell_angle_beta   74.71225281
_cell_angle_gamma   85.63556663
_symmetry_Int_Tables_number   1
_chemical_formula_structural   Rb2Li2SiO4
_chemical_formula_sum   'Rb4 Li4 Si2 O8'
_cell_volume   254.81171192
_cell_formula_units_Z   2
loop_
 _symmetry_equiv_pos_site_id
 _symmetry_equiv_pos_as_xyz
  1  'x, y, z'
loop_
 _atom_site_type_symbol
 _atom_site_label
 _atom_site_symmetry_multiplicity
 _atom_site_fract_x
 _atom_site_fract_y
 _atom_site_fract_z
 _atom_site_occupancy
  Rb  Rb1  1  0.47502420  0.84863920  0.73568028  1
  Rb  Rb1  1  0.52497580  0.15136080  0.26431972  1
  Rb  Rb2  1  0.79138226  0.72582117  0.02073492  1
  Rb  Rb2  1  0.20861774  0.27417883  0.97926508  1
  Li  Li1  1  0.92924166  0.18665515  0.43825828  1
  Li  Li1  1  0.07075834  0.81334485  0.56174172  1
  Li  Li2  1  0.69762098  0.59399215  0.41908676  1
  Li  Li2  1  0.30237902  0.40600785  0.58091324  1
  Si  Si1  1  0.14792420  0.68784419  0.27726042  1
  Si  Si1  1  0.85207580  0.31215581  0.72273958  1
  O  O1  1  0.99793256  0.55933699  0.72174280  1
  O  O1  1  0.00206744  0.44066301  0.27825720  1
  O  O2  1  0.91823199  0.86834317  0.37948526  1
  O  O2  1  0.08176801  0.13165683  0.62051474  1
  O  O3  1  0.27272176  0.79677281  0.09256104  1
  O  O3  1  0.72727824  0.20322719  0.90743896  1
  O  O4  1  0.36162443  0.64251870  0.38617096  1
  O  O4  1  0.63837557  0.35748130  0.61382904  1
