# generated using pymatgen
data_Rb2LiVO4
_symmetry_space_group_name_H-M   'P 1'
_cell_length_a   5.85274367
_cell_length_b   11.67622024
_cell_length_c   7.83461574
_cell_angle_alpha   90.00000000
_cell_angle_beta   90.00000000
_cell_angle_gamma   90.00000000
_symmetry_Int_Tables_number   1
_chemical_formula_structural   Rb2LiVO4
_chemical_formula_sum   'Rb8 Li4 V4 O16'
_cell_volume   535.40137567
_cell_formula_units_Z   4
loop_
 _symmetry_equiv_pos_site_id
 _symmetry_equiv_pos_as_xyz
  1  'x, y, z'
loop_
 _atom_site_type_symbol
 _atom_site_label
 _atom_site_symmetry_multiplicity
 _atom_site_fract_x
 _atom_site_fract_y
 _atom_site_fract_z
 _atom_site_occupancy
  Rb  Rb1  1  0.00000000  0.39617862  0.45162896  1
  Rb  Rb1  1  0.50000000  0.10382138  0.95162896  1
  Rb  Rb2  1  0.00000000  0.06220265  0.58912728  1
  Rb  Rb2  1  0.50000000  0.43779735  0.08912728  1
  Li  Li1  1  0.00000000  0.20081387  0.17062080  1
  Li  Li1  1  0.50000000  0.29918613  0.67062080  1
  V  V1  1  0.50000000  0.18949499  0.38917484  1
  V  V1  1  0.00000000  0.31050501  0.88917484  1
  O  O1  1  0.76019354  0.35669442  0.78216220  1
  O  O1  1  0.73980646  0.14330558  0.28216220  1
  O  O2  1  0.00000000  0.36615712  0.09326060  1
  O  O2  1  0.50000000  0.13384288  0.59326060  1
  O  O1  1  0.23980646  0.35669442  0.78216220  1
  O  O1  1  0.26019354  0.14330558  0.28216220  1
  O  O3  1  0.50000000  0.33626587  0.42056416  1
  O  O3  1  0.00000000  0.16373413  0.92056416  1
  Rb  Rb1  1  0.50000000  0.89617862  0.45162896  1
  Rb  Rb1  1  0.00000000  0.60382138  0.95162896  1
  Rb  Rb2  1  0.50000000  0.56220265  0.58912728  1
  Rb  Rb2  1  0.00000000  0.93779735  0.08912728  1
  Li  Li1  1  0.50000000  0.70081387  0.17062080  1
  Li  Li1  1  0.00000000  0.79918613  0.67062080  1
  V  V1  1  0.00000000  0.68949499  0.38917484  1
  V  V1  1  0.50000000  0.81050501  0.88917484  1
  O  O1  1  0.26019354  0.85669442  0.78216220  1
  O  O1  1  0.23980646  0.64330558  0.28216220  1
  O  O2  1  0.50000000  0.86615712  0.09326060  1
  O  O2  1  0.00000000  0.63384288  0.59326060  1
  O  O1  1  0.73980646  0.85669442  0.78216220  1
  O  O1  1  0.76019354  0.64330558  0.28216220  1
  O  O3  1  0.00000000  0.83626587  0.42056416  1
  O  O3  1  0.50000000  0.66373413  0.92056416  1
