# generated using pymatgen
data_Rb2Li3GaO4
_symmetry_space_group_name_H-M   'P 1'
_cell_length_a   4.89936441
_cell_length_b   9.73180324
_cell_length_c   11.30528826
_cell_angle_alpha   90.00000000
_cell_angle_beta   90.00000000
_cell_angle_gamma   90.00000000
_symmetry_Int_Tables_number   1
_chemical_formula_structural   Rb2Li3GaO4
_chemical_formula_sum   'Rb8 Li12 Ga4 O16'
_cell_volume   539.03219290
_cell_formula_units_Z   4
loop_
 _symmetry_equiv_pos_site_id
 _symmetry_equiv_pos_as_xyz
  1  'x, y, z'
loop_
 _atom_site_type_symbol
 _atom_site_label
 _atom_site_symmetry_multiplicity
 _atom_site_fract_x
 _atom_site_fract_y
 _atom_site_fract_z
 _atom_site_occupancy
  Rb  Rb1  1  0.23319126  0.12923488  0.50000000  1
  Rb  Rb1  1  0.76680874  0.87076512  0.50000000  1
  Rb  Rb1  1  0.26680874  0.62923488  0.50000000  1
  Rb  Rb1  1  0.73319126  0.37076512  0.50000000  1
  Li  Li1  1  0.50000000  0.74007792  0.25000000  1
  Li  Li1  1  0.50000000  0.25992208  0.75000000  1
  Li  Li1  1  0.50000000  0.25992208  0.25000000  1
  Li  Li1  1  0.50000000  0.74007792  0.75000000  1
  Li  Li2  1  0.50000000  0.50000000  0.25000000  1
  Li  Li2  1  0.50000000  0.50000000  0.75000000  1
  Ga  Ga1  1  0.00000000  0.50000000  0.25000000  1
  Ga  Ga1  1  0.00000000  0.50000000  0.75000000  1
  O  O1  1  0.76503622  0.61914152  0.33110547  1
  O  O1  1  0.23496378  0.38085848  0.66889453  1
  O  O1  1  0.23496378  0.38085848  0.33110547  1
  O  O1  1  0.23496378  0.61914152  0.16889453  1
  O  O1  1  0.76503622  0.61914152  0.66889453  1
  O  O1  1  0.76503622  0.38085848  0.83110547  1
  O  O1  1  0.76503622  0.38085848  0.16889453  1
  O  O1  1  0.23496378  0.61914152  0.83110547  1
  Rb  Rb1  1  0.73319126  0.62923488  0.00000000  1
  Rb  Rb1  1  0.26680874  0.37076512  0.00000000  1
  Rb  Rb1  1  0.76680874  0.12923488  0.00000000  1
  Rb  Rb1  1  0.23319126  0.87076512  0.00000000  1
  Li  Li1  1  0.00000000  0.24007792  0.75000000  1
  Li  Li1  1  0.00000000  0.75992208  0.25000000  1
  Li  Li1  1  0.00000000  0.75992208  0.75000000  1
  Li  Li1  1  0.00000000  0.24007792  0.25000000  1
  Li  Li2  1  0.00000000  0.00000000  0.75000000  1
  Li  Li2  1  0.00000000  0.00000000  0.25000000  1
  Ga  Ga1  1  0.50000000  0.00000000  0.75000000  1
  Ga  Ga1  1  0.50000000  0.00000000  0.25000000  1
  O  O1  1  0.26503622  0.11914152  0.83110547  1
  O  O1  1  0.73496378  0.88085848  0.16889453  1
  O  O1  1  0.73496378  0.88085848  0.83110547  1
  O  O1  1  0.73496378  0.11914152  0.66889453  1
  O  O1  1  0.26503622  0.11914152  0.16889453  1
  O  O1  1  0.26503622  0.88085848  0.33110547  1
  O  O1  1  0.26503622  0.88085848  0.66889453  1
  O  O1  1  0.73496378  0.11914152  0.33110547  1
