# generated using pymatgen
data_Rb2LiAsO4
_symmetry_space_group_name_H-M   'P 1'
_cell_length_a   5.80500340
_cell_length_b   11.75257182
_cell_length_c   7.84963272
_cell_angle_alpha   90.00000000
_cell_angle_beta   90.00000000
_cell_angle_gamma   90.00000000
_symmetry_Int_Tables_number   1
_chemical_formula_structural   Rb2LiAsO4
_chemical_formula_sum   'Rb8 Li4 As4 O16'
_cell_volume   535.53114000
_cell_formula_units_Z   4
loop_
 _symmetry_equiv_pos_site_id
 _symmetry_equiv_pos_as_xyz
  1  'x, y, z'
loop_
 _atom_site_type_symbol
 _atom_site_label
 _atom_site_symmetry_multiplicity
 _atom_site_fract_x
 _atom_site_fract_y
 _atom_site_fract_z
 _atom_site_occupancy
  Rb  Rb1  1  0.50000000  0.44194806  0.15073892  1
  Rb  Rb1  1  0.00000000  0.05805194  0.65073892  1
  Rb  Rb2  1  0.00000000  0.39758386  0.50311798  1
  Rb  Rb2  1  0.50000000  0.10241614  0.00311798  1
  Li  Li1  1  0.00000000  0.20359999  0.23095430  1
  Li  Li1  1  0.50000000  0.29640001  0.73095430  1
  As  As1  1  0.00000000  0.31226593  0.94433398  1
  As  As1  1  0.50000000  0.18773407  0.44433398  1
  O  O1  1  0.76037296  0.35938581  0.83869354  1
  O  O1  1  0.73962704  0.14061419  0.33869354  1
  O  O2  1  0.00000000  0.36705216  0.14811554  1
  O  O2  1  0.50000000  0.13294784  0.64811554  1
  O  O1  1  0.23962704  0.35938581  0.83869354  1
  O  O1  1  0.26037296  0.14061419  0.33869354  1
  O  O3  1  0.50000000  0.33315285  0.47445220  1
  O  O3  1  0.00000000  0.16684715  0.97445220  1
  Rb  Rb1  1  0.00000000  0.94194806  0.15073892  1
  Rb  Rb1  1  0.50000000  0.55805194  0.65073892  1
  Rb  Rb2  1  0.50000000  0.89758386  0.50311798  1
  Rb  Rb2  1  0.00000000  0.60241614  0.00311798  1
  Li  Li1  1  0.50000000  0.70359999  0.23095430  1
  Li  Li1  1  0.00000000  0.79640001  0.73095430  1
  As  As1  1  0.50000000  0.81226593  0.94433398  1
  As  As1  1  0.00000000  0.68773407  0.44433398  1
  O  O1  1  0.26037296  0.85938581  0.83869354  1
  O  O1  1  0.23962704  0.64061419  0.33869354  1
  O  O2  1  0.50000000  0.86705216  0.14811554  1
  O  O2  1  0.00000000  0.63294784  0.64811554  1
  O  O1  1  0.73962704  0.85938581  0.83869354  1
  O  O1  1  0.76037296  0.64061419  0.33869354  1
  O  O3  1  0.00000000  0.83315285  0.47445220  1
  O  O3  1  0.50000000  0.66684715  0.97445220  1
