# generated using pymatgen
data_Rb2MgO2
_symmetry_space_group_name_H-M   'P 1'
_cell_length_a   6.25577275
_cell_length_b   10.87430267
_cell_length_c   5.50527466
_cell_angle_alpha   90.00000000
_cell_angle_beta   90.00000000
_cell_angle_gamma   90.00000000
_symmetry_Int_Tables_number   1
_chemical_formula_structural   Rb2MgO2
_chemical_formula_sum   'Rb8 Mg4 O8'
_cell_volume   374.50823492
_cell_formula_units_Z   4
loop_
 _symmetry_equiv_pos_site_id
 _symmetry_equiv_pos_as_xyz
  1  'x, y, z'
loop_
 _atom_site_type_symbol
 _atom_site_label
 _atom_site_symmetry_multiplicity
 _atom_site_fract_x
 _atom_site_fract_y
 _atom_site_fract_z
 _atom_site_occupancy
  Rb  Rb1  1  0.36253616  0.15478927  0.00000000  1
  Rb  Rb1  1  0.63746384  0.15478927  0.50000000  1
  Rb  Rb1  1  0.13746384  0.34521073  0.50000000  1
  Rb  Rb1  1  0.86253616  0.34521073  0.00000000  1
  Mg  Mg1  1  0.00000000  0.00000000  0.25000000  1
  Mg  Mg1  1  0.00000000  0.00000000  0.75000000  1
  O  O1  1  0.17196468  0.09136358  0.50000000  1
  O  O1  1  0.82803532  0.09136358  0.00000000  1
  O  O1  1  0.32803532  0.40863642  0.00000000  1
  O  O1  1  0.67196468  0.40863642  0.50000000  1
  Rb  Rb1  1  0.86253616  0.65478927  0.50000000  1
  Rb  Rb1  1  0.13746384  0.65478927  0.00000000  1
  Rb  Rb1  1  0.63746384  0.84521073  0.00000000  1
  Rb  Rb1  1  0.36253616  0.84521073  0.50000000  1
  Mg  Mg1  1  0.50000000  0.50000000  0.75000000  1
  Mg  Mg1  1  0.50000000  0.50000000  0.25000000  1
  O  O1  1  0.67196468  0.59136358  0.00000000  1
  O  O1  1  0.32803532  0.59136358  0.50000000  1
  O  O1  1  0.82803532  0.90863642  0.50000000  1
  O  O1  1  0.17196468  0.90863642  0.00000000  1
