# generated using pymatgen
data_Rb2MoO4
_symmetry_space_group_name_H-M   'P 1'
_cell_length_a   12.78729351
_cell_length_b   6.22790190
_cell_length_c   7.83500462
_cell_angle_alpha   90.00000000
_cell_angle_beta   115.71747706
_cell_angle_gamma   90.00000000
_symmetry_Int_Tables_number   1
_chemical_formula_structural   Rb2MoO4
_chemical_formula_sum   'Rb8 Mo4 O16'
_cell_volume   562.15721439
_cell_formula_units_Z   4
loop_
 _symmetry_equiv_pos_site_id
 _symmetry_equiv_pos_as_xyz
  1  'x, y, z'
loop_
 _atom_site_type_symbol
 _atom_site_label
 _atom_site_symmetry_multiplicity
 _atom_site_fract_x
 _atom_site_fract_y
 _atom_site_fract_z
 _atom_site_occupancy
  Rb  Rb1  1  0.65653595  0.50000000  0.74722792  1
  Rb  Rb1  1  0.84346405  0.00000000  0.25277208  1
  Rb  Rb2  1  0.51324387  0.00000000  0.23866094  1
  Rb  Rb2  1  0.98675613  0.50000000  0.76133906  1
  Mo  Mo1  1  0.82534907  0.00000000  0.77795910  1
  Mo  Mo1  1  0.67465093  0.50000000  0.22204090  1
  O  O1  1  0.85840174  0.76514096  0.92380168  1
  O  O1  1  0.64159826  0.26514096  0.07619832  1
  O  O1  1  0.64159826  0.73485904  0.07619832  1
  O  O1  1  0.85840174  0.23485904  0.92380168  1
  O  O2  1  0.82775929  0.50000000  0.37299628  1
  O  O2  1  0.67224071  0.00000000  0.62700372  1
  O  O3  1  0.90937802  0.00000000  0.64476260  1
  O  O3  1  0.59062198  0.50000000  0.35523740  1
  Rb  Rb1  1  0.15653595  0.00000000  0.74722792  1
  Rb  Rb1  1  0.34346405  0.50000000  0.25277208  1
  Rb  Rb2  1  0.01324387  0.50000000  0.23866094  1
  Rb  Rb2  1  0.48675613  0.00000000  0.76133906  1
  Mo  Mo1  1  0.32534907  0.50000000  0.77795910  1
  Mo  Mo1  1  0.17465093  0.00000000  0.22204090  1
  O  O1  1  0.35840174  0.26514096  0.92380168  1
  O  O1  1  0.14159826  0.76514096  0.07619832  1
  O  O1  1  0.14159826  0.23485904  0.07619832  1
  O  O1  1  0.35840174  0.73485904  0.92380168  1
  O  O2  1  0.32775929  0.00000000  0.37299628  1
  O  O2  1  0.17224071  0.50000000  0.62700372  1
  O  O3  1  0.40937802  0.50000000  0.64476260  1
  O  O3  1  0.09062198  0.00000000  0.35523740  1
