# generated using pymatgen
data_Rb2PbO3
_symmetry_space_group_name_H-M   'P 1'
_cell_length_a   6.07751349
_cell_length_b   10.91343615
_cell_length_c   7.32471457
_cell_angle_alpha   90.00000000
_cell_angle_beta   90.00000000
_cell_angle_gamma   90.00000000
_symmetry_Int_Tables_number   1
_chemical_formula_structural   Rb2PbO3
_chemical_formula_sum   'Rb8 Pb4 O12'
_cell_volume   485.82308738
_cell_formula_units_Z   4
loop_
 _symmetry_equiv_pos_site_id
 _symmetry_equiv_pos_as_xyz
  1  'x, y, z'
loop_
 _atom_site_type_symbol
 _atom_site_label
 _atom_site_symmetry_multiplicity
 _atom_site_fract_x
 _atom_site_fract_y
 _atom_site_fract_z
 _atom_site_occupancy
  Rb  Rb1  1  0.76697503  0.41324972  0.39096685  1
  Rb  Rb1  1  0.73302497  0.58675028  0.89096685  1
  Rb  Rb1  1  0.26697503  0.41324972  0.10903315  1
  Rb  Rb1  1  0.26697503  0.08675028  0.10903315  1
  Rb  Rb1  1  0.23302497  0.91324972  0.60903315  1
  Rb  Rb1  1  0.73302497  0.91324972  0.89096685  1
  Rb  Rb1  1  0.23302497  0.58675028  0.60903315  1
  Rb  Rb1  1  0.76697503  0.08675028  0.39096685  1
  Pb  Pb1  1  0.26848687  0.75000000  0.15653363  1
  Pb  Pb1  1  0.73151313  0.25000000  0.84346637  1
  Pb  Pb1  1  0.76848687  0.75000000  0.34346637  1
  Pb  Pb1  1  0.23151313  0.25000000  0.65653363  1
  O  O1  1  0.00696378  0.88133500  0.22494228  1
  O  O2  1  0.14959588  0.25000000  0.38347600  1
  O  O1  1  0.49303622  0.38133500  0.72494228  1
  O  O1  1  0.99303622  0.38133500  0.77505772  1
  O  O1  1  0.00696378  0.61866500  0.22494228  1
  O  O2  1  0.85040412  0.75000000  0.61652400  1
  O  O1  1  0.49303622  0.11866500  0.72494228  1
  O  O2  1  0.35040412  0.75000000  0.88347600  1
  O  O2  1  0.64959588  0.25000000  0.11652400  1
  O  O1  1  0.50696378  0.88133500  0.27505772  1
  O  O1  1  0.50696378  0.61866500  0.27505772  1
  O  O1  1  0.99303622  0.11866500  0.77505772  1
