# generated using pymatgen
data_Rb2Pb2O3
_symmetry_space_group_name_H-M   'P 1'
_cell_length_a   8.72373115
_cell_length_b   8.72373115
_cell_length_c   8.72373115
_cell_angle_alpha   90.00000000
_cell_angle_beta   90.00000000
_cell_angle_gamma   90.00000000
_symmetry_Int_Tables_number   1
_chemical_formula_structural   Rb2Pb2O3
_chemical_formula_sum   'Rb8 Pb8 O12'
_cell_volume   663.90634312
_cell_formula_units_Z   4
loop_
 _symmetry_equiv_pos_site_id
 _symmetry_equiv_pos_as_xyz
  1  'x, y, z'
loop_
 _atom_site_type_symbol
 _atom_site_label
 _atom_site_symmetry_multiplicity
 _atom_site_fract_x
 _atom_site_fract_y
 _atom_site_fract_z
 _atom_site_occupancy
  Rb  Rb1  1  0.23188126  0.23188126  0.23188126  1
  Rb  Rb1  1  0.23188126  0.76811874  0.26811874  1
  Rb  Rb1  1  0.26811874  0.23188126  0.76811874  1
  Rb  Rb1  1  0.76811874  0.26811874  0.23188126  1
  Pb  Pb1  1  0.49992882  0.49992882  0.49992882  1
  Pb  Pb1  1  0.99992882  0.00007118  0.50007118  1
  Pb  Pb1  1  0.50007118  0.99992882  0.00007118  1
  Pb  Pb1  1  0.00007118  0.50007118  0.99992882  1
  O  O1  1  0.50000000  0.75000000  0.46993210  1
  O  O1  1  0.50000000  0.25000000  0.03006790  1
  O  O1  1  0.75000000  0.46993210  0.50000000  1
  O  O1  1  0.25000000  0.03006790  0.50000000  1
  O  O1  1  0.46993210  0.50000000  0.75000000  1
  O  O1  1  0.03006790  0.50000000  0.25000000  1
  Rb  Rb1  1  0.73188126  0.73188126  0.73188126  1
  Rb  Rb1  1  0.73188126  0.26811874  0.76811874  1
  Rb  Rb1  1  0.76811874  0.73188126  0.26811874  1
  Rb  Rb1  1  0.26811874  0.76811874  0.73188126  1
  Pb  Pb1  1  0.99992882  0.99992882  0.99992882  1
  Pb  Pb1  1  0.49992882  0.50007118  0.00007118  1
  Pb  Pb1  1  0.00007118  0.49992882  0.50007118  1
  Pb  Pb1  1  0.50007118  0.00007118  0.49992882  1
  O  O1  1  0.00000000  0.25000000  0.96993210  1
  O  O1  1  0.00000000  0.75000000  0.53006790  1
  O  O1  1  0.25000000  0.96993210  0.00000000  1
  O  O1  1  0.75000000  0.53006790  0.00000000  1
  O  O1  1  0.96993210  0.00000000  0.25000000  1
  O  O1  1  0.53006790  0.00000000  0.75000000  1
