# generated using pymatgen
data_Rb2Si3SnO9
_symmetry_space_group_name_H-M   'P 1'
_cell_length_a   7.00087873
_cell_length_b   7.00087873
_cell_length_c   10.11628200
_cell_angle_alpha   90.00000000
_cell_angle_beta   90.00000000
_cell_angle_gamma   120.00000000
_symmetry_Int_Tables_number   1
_chemical_formula_structural   Rb2Si3SnO9
_chemical_formula_sum   'Rb4 Si6 Sn2 O18'
_cell_volume   429.39468898
_cell_formula_units_Z   2
loop_
 _symmetry_equiv_pos_site_id
 _symmetry_equiv_pos_as_xyz
  1  'x, y, z'
loop_
 _atom_site_type_symbol
 _atom_site_label
 _atom_site_symmetry_multiplicity
 _atom_site_fract_x
 _atom_site_fract_y
 _atom_site_fract_z
 _atom_site_occupancy
  Rb  Rb1  1  0.66666667  0.33333333  0.44198317  1
  Rb  Rb1  1  0.33333333  0.66666667  0.94198317  1
  Rb  Rb1  1  0.66666667  0.33333333  0.05801683  1
  Rb  Rb1  1  0.33333333  0.66666667  0.55801683  1
  Si  Si1  1  0.86501450  0.24779720  0.75000000  1
  Si  Si1  1  0.24779720  0.38278270  0.25000000  1
  Si  Si1  1  0.61721730  0.86501450  0.25000000  1
  Si  Si1  1  0.38278270  0.13498550  0.75000000  1
  Si  Si1  1  0.75220280  0.61721730  0.75000000  1
  Si  Si1  1  0.13498550  0.75220280  0.25000000  1
  Sn  Sn1  1  0.00000000  0.00000000  0.50000000  1
  Sn  Sn1  1  0.00000000  0.00000000  0.00000000  1
  O  O1  1  0.02807972  0.77263946  0.11339585  1
  O  O1  1  0.77263946  0.74455974  0.61339585  1
  O  O1  1  0.25544026  0.02807972  0.61339585  1
  O  O1  1  0.74455974  0.97192028  0.11339585  1
  O  O1  1  0.22736054  0.25544026  0.11339585  1
  O  O1  1  0.97192028  0.22736054  0.61339585  1
  O  O1  1  0.97192028  0.22736054  0.88660415  1
  O  O1  1  0.22736054  0.25544026  0.38660415  1
  O  O1  1  0.74455974  0.97192028  0.38660415  1
  O  O1  1  0.25544026  0.02807972  0.88660415  1
  O  O1  1  0.77263946  0.74455974  0.88660415  1
  O  O1  1  0.02807972  0.77263946  0.38660415  1
  O  O2  1  0.40642358  0.91303098  0.25000000  1
  O  O2  1  0.91303098  0.50660740  0.75000000  1
  O  O2  1  0.49339260  0.40642358  0.75000000  1
  O  O2  1  0.50660740  0.59357642  0.25000000  1
  O  O2  1  0.08696902  0.49339260  0.25000000  1
  O  O2  1  0.59357642  0.08696902  0.75000000  1
