# generated using pymatgen
data_Rb2Sn2O3
_symmetry_space_group_name_H-M   'P 1'
_cell_length_a   6.12045683
_cell_length_b   6.12045683
_cell_length_c   14.87417149
_cell_angle_alpha   90.00000000
_cell_angle_beta   90.00000000
_cell_angle_gamma   120.00000000
_symmetry_Int_Tables_number   1
_chemical_formula_structural   Rb2Sn2O3
_chemical_formula_sum   'Rb6 Sn6 O9'
_cell_volume   482.53752696
_cell_formula_units_Z   3
loop_
 _symmetry_equiv_pos_site_id
 _symmetry_equiv_pos_as_xyz
  1  'x, y, z'
loop_
 _atom_site_type_symbol
 _atom_site_label
 _atom_site_symmetry_multiplicity
 _atom_site_fract_x
 _atom_site_fract_y
 _atom_site_fract_z
 _atom_site_occupancy
  Rb  Rb1  1  0.66666667  0.33333333  0.83333333  1
  Rb  Rb2  1  0.00000000  0.00000000  0.00000000  1
  Sn  Sn1  1  0.66666667  0.33333333  0.57095885  1
  Sn  Sn1  1  0.66666667  0.33333333  0.09570782  1
  O  O1  1  0.66666667  0.83333333  0.83333333  1
  O  O1  1  0.16666667  0.33333333  0.83333333  1
  O  O1  1  0.83333333  0.16666667  0.16666667  1
  Rb  Rb1  1  0.33333333  0.66666667  0.16666667  1
  Rb  Rb2  1  0.66666667  0.33333333  0.33333333  1
  Sn  Sn1  1  0.33333333  0.66666667  0.90429218  1
  Sn  Sn1  1  0.33333333  0.66666667  0.42904115  1
  O  O1  1  0.33333333  0.16666667  0.16666667  1
  O  O1  1  0.83333333  0.66666667  0.16666667  1
  O  O1  1  0.50000000  0.50000000  0.50000000  1
  Rb  Rb1  1  -0.00000000  -0.00000000  0.50000000  1
  Rb  Rb2  1  0.33333333  0.66666667  0.66666667  1
  Sn  Sn1  1  0.00000000  0.00000000  0.23762551  1
  Sn  Sn1  1  0.00000000  0.00000000  0.76237449  1
  O  O1  1  0.00000000  0.50000000  0.50000000  1
  O  O1  1  0.50000000  0.00000000  0.50000000  1
  O  O1  1  0.16666667  0.83333333  0.83333333  1
