# generated using pymatgen
data_Rb2SnO3
_symmetry_space_group_name_H-M   'P 1'
_cell_length_a   10.67884526
_cell_length_b   7.38943311
_cell_length_c   5.78680539
_cell_angle_alpha   90.00000000
_cell_angle_beta   90.00000000
_cell_angle_gamma   90.00000000
_symmetry_Int_Tables_number   1
_chemical_formula_structural   Rb2SnO3
_chemical_formula_sum   'Rb8 Sn4 O12'
_cell_volume   456.64035961
_cell_formula_units_Z   4
loop_
 _symmetry_equiv_pos_site_id
 _symmetry_equiv_pos_as_xyz
  1  'x, y, z'
loop_
 _atom_site_type_symbol
 _atom_site_label
 _atom_site_symmetry_multiplicity
 _atom_site_fract_x
 _atom_site_fract_y
 _atom_site_fract_z
 _atom_site_occupancy
  Rb  Rb1  1  0.16072518  0.35840250  0.74331412  1
  Rb  Rb1  1  0.16072518  0.64159750  0.24331412  1
  Rb  Rb1  1  0.83927482  0.64159750  0.24331412  1
  Rb  Rb1  1  0.83927482  0.35840250  0.74331412  1
  Sn  Sn1  1  0.00000000  0.08761617  0.26188474  1
  Sn  Sn1  1  0.00000000  0.91238383  0.76188474  1
  O  O1  1  0.37365876  0.48721005  0.50524107  1
  O  O1  1  0.37365876  0.51278995  0.00524107  1
  O  O2  1  0.00000000  0.34910033  0.30100789  1
  O  O2  1  0.00000000  0.65089967  0.80100789  1
  O  O1  1  0.62634124  0.51278995  0.00524107  1
  O  O1  1  0.62634124  0.48721005  0.50524107  1
  Rb  Rb1  1  0.66072518  0.85840250  0.74331412  1
  Rb  Rb1  1  0.66072518  0.14159750  0.24331412  1
  Rb  Rb1  1  0.33927482  0.14159750  0.24331412  1
  Rb  Rb1  1  0.33927482  0.85840250  0.74331412  1
  Sn  Sn1  1  0.50000000  0.58761617  0.26188474  1
  Sn  Sn1  1  0.50000000  0.41238383  0.76188474  1
  O  O1  1  0.87365876  0.98721005  0.50524107  1
  O  O1  1  0.87365876  0.01278995  0.00524107  1
  O  O2  1  0.50000000  0.84910033  0.30100789  1
  O  O2  1  0.50000000  0.15089967  0.80100789  1
  O  O1  1  0.12634124  0.01278995  0.00524107  1
  O  O1  1  0.12634124  0.98721005  0.50524107  1
