# generated using pymatgen
data_Rb2Ti(SiO3)3
_symmetry_space_group_name_H-M   'P 1'
_cell_length_a   6.89482372
_cell_length_b   6.89482372
_cell_length_c   10.03430910
_cell_angle_alpha   90.00000000
_cell_angle_beta   90.00000000
_cell_angle_gamma   120.00000000
_symmetry_Int_Tables_number   1
_chemical_formula_structural   Rb2Ti(SiO3)3
_chemical_formula_sum   'Rb4 Ti2 Si6 O18'
_cell_volume   413.10879473
_cell_formula_units_Z   2
loop_
 _symmetry_equiv_pos_site_id
 _symmetry_equiv_pos_as_xyz
  1  'x, y, z'
loop_
 _atom_site_type_symbol
 _atom_site_label
 _atom_site_symmetry_multiplicity
 _atom_site_fract_x
 _atom_site_fract_y
 _atom_site_fract_z
 _atom_site_occupancy
  Rb  Rb1  1  0.66666667  0.33333333  0.05696491  1
  Rb  Rb1  1  0.33333333  0.66666667  0.55696491  1
  Rb  Rb1  1  0.33333333  0.66666667  0.94303509  1
  Rb  Rb1  1  0.66666667  0.33333333  0.44303509  1
  Ti  Ti1  1  0.00000000  0.00000000  0.00000000  1
  Ti  Ti1  1  0.00000000  0.00000000  0.50000000  1
  Si  Si1  1  0.86544732  0.24274826  0.75000000  1
  Si  Si1  1  0.24274826  0.37730094  0.25000000  1
  Si  Si1  1  0.62269906  0.86544732  0.25000000  1
  Si  Si1  1  0.37730094  0.13455268  0.75000000  1
  Si  Si1  1  0.75725174  0.62269906  0.75000000  1
  Si  Si1  1  0.13455268  0.75725174  0.25000000  1
  O  O1  1  0.02971500  0.78411526  0.11242219  1
  O  O1  1  0.78411526  0.75440026  0.61242219  1
  O  O1  1  0.24559974  0.02971500  0.61242219  1
  O  O1  1  0.75440026  0.97028500  0.11242219  1
  O  O1  1  0.21588474  0.24559974  0.11242219  1
  O  O1  1  0.97028500  0.21588474  0.61242219  1
  O  O1  1  0.97028500  0.21588474  0.88757781  1
  O  O1  1  0.21588474  0.24559974  0.38757781  1
  O  O1  1  0.75440026  0.97028500  0.38757781  1
  O  O1  1  0.24559974  0.02971500  0.88757781  1
  O  O1  1  0.78411526  0.75440026  0.88757781  1
  O  O1  1  0.02971500  0.78411526  0.38757781  1
  O  O2  1  0.41066856  0.91747042  0.25000000  1
  O  O2  1  0.91747042  0.50680186  0.75000000  1
  O  O2  1  0.49319814  0.41066856  0.75000000  1
  O  O2  1  0.50680186  0.58933144  0.25000000  1
  O  O2  1  0.08252958  0.49319814  0.25000000  1
  O  O2  1  0.58933144  0.08252958  0.75000000  1
