# generated using pymatgen
data_Rb2TiO3
_symmetry_space_group_name_H-M   'P 1'
_cell_length_a   6.01755578
_cell_length_b   11.88928170
_cell_length_c   13.27764336
_cell_angle_alpha   90.00000000
_cell_angle_beta   90.00000000
_cell_angle_gamma   90.00000000
_symmetry_Int_Tables_number   1
_chemical_formula_structural   Rb2TiO3
_chemical_formula_sum   'Rb16 Ti8 O24'
_cell_volume   949.94123837
_cell_formula_units_Z   8
loop_
 _symmetry_equiv_pos_site_id
 _symmetry_equiv_pos_as_xyz
  1  'x, y, z'
loop_
 _atom_site_type_symbol
 _atom_site_label
 _atom_site_symmetry_multiplicity
 _atom_site_fract_x
 _atom_site_fract_y
 _atom_site_fract_z
 _atom_site_occupancy
  Rb  Rb1  1  0.50000000  0.13207723  0.07407583  1
  Rb  Rb1  1  0.00000000  0.13207723  0.42592417  1
  Rb  Rb1  1  0.50000000  0.36792277  0.57407583  1
  Rb  Rb1  1  0.00000000  0.36792277  0.92592417  1
  Rb  Rb2  1  0.50000000  0.05740665  0.63745512  1
  Rb  Rb2  1  0.00000000  0.44259335  0.36254488  1
  Rb  Rb2  1  0.50000000  0.44259335  0.13745512  1
  Rb  Rb2  1  0.00000000  0.05740665  0.86254488  1
  Ti  Ti1  1  0.00000000  0.24567825  0.66919837  1
  Ti  Ti1  1  0.00000000  0.25432175  0.16919837  1
  Ti  Ti1  1  0.50000000  0.25432175  0.33080163  1
  Ti  Ti1  1  0.50000000  0.24567825  0.83080163  1
  O  O1  1  0.25000000  0.27869870  0.75000000  1
  O  O1  1  0.75000000  0.22130130  0.25000000  1
  O  O1  1  0.25000000  0.22130130  0.25000000  1
  O  O1  1  0.75000000  0.27869870  0.75000000  1
  O  O2  1  0.50000000  0.09919675  0.86322622  1
  O  O2  1  0.00000000  0.40080325  0.13677378  1
  O  O2  1  0.50000000  0.40080325  0.36322622  1
  O  O3  1  0.00000000  0.33321093  0.55924730  1
  O  O3  1  0.50000000  0.33321093  0.94075270  1
  O  O3  1  0.00000000  0.16678907  0.05924730  1
  O  O3  1  0.50000000  0.16678907  0.44075270  1
  O  O2  1  0.00000000  0.09919675  0.63677378  1
  Rb  Rb1  1  0.00000000  0.63207723  0.07407583  1
  Rb  Rb1  1  0.50000000  0.63207723  0.42592417  1
  Rb  Rb1  1  0.00000000  0.86792277  0.57407583  1
  Rb  Rb1  1  0.50000000  0.86792277  0.92592417  1
  Rb  Rb2  1  0.00000000  0.55740665  0.63745512  1
  Rb  Rb2  1  0.50000000  0.94259335  0.36254488  1
  Rb  Rb2  1  0.00000000  0.94259335  0.13745512  1
  Rb  Rb2  1  0.50000000  0.55740665  0.86254488  1
  Ti  Ti1  1  0.50000000  0.74567825  0.66919837  1
  Ti  Ti1  1  0.50000000  0.75432175  0.16919837  1
  Ti  Ti1  1  0.00000000  0.75432175  0.33080163  1
  Ti  Ti1  1  0.00000000  0.74567825  0.83080163  1
  O  O1  1  0.75000000  0.77869870  0.75000000  1
  O  O1  1  0.25000000  0.72130130  0.25000000  1
  O  O1  1  0.75000000  0.72130130  0.25000000  1
  O  O1  1  0.25000000  0.77869870  0.75000000  1
  O  O2  1  0.00000000  0.59919675  0.86322622  1
  O  O2  1  0.50000000  0.90080325  0.13677378  1
  O  O2  1  0.00000000  0.90080325  0.36322622  1
  O  O3  1  0.50000000  0.83321093  0.55924730  1
  O  O3  1  0.00000000  0.83321093  0.94075270  1
  O  O3  1  0.50000000  0.66678907  0.05924730  1
  O  O3  1  0.00000000  0.66678907  0.44075270  1
  O  O2  1  0.50000000  0.59919675  0.63677378  1
