# generated using pymatgen
data_Rb2WO4
_symmetry_space_group_name_H-M   'P 1'
_cell_length_a   12.80160416
_cell_length_b   6.26463851
_cell_length_c   7.84524338
_cell_angle_alpha   90.00000000
_cell_angle_beta   115.88428116
_cell_angle_gamma   90.00000000
_symmetry_Int_Tables_number   1
_chemical_formula_structural   Rb2WO4
_chemical_formula_sum   'Rb8 W4 O16'
_cell_volume   566.04861136
_cell_formula_units_Z   4
loop_
 _symmetry_equiv_pos_site_id
 _symmetry_equiv_pos_as_xyz
  1  'x, y, z'
loop_
 _atom_site_type_symbol
 _atom_site_label
 _atom_site_symmetry_multiplicity
 _atom_site_fract_x
 _atom_site_fract_y
 _atom_site_fract_z
 _atom_site_occupancy
  Rb  Rb1  1  0.65629429  0.50000000  0.74649544  1
  Rb  Rb1  1  0.84370571  0.00000000  0.25350456  1
  Rb  Rb2  1  0.51146062  0.00000000  0.23708196  1
  Rb  Rb2  1  0.98853938  0.50000000  0.76291804  1
  W  W1  1  0.82544064  0.00000000  0.77701940  1
  W  W1  1  0.67455936  0.50000000  0.22298060  1
  O  O1  1  0.85829047  0.76606342  0.92312240  1
  O  O1  1  0.64170953  0.26606342  0.07687760  1
  O  O1  1  0.64170953  0.73393658  0.07687760  1
  O  O1  1  0.85829047  0.23393658  0.92312240  1
  O  O2  1  0.82783820  0.50000000  0.37545670  1
  O  O2  1  0.67216180  0.00000000  0.62454330  1
  O  O3  1  0.90983121  0.00000000  0.64446840  1
  O  O3  1  0.59016879  0.50000000  0.35553160  1
  Rb  Rb1  1  0.15629429  0.00000000  0.74649544  1
  Rb  Rb1  1  0.34370571  0.50000000  0.25350456  1
  Rb  Rb2  1  0.01146062  0.50000000  0.23708196  1
  Rb  Rb2  1  0.48853938  0.00000000  0.76291804  1
  W  W1  1  0.32544064  0.50000000  0.77701940  1
  W  W1  1  0.17455936  0.00000000  0.22298060  1
  O  O1  1  0.35829047  0.26606342  0.92312240  1
  O  O1  1  0.14170953  0.76606342  0.07687760  1
  O  O1  1  0.14170953  0.23393658  0.07687760  1
  O  O1  1  0.35829047  0.73393658  0.92312240  1
  O  O2  1  0.32783820  0.00000000  0.37545670  1
  O  O2  1  0.17216180  0.50000000  0.62454330  1
  O  O3  1  0.40983121  0.50000000  0.64446840  1
  O  O3  1  0.09016879  0.00000000  0.35553160  1
