# generated using pymatgen
data_Rb2Zn3O4
_symmetry_space_group_name_H-M   'P 1'
_cell_length_a   15.03526902
_cell_length_b   6.39851426
_cell_length_c   5.63675482
_cell_angle_alpha   90.00000000
_cell_angle_beta   101.09709852
_cell_angle_gamma   90.00000000
_symmetry_Int_Tables_number   1
_chemical_formula_structural   Rb2Zn3O4
_chemical_formula_sum   'Rb8 Zn12 O16'
_cell_volume   532.13565208
_cell_formula_units_Z   4
loop_
 _symmetry_equiv_pos_site_id
 _symmetry_equiv_pos_as_xyz
  1  'x, y, z'
loop_
 _atom_site_type_symbol
 _atom_site_label
 _atom_site_symmetry_multiplicity
 _atom_site_fract_x
 _atom_site_fract_y
 _atom_site_fract_z
 _atom_site_occupancy
  Rb  Rb1  1  0.88483775  0.13612665  0.99764687  1
  Rb  Rb1  1  0.61516225  0.63612665  0.50235313  1
  Rb  Rb1  1  0.61516225  0.36387335  0.00235313  1
  Rb  Rb1  1  0.88483775  0.86387335  0.49764687  1
  Zn  Zn1  1  0.80421735  0.61564606  0.91031778  1
  Zn  Zn1  1  0.69578265  0.11564606  0.58968222  1
  Zn  Zn2  1  0.00000000  0.48575637  0.75000000  1
  Zn  Zn2  1  0.00000000  0.51424363  0.25000000  1
  Zn  Zn1  1  0.69578265  0.88435394  0.08968222  1
  Zn  Zn1  1  0.80421735  0.38435394  0.41031778  1
  O  O1  1  0.74149263  0.88125669  0.79002265  1
  O  O1  1  0.75850737  0.38125669  0.70997735  1
  O  O1  1  0.75850737  0.61874331  0.20997735  1
  O  O1  1  0.74149263  0.11874331  0.29002265  1
  O  O2  1  0.56574955  0.15342192  0.54014266  1
  O  O2  1  0.93425045  0.65342192  0.95985734  1
  O  O2  1  0.56574955  0.84657808  0.04014266  1
  O  O2  1  0.93425045  0.34657808  0.45985734  1
  Rb  Rb1  1  0.38483775  0.63612665  0.99764687  1
  Rb  Rb1  1  0.11516225  0.13612665  0.50235313  1
  Rb  Rb1  1  0.11516225  0.86387335  0.00235313  1
  Rb  Rb1  1  0.38483775  0.36387335  0.49764687  1
  Zn  Zn1  1  0.30421735  0.11564606  0.91031778  1
  Zn  Zn1  1  0.19578265  0.61564606  0.58968222  1
  Zn  Zn2  1  0.50000000  0.98575637  0.75000000  1
  Zn  Zn2  1  0.50000000  0.01424363  0.25000000  1
  Zn  Zn1  1  0.19578265  0.38435394  0.08968222  1
  Zn  Zn1  1  0.30421735  0.88435394  0.41031778  1
  O  O1  1  0.24149263  0.38125669  0.79002265  1
  O  O1  1  0.25850737  0.88125669  0.70997735  1
  O  O1  1  0.25850737  0.11874331  0.20997735  1
  O  O1  1  0.24149263  0.61874331  0.29002265  1
  O  O2  1  0.06574955  0.65342192  0.54014266  1
  O  O2  1  0.43425045  0.15342192  0.95985734  1
  O  O2  1  0.06574955  0.34657808  0.04014266  1
  O  O2  1  0.43425045  0.84657808  0.45985734  1
