# generated using pymatgen
data_Rb3AlO3
_symmetry_space_group_name_H-M   'P 1'
_cell_length_a   7.23419381
_cell_length_b   11.38194345
_cell_length_c   6.74365613
_cell_angle_alpha   90.00000000
_cell_angle_beta   104.16360258
_cell_angle_gamma   90.00000000
_symmetry_Int_Tables_number   1
_chemical_formula_structural   Rb3AlO3
_chemical_formula_sum   'Rb12 Al4 O12'
_cell_volume   538.38757498
_cell_formula_units_Z   4
loop_
 _symmetry_equiv_pos_site_id
 _symmetry_equiv_pos_as_xyz
  1  'x, y, z'
loop_
 _atom_site_type_symbol
 _atom_site_label
 _atom_site_symmetry_multiplicity
 _atom_site_fract_x
 _atom_site_fract_y
 _atom_site_fract_z
 _atom_site_occupancy
  Rb  Rb1  1  0.62968644  0.00000000  0.34769030  1
  Rb  Rb1  1  0.37031356  0.00000000  0.65230970  1
  Rb  Rb2  1  0.50000000  0.69773432  0.50000000  1
  Rb  Rb2  1  0.50000000  0.30226568  0.50000000  1
  Rb  Rb3  1  0.50000000  0.76640565  0.00000000  1
  Rb  Rb3  1  0.50000000  0.23359435  0.00000000  1
  Al  Al1  1  0.15777050  0.00000000  0.14630476  1
  Al  Al1  1  0.84222950  0.00000000  0.85369524  1
  O  O1  1  0.27620154  0.12762101  0.26262442  1
  O  O1  1  0.72379846  0.12762101  0.73737558  1
  O  O1  1  0.72379846  0.87237899  0.73737558  1
  O  O1  1  0.27620154  0.87237899  0.26262442  1
  O  O2  1  0.09876650  0.00000000  0.86462146  1
  O  O2  1  0.90123350  0.00000000  0.13537854  1
  Rb  Rb1  1  0.12968644  0.50000000  0.34769030  1
  Rb  Rb1  1  0.87031356  0.50000000  0.65230970  1
  Rb  Rb2  1  0.00000000  0.19773432  0.50000000  1
  Rb  Rb2  1  0.00000000  0.80226568  0.50000000  1
  Rb  Rb3  1  0.00000000  0.26640565  0.00000000  1
  Rb  Rb3  1  0.00000000  0.73359435  0.00000000  1
  Al  Al1  1  0.65777050  0.50000000  0.14630476  1
  Al  Al1  1  0.34222950  0.50000000  0.85369524  1
  O  O1  1  0.77620154  0.62762101  0.26262442  1
  O  O1  1  0.22379846  0.62762101  0.73737558  1
  O  O1  1  0.22379846  0.37237899  0.73737558  1
  O  O1  1  0.77620154  0.37237899  0.26262442  1
  O  O2  1  0.59876650  0.50000000  0.86462146  1
  O  O2  1  0.40123350  0.50000000  0.13537854  1
