# generated using pymatgen
data_Rb3BiO3
_symmetry_space_group_name_H-M   'P 1'
_cell_length_a   8.75233279
_cell_length_b   8.75233279
_cell_length_c   8.75233279
_cell_angle_alpha   90.00000000
_cell_angle_beta   90.00000000
_cell_angle_gamma   90.00000000
_symmetry_Int_Tables_number   1
_chemical_formula_structural   Rb3BiO3
_chemical_formula_sum   'Rb12 Bi4 O12'
_cell_volume   670.45783171
_cell_formula_units_Z   4
loop_
 _symmetry_equiv_pos_site_id
 _symmetry_equiv_pos_as_xyz
  1  'x, y, z'
loop_
 _atom_site_type_symbol
 _atom_site_label
 _atom_site_symmetry_multiplicity
 _atom_site_fract_x
 _atom_site_fract_y
 _atom_site_fract_z
 _atom_site_occupancy
  Rb  Rb1  1  0.46401962  0.46401962  0.46401962  1
  Rb  Rb1  1  0.96401962  0.03598038  0.53598038  1
  Rb  Rb1  1  0.03598038  0.53598038  0.96401962  1
  Rb  Rb1  1  0.53598038  0.96401962  0.03598038  1
  Rb  Rb2  1  0.45931628  0.54068372  0.04068372  1
  Rb  Rb2  1  0.95931628  0.95931628  0.95931628  1
  Rb  Rb3  1  0.27340304  0.22659696  0.77340304  1
  Rb  Rb3  1  0.77340304  0.27340304  0.22659696  1
  Rb  Rb3  1  0.22659696  0.77340304  0.27340304  1
  Rb  Rb3  1  0.72659696  0.72659696  0.72659696  1
  Rb  Rb2  1  0.04068372  0.45931628  0.54068372  1
  Rb  Rb2  1  0.54068372  0.04068372  0.45931628  1
  Bi  Bi1  1  0.76638462  0.73361538  0.26638462  1
  Bi  Bi1  1  0.26638462  0.76638462  0.73361538  1
  Bi  Bi1  1  0.73361538  0.26638462  0.76638462  1
  Bi  Bi1  1  0.23361538  0.23361538  0.23361538  1
  O  O1  1  0.53328662  0.74570240  0.31202586  1
  O  O1  1  0.96671338  0.25429760  0.81202586  1
  O  O1  1  0.46671338  0.24570240  0.18797414  1
  O  O1  1  0.81202586  0.96671338  0.25429760  1
  O  O1  1  0.31202586  0.53328662  0.74570240  1
  O  O1  1  0.74570240  0.31202586  0.53328662  1
  O  O1  1  0.18797414  0.46671338  0.24570240  1
  O  O1  1  0.68797414  0.03328662  0.75429760  1
  O  O1  1  0.75429760  0.68797414  0.03328662  1
  O  O1  1  0.03328662  0.75429760  0.68797414  1
  O  O1  1  0.24570240  0.18797414  0.46671338  1
  O  O1  1  0.25429760  0.81202586  0.96671338  1
