# generated using pymatgen
data_Rb3CuO2
_symmetry_space_group_name_H-M   'P 1'
_cell_length_a   6.67033099
_cell_length_b   9.57546585
_cell_length_c   9.31107618
_cell_angle_alpha   90.00000000
_cell_angle_beta   111.90090268
_cell_angle_gamma   90.00000000
_symmetry_Int_Tables_number   1
_chemical_formula_structural   Rb3CuO2
_chemical_formula_sum   'Rb12 Cu4 O8'
_cell_volume   551.79246245
_cell_formula_units_Z   4
loop_
 _symmetry_equiv_pos_site_id
 _symmetry_equiv_pos_as_xyz
  1  'x, y, z'
loop_
 _atom_site_type_symbol
 _atom_site_label
 _atom_site_symmetry_multiplicity
 _atom_site_fract_x
 _atom_site_fract_y
 _atom_site_fract_z
 _atom_site_occupancy
  Rb  Rb1  1  0.24644971  0.96460826  0.50550972  1
  Rb  Rb1  1  0.75355029  0.46460826  0.99449028  1
  Rb  Rb1  1  0.75355029  0.03539174  0.49449028  1
  Rb  Rb1  1  0.24644971  0.53539174  0.00550972  1
  Rb  Rb2  1  0.26376274  0.52458984  0.62457480  1
  Rb  Rb2  1  0.73623726  0.02458984  0.87542520  1
  Rb  Rb2  1  0.73623726  0.47541016  0.37542520  1
  Rb  Rb2  1  0.26376274  0.97541016  0.12457480  1
  Rb  Rb3  1  0.75995120  0.79059174  0.18762302  1
  Rb  Rb3  1  0.24004880  0.29059174  0.31237698  1
  Rb  Rb3  1  0.24004880  0.20940826  0.81237698  1
  Rb  Rb3  1  0.75995120  0.70940826  0.68762302  1
  Cu  Cu1  1  0.29064258  0.82114274  0.82699106  1
  Cu  Cu1  1  0.70935742  0.32114274  0.67300894  1
  Cu  Cu1  1  0.70935742  0.17885726  0.17300894  1
  Cu  Cu1  1  0.29064258  0.67885726  0.32699106  1
  O  O1  1  0.50874625  0.80052810  0.37846308  1
  O  O1  1  0.49125375  0.30052810  0.12153692  1
  O  O1  1  0.49125375  0.19947190  0.62153692  1
  O  O1  1  0.50874625  0.69947190  0.87846308  1
  O  O2  1  0.93214736  0.43933428  0.72250266  1
  O  O2  1  0.93214736  0.06066572  0.22250266  1
  O  O2  1  0.06785264  0.93933428  0.77749734  1
  O  O2  1  0.06785264  0.56066572  0.27749734  1
