# generated using pymatgen
data_Rb3GaO3
_symmetry_space_group_name_H-M   'P 1'
_cell_length_a   7.36617870
_cell_length_b   11.43141984
_cell_length_c   6.76157755
_cell_angle_alpha   90.00000000
_cell_angle_beta   103.49835942
_cell_angle_gamma   90.00000000
_symmetry_Int_Tables_number   1
_chemical_formula_structural   Rb3GaO3
_chemical_formula_sum   'Rb12 Ga4 O12'
_cell_volume   553.63681292
_cell_formula_units_Z   4
loop_
 _symmetry_equiv_pos_site_id
 _symmetry_equiv_pos_as_xyz
  1  'x, y, z'
loop_
 _atom_site_type_symbol
 _atom_site_label
 _atom_site_symmetry_multiplicity
 _atom_site_fract_x
 _atom_site_fract_y
 _atom_site_fract_z
 _atom_site_occupancy
  Rb  Rb1  1  0.37214190  0.00000000  0.65355706  1
  Rb  Rb1  1  0.62785810  0.00000000  0.34644294  1
  Rb  Rb2  1  0.50000000  0.69404038  0.50000000  1
  Rb  Rb2  1  0.50000000  0.30595962  0.50000000  1
  Rb  Rb3  1  0.50000000  0.76055506  0.00000000  1
  Rb  Rb3  1  0.50000000  0.23944494  0.00000000  1
  Ga  Ga1  1  0.83421358  0.00000000  0.85114408  1
  Ga  Ga1  1  0.16578642  0.00000000  0.14885592  1
  O  O1  1  0.90238650  0.00000000  0.14590194  1
  O  O1  1  0.09761350  0.00000000  0.85409806  1
  O  O2  1  0.71409220  0.13293948  0.73327922  1
  O  O2  1  0.28590780  0.13293948  0.26672078  1
  O  O2  1  0.28590780  0.86706052  0.26672078  1
  O  O2  1  0.71409220  0.86706052  0.73327922  1
  Rb  Rb1  1  0.87214190  0.50000000  0.65355706  1
  Rb  Rb1  1  0.12785810  0.50000000  0.34644294  1
  Rb  Rb2  1  0.00000000  0.19404038  0.50000000  1
  Rb  Rb2  1  0.00000000  0.80595962  0.50000000  1
  Rb  Rb3  1  0.00000000  0.26055506  0.00000000  1
  Rb  Rb3  1  0.00000000  0.73944494  0.00000000  1
  Ga  Ga1  1  0.33421358  0.50000000  0.85114408  1
  Ga  Ga1  1  0.66578642  0.50000000  0.14885592  1
  O  O1  1  0.40238650  0.50000000  0.14590194  1
  O  O1  1  0.59761350  0.50000000  0.85409806  1
  O  O2  1  0.21409220  0.63293948  0.73327922  1
  O  O2  1  0.78590780  0.63293948  0.26672078  1
  O  O2  1  0.78590780  0.36706052  0.26672078  1
  O  O2  1  0.21409220  0.36706052  0.73327922  1
