# generated using pymatgen
data_Rb3InO3
_symmetry_space_group_name_H-M   'P 1'
_cell_length_a   7.70741499
_cell_length_b   7.10480235
_cell_length_c   11.38309117
_cell_angle_alpha   90.00000000
_cell_angle_beta   93.96835922
_cell_angle_gamma   90.00000000
_symmetry_Int_Tables_number   1
_chemical_formula_structural   Rb3InO3
_chemical_formula_sum   'Rb12 In4 O12'
_cell_volume   621.83971022
_cell_formula_units_Z   4
loop_
 _symmetry_equiv_pos_site_id
 _symmetry_equiv_pos_as_xyz
  1  'x, y, z'
loop_
 _atom_site_type_symbol
 _atom_site_label
 _atom_site_symmetry_multiplicity
 _atom_site_fract_x
 _atom_site_fract_y
 _atom_site_fract_z
 _atom_site_occupancy
  Rb  Rb1  1  0.64145046  0.32665290  0.07531212  1
  Rb  Rb2  1  0.05849788  0.62684296  0.15620726  1
  Rb  Rb3  1  0.62966212  0.80440634  0.19123787  1
  Rb  Rb3  1  0.37033788  0.30440634  0.30876213  1
  Rb  Rb2  1  0.94150212  0.12684296  0.34379274  1
  Rb  Rb1  1  0.35854954  0.82665290  0.42468788  1
  Rb  Rb1  1  0.64145046  0.17334710  0.57531212  1
  Rb  Rb2  1  0.05849788  0.87315704  0.65620726  1
  Rb  Rb3  1  0.62966212  0.69559366  0.69123787  1
  Rb  Rb3  1  0.37033788  0.19559366  0.80876213  1
  Rb  Rb2  1  0.94150212  0.37315704  0.84379274  1
  Rb  Rb1  1  0.35854954  0.67334710  0.92468788  1
  In  In1  1  0.16108520  0.08936268  0.06845634  1
  In  In1  1  0.83891480  0.58936268  0.43154366  1
  In  In1  1  0.16108520  0.41063732  0.56845634  1
  In  In1  1  0.83891480  0.91063732  0.93154366  1
  O  O1  1  0.25510200  0.35898242  0.04087253  1
  O  O2  1  0.88979486  0.04511072  0.10071257  1
  O  O3  1  0.30500884  0.93874964  0.19684297  1
  O  O3  1  0.69499116  0.43874964  0.30315703  1
  O  O2  1  0.11020514  0.54511072  0.39928743  1
  O  O1  1  0.74489800  0.85898242  0.45912747  1
  O  O1  1  0.25510200  0.14101758  0.54087253  1
  O  O2  1  0.88979486  0.45488928  0.60071257  1
  O  O3  1  0.30500884  0.56125036  0.69684297  1
  O  O3  1  0.69499116  0.06125036  0.80315703  1
  O  O2  1  0.11020514  0.95488928  0.89928743  1
  O  O1  1  0.74489800  0.64101758  0.95912747  1
