# generated using pymatgen
data_Rb3SbO3
_symmetry_space_group_name_H-M   'P 1'
_cell_length_a   8.70617744
_cell_length_b   8.70617744
_cell_length_c   8.70617744
_cell_angle_alpha   90.00000000
_cell_angle_beta   90.00000000
_cell_angle_gamma   90.00000000
_symmetry_Int_Tables_number   1
_chemical_formula_structural   Rb3SbO3
_chemical_formula_sum   'Rb12 Sb4 O12'
_cell_volume   659.90670867
_cell_formula_units_Z   4
loop_
 _symmetry_equiv_pos_site_id
 _symmetry_equiv_pos_as_xyz
  1  'x, y, z'
loop_
 _atom_site_type_symbol
 _atom_site_label
 _atom_site_symmetry_multiplicity
 _atom_site_fract_x
 _atom_site_fract_y
 _atom_site_fract_z
 _atom_site_occupancy
  Rb  Rb1  1  0.72900592  0.72900592  0.72900592  1
  Rb  Rb2  1  0.03459968  0.46540032  0.53459968  1
  Rb  Rb3  1  0.96999050  0.03000950  0.53000950  1
  Rb  Rb3  1  0.46999050  0.46999050  0.46999050  1
  Rb  Rb2  1  0.53459968  0.03459968  0.46540032  1
  Rb  Rb1  1  0.22900592  0.77099408  0.27099408  1
  Rb  Rb1  1  0.77099408  0.27099408  0.22900592  1
  Rb  Rb2  1  0.46540032  0.53459968  0.03459968  1
  Rb  Rb3  1  0.53000950  0.96999050  0.03000950  1
  Rb  Rb3  1  0.03000950  0.53000950  0.96999050  1
  Rb  Rb2  1  0.96540032  0.96540032  0.96540032  1
  Rb  Rb1  1  0.27099408  0.22900592  0.77099408  1
  Sb  Sb1  1  0.25948208  0.75948208  0.74051792  1
  Sb  Sb1  1  0.75948208  0.74051792  0.25948208  1
  Sb  Sb1  1  0.24051792  0.24051792  0.24051792  1
  Sb  Sb1  1  0.74051792  0.25948208  0.75948208  1
  O  O1  1  0.30172080  0.53875086  0.74461938  1
  O  O1  1  0.03875086  0.75538062  0.69827920  1
  O  O1  1  0.74461938  0.30172080  0.53875086  1
  O  O1  1  0.24461938  0.19827920  0.46124914  1
  O  O1  1  0.53875086  0.74461938  0.30172080  1
  O  O1  1  0.80172080  0.96124914  0.25538062  1
  O  O1  1  0.19827920  0.46124914  0.24461938  1
  O  O1  1  0.46124914  0.24461938  0.19827920  1
  O  O1  1  0.75538062  0.69827920  0.03875086  1
  O  O1  1  0.25538062  0.80172080  0.96124914  1
  O  O1  1  0.96124914  0.25538062  0.80172080  1
  O  O1  1  0.69827920  0.03875086  0.75538062  1
