# generated using pymatgen
data_Rb3TlO3
_symmetry_space_group_name_H-M   'P 1'
_cell_length_a   7.76182880
_cell_length_b   7.11179157
_cell_length_c   11.48256009
_cell_angle_alpha   90.00000000
_cell_angle_beta   93.58997477
_cell_angle_gamma   90.00000000
_symmetry_Int_Tables_number   1
_chemical_formula_structural   Rb3TlO3
_chemical_formula_sum   'Rb12 Tl4 O12'
_cell_volume   632.59936677
_cell_formula_units_Z   4
loop_
 _symmetry_equiv_pos_site_id
 _symmetry_equiv_pos_as_xyz
  1  'x, y, z'
loop_
 _atom_site_type_symbol
 _atom_site_label
 _atom_site_symmetry_multiplicity
 _atom_site_fract_x
 _atom_site_fract_y
 _atom_site_fract_z
 _atom_site_occupancy
  Rb  Rb1  1  0.05979388  0.86829342  0.65641557  1
  Rb  Rb1  1  0.05979388  0.63170658  0.15641557  1
  Rb  Rb2  1  0.64194732  0.18061684  0.57592920  1
  Rb  Rb3  1  0.37012820  0.29839690  0.31072097  1
  Rb  Rb3  1  0.62987180  0.79839690  0.18927903  1
  Rb  Rb3  1  0.62987180  0.70160310  0.68927903  1
  Rb  Rb3  1  0.37012820  0.20160310  0.81072097  1
  Rb  Rb2  1  0.64194732  0.31938316  0.07592920  1
  Rb  Rb2  1  0.35805268  0.81938316  0.42407080  1
  Rb  Rb2  1  0.35805268  0.68061684  0.92407080  1
  Rb  Rb1  1  0.94020612  0.36829342  0.84358443  1
  Rb  Rb1  1  0.94020612  0.13170658  0.34358443  1
  Tl  Tl1  1  0.16574132  0.40478202  0.57026423  1
  Tl  Tl1  1  0.83425868  0.59521798  0.42973577  1
  Tl  Tl1  1  0.16574132  0.09521798  0.07026423  1
  Tl  Tl1  1  0.83425868  0.90478202  0.92973577  1
  O  O1  1  0.30820004  0.93428396  0.19822986  1
  O  O2  1  0.11048838  0.96397876  0.89443837  1
  O  O2  1  0.88951162  0.46397876  0.60556163  1
  O  O3  1  0.26095514  0.36879242  0.03814791  1
  O  O3  1  0.73904486  0.86879242  0.46185209  1
  O  O3  1  0.73904486  0.63120758  0.96185209  1
  O  O3  1  0.26095514  0.13120758  0.53814791  1
  O  O1  1  0.30820004  0.56571604  0.69822986  1
  O  O2  1  0.88951162  0.03602124  0.10556163  1
  O  O1  1  0.69179996  0.06571604  0.80177014  1
  O  O1  1  0.69179996  0.43428396  0.30177014  1
  O  O2  1  0.11048838  0.53602124  0.39443837  1
