# generated using pymatgen
data_Rb4SnO3
_symmetry_space_group_name_H-M   'P 1'
_cell_length_a   6.62976007
_cell_length_b   19.29305338
_cell_length_c   6.91563911
_cell_angle_alpha   90.00000000
_cell_angle_beta   113.63288619
_cell_angle_gamma   90.00000000
_symmetry_Int_Tables_number   1
_chemical_formula_structural   Rb4SnO3
_chemical_formula_sum   'Rb16 Sn4 O12'
_cell_volume   810.38151582
_cell_formula_units_Z   4
loop_
 _symmetry_equiv_pos_site_id
 _symmetry_equiv_pos_as_xyz
  1  'x, y, z'
loop_
 _atom_site_type_symbol
 _atom_site_label
 _atom_site_symmetry_multiplicity
 _atom_site_fract_x
 _atom_site_fract_y
 _atom_site_fract_z
 _atom_site_occupancy
  Rb  Rb1  1  0.05874896  0.34318489  0.19299947  1
  Rb  Rb2  1  0.51552836  0.02881714  0.27601308  1
  Rb  Rb3  1  0.51292192  0.45142237  0.25276125  1
  Rb  Rb4  1  0.45279312  0.21680660  0.13858570  1
  Rb  Rb1  1  0.55874896  0.15681511  0.69299947  1
  Rb  Rb2  1  0.01552836  0.47118286  0.77601308  1
  Rb  Rb3  1  0.01292192  0.04857763  0.75276125  1
  Rb  Rb4  1  0.95279312  0.28319340  0.63858570  1
  Sn  Sn1  1  0.98102298  0.13737750  0.27480146  1
  Sn  Sn1  1  0.48102298  0.36262250  0.77480146  1
  O  O1  1  0.76269463  0.07322434  0.05089618  1
  O  O2  1  0.80287680  0.15650404  0.45604359  1
  O  O1  1  0.26269463  0.42677566  0.55089618  1
  O  O2  1  0.30287680  0.34349596  0.95604359  1
  O  O3  1  0.21922673  0.07080204  0.46521327  1
  O  O3  1  0.71922673  0.42919796  0.96521327  1
  Rb  Rb1  1  0.55874896  0.84318489  0.19299947  1
  Rb  Rb2  1  0.01552836  0.52881714  0.27601308  1
  Rb  Rb3  1  0.01292192  0.95142237  0.25276125  1
  Rb  Rb4  1  0.95279312  0.71680660  0.13858570  1
  Rb  Rb1  1  0.05874896  0.65681511  0.69299947  1
  Rb  Rb2  1  0.51552836  0.97118286  0.77601308  1
  Rb  Rb3  1  0.51292192  0.54857763  0.75276125  1
  Rb  Rb4  1  0.45279312  0.78319340  0.63858570  1
  Sn  Sn1  1  0.48102298  0.63737750  0.27480146  1
  Sn  Sn1  1  0.98102298  0.86262250  0.77480146  1
  O  O1  1  0.26269463  0.57322434  0.05089618  1
  O  O2  1  0.30287680  0.65650404  0.45604359  1
  O  O1  1  0.76269463  0.92677566  0.55089618  1
  O  O2  1  0.80287680  0.84349596  0.95604359  1
  O  O3  1  0.71922673  0.57080204  0.46521327  1
  O  O3  1  0.21922673  0.92919796  0.96521327  1
