# generated using pymatgen
data_Rb6Si2O7
_symmetry_space_group_name_H-M   'P 1'
_cell_length_a   6.71689190
_cell_length_b   9.17262179
_cell_length_c   11.28118943
_cell_angle_alpha   90.00000000
_cell_angle_beta   125.30217880
_cell_angle_gamma   90.00000000
_symmetry_Int_Tables_number   1
_chemical_formula_structural   Rb6Si2O7
_chemical_formula_sum   'Rb12 Si4 O14'
_cell_volume   567.24205908
_cell_formula_units_Z   2
loop_
 _symmetry_equiv_pos_site_id
 _symmetry_equiv_pos_as_xyz
  1  'x, y, z'
loop_
 _atom_site_type_symbol
 _atom_site_label
 _atom_site_symmetry_multiplicity
 _atom_site_fract_x
 _atom_site_fract_y
 _atom_site_fract_z
 _atom_site_occupancy
  Rb  Rb1  1  0.52333108  0.85241866  0.90955724  1
  Rb  Rb1  1  0.52333108  0.64758134  0.40955724  1
  Rb  Rb1  1  0.47666892  0.14758134  0.09044276  1
  Rb  Rb2  1  0.70757818  0.47324018  0.95560412  1
  Rb  Rb2  1  0.29242182  0.97324018  0.54439588  1
  Rb  Rb2  1  0.29242182  0.52675982  0.04439588  1
  Rb  Rb2  1  0.70757818  0.02675982  0.45560412  1
  Rb  Rb3  1  0.89256256  0.77906044  0.77618020  1
  Rb  Rb3  1  0.10743744  0.27906044  0.72381980  1
  Rb  Rb3  1  0.10743744  0.22093956  0.22381980  1
  Rb  Rb3  1  0.89256256  0.72093956  0.27618020  1
  Rb  Rb1  1  0.47666892  0.35241866  0.59044276  1
  Si  Si1  1  0.83138976  0.13298204  0.87656904  1
  Si  Si1  1  0.83138976  0.36701796  0.37656904  1
  Si  Si1  1  0.16861024  0.86701796  0.12343096  1
  Si  Si1  1  0.16861024  0.63298204  0.62343096  1
  O  O1  1  0.99483108  0.77901230  0.56482262  1
  O  O2  1  0.00000000  0.50000000  0.50000000  1
  O  O2  1  0.00000000  0.00000000  0.00000000  1
  O  O3  1  0.76625976  0.42096908  0.21923256  1
  O  O1  1  0.00516892  0.27901230  0.93517738  1
  O  O1  1  0.00516892  0.22098770  0.43517738  1
  O  O1  1  0.99483108  0.72098770  0.06482262  1
  O  O4  1  0.58569266  0.15708348  0.87360098  1
  O  O4  1  0.41430734  0.65708348  0.62639902  1
  O  O4  1  0.41430734  0.84291652  0.12639902  1
  O  O4  1  0.58569266  0.34291652  0.37360098  1
  O  O3  1  0.76625976  0.07903092  0.71923256  1
  O  O3  1  0.23374024  0.57903092  0.78076744  1
  O  O3  1  0.23374024  0.92096908  0.28076744  1
