# generated using pymatgen
data_Rb6Ti2O7
_symmetry_space_group_name_H-M   'P 1'
_cell_length_a   6.81060151
_cell_length_b   9.58608368
_cell_length_c   11.63078377
_cell_angle_alpha   90.00000000
_cell_angle_beta   123.62064056
_cell_angle_gamma   90.00000000
_symmetry_Int_Tables_number   1
_chemical_formula_structural   Rb6Ti2O7
_chemical_formula_sum   'Rb12 Ti4 O14'
_cell_volume   632.31810589
_cell_formula_units_Z   2
loop_
 _symmetry_equiv_pos_site_id
 _symmetry_equiv_pos_as_xyz
  1  'x, y, z'
loop_
 _atom_site_type_symbol
 _atom_site_label
 _atom_site_symmetry_multiplicity
 _atom_site_fract_x
 _atom_site_fract_y
 _atom_site_fract_z
 _atom_site_occupancy
  Rb  Rb1  1  0.59297698  0.29196838  0.21863300  1
  Rb  Rb2  1  0.95031469  0.15260114  0.57252538  1
  Rb  Rb3  1  0.20379221  0.02616672  0.95178594  1
  Rb  Rb3  1  0.79620779  0.52616672  0.54821406  1
  Rb  Rb1  1  0.40702302  0.79196838  0.28136700  1
  Rb  Rb2  1  0.04968531  0.65260114  0.92747462  1
  Rb  Rb2  1  0.95031469  0.34739886  0.07252538  1
  Rb  Rb1  1  0.59297698  0.20803162  0.71863300  1
  Rb  Rb3  1  0.20379221  0.47383328  0.45178594  1
  Rb  Rb3  1  0.79620779  0.97383328  0.04821406  1
  Rb  Rb2  1  0.04968531  0.84739886  0.42747462  1
  Rb  Rb1  1  0.40702302  0.70803162  0.78136700  1
  Ti  Ti1  1  0.31471594  0.35880176  0.86895166  1
  Ti  Ti1  1  0.68528406  0.85880176  0.63104834  1
  Ti  Ti1  1  0.31471594  0.14119824  0.36895166  1
  Ti  Ti1  1  0.68528406  0.64119824  0.13104834  1
  O  O1  1  0.50000000  0.50000000  0.00000000  1
  O  O2  1  0.75425056  0.59382812  0.30120634  1
  O  O3  1  0.49876520  0.79580722  0.07165662  1
  O  O4  1  0.95359839  0.82917250  0.63425686  1
  O  O4  1  0.04640161  0.32917250  0.86574314  1
  O  O3  1  0.50123480  0.29580722  0.42834338  1
  O  O2  1  0.24574944  0.09382812  0.19879366  1
  O  O1  1  0.50000000  0.00000000  0.50000000  1
  O  O2  1  0.75425056  0.90617188  0.80120634  1
  O  O3  1  0.49876520  0.70419278  0.57165662  1
  O  O4  1  0.95359839  0.67082750  0.13425686  1
  O  O4  1  0.04640161  0.17082750  0.36574314  1
  O  O3  1  0.50123480  0.20419278  0.92834338  1
  O  O2  1  0.24574944  0.40617188  0.69879366  1
