# generated using pymatgen
data_RbAgO2
_symmetry_space_group_name_H-M   'P 1'
_cell_length_a   4.63478037
_cell_length_b   12.23671675
_cell_length_c   5.92488186
_cell_angle_alpha   90.00000000
_cell_angle_beta   90.00000000
_cell_angle_gamma   90.00000000
_symmetry_Int_Tables_number   1
_chemical_formula_structural   RbAgO2
_chemical_formula_sum   'Rb4 Ag4 O8'
_cell_volume   336.02668070
_cell_formula_units_Z   4
loop_
 _symmetry_equiv_pos_site_id
 _symmetry_equiv_pos_as_xyz
  1  'x, y, z'
loop_
 _atom_site_type_symbol
 _atom_site_label
 _atom_site_symmetry_multiplicity
 _atom_site_fract_x
 _atom_site_fract_y
 _atom_site_fract_z
 _atom_site_occupancy
  Rb  Rb1  1  0.00000000  0.29918191  0.75000000  1
  Rb  Rb1  1  0.50000000  0.20081809  0.25000000  1
  Ag  Ag1  1  0.00000000  0.00281156  0.75000000  1
  Ag  Ag1  1  0.50000000  0.49718844  0.25000000  1
  O  O1  1  0.00000000  0.10893647  0.49434970  1
  O  O1  1  0.50000000  0.39106353  0.50565030  1
  O  O1  1  0.50000000  0.39106353  0.99434970  1
  O  O1  1  0.00000000  0.10893647  0.00565030  1
  Rb  Rb1  1  0.50000000  0.79918191  0.75000000  1
  Rb  Rb1  1  0.00000000  0.70081809  0.25000000  1
  Ag  Ag1  1  0.50000000  0.50281156  0.75000000  1
  Ag  Ag1  1  0.00000000  0.99718844  0.25000000  1
  O  O1  1  0.50000000  0.60893647  0.49434970  1
  O  O1  1  0.00000000  0.89106353  0.50565030  1
  O  O1  1  0.00000000  0.89106353  0.99434970  1
  O  O1  1  0.50000000  0.60893647  0.00565030  1
