# generated using pymatgen
data_RbAgO
_symmetry_space_group_name_H-M   'P 1'
_cell_length_a   9.94912099
_cell_length_b   9.94912099
_cell_length_c   5.77967953
_cell_angle_alpha   90.00000000
_cell_angle_beta   90.00000000
_cell_angle_gamma   90.00000000
_symmetry_Int_Tables_number   1
_chemical_formula_structural   RbAgO
_chemical_formula_sum   'Rb8 Ag8 O8'
_cell_volume   572.10162783
_cell_formula_units_Z   8
loop_
 _symmetry_equiv_pos_site_id
 _symmetry_equiv_pos_as_xyz
  1  'x, y, z'
loop_
 _atom_site_type_symbol
 _atom_site_label
 _atom_site_symmetry_multiplicity
 _atom_site_fract_x
 _atom_site_fract_y
 _atom_site_fract_z
 _atom_site_occupancy
  Rb  Rb1  1  0.81305158  0.50000000  0.00000000  1
  Rb  Rb1  1  0.00000000  0.31305158  0.50000000  1
  Rb  Rb1  1  0.00000000  0.68694842  0.50000000  1
  Rb  Rb1  1  0.18694842  0.50000000  0.00000000  1
  Ag  Ag1  1  0.85512736  0.14487264  0.00000000  1
  Ag  Ag1  1  0.35512736  0.35512736  0.50000000  1
  Ag  Ag1  1  0.14487264  0.14487264  0.00000000  1
  Ag  Ag1  1  0.64487264  0.35512736  0.50000000  1
  O  O1  1  0.78915834  0.50000000  0.50000000  1
  O  O1  1  0.00000000  0.28915834  0.00000000  1
  O  O1  1  0.00000000  0.71084166  0.00000000  1
  O  O1  1  0.21084166  0.50000000  0.50000000  1
  Rb  Rb1  1  0.31305158  0.00000000  0.50000000  1
  Rb  Rb1  1  0.50000000  0.81305158  0.00000000  1
  Rb  Rb1  1  0.50000000  0.18694842  0.00000000  1
  Rb  Rb1  1  0.68694842  0.00000000  0.50000000  1
  Ag  Ag1  1  0.35512736  0.64487264  0.50000000  1
  Ag  Ag1  1  0.85512736  0.85512736  0.00000000  1
  Ag  Ag1  1  0.64487264  0.64487264  0.50000000  1
  Ag  Ag1  1  0.14487264  0.85512736  0.00000000  1
  O  O1  1  0.28915834  0.00000000  0.00000000  1
  O  O1  1  0.50000000  0.78915834  0.50000000  1
  O  O1  1  0.50000000  0.21084166  0.50000000  1
  O  O1  1  0.71084166  0.00000000  0.00000000  1
