# generated using pymatgen
data_RbAlSiO4
_symmetry_space_group_name_H-M   'P 1'
_cell_length_a   8.74990928
_cell_length_b   9.21354975
_cell_length_c   5.32861708
_cell_angle_alpha   90.00000000
_cell_angle_beta   90.00000000
_cell_angle_gamma   90.00000000
_symmetry_Int_Tables_number   1
_chemical_formula_structural   RbAlSiO4
_chemical_formula_sum   'Rb4 Al4 Si4 O16'
_cell_volume   429.58098326
_cell_formula_units_Z   4
loop_
 _symmetry_equiv_pos_site_id
 _symmetry_equiv_pos_as_xyz
  1  'x, y, z'
loop_
 _atom_site_type_symbol
 _atom_site_label
 _atom_site_symmetry_multiplicity
 _atom_site_fract_x
 _atom_site_fract_y
 _atom_site_fract_z
 _atom_site_occupancy
  Rb  Rb1  1  0.00115348  0.29324234  0.48940890  1
  Rb  Rb1  1  0.99884652  0.70675766  0.98940890  1
  Rb  Rb1  1  0.49884652  0.79324234  0.98940890  1
  Rb  Rb1  1  0.50115348  0.20675766  0.48940890  1
  Al  Al1  1  0.81175656  0.08279534  0.01134045  1
  Al  Al1  1  0.18824344  0.91720466  0.51134045  1
  Al  Al1  1  0.68824344  0.58279534  0.51134045  1
  Al  Al1  1  0.31175656  0.41720466  0.01134045  1
  Si  Si1  1  0.69450962  0.41633300  0.01176931  1
  Si  Si1  1  0.30549038  0.58366700  0.51176931  1
  Si  Si1  1  0.80549038  0.91633300  0.51176931  1
  Si  Si1  1  0.19450962  0.08366700  0.01176931  1
  O  O1  1  0.75286990  0.25636024  0.09945673  1
  O  O1  1  0.24713010  0.74363976  0.59945673  1
  O  O1  1  0.74713010  0.75636024  0.59945673  1
  O  O1  1  0.25286990  0.24363976  0.09945673  1
  O  O2  1  0.75948766  0.53592612  0.21386931  1
  O  O2  1  0.24051234  0.46407388  0.71386931  1
  O  O2  1  0.74051234  0.03592612  0.71386931  1
  O  O2  1  0.25948766  0.96407388  0.21386931  1
  O  O3  1  0.76018516  0.45758856  0.73264279  1
  O  O3  1  0.23981484  0.54241144  0.23264279  1
  O  O3  1  0.73981484  0.95758856  0.23264279  1
  O  O3  1  0.26018516  0.04241144  0.73264279  1
  O  O4  1  0.00965586  0.08385728  0.00924351  1
  O  O4  1  0.99034414  0.91614272  0.50924351  1
  O  O4  1  0.49034414  0.58385728  0.50924351  1
  O  O4  1  0.50965586  0.41614272  0.00924351  1
