# generated using pymatgen
data_RbAl(MoO4)2
_symmetry_space_group_name_H-M   'P 1'
_cell_length_a   5.59245132
_cell_length_b   5.59245132
_cell_length_c   7.45590528
_cell_angle_alpha   90.00000000
_cell_angle_beta   90.00000000
_cell_angle_gamma   120.00000000
_symmetry_Int_Tables_number   1
_chemical_formula_structural   RbAl(MoO4)2
_chemical_formula_sum   'Rb1 Al1 Mo2 O8'
_cell_volume   201.94608531
_cell_formula_units_Z   1
loop_
 _symmetry_equiv_pos_site_id
 _symmetry_equiv_pos_as_xyz
  1  'x, y, z'
loop_
 _atom_site_type_symbol
 _atom_site_label
 _atom_site_symmetry_multiplicity
 _atom_site_fract_x
 _atom_site_fract_y
 _atom_site_fract_z
 _atom_site_occupancy
  Rb  Rb1  1  0.00000000  0.00000000  0.00000000  1
  Al  Al1  1  0.00000000  0.00000000  0.50000000  1
  Mo  Mo1  1  0.66666667  0.33333333  0.27640782  1
  Mo  Mo1  1  0.33333333  0.66666667  0.72359218  1
  O  O1  1  0.31395724  0.15697862  0.35021748  1
  O  O1  1  0.68604276  0.84302138  0.64978252  1
  O  O1  1  0.84302138  0.15697862  0.35021748  1
  O  O1  1  0.15697862  0.84302138  0.64978252  1
  O  O1  1  0.84302138  0.68604276  0.35021748  1
  O  O1  1  0.15697862  0.31395724  0.64978252  1
  O  O2  1  0.66666667  0.33333333  0.04228296  1
  O  O2  1  0.33333333  0.66666667  0.95771704  1
