# generated using pymatgen
data_RbAsO2
_symmetry_space_group_name_H-M   'P 1'
_cell_length_a   7.38147462
_cell_length_b   7.74369398
_cell_length_c   5.50896340
_cell_angle_alpha   90.00000000
_cell_angle_beta   90.00000000
_cell_angle_gamma   90.00000000
_symmetry_Int_Tables_number   1
_chemical_formula_structural   RbAsO2
_chemical_formula_sum   'Rb4 As4 O8'
_cell_volume   314.89168945
_cell_formula_units_Z   4
loop_
 _symmetry_equiv_pos_site_id
 _symmetry_equiv_pos_as_xyz
  1  'x, y, z'
loop_
 _atom_site_type_symbol
 _atom_site_label
 _atom_site_symmetry_multiplicity
 _atom_site_fract_x
 _atom_site_fract_y
 _atom_site_fract_z
 _atom_site_occupancy
  Rb  Rb1  1  0.36137510  0.40204266  0.25000000  1
  Rb  Rb1  1  0.63862490  0.59795734  0.75000000  1
  Rb  Rb1  1  0.36137510  0.09795734  0.75000000  1
  Rb  Rb1  1  0.63862490  0.90204266  0.25000000  1
  As  As1  1  0.85439348  0.36703782  0.25000000  1
  As  As1  1  0.85439348  0.13296218  0.75000000  1
  As  As1  1  0.14560652  0.63296218  0.75000000  1
  As  As1  1  0.14560652  0.86703782  0.25000000  1
  O  O1  1  0.26593906  0.75000000  0.50000000  1
  O  O1  1  0.73406094  0.25000000  0.00000000  1
  O  O1  1  0.73406094  0.25000000  0.50000000  1
  O  O1  1  0.26593906  0.75000000  0.00000000  1
  O  O2  1  0.72386188  0.54952442  0.25000000  1
  O  O2  1  0.27613812  0.04952442  0.25000000  1
  O  O2  1  0.72386188  0.95047558  0.75000000  1
  O  O2  1  0.27613812  0.45047558  0.75000000  1
