# generated using pymatgen
data_RbAuO2
_symmetry_space_group_name_H-M   'P 1'
_cell_length_a   4.72243885
_cell_length_b   12.09566265
_cell_length_c   6.03098982
_cell_angle_alpha   90.00000000
_cell_angle_beta   90.00000000
_cell_angle_gamma   90.00000000
_symmetry_Int_Tables_number   1
_chemical_formula_structural   RbAuO2
_chemical_formula_sum   'Rb4 Au4 O8'
_cell_volume   344.49633340
_cell_formula_units_Z   4
loop_
 _symmetry_equiv_pos_site_id
 _symmetry_equiv_pos_as_xyz
  1  'x, y, z'
loop_
 _atom_site_type_symbol
 _atom_site_label
 _atom_site_symmetry_multiplicity
 _atom_site_fract_x
 _atom_site_fract_y
 _atom_site_fract_z
 _atom_site_occupancy
  Rb  Rb1  1  0.50000000  0.19834392  0.25000000  1
  Rb  Rb1  1  0.00000000  0.30165608  0.75000000  1
  Au  Au1  1  0.00000000  0.00252603  0.75000000  1
  Au  Au1  1  0.50000000  0.49747397  0.25000000  1
  O  O1  1  0.00000000  0.10924023  0.00478262  1
  O  O1  1  0.50000000  0.39075977  0.99521738  1
  O  O1  1  0.00000000  0.10924023  0.49521738  1
  O  O1  1  0.50000000  0.39075977  0.50478262  1
  Rb  Rb1  1  0.00000000  0.69834392  0.25000000  1
  Rb  Rb1  1  0.50000000  0.80165608  0.75000000  1
  Au  Au1  1  0.50000000  0.50252603  0.75000000  1
  Au  Au1  1  0.00000000  0.99747397  0.25000000  1
  O  O1  1  0.50000000  0.60924023  0.00478262  1
  O  O1  1  0.00000000  0.89075977  0.99521738  1
  O  O1  1  0.50000000  0.60924023  0.49521738  1
  O  O1  1  0.00000000  0.89075977  0.50478262  1
