# generated using pymatgen
data_RbAuO
_symmetry_space_group_name_H-M   'P 1'
_cell_length_a   9.87215110
_cell_length_b   9.87215110
_cell_length_c   5.80726947
_cell_angle_alpha   90.00000000
_cell_angle_beta   90.00000000
_cell_angle_gamma   90.00000000
_symmetry_Int_Tables_number   1
_chemical_formula_structural   RbAuO
_chemical_formula_sum   'Rb8 Au8 O8'
_cell_volume   565.97280885
_cell_formula_units_Z   8
loop_
 _symmetry_equiv_pos_site_id
 _symmetry_equiv_pos_as_xyz
  1  'x, y, z'
loop_
 _atom_site_type_symbol
 _atom_site_label
 _atom_site_symmetry_multiplicity
 _atom_site_fract_x
 _atom_site_fract_y
 _atom_site_fract_z
 _atom_site_occupancy
  Rb  Rb1  1  0.19464768  0.50000000  0.00000000  1
  Rb  Rb1  1  0.00000000  0.30535232  0.50000000  1
  Rb  Rb1  1  0.00000000  0.69464768  0.50000000  1
  Rb  Rb1  1  0.80535232  0.50000000  0.00000000  1
  Au  Au1  1  0.85060474  0.14939526  0.00000000  1
  Au  Au1  1  0.14939526  0.14939526  0.00000000  1
  Au  Au1  1  0.35060474  0.35060474  0.50000000  1
  Au  Au1  1  0.64939526  0.35060474  0.50000000  1
  O  O1  1  0.21054542  0.50000000  0.50000000  1
  O  O1  1  0.00000000  0.28945458  0.00000000  1
  O  O1  1  0.00000000  0.71054542  0.00000000  1
  O  O1  1  0.78945458  0.50000000  0.50000000  1
  Rb  Rb1  1  0.69464768  0.00000000  0.50000000  1
  Rb  Rb1  1  0.50000000  0.80535232  0.00000000  1
  Rb  Rb1  1  0.50000000  0.19464768  0.00000000  1
  Rb  Rb1  1  0.30535232  0.00000000  0.50000000  1
  Au  Au1  1  0.35060474  0.64939526  0.50000000  1
  Au  Au1  1  0.64939526  0.64939526  0.50000000  1
  Au  Au1  1  0.85060474  0.85060474  0.00000000  1
  Au  Au1  1  0.14939526  0.85060474  0.00000000  1
  O  O1  1  0.71054542  0.00000000  0.00000000  1
  O  O1  1  0.50000000  0.78945458  0.50000000  1
  O  O1  1  0.50000000  0.21054542  0.50000000  1
  O  O1  1  0.28945458  0.00000000  0.00000000  1
