# generated using pymatgen
data_RbBiO2
_symmetry_space_group_name_H-M   'P 1'
_cell_length_a   8.03804041
_cell_length_b   8.37410989
_cell_length_c   5.99953586
_cell_angle_alpha   90.00000000
_cell_angle_beta   123.96800619
_cell_angle_gamma   90.00000000
_symmetry_Int_Tables_number   1
_chemical_formula_structural   RbBiO2
_chemical_formula_sum   'Rb4 Bi4 O8'
_cell_volume   334.92239156
_cell_formula_units_Z   4
loop_
 _symmetry_equiv_pos_site_id
 _symmetry_equiv_pos_as_xyz
  1  'x, y, z'
loop_
 _atom_site_type_symbol
 _atom_site_label
 _atom_site_symmetry_multiplicity
 _atom_site_fract_x
 _atom_site_fract_y
 _atom_site_fract_z
 _atom_site_occupancy
  Rb  Rb1  1  0.50000000  0.86612846  0.25000000  1
  Rb  Rb1  1  0.50000000  0.13387154  0.75000000  1
  Bi  Bi1  1  0.50000000  0.59848716  0.75000000  1
  Bi  Bi1  1  0.50000000  0.40151284  0.25000000  1
  O  O1  1  0.81413796  0.93766116  0.78583055  1
  O  O1  1  0.18586204  0.93766116  0.71416945  1
  O  O1  1  0.81413796  0.06233884  0.28583055  1
  O  O1  1  0.18586204  0.06233884  0.21416945  1
  Rb  Rb1  1  0.00000000  0.36612846  0.25000000  1
  Rb  Rb1  1  0.00000000  0.63387154  0.75000000  1
  Bi  Bi1  1  0.00000000  0.09848716  0.75000000  1
  Bi  Bi1  1  0.00000000  0.90151284  0.25000000  1
  O  O1  1  0.31413796  0.43766116  0.78583055  1
  O  O1  1  0.68586204  0.43766116  0.71416945  1
  O  O1  1  0.31413796  0.56233884  0.28583055  1
  O  O1  1  0.68586204  0.56233884  0.21416945  1
