# generated using pymatgen
data_RbBO2
_symmetry_space_group_name_H-M   'P 1'
_cell_length_a   13.12156001
_cell_length_b   13.12156001
_cell_length_c   7.72442025
_cell_angle_alpha   90.00000000
_cell_angle_beta   90.00000000
_cell_angle_gamma   120.00000000
_symmetry_Int_Tables_number   1
_chemical_formula_structural   RbBO2
_chemical_formula_sum   'Rb18 B18 O36'
_cell_volume   1151.77452180
_cell_formula_units_Z   18
loop_
 _symmetry_equiv_pos_site_id
 _symmetry_equiv_pos_as_xyz
  1  'x, y, z'
loop_
 _atom_site_type_symbol
 _atom_site_label
 _atom_site_symmetry_multiplicity
 _atom_site_fract_x
 _atom_site_fract_y
 _atom_site_fract_z
 _atom_site_occupancy
  Rb  Rb1  1  0.43936159  0.00000000  0.25000000  1
  Rb  Rb1  1  0.33333333  0.10602825  0.91666667  1
  Rb  Rb1  1  0.22730508  0.89397175  0.58333333  1
  Rb  Rb1  1  0.89397175  0.66666667  0.41666667  1
  Rb  Rb1  1  0.00000000  0.56063841  0.75000000  1
  Rb  Rb1  1  0.10602825  0.77269492  0.08333333  1
  B  B1  1  0.11053760  0.00000000  0.25000000  1
  B  B1  1  0.33333333  0.77720427  0.91666667  1
  B  B1  1  0.55612906  0.22279573  0.58333333  1
  B  B1  1  0.22279573  0.66666667  0.41666667  1
  B  B1  1  0.00000000  0.88946240  0.75000000  1
  B  B1  1  0.77720427  0.44387094  0.08333333  1
  O  O1  1  0.87808575  0.54475242  0.08333333  1
  O  O1  1  -0.00000000  0.78858091  0.75000000  1
  O  O1  1  0.12191425  0.66666667  0.41666667  1
  O  O1  1  0.45524758  0.12191425  0.58333333  1
  O  O1  1  0.33333333  0.87808575  0.91666667  1
  O  O1  1  0.21141909  0.00000000  0.25000000  1
  O  O2  1  0.10572927  0.00000000  0.75000000  1
  O  O2  1  0.56093740  0.22760406  0.08333333  1
  O  O2  1  0.33333333  0.77239594  0.41666667  1
  O  O2  1  0.22760406  0.66666667  0.91666667  1
  O  O2  1  0.77239594  0.43906260  0.58333333  1
  O  O2  1  0.00000000  0.89427073  0.25000000  1
  Rb  Rb1  1  0.10602825  0.33333333  0.58333333  1
  Rb  Rb1  1  0.00000000  0.43936159  0.25000000  1
  Rb  Rb1  1  0.89397175  0.22730508  0.91666667  1
  Rb  Rb1  1  0.56063841  0.00000000  0.75000000  1
  Rb  Rb1  1  0.66666667  0.89397175  0.08333333  1
  Rb  Rb1  1  0.77269492  0.10602825  0.41666667  1
  B  B1  1  0.77720427  0.33333333  0.58333333  1
  B  B1  1  -0.00000000  0.11053760  0.25000000  1
  B  B1  1  0.22279573  0.55612906  0.91666667  1
  B  B1  1  0.88946240  0.00000000  0.75000000  1
  B  B1  1  0.66666667  0.22279573  0.08333333  1
  B  B1  1  0.44387094  0.77720427  0.41666667  1
  O  O1  1  0.54475242  0.87808575  0.41666667  1
  O  O1  1  0.66666667  0.12191425  0.08333333  1
  O  O1  1  0.78858091  0.00000000  0.75000000  1
  O  O1  1  0.12191425  0.45524758  0.91666667  1
  O  O1  1  -0.00000000  0.21141909  0.25000000  1
  O  O1  1  0.87808575  0.33333333  0.58333333  1
  O  O2  1  0.77239594  0.33333333  0.08333333  1
  O  O2  1  0.22760406  0.56093740  0.41666667  1
  O  O2  1  -0.00000000  0.10572927  0.75000000  1
  O  O2  1  0.89427073  0.00000000  0.25000000  1
  O  O2  1  0.43906260  0.77239594  0.91666667  1
  O  O2  1  0.66666667  0.22760406  0.58333333  1
  Rb  Rb1  1  0.77269492  0.66666667  0.91666667  1
  Rb  Rb1  1  0.66666667  0.77269492  0.58333333  1
  Rb  Rb1  1  0.56063841  0.56063841  0.25000000  1
  Rb  Rb1  1  0.22730508  0.33333333  0.08333333  1
  Rb  Rb1  1  0.33333333  0.22730508  0.41666667  1
  Rb  Rb1  1  0.43936159  0.43936159  0.75000000  1
  B  B1  1  0.44387094  0.66666667  0.91666667  1
  B  B1  1  0.66666667  0.44387094  0.58333333  1
  B  B1  1  0.88946240  0.88946240  0.25000000  1
  B  B1  1  0.55612906  0.33333333  0.08333333  1
  B  B1  1  0.33333333  0.55612906  0.41666667  1
  B  B1  1  0.11053760  0.11053760  0.75000000  1
  O  O1  1  0.21141909  0.21141909  0.75000000  1
  O  O1  1  0.33333333  0.45524758  0.41666667  1
  O  O1  1  0.45524758  0.33333333  0.08333333  1
  O  O1  1  0.78858091  0.78858091  0.25000000  1
  O  O1  1  0.66666667  0.54475242  0.58333333  1
  O  O1  1  0.54475242  0.66666667  0.91666667  1
  O  O2  1  0.43906260  0.66666667  0.41666667  1
  O  O2  1  0.89427073  0.89427073  0.75000000  1
  O  O2  1  0.66666667  0.43906260  0.08333333  1
  O  O2  1  0.56093740  0.33333333  0.58333333  1
  O  O2  1  0.10572927  0.10572927  0.25000000  1
  O  O2  1  0.33333333  0.56093740  0.91666667  1
