# generated using pymatgen
data_RbCuO
_symmetry_space_group_name_H-M   'P 1'
_cell_length_a   9.39684730
_cell_length_b   9.39684730
_cell_length_c   5.77372585
_cell_angle_alpha   90.00000000
_cell_angle_beta   90.00000000
_cell_angle_gamma   90.00000000
_symmetry_Int_Tables_number   1
_chemical_formula_structural   RbCuO
_chemical_formula_sum   'Rb8 Cu8 O8'
_cell_volume   509.82425983
_cell_formula_units_Z   8
loop_
 _symmetry_equiv_pos_site_id
 _symmetry_equiv_pos_as_xyz
  1  'x, y, z'
loop_
 _atom_site_type_symbol
 _atom_site_label
 _atom_site_symmetry_multiplicity
 _atom_site_fract_x
 _atom_site_fract_y
 _atom_site_fract_z
 _atom_site_occupancy
  Rb  Rb1  1  0.00000000  0.30497132  0.50000000  1
  Rb  Rb1  1  0.19502868  0.50000000  0.00000000  1
  Rb  Rb1  1  0.00000000  0.69502868  0.50000000  1
  Rb  Rb1  1  0.80497132  0.50000000  0.00000000  1
  Cu  Cu1  1  0.36520176  0.36520176  0.50000000  1
  Cu  Cu1  1  0.13479824  0.13479824  0.00000000  1
  Cu  Cu1  1  0.86520176  0.13479824  0.00000000  1
  Cu  Cu1  1  0.63479824  0.36520176  0.50000000  1
  O  O1  1  0.77226982  0.50000000  0.50000000  1
  O  O1  1  0.00000000  0.27226982  0.00000000  1
  O  O1  1  0.00000000  0.72773018  0.00000000  1
  O  O1  1  0.22773018  0.50000000  0.50000000  1
  Rb  Rb1  1  0.50000000  0.80497132  0.00000000  1
  Rb  Rb1  1  0.69502868  0.00000000  0.50000000  1
  Rb  Rb1  1  0.50000000  0.19502868  0.00000000  1
  Rb  Rb1  1  0.30497132  0.00000000  0.50000000  1
  Cu  Cu1  1  0.86520176  0.86520176  0.00000000  1
  Cu  Cu1  1  0.63479824  0.63479824  0.50000000  1
  Cu  Cu1  1  0.36520176  0.63479824  0.50000000  1
  Cu  Cu1  1  0.13479824  0.86520176  0.00000000  1
  O  O1  1  0.27226982  0.00000000  0.00000000  1
  O  O1  1  0.50000000  0.77226982  0.50000000  1
  O  O1  1  0.50000000  0.22773018  0.50000000  1
  O  O1  1  0.72773018  0.00000000  0.00000000  1
