# generated using pymatgen
data_RbLaO2
_symmetry_space_group_name_H-M   'P 1'
_cell_length_a   3.71129785
_cell_length_b   3.71129785
_cell_length_c   19.40420193
_cell_angle_alpha   90.00000000
_cell_angle_beta   90.00000000
_cell_angle_gamma   120.00000000
_symmetry_Int_Tables_number   1
_chemical_formula_structural   RbLaO2
_chemical_formula_sum   'Rb3 La3 O6'
_cell_volume   231.46111304
_cell_formula_units_Z   3
loop_
 _symmetry_equiv_pos_site_id
 _symmetry_equiv_pos_as_xyz
  1  'x, y, z'
loop_
 _atom_site_type_symbol
 _atom_site_label
 _atom_site_symmetry_multiplicity
 _atom_site_fract_x
 _atom_site_fract_y
 _atom_site_fract_z
 _atom_site_occupancy
  Rb  Rb1  1  0.00000000  0.00000000  0.00000000  1
  La  La1  1  0.66666667  0.33333333  0.83333333  1
  O  O1  1  0.00000000  0.00000000  0.77268775  1
  O  O1  1  0.33333333  0.66666667  0.89397892  1
  Rb  Rb1  1  0.66666667  0.33333333  0.33333333  1
  La  La1  1  0.33333333  0.66666667  0.16666667  1
  O  O1  1  0.66666667  0.33333333  0.10602108  1
  O  O1  1  0.00000000  0.00000000  0.22731225  1
  Rb  Rb1  1  0.33333333  0.66666667  0.66666667  1
  La  La1  1  -0.00000000  -0.00000000  0.50000000  1
  O  O1  1  0.33333333  0.66666667  0.43935442  1
  O  O1  1  0.66666667  0.33333333  0.56064558  1
