# generated using pymatgen
data_RbLa(MoO4)2
_symmetry_space_group_name_H-M   'P 1'
_cell_length_a   6.33960340
_cell_length_b   6.33960340
_cell_length_c   9.69022244
_cell_angle_alpha   90.00000000
_cell_angle_beta   90.00000000
_cell_angle_gamma   90.00000000
_symmetry_Int_Tables_number   1
_chemical_formula_structural   RbLa(MoO4)2
_chemical_formula_sum   'Rb2 La2 Mo4 O16'
_cell_volume   389.45557498
_cell_formula_units_Z   2
loop_
 _symmetry_equiv_pos_site_id
 _symmetry_equiv_pos_as_xyz
  1  'x, y, z'
loop_
 _atom_site_type_symbol
 _atom_site_label
 _atom_site_symmetry_multiplicity
 _atom_site_fract_x
 _atom_site_fract_y
 _atom_site_fract_z
 _atom_site_occupancy
  Rb  Rb1  1  0.00000000  0.00000000  0.50000000  1
  Rb  Rb1  1  0.50000000  0.50000000  0.00000000  1
  La  La1  1  0.00000000  0.00000000  0.00000000  1
  La  La1  1  0.50000000  0.50000000  0.50000000  1
  Mo  Mo1  1  0.00000000  0.50000000  0.75000000  1
  Mo  Mo1  1  0.00000000  0.50000000  0.25000000  1
  Mo  Mo1  1  0.50000000  0.00000000  0.75000000  1
  Mo  Mo1  1  0.50000000  0.00000000  0.25000000  1
  O  O1  1  0.80671553  0.61787091  0.63954426  1
  O  O1  1  0.19328447  0.38212909  0.63954426  1
  O  O1  1  0.61787091  0.80671553  0.36045574  1
  O  O1  1  0.61787091  0.19328447  0.63954426  1
  O  O1  1  0.38212909  0.80671553  0.63954426  1
  O  O1  1  0.19328447  0.61787091  0.36045574  1
  O  O1  1  0.80671553  0.38212909  0.36045574  1
  O  O1  1  0.38212909  0.19328447  0.36045574  1
  O  O1  1  0.11787091  0.30671553  0.13954426  1
  O  O1  1  0.69328447  0.11787091  0.13954426  1
  O  O1  1  0.30671553  0.88212909  0.13954426  1
  O  O1  1  0.11787091  0.69328447  0.86045574  1
  O  O1  1  0.88212909  0.30671553  0.86045574  1
  O  O1  1  0.88212909  0.69328447  0.13954426  1
  O  O1  1  0.30671553  0.11787091  0.86045574  1
  O  O1  1  0.69328447  0.88212909  0.86045574  1
