# generated using pymatgen
data_RbLiZn2O3
_symmetry_space_group_name_H-M   'P 1'
_cell_length_a   10.16674995
_cell_length_b   10.16674995
_cell_length_c   3.38188657
_cell_angle_alpha   90.00000000
_cell_angle_beta   90.00000000
_cell_angle_gamma   90.00000000
_symmetry_Int_Tables_number   1
_chemical_formula_structural   RbLiZn2O3
_chemical_formula_sum   'Rb4 Li4 Zn8 O12'
_cell_volume   349.56128019
_cell_formula_units_Z   4
loop_
 _symmetry_equiv_pos_site_id
 _symmetry_equiv_pos_as_xyz
  1  'x, y, z'
loop_
 _atom_site_type_symbol
 _atom_site_label
 _atom_site_symmetry_multiplicity
 _atom_site_fract_x
 _atom_site_fract_y
 _atom_site_fract_z
 _atom_site_occupancy
  Rb  Rb1  1  0.39059840  0.39059840  0.00000000  1
  Rb  Rb1  1  0.89059840  0.10940160  0.50000000  1
  Rb  Rb1  1  0.10940160  0.89059840  0.50000000  1
  Rb  Rb1  1  0.60940160  0.60940160  0.00000000  1
  Li  Li1  1  0.79770395  0.79770395  0.50000000  1
  Li  Li1  1  0.20229605  0.20229605  0.50000000  1
  Li  Li1  1  0.29770395  0.70229605  0.00000000  1
  Li  Li1  1  0.70229605  0.29770395  0.00000000  1
  Zn  Zn1  1  0.32917506  0.07389559  0.00000000  1
  Zn  Zn1  1  0.67082494  0.92610441  0.00000000  1
  Zn  Zn1  1  0.42610441  0.82917506  0.50000000  1
  Zn  Zn1  1  0.57389559  0.17082494  0.50000000  1
  Zn  Zn1  1  0.07389559  0.32917506  0.00000000  1
  Zn  Zn1  1  0.82917506  0.42610441  0.50000000  1
  Zn  Zn1  1  0.17082494  0.57389559  0.50000000  1
  Zn  Zn1  1  0.92610441  0.67082494  0.00000000  1
  O  O1  1  0.38751977  0.15284650  0.50000000  1
  O  O1  1  0.84715350  0.61248023  0.50000000  1
  O  O1  1  0.15284650  0.38751977  0.50000000  1
  O  O1  1  0.88751977  0.34715350  0.00000000  1
  O  O2  1  0.85780678  0.85780678  0.00000000  1
  O  O2  1  0.35780678  0.64219322  0.50000000  1
  O  O2  1  0.64219322  0.35780678  0.50000000  1
  O  O2  1  0.14219322  0.14219322  0.00000000  1
  O  O1  1  0.61248023  0.84715350  0.50000000  1
  O  O1  1  0.65284650  0.11248023  0.00000000  1
  O  O1  1  0.34715350  0.88751977  0.00000000  1
  O  O1  1  0.11248023  0.65284650  0.00000000  1
