# generated using pymatgen
data_RbLiMoO4
_symmetry_space_group_name_H-M   'P 1'
_cell_length_a   9.72562095
_cell_length_b   5.66920139
_cell_length_c   10.04621031
_cell_angle_alpha   90.00000000
_cell_angle_beta   111.28963103
_cell_angle_gamma   90.00000000
_symmetry_Int_Tables_number   1
_chemical_formula_structural   RbLiMoO4
_chemical_formula_sum   'Rb4 Li4 Mo4 O16'
_cell_volume   516.11220734
_cell_formula_units_Z   4
loop_
 _symmetry_equiv_pos_site_id
 _symmetry_equiv_pos_as_xyz
  1  'x, y, z'
loop_
 _atom_site_type_symbol
 _atom_site_label
 _atom_site_symmetry_multiplicity
 _atom_site_fract_x
 _atom_site_fract_y
 _atom_site_fract_z
 _atom_site_occupancy
  Rb  Rb1  1  0.75357968  0.71528384  0.50118058  1
  Rb  Rb1  1  0.25357968  0.78471616  0.00118058  1
  Li  Li1  1  0.87389702  0.74084480  0.87179274  1
  Li  Li1  1  0.87389702  0.25915520  0.37179274  1
  Mo  Mo1  1  0.49936432  0.24898084  0.24830304  1
  Mo  Mo1  1  0.99936432  0.25101916  0.74830304  1
  O  O1  1  0.45821522  0.45062988  0.77384242  1
  O  O2  1  0.49299030  0.20739236  0.06986426  1
  O  O3  1  0.86641230  0.43999972  0.77871564  1
  O  O3  1  0.36641230  0.06000028  0.27871564  1
  O  O2  1  0.99299030  0.29260764  0.56986426  1
  O  O4  1  0.68044064  0.18140884  0.37130032  1
  O  O4  1  0.18044064  0.31859116  0.87130032  1
  O  O1  1  0.95821522  0.04937012  0.27384242  1
  Rb  Rb1  1  0.25357968  0.21528384  0.50118058  1
  Rb  Rb1  1  0.75357968  0.28471616  0.00118058  1
  Li  Li1  1  0.37389702  0.24084480  0.87179274  1
  Li  Li1  1  0.37389702  0.75915520  0.37179274  1
  Mo  Mo1  1  0.99936432  0.74898084  0.24830304  1
  Mo  Mo1  1  0.49936432  0.75101916  0.74830304  1
  O  O1  1  0.95821522  0.95062988  0.77384242  1
  O  O2  1  0.99299030  0.70739236  0.06986426  1
  O  O3  1  0.36641230  0.93999972  0.77871564  1
  O  O3  1  0.86641230  0.56000028  0.27871564  1
  O  O2  1  0.49299030  0.79260764  0.56986426  1
  O  O4  1  0.18044064  0.68140884  0.37130032  1
  O  O4  1  0.68044064  0.81859116  0.87130032  1
  O  O1  1  0.45821522  0.54937012  0.27384242  1
