# generated using pymatgen
data_RbLiCrO4
_symmetry_space_group_name_H-M   'P 1'
_cell_length_a   5.36958787
_cell_length_b   5.36958787
_cell_length_c   9.18780451
_cell_angle_alpha   90.00000000
_cell_angle_beta   90.00000000
_cell_angle_gamma   120.00000000
_symmetry_Int_Tables_number   1
_chemical_formula_structural   RbLiCrO4
_chemical_formula_sum   'Rb2 Li2 Cr2 O8'
_cell_volume   229.41630728
_cell_formula_units_Z   2
loop_
 _symmetry_equiv_pos_site_id
 _symmetry_equiv_pos_as_xyz
  1  'x, y, z'
loop_
 _atom_site_type_symbol
 _atom_site_label
 _atom_site_symmetry_multiplicity
 _atom_site_fract_x
 _atom_site_fract_y
 _atom_site_fract_z
 _atom_site_occupancy
  Rb  Rb1  1  0.00000000  0.00000000  0.50568842  1
  Rb  Rb1  1  0.00000000  0.00000000  0.00568842  1
  Li  Li1  1  0.66666667  0.33333333  0.31889292  1
  Li  Li1  1  0.33333333  0.66666667  0.81889292  1
  Cr  Cr1  1  0.33333333  0.66666667  0.20845300  1
  Cr  Cr1  1  0.66666667  0.33333333  0.70845300  1
  O  O1  1  0.03651330  0.37881523  0.26586578  1
  O  O1  1  0.34230193  0.96348670  0.26586578  1
  O  O1  1  0.62118477  0.65769807  0.26586578  1
  O  O1  1  0.37881523  0.03651330  0.76586578  1
  O  O2  1  0.66666667  0.33333333  0.52796632  1
  O  O2  1  0.33333333  0.66666667  0.02796632  1
  O  O1  1  0.65769807  0.62118477  0.76586578  1
  O  O1  1  0.96348670  0.34230193  0.76586578  1
