# generated using pymatgen
data_RbMgBO3
_symmetry_space_group_name_H-M   'P 1'
_cell_length_a   6.92596956
_cell_length_b   6.92596956
_cell_length_c   6.92596956
_cell_angle_alpha   90.00000000
_cell_angle_beta   90.00000000
_cell_angle_gamma   90.00000000
_symmetry_Int_Tables_number   1
_chemical_formula_structural   RbMgBO3
_chemical_formula_sum   'Rb4 Mg4 B4 O12'
_cell_volume   332.23221022
_cell_formula_units_Z   4
loop_
 _symmetry_equiv_pos_site_id
 _symmetry_equiv_pos_as_xyz
  1  'x, y, z'
loop_
 _atom_site_type_symbol
 _atom_site_label
 _atom_site_symmetry_multiplicity
 _atom_site_fract_x
 _atom_site_fract_y
 _atom_site_fract_z
 _atom_site_occupancy
  Rb  Rb1  1  0.85859564  0.35859564  0.14140436  1
  Rb  Rb1  1  0.64140436  0.64140436  0.64140436  1
  Rb  Rb1  1  0.35859564  0.14140436  0.85859564  1
  Rb  Rb1  1  0.14140436  0.85859564  0.35859564  1
  Mg  Mg1  1  0.85960656  0.14039344  0.64039344  1
  Mg  Mg1  1  0.64039344  0.85960656  0.14039344  1
  Mg  Mg1  1  0.14039344  0.64039344  0.85960656  1
  Mg  Mg1  1  0.35960656  0.35960656  0.35960656  1
  B  B1  1  0.10226280  0.39773720  0.60226280  1
  B  B1  1  0.60226280  0.10226280  0.39773720  1
  B  B1  1  0.89773720  0.89773720  0.89773720  1
  B  B1  1  0.39773720  0.60226280  0.10226280  1
  O  O1  1  0.96862076  0.40438708  0.75008588  1
  O  O1  1  0.59561292  0.25008588  0.53137924  1
  O  O1  1  0.74991412  0.03137924  0.90438708  1
  O  O1  1  0.53137924  0.59561292  0.25008588  1
  O  O1  1  0.90438708  0.74991412  0.03137924  1
  O  O1  1  0.75008588  0.96862076  0.40438708  1
  O  O1  1  0.03137924  0.90438708  0.74991412  1
  O  O1  1  0.40438708  0.75008588  0.96862076  1
  O  O1  1  0.25008588  0.53137924  0.59561292  1
  O  O1  1  0.46862076  0.09561292  0.24991412  1
  O  O1  1  0.09561292  0.24991412  0.46862076  1
  O  O1  1  0.24991412  0.46862076  0.09561292  1
