# generated using pymatgen
data_RbNaCd3O4
_symmetry_space_group_name_H-M   'P 1'
_cell_length_a   12.80906267
_cell_length_b   3.66478977
_cell_length_c   9.06501642
_cell_angle_alpha   90.00000000
_cell_angle_beta   134.31721281
_cell_angle_gamma   90.00000000
_symmetry_Int_Tables_number   1
_chemical_formula_structural   RbNaCd3O4
_chemical_formula_sum   'Rb2 Na2 Cd6 O8'
_cell_volume   304.46281651
_cell_formula_units_Z   2
loop_
 _symmetry_equiv_pos_site_id
 _symmetry_equiv_pos_as_xyz
  1  'x, y, z'
loop_
 _atom_site_type_symbol
 _atom_site_label
 _atom_site_symmetry_multiplicity
 _atom_site_fract_x
 _atom_site_fract_y
 _atom_site_fract_z
 _atom_site_occupancy
  Rb  Rb1  1  0.00470451  0.00000000  0.00738406  1
  Na  Na1  1  0.31993349  0.50000000  0.18787494  1
  Cd  Cd1  1  0.69114347  0.50000000  0.82900012  1
  Cd  Cd2  1  0.62074425  0.00000000  0.43827944  1
  Cd  Cd3  1  0.37048009  0.00000000  0.54857576  1
  O  O1  1  0.26209011  0.50000000  0.36945882  1
  O  O2  1  0.73197181  0.50000000  0.63248054  1
  O  O3  1  0.40199503  0.00000000  0.15208238  1
  O  O4  1  0.59693824  0.00000000  0.83486694  1
  Rb  Rb1  1  0.50470451  0.50000000  0.00738406  1
  Na  Na1  1  0.81993349  0.00000000  0.18787494  1
  Cd  Cd1  1  0.19114347  0.00000000  0.82900012  1
  Cd  Cd2  1  0.12074425  0.50000000  0.43827944  1
  Cd  Cd3  1  0.87048009  0.50000000  0.54857576  1
  O  O1  1  0.76209011  0.00000000  0.36945882  1
  O  O2  1  0.23197181  0.00000000  0.63248054  1
  O  O3  1  0.90199503  0.50000000  0.15208238  1
  O  O4  1  0.09693824  0.50000000  0.83486694  1
