# generated using pymatgen
data_RbNa2AuO2
_symmetry_space_group_name_H-M   'P 1'
_cell_length_a   5.56537692
_cell_length_b   9.94727667
_cell_length_c   4.00870967
_cell_angle_alpha   90.00000000
_cell_angle_beta   90.00000000
_cell_angle_gamma   90.00000000
_symmetry_Int_Tables_number   1
_chemical_formula_structural   RbNa2AuO2
_chemical_formula_sum   'Rb2 Na4 Au2 O4'
_cell_volume   221.92354641
_cell_formula_units_Z   2
loop_
 _symmetry_equiv_pos_site_id
 _symmetry_equiv_pos_as_xyz
  1  'x, y, z'
loop_
 _atom_site_type_symbol
 _atom_site_label
 _atom_site_symmetry_multiplicity
 _atom_site_fract_x
 _atom_site_fract_y
 _atom_site_fract_z
 _atom_site_occupancy
  Rb  Rb1  1  0.50000000  0.00000000  0.50000000  1
  Rb  Rb1  1  0.00000000  0.50000000  0.00000000  1
  Na  Na1  1  0.06522384  0.22638284  0.50000000  1
  Na  Na1  1  0.56522384  0.27361716  0.00000000  1
  Na  Na1  1  0.93477616  0.77361716  0.50000000  1
  Na  Na1  1  0.43477616  0.72638284  0.00000000  1
  Au  Au1  1  0.00000000  0.00000000  0.00000000  1
  Au  Au1  1  0.50000000  0.50000000  0.50000000  1
  O  O1  1  0.72463284  0.34268934  0.50000000  1
  O  O1  1  0.27536716  0.65731066  0.50000000  1
  O  O1  1  0.77536716  0.84268934  0.00000000  1
  O  O1  1  0.22463284  0.15731066  0.00000000  1
