# generated using pymatgen
data_RbNb(GeO3)3
_symmetry_space_group_name_H-M   'P 1'
_cell_length_a   7.11264053
_cell_length_b   7.11264053
_cell_length_c   10.33767236
_cell_angle_alpha   90.00000000
_cell_angle_beta   90.00000000
_cell_angle_gamma   120.00000000
_symmetry_Int_Tables_number   1
_chemical_formula_structural   RbNb(GeO3)3
_chemical_formula_sum   'Rb2 Nb2 Ge6 O18'
_cell_volume   452.91334397
_cell_formula_units_Z   2
loop_
 _symmetry_equiv_pos_site_id
 _symmetry_equiv_pos_as_xyz
  1  'x, y, z'
loop_
 _atom_site_type_symbol
 _atom_site_label
 _atom_site_symmetry_multiplicity
 _atom_site_fract_x
 _atom_site_fract_y
 _atom_site_fract_z
 _atom_site_occupancy
  Rb  Rb1  1  0.33333333  0.66666667  0.00000000  1
  Rb  Rb1  1  0.33333333  0.66666667  0.50000000  1
  Nb  Nb1  1  0.00000000  0.00000000  0.00000000  1
  Nb  Nb1  1  0.00000000  0.00000000  0.50000000  1
  Ge  Ge1  1  0.74243207  0.62354011  0.25000000  1
  Ge  Ge1  1  0.88110804  0.25756793  0.25000000  1
  Ge  Ge1  1  0.37645989  0.11889196  0.25000000  1
  Ge  Ge1  1  0.37645989  0.25756793  0.75000000  1
  Ge  Ge1  1  0.88110804  0.62354011  0.75000000  1
  Ge  Ge1  1  0.74243207  0.11889196  0.75000000  1
  O  O1  1  0.93565461  0.53264155  0.25000000  1
  O  O1  1  0.59698694  0.06434539  0.25000000  1
  O  O1  1  0.46735845  0.40301306  0.25000000  1
  O  O1  1  0.46735845  0.06434539  0.75000000  1
  O  O1  1  0.59698694  0.53264155  0.75000000  1
  O  O1  1  0.93565461  0.40301306  0.75000000  1
  O  O2  1  0.76563821  0.77398123  0.10945228  1
  O  O2  1  0.00834302  0.23436179  0.39054772  1
  O  O2  1  0.22601877  0.99165698  0.39054772  1
  O  O2  1  0.22601877  0.99165698  0.10945228  1
  O  O2  1  0.00834302  0.23436179  0.10945228  1
  O  O2  1  0.22601877  0.23436179  0.89054772  1
  O  O2  1  0.00834302  0.77398123  0.89054772  1
  O  O2  1  0.76563821  0.99165698  0.89054772  1
  O  O2  1  0.00834302  0.77398123  0.60945228  1
  O  O2  1  0.76563821  0.99165698  0.60945228  1
  O  O2  1  0.76563821  0.77398123  0.39054772  1
  O  O2  1  0.22601877  0.23436179  0.60945228  1
