# generated using pymatgen
data_RbReO4
_symmetry_space_group_name_H-M   'P 1'
_cell_length_a   5.88536442
_cell_length_b   5.88536442
_cell_length_c   12.97113236
_cell_angle_alpha   90.00000000
_cell_angle_beta   90.00000000
_cell_angle_gamma   90.00000000
_symmetry_Int_Tables_number   1
_chemical_formula_structural   RbReO4
_chemical_formula_sum   'Rb4 Re4 O16'
_cell_volume   449.28778410
_cell_formula_units_Z   4
loop_
 _symmetry_equiv_pos_site_id
 _symmetry_equiv_pos_as_xyz
  1  'x, y, z'
loop_
 _atom_site_type_symbol
 _atom_site_label
 _atom_site_symmetry_multiplicity
 _atom_site_fract_x
 _atom_site_fract_y
 _atom_site_fract_z
 _atom_site_occupancy
  Rb  Rb1  1  0.50000000  0.50000000  0.50000000  1
  Rb  Rb1  1  0.00000000  0.50000000  0.25000000  1
  Re  Re1  1  0.00000000  0.00000000  0.50000000  1
  Re  Re1  1  0.50000000  0.00000000  0.25000000  1
  O  O1  1  0.38014058  0.78781510  0.32693962  1
  O  O1  1  0.78781510  0.11985942  0.57693962  1
  O  O1  1  0.21218490  0.88014058  0.57693962  1
  O  O1  1  0.61985942  0.21218490  0.32693962  1
  O  O1  1  0.88014058  0.78781510  0.42306038  1
  O  O1  1  0.78781510  0.61985942  0.67306038  1
  O  O1  1  0.21218490  0.38014058  0.67306038  1
  O  O1  1  0.11985942  0.21218490  0.42306038  1
  Rb  Rb1  1  0.00000000  0.00000000  0.00000000  1
  Rb  Rb1  1  0.50000000  0.00000000  0.75000000  1
  Re  Re1  1  0.50000000  0.50000000  0.00000000  1
  Re  Re1  1  0.00000000  0.50000000  0.75000000  1
  O  O1  1  0.88014058  0.28781510  0.82693962  1
  O  O1  1  0.28781510  0.61985942  0.07693962  1
  O  O1  1  0.71218490  0.38014058  0.07693962  1
  O  O1  1  0.11985942  0.71218490  0.82693962  1
  O  O1  1  0.38014058  0.28781510  0.92306038  1
  O  O1  1  0.28781510  0.11985942  0.17306038  1
  O  O1  1  0.71218490  0.88014058  0.17306038  1
  O  O1  1  0.61985942  0.71218490  0.92306038  1
