# generated using pymatgen
data_RbSbMoO6
_symmetry_space_group_name_H-M   'P 1'
_cell_length_a   7.21067515
_cell_length_b   10.13164333
_cell_length_c   7.60424433
_cell_angle_alpha   90.00000000
_cell_angle_beta   90.00000000
_cell_angle_gamma   90.00000000
_symmetry_Int_Tables_number   1
_chemical_formula_structural   RbSbMoO6
_chemical_formula_sum   'Rb4 Sb4 Mo4 O24'
_cell_volume   555.53558916
_cell_formula_units_Z   4
loop_
 _symmetry_equiv_pos_site_id
 _symmetry_equiv_pos_as_xyz
  1  'x, y, z'
loop_
 _atom_site_type_symbol
 _atom_site_label
 _atom_site_symmetry_multiplicity
 _atom_site_fract_x
 _atom_site_fract_y
 _atom_site_fract_z
 _atom_site_occupancy
  Rb  Rb1  1  0.75000000  0.13912452  0.06566236  1
  Rb  Rb1  1  0.25000000  0.86087548  0.06566236  1
  Sb  Sb1  1  0.50000000  0.50000000  0.99191720  1
  Sb  Sb1  1  0.00000000  0.50000000  0.99191720  1
  Mo  Mo1  1  0.25000000  0.23687368  0.77927782  1
  Mo  Mo1  1  0.75000000  0.76312632  0.77927782  1
  O  O1  1  0.75000000  0.82082630  0.99795806  1
  O  O2  1  0.75000000  0.42066968  0.98586512  1
  O  O3  1  0.56320607  0.62772216  0.18067186  1
  O  O4  1  0.93625666  0.62981866  0.80498784  1
  O  O4  1  0.56374334  0.62981866  0.80498784  1
  O  O3  1  0.93679393  0.62772216  0.18067186  1
  O  O1  1  0.25000000  0.17917370  0.99795806  1
  O  O2  1  0.25000000  0.57933032  0.98586512  1
  O  O4  1  0.43625666  0.37018134  0.80498784  1
  O  O3  1  0.06320607  0.37227784  0.18067186  1
  O  O3  1  0.43679393  0.37227784  0.18067186  1
  O  O4  1  0.06374334  0.37018134  0.80498784  1
  Rb  Rb1  1  0.25000000  0.63912452  0.56566236  1
  Rb  Rb1  1  0.75000000  0.36087548  0.56566236  1
  Sb  Sb1  1  0.00000000  0.00000000  0.49191720  1
  Sb  Sb1  1  0.50000000  0.00000000  0.49191720  1
  Mo  Mo1  1  0.75000000  0.73687368  0.27927782  1
  Mo  Mo1  1  0.25000000  0.26312632  0.27927782  1
  O  O1  1  0.25000000  0.32082630  0.49795806  1
  O  O2  1  0.25000000  0.92066968  0.48586512  1
  O  O3  1  0.06320607  0.12772216  0.68067186  1
  O  O4  1  0.43625666  0.12981866  0.30498784  1
  O  O4  1  0.06374334  0.12981866  0.30498784  1
  O  O3  1  0.43679393  0.12772216  0.68067186  1
  O  O1  1  0.75000000  0.67917370  0.49795806  1
  O  O2  1  0.75000000  0.07933032  0.48586512  1
  O  O4  1  0.93625666  0.87018134  0.30498784  1
  O  O3  1  0.56320607  0.87227784  0.68067186  1
  O  O3  1  0.93679393  0.87227784  0.68067186  1
  O  O4  1  0.56374334  0.87018134  0.30498784  1
