# generated using pymatgen
data_RbSbO2
_symmetry_space_group_name_H-M   'P 1'
_cell_length_a   7.96876377
_cell_length_b   8.90844426
_cell_length_c   5.60284446
_cell_angle_alpha   90.00000000
_cell_angle_beta   123.58039596
_cell_angle_gamma   90.00000000
_symmetry_Int_Tables_number   1
_chemical_formula_structural   RbSbO2
_chemical_formula_sum   'Rb4 Sb4 O8'
_cell_volume   331.36300001
_cell_formula_units_Z   4
loop_
 _symmetry_equiv_pos_site_id
 _symmetry_equiv_pos_as_xyz
  1  'x, y, z'
loop_
 _atom_site_type_symbol
 _atom_site_label
 _atom_site_symmetry_multiplicity
 _atom_site_fract_x
 _atom_site_fract_y
 _atom_site_fract_z
 _atom_site_occupancy
  Rb  Rb1  1  0.50000000  0.14193354  0.25000000  1
  Rb  Rb1  1  0.50000000  0.85806646  0.75000000  1
  Sb  Sb1  1  0.50000000  0.40925156  0.75000000  1
  Sb  Sb1  1  0.50000000  0.59074844  0.25000000  1
  O  O1  1  0.82151748  0.95170586  0.28928915  1
  O  O1  1  0.17848252  0.95170586  0.21071085  1
  O  O1  1  0.82151748  0.04829414  0.78928915  1
  O  O1  1  0.17848252  0.04829414  0.71071085  1
  Rb  Rb1  1  0.00000000  0.64193354  0.25000000  1
  Rb  Rb1  1  0.00000000  0.35806646  0.75000000  1
  Sb  Sb1  1  0.00000000  0.90925156  0.75000000  1
  Sb  Sb1  1  0.00000000  0.09074844  0.25000000  1
  O  O1  1  0.32151748  0.45170586  0.28928915  1
  O  O1  1  0.67848252  0.45170586  0.21071085  1
  O  O1  1  0.32151748  0.54829414  0.78928915  1
  O  O1  1  0.67848252  0.54829414  0.71071085  1
