# generated using pymatgen
data_RbScO2
_symmetry_space_group_name_H-M   'P 1'
_cell_length_a   3.22310353
_cell_length_b   3.22310353
_cell_length_c   12.65935200
_cell_angle_alpha   90.00000000
_cell_angle_beta   90.00000000
_cell_angle_gamma   120.00000000
_symmetry_Int_Tables_number   1
_chemical_formula_structural   RbScO2
_chemical_formula_sum   'Rb2 Sc2 O4'
_cell_volume   113.89131790
_cell_formula_units_Z   2
loop_
 _symmetry_equiv_pos_site_id
 _symmetry_equiv_pos_as_xyz
  1  'x, y, z'
loop_
 _atom_site_type_symbol
 _atom_site_label
 _atom_site_symmetry_multiplicity
 _atom_site_fract_x
 _atom_site_fract_y
 _atom_site_fract_z
 _atom_site_occupancy
  Rb  Rb1  1  0.66666667  0.33333333  0.75000000  1
  Rb  Rb1  1  0.33333333  0.66666667  0.25000000  1
  Sc  Sc1  1  0.00000000  0.00000000  0.00000000  1
  Sc  Sc1  1  0.00000000  0.00000000  0.50000000  1
  O  O1  1  0.66666667  0.33333333  0.41566895  1
  O  O1  1  0.33333333  0.66666667  0.91566895  1
  O  O1  1  0.66666667  0.33333333  0.08433105  1
  O  O1  1  0.33333333  0.66666667  0.58433105  1
