# generated using pymatgen
data_RbSc(WO4)2
_symmetry_space_group_name_H-M   'P 1'
_cell_length_a   10.77334668
_cell_length_b   10.06072240
_cell_length_c   7.33594972
_cell_angle_alpha   90.00000000
_cell_angle_beta   130.75598551
_cell_angle_gamma   90.00000000
_symmetry_Int_Tables_number   1
_chemical_formula_structural   RbSc(WO4)2
_chemical_formula_sum   'Rb4 Sc4 W8 O32'
_cell_volume   602.30565886
_cell_formula_units_Z   4
loop_
 _symmetry_equiv_pos_site_id
 _symmetry_equiv_pos_as_xyz
  1  'x, y, z'
loop_
 _atom_site_type_symbol
 _atom_site_label
 _atom_site_symmetry_multiplicity
 _atom_site_fract_x
 _atom_site_fract_y
 _atom_site_fract_z
 _atom_site_occupancy
  Rb  Rb1  1  0.00000000  0.19834534  0.75000000  1
  Rb  Rb1  1  0.00000000  0.80165466  0.25000000  1
  Sc  Sc1  1  0.00000000  0.77596134  0.75000000  1
  Sc  Sc1  1  0.00000000  0.22403866  0.25000000  1
  W  W1  1  0.80259126  0.50243568  0.78106188  1
  W  W1  1  0.19740874  0.49756432  0.21893812  1
  W  W1  1  0.19740874  0.50243568  0.71893812  1
  W  W1  1  0.80259126  0.49756432  0.28106188  1
  O  O1  1  0.81175688  0.43012830  0.55992370  1
  O  O1  1  0.18824312  0.56987170  0.44007630  1
  O  O1  1  0.18824312  0.43012830  0.94007630  1
  O  O1  1  0.81175688  0.56987170  0.05992370  1
  O  O2  1  0.30983738  0.64889120  0.89712516  1
  O  O2  1  0.69016262  0.35110880  0.10287484  1
  O  O2  1  0.69016262  0.64889120  0.60287484  1
  O  O2  1  0.30983738  0.35110880  0.39712516  1
  O  O3  1  0.00990138  0.61516412  0.94915076  1
  O  O3  1  0.99009862  0.38483588  0.05084924  1
  O  O3  1  0.99009862  0.61516412  0.55084924  1
  O  O3  1  0.00990138  0.38483588  0.44915076  1
  O  O4  1  0.64096822  0.39564944  0.71254226  1
  O  O4  1  0.35903178  0.60435056  0.28745774  1
  O  O4  1  0.35903178  0.39564944  0.78745774  1
  O  O4  1  0.64096822  0.60435056  0.21254226  1
  Rb  Rb1  1  0.50000000  0.69834534  0.75000000  1
  Rb  Rb1  1  0.50000000  0.30165466  0.25000000  1
  Sc  Sc1  1  0.50000000  0.27596134  0.75000000  1
  Sc  Sc1  1  0.50000000  0.72403866  0.25000000  1
  W  W1  1  0.30259126  0.00243568  0.78106188  1
  W  W1  1  0.69740874  0.99756432  0.21893812  1
  W  W1  1  0.69740874  0.00243568  0.71893812  1
  W  W1  1  0.30259126  0.99756432  0.28106188  1
  O  O1  1  0.31175688  0.93012830  0.55992370  1
  O  O1  1  0.68824312  0.06987170  0.44007630  1
  O  O1  1  0.68824312  0.93012830  0.94007630  1
  O  O1  1  0.31175688  0.06987170  0.05992370  1
  O  O2  1  0.80983738  0.14889120  0.89712516  1
  O  O2  1  0.19016262  0.85110880  0.10287484  1
  O  O2  1  0.19016262  0.14889120  0.60287484  1
  O  O2  1  0.80983738  0.85110880  0.39712516  1
  O  O3  1  0.50990138  0.11516412  0.94915076  1
  O  O3  1  0.49009862  0.88483588  0.05084924  1
  O  O3  1  0.49009862  0.11516412  0.55084924  1
  O  O3  1  0.50990138  0.88483588  0.44915076  1
  O  O4  1  0.14096822  0.89564944  0.71254226  1
  O  O4  1  0.85903178  0.10435056  0.28745774  1
  O  O4  1  0.85903178  0.89564944  0.78745774  1
  O  O4  1  0.14096822  0.10435056  0.21254226  1
