# generated using pymatgen
data_RbSc(MoO4)2
_symmetry_space_group_name_H-M   'P 1'
_cell_length_a   5.82127611
_cell_length_b   5.82127611
_cell_length_c   7.53157380
_cell_angle_alpha   90.00000000
_cell_angle_beta   90.00000000
_cell_angle_gamma   120.00000000
_symmetry_Int_Tables_number   1
_chemical_formula_structural   RbSc(MoO4)2
_chemical_formula_sum   'Rb1 Sc1 Mo2 O8'
_cell_volume   221.03078455
_cell_formula_units_Z   1
loop_
 _symmetry_equiv_pos_site_id
 _symmetry_equiv_pos_as_xyz
  1  'x, y, z'
loop_
 _atom_site_type_symbol
 _atom_site_label
 _atom_site_symmetry_multiplicity
 _atom_site_fract_x
 _atom_site_fract_y
 _atom_site_fract_z
 _atom_site_occupancy
  Rb  Rb1  1  0.00000000  0.00000000  0.00000000  1
  Sc  Sc1  1  0.00000000  0.00000000  0.50000000  1
  Mo  Mo1  1  0.66666667  0.33333333  0.25942048  1
  Mo  Mo1  1  0.33333333  0.66666667  0.74057952  1
  O  O1  1  0.32784826  0.16392413  0.33412380  1
  O  O1  1  0.67215174  0.83607587  0.66587620  1
  O  O1  1  0.83607587  0.16392413  0.33412380  1
  O  O1  1  0.16392413  0.83607587  0.66587620  1
  O  O1  1  0.83607587  0.67215174  0.33412380  1
  O  O1  1  0.16392413  0.32784826  0.66587620  1
  O  O2  1  0.66666667  0.33333333  0.02784394  1
  O  O2  1  0.33333333  0.66666667  0.97215606  1
