# generated using pymatgen
data_RbTaO3
_symmetry_space_group_name_H-M   'P 1'
_cell_length_a   9.60505757
_cell_length_b   8.51785255
_cell_length_c   8.11929657
_cell_angle_alpha   90.00000000
_cell_angle_beta   95.21731075
_cell_angle_gamma   90.00000000
_symmetry_Int_Tables_number   1
_chemical_formula_structural   RbTaO3
_chemical_formula_sum   'Rb8 Ta8 O24'
_cell_volume   661.52378235
_cell_formula_units_Z   8
loop_
 _symmetry_equiv_pos_site_id
 _symmetry_equiv_pos_as_xyz
  1  'x, y, z'
loop_
 _atom_site_type_symbol
 _atom_site_label
 _atom_site_symmetry_multiplicity
 _atom_site_fract_x
 _atom_site_fract_y
 _atom_site_fract_z
 _atom_site_occupancy
  Rb  Rb1  1  0.16079594  0.50000000  0.23590646  1
  Rb  Rb1  1  0.83920406  0.50000000  0.76409354  1
  Rb  Rb2  1  0.00000000  0.76216988  0.50000000  1
  Rb  Rb2  1  0.00000000  0.23783012  0.50000000  1
  Ta  Ta1  1  0.00000000  0.81095348  0.00000000  1
  Ta  Ta1  1  0.00000000  0.18904652  0.00000000  1
  Ta  Ta2  1  0.24039712  0.50000000  0.80350782  1
  Ta  Ta2  1  0.75960288  0.50000000  0.19649218  1
  O  O1  1  0.62360192  0.50000000  0.94894520  1
  O  O1  1  0.37639808  0.50000000  0.05105480  1
  O  O2  1  0.11435450  0.34015614  0.89792212  1
  O  O2  1  0.88564550  0.34015614  0.10207788  1
  O  O2  1  0.88564550  0.65984386  0.10207788  1
  O  O2  1  0.11435450  0.65984386  0.89792212  1
  O  O3  1  0.83225548  0.50000000  0.41187666  1
  O  O3  1  0.16774452  0.50000000  0.58812334  1
  O  O4  1  0.11900966  0.83207182  0.21377158  1
  O  O4  1  0.88099034  0.83207182  0.78622842  1
  O  O4  1  0.88099034  0.16792818  0.78622842  1
  O  O4  1  0.11900966  0.16792818  0.21377158  1
  Rb  Rb1  1  0.66079594  0.00000000  0.23590646  1
  Rb  Rb1  1  0.33920406  0.00000000  0.76409354  1
  Rb  Rb2  1  0.50000000  0.26216988  0.50000000  1
  Rb  Rb2  1  0.50000000  0.73783012  0.50000000  1
  Ta  Ta1  1  0.50000000  0.31095348  0.00000000  1
  Ta  Ta1  1  0.50000000  0.68904652  0.00000000  1
  Ta  Ta2  1  0.74039712  0.00000000  0.80350782  1
  Ta  Ta2  1  0.25960288  0.00000000  0.19649218  1
  O  O1  1  0.12360192  0.00000000  0.94894520  1
  O  O1  1  0.87639808  0.00000000  0.05105480  1
  O  O2  1  0.61435450  0.84015614  0.89792212  1
  O  O2  1  0.38564550  0.84015614  0.10207788  1
  O  O2  1  0.38564550  0.15984386  0.10207788  1
  O  O2  1  0.61435450  0.15984386  0.89792212  1
  O  O3  1  0.33225548  0.00000000  0.41187666  1
  O  O3  1  0.66774452  0.00000000  0.58812334  1
  O  O4  1  0.61900966  0.33207182  0.21377158  1
  O  O4  1  0.38099034  0.33207182  0.78622842  1
  O  O4  1  0.38099034  0.66792818  0.78622842  1
  O  O4  1  0.61900966  0.66792818  0.21377158  1
