# generated using pymatgen
data_RbTa(GeO3)3
_symmetry_space_group_name_H-M   'P 1'
_cell_length_a   7.10233988
_cell_length_b   7.10233988
_cell_length_c   10.28249280
_cell_angle_alpha   90.00000000
_cell_angle_beta   90.00000000
_cell_angle_gamma   120.00000000
_symmetry_Int_Tables_number   1
_chemical_formula_structural   RbTa(GeO3)3
_chemical_formula_sum   'Rb2 Ta2 Ge6 O18'
_cell_volume   449.19193291
_cell_formula_units_Z   2
loop_
 _symmetry_equiv_pos_site_id
 _symmetry_equiv_pos_as_xyz
  1  'x, y, z'
loop_
 _atom_site_type_symbol
 _atom_site_label
 _atom_site_symmetry_multiplicity
 _atom_site_fract_x
 _atom_site_fract_y
 _atom_site_fract_z
 _atom_site_occupancy
  Rb  Rb1  1  0.33333333  0.66666667  0.00000000  1
  Rb  Rb1  1  0.33333333  0.66666667  0.50000000  1
  Ta  Ta1  1  0.00000000  0.00000000  0.00000000  1
  Ta  Ta1  1  0.00000000  0.00000000  0.50000000  1
  Ge  Ge1  1  0.74352357  0.62422757  0.25000000  1
  Ge  Ge1  1  0.88070400  0.25647643  0.25000000  1
  Ge  Ge1  1  0.37577243  0.11929600  0.25000000  1
  Ge  Ge1  1  0.37577243  0.25647643  0.75000000  1
  Ge  Ge1  1  0.88070400  0.62422757  0.75000000  1
  Ge  Ge1  1  0.74352357  0.11929600  0.75000000  1
  O  O1  1  0.93618753  0.53216509  0.25000000  1
  O  O1  1  0.59597756  0.06381247  0.25000000  1
  O  O1  1  0.46783491  0.40402244  0.25000000  1
  O  O1  1  0.46783491  0.06381247  0.75000000  1
  O  O1  1  0.59597756  0.53216509  0.75000000  1
  O  O1  1  0.93618753  0.40402244  0.75000000  1
  O  O2  1  0.76676459  0.77505189  0.10894570  1
  O  O2  1  0.00828730  0.23323541  0.39105430  1
  O  O2  1  0.22494811  0.99171270  0.39105430  1
  O  O2  1  0.22494811  0.99171270  0.10894570  1
  O  O2  1  0.00828730  0.23323541  0.10894570  1
  O  O2  1  0.22494811  0.23323541  0.89105430  1
  O  O2  1  0.00828730  0.77505189  0.89105430  1
  O  O2  1  0.76676459  0.99171270  0.89105430  1
  O  O2  1  0.00828730  0.77505189  0.60894570  1
  O  O2  1  0.76676459  0.99171270  0.60894570  1
  O  O2  1  0.76676459  0.77505189  0.39105430  1
  O  O2  1  0.22494811  0.23323541  0.60894570  1
