# generated using pymatgen
data_RbTlO
_symmetry_space_group_name_H-M   'P 1'
_cell_length_a   13.40334193
_cell_length_b   3.66734228
_cell_length_c   6.38506873
_cell_angle_alpha   90.00000000
_cell_angle_beta   106.77329513
_cell_angle_gamma   90.00000000
_symmetry_Int_Tables_number   1
_chemical_formula_structural   RbTlO
_chemical_formula_sum   'Rb4 Tl4 O4'
_cell_volume   300.50249708
_cell_formula_units_Z   4
loop_
 _symmetry_equiv_pos_site_id
 _symmetry_equiv_pos_as_xyz
  1  'x, y, z'
loop_
 _atom_site_type_symbol
 _atom_site_label
 _atom_site_symmetry_multiplicity
 _atom_site_fract_x
 _atom_site_fract_y
 _atom_site_fract_z
 _atom_site_occupancy
  Rb  Rb1  1  0.12465079  0.00000000  0.34304160  1
  Rb  Rb1  1  0.37534921  0.50000000  0.65695840  1
  Tl  Tl1  1  0.35720924  0.00000000  0.14818494  1
  Tl  Tl1  1  0.14279076  0.50000000  0.85181506  1
  O  O1  1  0.25094478  0.50000000  0.21248004  1
  O  O1  1  0.24905522  0.00000000  0.78751996  1
  Rb  Rb1  1  0.62465079  0.50000000  0.34304160  1
  Rb  Rb1  1  0.87534921  0.00000000  0.65695840  1
  Tl  Tl1  1  0.85720924  0.50000000  0.14818494  1
  Tl  Tl1  1  0.64279076  0.00000000  0.85181506  1
  O  O1  1  0.75094478  0.00000000  0.21248004  1
  O  O1  1  0.74905522  0.50000000  0.78751996  1
