# generated using pymatgen
data_RbVO3
_symmetry_space_group_name_H-M   'P 1'
_cell_length_a   5.28058818
_cell_length_b   11.31226719
_cell_length_c   5.72255200
_cell_angle_alpha   90.00000000
_cell_angle_beta   90.00000000
_cell_angle_gamma   90.00000000
_symmetry_Int_Tables_number   1
_chemical_formula_structural   RbVO3
_chemical_formula_sum   'Rb4 V4 O12'
_cell_volume   341.83907274
_cell_formula_units_Z   4
loop_
 _symmetry_equiv_pos_site_id
 _symmetry_equiv_pos_as_xyz
  1  'x, y, z'
loop_
 _atom_site_type_symbol
 _atom_site_label
 _atom_site_symmetry_multiplicity
 _atom_site_fract_x
 _atom_site_fract_y
 _atom_site_fract_z
 _atom_site_occupancy
  Rb  Rb1  1  0.92962372  0.60084310  0.25000000  1
  Rb  Rb1  1  0.92962372  0.89915690  0.75000000  1
  Rb  Rb1  1  0.07037628  0.39915690  0.75000000  1
  Rb  Rb1  1  0.07037628  0.10084310  0.25000000  1
  V  V1  1  0.46652136  0.83433941  0.25000000  1
  V  V1  1  0.46652136  0.66566059  0.75000000  1
  V  V1  1  0.53347864  0.16566059  0.75000000  1
  V  V1  1  0.53347864  0.33433941  0.25000000  1
  O  O1  1  0.43028366  0.25000000  0.00000000  1
  O  O1  1  0.56971634  0.75000000  0.50000000  1
  O  O1  1  0.56971634  0.75000000  0.00000000  1
  O  O1  1  0.43028366  0.25000000  0.50000000  1
  O  O2  1  0.60259496  0.96612499  0.25000000  1
  O  O2  1  0.60259496  0.53387501  0.75000000  1
  O  O2  1  0.39740504  0.03387501  0.75000000  1
  O  O2  1  0.39740504  0.46612499  0.25000000  1
  O  O3  1  0.84724248  0.34914512  0.25000000  1
  O  O3  1  0.84724248  0.15085488  0.75000000  1
  O  O3  1  0.15275752  0.65085488  0.75000000  1
  O  O3  1  0.15275752  0.84914512  0.25000000  1
