# generated using pymatgen
data_RbY(WO4)2
_symmetry_space_group_name_H-M   'P 1'
_cell_length_a   10.66500462
_cell_length_b   10.45401601
_cell_length_c   7.48855096
_cell_angle_alpha   90.00000000
_cell_angle_beta   130.50447543
_cell_angle_gamma   90.00000000
_symmetry_Int_Tables_number   1
_chemical_formula_structural   RbY(WO4)2
_chemical_formula_sum   'Rb4 Y4 W8 O32'
_cell_volume   634.83160261
_cell_formula_units_Z   4
loop_
 _symmetry_equiv_pos_site_id
 _symmetry_equiv_pos_as_xyz
  1  'x, y, z'
loop_
 _atom_site_type_symbol
 _atom_site_label
 _atom_site_symmetry_multiplicity
 _atom_site_fract_x
 _atom_site_fract_y
 _atom_site_fract_z
 _atom_site_occupancy
  Rb  Rb1  1  0.00000000  0.20034326  0.75000000  1
  Rb  Rb1  1  0.00000000  0.79965674  0.25000000  1
  Y  Y1  1  0.00000000  0.77187358  0.75000000  1
  Y  Y1  1  0.00000000  0.22812642  0.25000000  1
  W  W1  1  0.80401402  0.50264920  0.77016920  1
  W  W1  1  0.19598598  0.49735080  0.22983080  1
  W  W1  1  0.19598598  0.50264920  0.72983080  1
  W  W1  1  0.80401402  0.49735080  0.27016920  1
  O  O1  1  0.81031672  0.43073654  0.55653378  1
  O  O1  1  0.18968328  0.56926346  0.44346622  1
  O  O1  1  0.18968328  0.43073654  0.94346622  1
  O  O1  1  0.81031672  0.56926346  0.05653378  1
  O  O2  1  0.27829992  0.65862572  0.87448372  1
  O  O2  1  0.72170008  0.34137428  0.12551628  1
  O  O2  1  0.72170008  0.65862572  0.62551628  1
  O  O2  1  0.27829992  0.34137428  0.37448372  1
  O  O3  1  0.02129788  0.60882988  0.96916900  1
  O  O3  1  0.97870212  0.39117012  0.03083100  1
  O  O3  1  0.97870212  0.60882988  0.53083100  1
  O  O3  1  0.02129788  0.39117012  0.46916900  1
  O  O4  1  0.62817496  0.41659678  0.69257700  1
  O  O4  1  0.37182504  0.58340322  0.30742300  1
  O  O4  1  0.37182504  0.41659678  0.80742300  1
  O  O4  1  0.62817496  0.58340322  0.19257700  1
  Rb  Rb1  1  0.50000000  0.70034326  0.75000000  1
  Rb  Rb1  1  0.50000000  0.29965674  0.25000000  1
  Y  Y1  1  0.50000000  0.27187358  0.75000000  1
  Y  Y1  1  0.50000000  0.72812642  0.25000000  1
  W  W1  1  0.30401402  0.00264920  0.77016920  1
  W  W1  1  0.69598598  0.99735080  0.22983080  1
  W  W1  1  0.69598598  0.00264920  0.72983080  1
  W  W1  1  0.30401402  0.99735080  0.27016920  1
  O  O1  1  0.31031672  0.93073654  0.55653378  1
  O  O1  1  0.68968328  0.06926346  0.44346622  1
  O  O1  1  0.68968328  0.93073654  0.94346622  1
  O  O1  1  0.31031672  0.06926346  0.05653378  1
  O  O2  1  0.77829992  0.15862572  0.87448372  1
  O  O2  1  0.22170008  0.84137428  0.12551628  1
  O  O2  1  0.22170008  0.15862572  0.62551628  1
  O  O2  1  0.77829992  0.84137428  0.37448372  1
  O  O3  1  0.52129788  0.10882988  0.96916900  1
  O  O3  1  0.47870212  0.89117012  0.03083100  1
  O  O3  1  0.47870212  0.10882988  0.53083100  1
  O  O3  1  0.52129788  0.89117012  0.46916900  1
  O  O4  1  0.12817496  0.91659678  0.69257700  1
  O  O4  1  0.87182504  0.08340322  0.30742300  1
  O  O4  1  0.87182504  0.91659678  0.80742300  1
  O  O4  1  0.12817496  0.08340322  0.19257700  1
