# generated using pymatgen
data_Sb2O3
_symmetry_space_group_name_H-M   'P 1'
_cell_length_a   4.90467924
_cell_length_b   12.26101229
_cell_length_c   5.38205483
_cell_angle_alpha   90.00000000
_cell_angle_beta   90.00000000
_cell_angle_gamma   90.00000000
_symmetry_Int_Tables_number   1
_chemical_formula_structural   Sb2O3
_chemical_formula_sum   'Sb8 O12'
_cell_volume   323.65703877
_cell_formula_units_Z   4
loop_
 _symmetry_equiv_pos_site_id
 _symmetry_equiv_pos_as_xyz
  1  'x, y, z'
loop_
 _atom_site_type_symbol
 _atom_site_label
 _atom_site_symmetry_multiplicity
 _atom_site_fract_x
 _atom_site_fract_y
 _atom_site_fract_z
 _atom_site_occupancy
  Sb  Sb1  1  0.46337954  0.37274585  0.82126286  1
  Sb  Sb1  1  0.96337954  0.62725415  0.67873714  1
  Sb  Sb1  1  0.03662046  0.12725415  0.82126286  1
  Sb  Sb1  1  0.53662046  0.87274585  0.67873714  1
  Sb  Sb1  1  0.53662046  0.62725415  0.17873714  1
  Sb  Sb1  1  0.03662046  0.37274585  0.32126286  1
  Sb  Sb1  1  0.96337954  0.87274585  0.17873714  1
  Sb  Sb1  1  0.46337954  0.12725415  0.32126286  1
  O  O1  1  0.25000000  0.25000000  0.99743012  1
  O  O1  1  0.75000000  0.75000000  0.50256988  1
  O  O1  1  0.75000000  0.75000000  0.00256988  1
  O  O1  1  0.25000000  0.25000000  0.49743012  1
  O  O2  1  0.35593564  0.44375261  0.15200124  1
  O  O2  1  0.85593564  0.55624739  0.34799876  1
  O  O2  1  0.14406436  0.05624739  0.15200124  1
  O  O2  1  0.64406436  0.94375261  0.34799876  1
  O  O2  1  0.64406436  0.55624739  0.84799876  1
  O  O2  1  0.14406436  0.44375261  0.65200124  1
  O  O2  1  0.85593564  0.94375261  0.84799876  1
  O  O2  1  0.35593564  0.05624739  0.65200124  1
