# generated using pymatgen
data_Sb2PbO6
_symmetry_space_group_name_H-M   'P 1'
_cell_length_a   5.33135011
_cell_length_b   5.33135011
_cell_length_c   5.33405193
_cell_angle_alpha   90.00000000
_cell_angle_beta   90.00000000
_cell_angle_gamma   120.00000000
_symmetry_Int_Tables_number   1
_chemical_formula_structural   Sb2PbO6
_chemical_formula_sum   'Sb2 Pb1 O6'
_cell_volume   131.29925974
_cell_formula_units_Z   1
loop_
 _symmetry_equiv_pos_site_id
 _symmetry_equiv_pos_as_xyz
  1  'x, y, z'
loop_
 _atom_site_type_symbol
 _atom_site_label
 _atom_site_symmetry_multiplicity
 _atom_site_fract_x
 _atom_site_fract_y
 _atom_site_fract_z
 _atom_site_occupancy
  Sb  Sb1  1  0.66666667  0.33333333  0.50000000  1
  Sb  Sb1  1  0.33333333  0.66666667  0.50000000  1
  Pb  Pb1  1  0.00000000  0.00000000  0.00000000  1
  O  O1  1  0.37761200  0.37761200  0.70911304  1
  O  O1  1  0.62238800  0.00000000  0.70911304  1
  O  O1  1  0.00000000  0.62238800  0.70911304  1
  O  O1  1  0.37761200  0.00000000  0.29088696  1
  O  O1  1  0.00000000  0.37761200  0.29088696  1
  O  O1  1  0.62238800  0.62238800  0.29088696  1
