# generated using pymatgen
data_SbO2
_symmetry_space_group_name_H-M   'P 1'
_cell_length_a   5.46998695
_cell_length_b   4.84057408
_cell_length_c   11.77711890
_cell_angle_alpha   90.00000000
_cell_angle_beta   90.00000000
_cell_angle_gamma   90.00000000
_symmetry_Int_Tables_number   1
_chemical_formula_structural   SbO2
_chemical_formula_sum   'Sb8 O16'
_cell_volume   311.83310622
_cell_formula_units_Z   8
loop_
 _symmetry_equiv_pos_site_id
 _symmetry_equiv_pos_as_xyz
  1  'x, y, z'
loop_
 _atom_site_type_symbol
 _atom_site_label
 _atom_site_symmetry_multiplicity
 _atom_site_fract_x
 _atom_site_fract_y
 _atom_site_fract_z
 _atom_site_occupancy
  Sb  Sb1  1  0.47520342  0.46895558  0.00097114  1
  Sb  Sb1  1  0.52479658  0.53104442  0.50097114  1
  Sb  Sb1  1  0.97520342  0.03104442  0.00097114  1
  Sb  Sb1  1  0.02479658  0.96895558  0.50097114  1
  Sb  Sb2  1  0.87079162  0.50168144  0.75303594  1
  Sb  Sb2  1  0.12920838  0.49831856  0.25303594  1
  Sb  Sb2  1  0.37079162  0.99831856  0.75303594  1
  Sb  Sb2  1  0.62920838  0.00168144  0.25303594  1
  O  O1  1  0.84984482  0.66678216  0.59479512  1
  O  O1  1  0.15015518  0.33321784  0.09479512  1
  O  O1  1  0.34984482  0.83321784  0.59479512  1
  O  O1  1  0.65015518  0.16678216  0.09479512  1
  O  O2  1  0.57549718  0.30477952  0.69337393  1
  O  O2  1  0.42450282  0.69522048  0.19337393  1
  O  O2  1  0.07549718  0.19522048  0.69337393  1
  O  O2  1  0.92450282  0.80477952  0.19337393  1
  O  O3  1  0.68459454  0.84088468  0.40785472  1
  O  O3  1  0.31540546  0.15911532  0.90785472  1
  O  O3  1  0.18459454  0.65911532  0.40785472  1
  O  O3  1  0.81540546  0.34088468  0.90785472  1
  O  O4  1  0.84336526  0.30043046  0.31337014  1
  O  O4  1  0.15663474  0.69956954  0.81337014  1
  O  O4  1  0.34336526  0.19956954  0.31337014  1
  O  O4  1  0.65663474  0.80043046  0.81337014  1
