# generated using pymatgen
data_Sc2Pt2O7
_symmetry_space_group_name_H-M   'P 1'
_cell_length_a   9.80002731
_cell_length_b   9.80002731
_cell_length_c   9.80002731
_cell_angle_alpha   90.00000000
_cell_angle_beta   90.00000000
_cell_angle_gamma   90.00000000
_symmetry_Int_Tables_number   1
_chemical_formula_structural   Sc2Pt2O7
_chemical_formula_sum   'Sc16 Pt16 O56'
_cell_volume   941.19986858
_cell_formula_units_Z   8
loop_
 _symmetry_equiv_pos_site_id
 _symmetry_equiv_pos_as_xyz
  1  'x, y, z'
loop_
 _atom_site_type_symbol
 _atom_site_label
 _atom_site_symmetry_multiplicity
 _atom_site_fract_x
 _atom_site_fract_y
 _atom_site_fract_z
 _atom_site_occupancy
  Sc  Sc1  1  0.37500000  0.87500000  0.12500000  1
  Sc  Sc1  1  0.12500000  0.12500000  0.62500000  1
  Sc  Sc1  1  0.37500000  0.12500000  0.87500000  1
  Sc  Sc1  1  0.12500000  0.87500000  0.37500000  1
  Pt  Pt1  1  0.12500000  0.87500000  0.87500000  1
  Pt  Pt1  1  0.12500000  0.62500000  0.62500000  1
  Pt  Pt1  1  0.37500000  0.62500000  0.87500000  1
  Pt  Pt1  1  0.37500000  0.87500000  0.62500000  1
  O  O1  1  0.47547007  0.75000000  0.75000000  1
  O  O1  1  0.00000000  0.00000000  0.77452993  1
  O  O1  1  0.22547007  0.00000000  0.00000000  1
  O  O1  1  0.25000000  0.52452993  0.75000000  1
  O  O1  1  0.25000000  0.97547007  0.75000000  1
  O  O2  1  0.25000000  0.25000000  0.75000000  1
  O  O1  1  0.25000000  0.75000000  0.52452993  1
  O  O1  1  0.00000000  0.27452993  0.50000000  1
  O  O2  1  0.00000000  0.00000000  0.50000000  1
  O  O1  1  0.00000000  0.00000000  0.22547007  1
  O  O1  1  0.00000000  0.72547007  0.50000000  1
  O  O1  1  0.02452993  0.75000000  0.75000000  1
  O  O1  1  0.25000000  0.75000000  0.97547007  1
  O  O1  1  0.27452993  0.00000000  0.50000000  1
  Sc  Sc1  1  0.37500000  0.37500000  0.62500000  1
  Sc  Sc1  1  0.12500000  0.62500000  0.12500000  1
  Sc  Sc1  1  0.37500000  0.62500000  0.37500000  1
  Sc  Sc1  1  0.12500000  0.37500000  0.87500000  1
  Pt  Pt1  1  0.12500000  0.37500000  0.37500000  1
  Pt  Pt1  1  0.12500000  0.12500000  0.12500000  1
  Pt  Pt1  1  0.37500000  0.12500000  0.37500000  1
  Pt  Pt1  1  0.37500000  0.37500000  0.12500000  1
  O  O1  1  0.47547007  0.25000000  0.25000000  1
  O  O1  1  0.00000000  0.50000000  0.27452993  1
  O  O1  1  0.22547007  0.50000000  0.50000000  1
  O  O1  1  0.25000000  0.02452993  0.25000000  1
  O  O1  1  0.25000000  0.47547007  0.25000000  1
  O  O2  1  0.25000000  0.75000000  0.25000000  1
  O  O1  1  0.25000000  0.25000000  0.02452993  1
  O  O1  1  0.00000000  0.77452993  0.00000000  1
  O  O2  1  0.00000000  0.50000000  0.00000000  1
  O  O1  1  0.00000000  0.50000000  0.72547007  1
  O  O1  1  0.00000000  0.22547007  0.00000000  1
  O  O1  1  0.02452993  0.25000000  0.25000000  1
  O  O1  1  0.25000000  0.25000000  0.47547007  1
  O  O1  1  0.27452993  0.50000000  0.00000000  1
  Sc  Sc1  1  0.87500000  0.87500000  0.62500000  1
  Sc  Sc1  1  0.62500000  0.12500000  0.12500000  1
  Sc  Sc1  1  0.87500000  0.12500000  0.37500000  1
  Sc  Sc1  1  0.62500000  0.87500000  0.87500000  1
  Pt  Pt1  1  0.62500000  0.87500000  0.37500000  1
  Pt  Pt1  1  0.62500000  0.62500000  0.12500000  1
  Pt  Pt1  1  0.87500000  0.62500000  0.37500000  1
  Pt  Pt1  1  0.87500000  0.87500000  0.12500000  1
  O  O1  1  0.97547007  0.75000000  0.25000000  1
  O  O1  1  0.50000000  0.00000000  0.27452993  1
  O  O1  1  0.72547007  0.00000000  0.50000000  1
  O  O1  1  0.75000000  0.52452993  0.25000000  1
  O  O1  1  0.75000000  0.97547007  0.25000000  1
  O  O2  1  0.75000000  0.25000000  0.25000000  1
  O  O1  1  0.75000000  0.75000000  0.02452993  1
  O  O1  1  0.50000000  0.27452993  0.00000000  1
  O  O2  1  0.50000000  0.00000000  0.00000000  1
  O  O1  1  0.50000000  0.00000000  0.72547007  1
  O  O1  1  0.50000000  0.72547007  0.00000000  1
  O  O1  1  0.52452993  0.75000000  0.25000000  1
  O  O1  1  0.75000000  0.75000000  0.47547007  1
  O  O1  1  0.77452993  0.00000000  0.00000000  1
  Sc  Sc1  1  0.87500000  0.37500000  0.12500000  1
  Sc  Sc1  1  0.62500000  0.62500000  0.62500000  1
  Sc  Sc1  1  0.87500000  0.62500000  0.87500000  1
  Sc  Sc1  1  0.62500000  0.37500000  0.37500000  1
  Pt  Pt1  1  0.62500000  0.37500000  0.87500000  1
  Pt  Pt1  1  0.62500000  0.12500000  0.62500000  1
  Pt  Pt1  1  0.87500000  0.12500000  0.87500000  1
  Pt  Pt1  1  0.87500000  0.37500000  0.62500000  1
  O  O1  1  0.97547007  0.25000000  0.75000000  1
  O  O1  1  0.50000000  0.50000000  0.77452993  1
  O  O1  1  0.72547007  0.50000000  0.00000000  1
  O  O1  1  0.75000000  0.02452993  0.75000000  1
  O  O1  1  0.75000000  0.47547007  0.75000000  1
  O  O2  1  0.75000000  0.75000000  0.75000000  1
  O  O1  1  0.75000000  0.25000000  0.52452993  1
  O  O1  1  0.50000000  0.77452993  0.50000000  1
  O  O2  1  0.50000000  0.50000000  0.50000000  1
  O  O1  1  0.50000000  0.50000000  0.22547007  1
  O  O1  1  0.50000000  0.22547007  0.50000000  1
  O  O1  1  0.52452993  0.25000000  0.75000000  1
  O  O1  1  0.75000000  0.25000000  0.97547007  1
  O  O1  1  0.77452993  0.50000000  0.50000000  1
