# generated using pymatgen
data_Sc2Si2O7
_symmetry_space_group_name_H-M   'P 1'
_cell_length_a   6.45501500
_cell_length_b   8.47035175
_cell_length_c   4.69736046
_cell_angle_alpha   90.00000000
_cell_angle_beta   102.55659255
_cell_angle_gamma   90.00000000
_symmetry_Int_Tables_number   1
_chemical_formula_structural   Sc2Si2O7
_chemical_formula_sum   'Sc4 Si4 O14'
_cell_volume   250.69102221
_cell_formula_units_Z   2
loop_
 _symmetry_equiv_pos_site_id
 _symmetry_equiv_pos_as_xyz
  1  'x, y, z'
loop_
 _atom_site_type_symbol
 _atom_site_label
 _atom_site_symmetry_multiplicity
 _atom_site_fract_x
 _atom_site_fract_y
 _atom_site_fract_z
 _atom_site_occupancy
  Sc  Sc1  1  0.50000000  0.80963374  0.00000000  1
  Sc  Sc1  1  0.50000000  0.19036626  0.00000000  1
  Si  Si1  1  0.77292638  0.00000000  0.59274677  1
  Si  Si1  1  0.22707362  0.00000000  0.40725323  1
  O  O1  1  0.23714234  0.15955618  0.21164893  1
  O  O1  1  0.76285766  0.15955618  0.78835107  1
  O  O1  1  0.76285766  0.84044382  0.78835107  1
  O  O1  1  0.23714234  0.84044382  0.21164893  1
  O  O2  1  0.00000000  0.00000000  0.50000000  1
  O  O3  1  0.39823148  0.00000000  0.72198029  1
  O  O3  1  0.60176852  0.00000000  0.27801971  1
  Sc  Sc1  1  0.00000000  0.30963374  0.00000000  1
  Sc  Sc1  1  0.00000000  0.69036626  0.00000000  1
  Si  Si1  1  0.27292638  0.50000000  0.59274677  1
  Si  Si1  1  0.72707362  0.50000000  0.40725323  1
  O  O1  1  0.73714234  0.65955618  0.21164893  1
  O  O1  1  0.26285766  0.65955618  0.78835107  1
  O  O1  1  0.26285766  0.34044382  0.78835107  1
  O  O1  1  0.73714234  0.34044382  0.21164893  1
  O  O2  1  0.50000000  0.50000000  0.50000000  1
  O  O3  1  0.89823148  0.50000000  0.72198029  1
  O  O3  1  0.10176852  0.50000000  0.27801971  1
