# generated using pymatgen
data_Sc2Ti2O7
_symmetry_space_group_name_H-M   'P 1'
_cell_length_a   6.33109294
_cell_length_b   8.87475888
_cell_length_c   5.18038351
_cell_angle_alpha   90.00000000
_cell_angle_beta   99.97376541
_cell_angle_gamma   90.00000000
_symmetry_Int_Tables_number   1
_chemical_formula_structural   Sc2Ti2O7
_chemical_formula_sum   'Sc4 Ti4 O14'
_cell_volume   286.67091966
_cell_formula_units_Z   2
loop_
 _symmetry_equiv_pos_site_id
 _symmetry_equiv_pos_as_xyz
  1  'x, y, z'
loop_
 _atom_site_type_symbol
 _atom_site_label
 _atom_site_symmetry_multiplicity
 _atom_site_fract_x
 _atom_site_fract_y
 _atom_site_fract_z
 _atom_site_occupancy
  Sc  Sc1  1  0.50000000  0.81296734  0.00000000  1
  Sc  Sc1  1  0.50000000  0.18703266  0.00000000  1
  Ti  Ti1  1  0.74165863  0.00000000  0.60617379  1
  Ti  Ti1  1  0.25834137  0.00000000  0.39382621  1
  O  O1  1  0.77073367  0.17485998  0.80174700  1
  O  O1  1  0.77073367  0.82514002  0.80174700  1
  O  O2  1  0.56559382  0.00000000  0.26559889  1
  O  O3  1  0.00000000  0.00000000  0.50000000  1
  O  O2  1  0.43440618  0.00000000  0.73440111  1
  O  O1  1  0.22926633  0.17485998  0.19825300  1
  O  O1  1  0.22926633  0.82514002  0.19825300  1
  Sc  Sc1  1  0.00000000  0.31296734  0.00000000  1
  Sc  Sc1  1  0.00000000  0.68703266  0.00000000  1
  Ti  Ti1  1  0.24165863  0.50000000  0.60617379  1
  Ti  Ti1  1  0.75834137  0.50000000  0.39382621  1
  O  O1  1  0.27073367  0.67485998  0.80174700  1
  O  O1  1  0.27073367  0.32514002  0.80174700  1
  O  O2  1  0.06559382  0.50000000  0.26559889  1
  O  O3  1  0.50000000  0.50000000  0.50000000  1
  O  O2  1  0.93440618  0.50000000  0.73440111  1
  O  O1  1  0.72926633  0.67485998  0.19825300  1
  O  O1  1  0.72926633  0.32514002  0.19825300  1
