# generated using pymatgen
data_ScAgO2
_symmetry_space_group_name_H-M   'P 1'
_cell_length_a   3.17925566
_cell_length_b   3.17925566
_cell_length_c   12.27161328
_cell_angle_alpha   90.00000000
_cell_angle_beta   90.00000000
_cell_angle_gamma   120.00000000
_symmetry_Int_Tables_number   1
_chemical_formula_structural   ScAgO2
_chemical_formula_sum   'Sc2 Ag2 O4'
_cell_volume   107.41951784
_cell_formula_units_Z   2
loop_
 _symmetry_equiv_pos_site_id
 _symmetry_equiv_pos_as_xyz
  1  'x, y, z'
loop_
 _atom_site_type_symbol
 _atom_site_label
 _atom_site_symmetry_multiplicity
 _atom_site_fract_x
 _atom_site_fract_y
 _atom_site_fract_z
 _atom_site_occupancy
  Sc  Sc1  1  0.00000000  0.00000000  0.00000000  1
  Sc  Sc1  1  0.00000000  0.00000000  0.50000000  1
  Ag  Ag1  1  0.33333333  0.66666667  0.75000000  1
  Ag  Ag1  1  0.66666667  0.33333333  0.25000000  1
  O  O1  1  0.66666667  0.33333333  0.41700277  1
  O  O1  1  0.33333333  0.66666667  0.91700277  1
  O  O1  1  0.66666667  0.33333333  0.08299723  1
  O  O1  1  0.33333333  0.66666667  0.58299723  1
