# generated using pymatgen
data_ScAsO4
_symmetry_space_group_name_H-M   'P 1'
_cell_length_a   6.71472725
_cell_length_b   6.71472725
_cell_length_c   6.10205320
_cell_angle_alpha   90.00000000
_cell_angle_beta   90.00000000
_cell_angle_gamma   90.00000000
_symmetry_Int_Tables_number   1
_chemical_formula_structural   ScAsO4
_chemical_formula_sum   'Sc4 As4 O16'
_cell_volume   275.12670265
_cell_formula_units_Z   4
loop_
 _symmetry_equiv_pos_site_id
 _symmetry_equiv_pos_as_xyz
  1  'x, y, z'
loop_
 _atom_site_type_symbol
 _atom_site_label
 _atom_site_symmetry_multiplicity
 _atom_site_fract_x
 _atom_site_fract_y
 _atom_site_fract_z
 _atom_site_occupancy
  Sc  Sc1  1  0.00000000  0.00000000  0.50000000  1
  Sc  Sc1  1  0.50000000  0.00000000  0.25000000  1
  As  As1  1  0.50000000  0.00000000  0.75000000  1
  As  As1  1  0.50000000  0.50000000  0.50000000  1
  O  O1  1  0.00000000  0.31269524  0.43897850  1
  O  O1  1  0.50000000  0.18730476  0.93897850  1
  O  O1  1  0.31269524  0.50000000  0.68897850  1
  O  O1  1  0.00000000  0.18730476  0.81102150  1
  O  O1  1  0.18730476  0.00000000  0.18897850  1
  O  O1  1  0.18730476  0.50000000  0.06102150  1
  O  O1  1  0.50000000  0.31269524  0.31102150  1
  O  O1  1  0.31269524  0.00000000  0.56102150  1
  Sc  Sc1  1  0.50000000  0.50000000  0.00000000  1
  Sc  Sc1  1  0.00000000  0.50000000  0.75000000  1
  As  As1  1  0.00000000  0.50000000  0.25000000  1
  As  As1  1  0.00000000  0.00000000  0.00000000  1
  O  O1  1  0.50000000  0.81269524  0.93897850  1
  O  O1  1  0.00000000  0.68730476  0.43897850  1
  O  O1  1  0.81269524  0.00000000  0.18897850  1
  O  O1  1  0.50000000  0.68730476  0.31102150  1
  O  O1  1  0.68730476  0.50000000  0.68897850  1
  O  O1  1  0.68730476  0.00000000  0.56102150  1
  O  O1  1  0.00000000  0.81269524  0.81102150  1
  O  O1  1  0.81269524  0.50000000  0.06102150  1
