# generated using pymatgen
data_ScBO3
_symmetry_space_group_name_H-M   'P 1'
_cell_length_a   4.74781591
_cell_length_b   4.74781591
_cell_length_c   15.13096845
_cell_angle_alpha   90.00000000
_cell_angle_beta   90.00000000
_cell_angle_gamma   120.00000000
_symmetry_Int_Tables_number   1
_chemical_formula_structural   ScBO3
_chemical_formula_sum   'Sc6 B6 O18'
_cell_volume   295.38272976
_cell_formula_units_Z   6
loop_
 _symmetry_equiv_pos_site_id
 _symmetry_equiv_pos_as_xyz
  1  'x, y, z'
loop_
 _atom_site_type_symbol
 _atom_site_label
 _atom_site_symmetry_multiplicity
 _atom_site_fract_x
 _atom_site_fract_y
 _atom_site_fract_z
 _atom_site_occupancy
  Sc  Sc1  1  0.00000000  0.00000000  0.50000000  1
  Sc  Sc1  1  0.66666667  0.33333333  0.33333333  1
  B  B1  1  0.00000000  0.00000000  0.25000000  1
  B  B1  1  0.33333333  0.66666667  0.41666667  1
  O  O1  1  0.00000000  0.70852183  0.25000000  1
  O  O1  1  0.29147817  0.29147817  0.25000000  1
  O  O1  1  0.62481150  0.66666667  0.41666667  1
  O  O1  1  0.33333333  0.95814484  0.41666667  1
  O  O1  1  0.04185516  0.37518850  0.41666667  1
  O  O1  1  0.70852183  0.00000000  0.25000000  1
  Sc  Sc1  1  0.66666667  0.33333333  0.83333333  1
  Sc  Sc1  1  0.33333333  0.66666667  0.66666667  1
  B  B1  1  0.66666667  0.33333333  0.58333333  1
  B  B1  1  0.00000000  0.00000000  0.75000000  1
  O  O1  1  0.66666667  0.04185516  0.58333333  1
  O  O1  1  0.95814484  0.62481150  0.58333333  1
  O  O1  1  0.29147817  0.00000000  0.75000000  1
  O  O1  1  0.00000000  0.29147817  0.75000000  1
  O  O1  1  0.70852183  0.70852183  0.75000000  1
  O  O1  1  0.37518850  0.33333333  0.58333333  1
  Sc  Sc1  1  0.33333333  0.66666667  0.16666667  1
  Sc  Sc1  1  0.00000000  0.00000000  0.00000000  1
  B  B1  1  0.33333333  0.66666667  0.91666667  1
  B  B1  1  0.66666667  0.33333333  0.08333333  1
  O  O1  1  0.33333333  0.37518850  0.91666667  1
  O  O1  1  0.62481150  0.95814484  0.91666667  1
  O  O1  1  0.95814484  0.33333333  0.08333333  1
  O  O1  1  0.66666667  0.62481150  0.08333333  1
  O  O1  1  0.37518850  0.04185516  0.08333333  1
  O  O1  1  0.04185516  0.66666667  0.91666667  1
