# generated using pymatgen
data_ScNbO4
_symmetry_space_group_name_H-M   'P 1'
_cell_length_a   4.81694682
_cell_length_b   5.68533029
_cell_length_c   5.08689052
_cell_angle_alpha   90.00000000
_cell_angle_beta   90.76320834
_cell_angle_gamma   90.00000000
_symmetry_Int_Tables_number   1
_chemical_formula_structural   ScNbO4
_chemical_formula_sum   'Sc2 Nb2 O8'
_cell_volume   139.29688743
_cell_formula_units_Z   2
loop_
 _symmetry_equiv_pos_site_id
 _symmetry_equiv_pos_as_xyz
  1  'x, y, z'
loop_
 _atom_site_type_symbol
 _atom_site_label
 _atom_site_symmetry_multiplicity
 _atom_site_fract_x
 _atom_site_fract_y
 _atom_site_fract_z
 _atom_site_occupancy
  Sc  Sc1  1  0.50000000  0.67957044  0.75000000  1
  Sc  Sc1  1  0.50000000  0.32042956  0.25000000  1
  Nb  Nb1  1  0.00000000  0.81506356  0.25000000  1
  Nb  Nb1  1  0.00000000  0.18493644  0.75000000  1
  O  O1  1  0.21993830  0.89347672  0.93411106  1
  O  O1  1  0.78006170  0.89347672  0.56588894  1
  O  O1  1  0.21993830  0.10652328  0.43411106  1
  O  O2  1  0.73321700  0.38834712  0.59021968  1
  O  O2  1  0.26678300  0.61165288  0.40978032  1
  O  O1  1  0.78006170  0.10652328  0.06588894  1
  O  O2  1  0.73321700  0.61165288  0.09021968  1
  O  O2  1  0.26678300  0.38834712  0.90978032  1
