# generated using pymatgen
data_ScTaO4
_symmetry_space_group_name_H-M   'P 1'
_cell_length_a   4.78596232
_cell_length_b   5.66562653
_cell_length_c   5.09501041
_cell_angle_alpha   90.00000000
_cell_angle_beta   91.35818638
_cell_angle_gamma   90.00000000
_symmetry_Int_Tables_number   1
_chemical_formula_structural   ScTaO4
_chemical_formula_sum   'Sc2 Ta2 O8'
_cell_volume   138.11481412
_cell_formula_units_Z   2
loop_
 _symmetry_equiv_pos_site_id
 _symmetry_equiv_pos_as_xyz
  1  'x, y, z'
loop_
 _atom_site_type_symbol
 _atom_site_label
 _atom_site_symmetry_multiplicity
 _atom_site_fract_x
 _atom_site_fract_y
 _atom_site_fract_z
 _atom_site_occupancy
  Sc  Sc1  1  0.50000000  0.32567288  0.25000000  1
  Sc  Sc1  1  0.50000000  0.67432712  0.75000000  1
  Ta  Ta1  1  0.00000000  0.82358182  0.25000000  1
  Ta  Ta1  1  0.00000000  0.17641818  0.75000000  1
  O  O1  1  0.78155624  0.10707349  0.06700492  1
  O  O2  1  0.73404769  0.61446012  0.09348812  1
  O  O1  1  0.21844376  0.10707349  0.43299508  1
  O  O2  1  0.26595231  0.38553988  0.90651188  1
  O  O2  1  0.26595231  0.61446012  0.40651188  1
  O  O1  1  0.78155624  0.89292651  0.56700492  1
  O  O2  1  0.73404769  0.38553988  0.59348812  1
  O  O1  1  0.21844376  0.89292651  0.93299508  1
