# generated using pymatgen
data_Si2Hg6O7
_symmetry_space_group_name_H-M   'P 1'
_cell_length_a   11.84059080
_cell_length_b   7.59700253
_cell_length_c   6.02780129
_cell_angle_alpha   90.00000000
_cell_angle_beta   111.18823388
_cell_angle_gamma   90.00000000
_symmetry_Int_Tables_number   1
_chemical_formula_structural   Si2Hg6O7
_chemical_formula_sum   'Si4 Hg12 O14'
_cell_volume   505.56374794
_cell_formula_units_Z   2
loop_
 _symmetry_equiv_pos_site_id
 _symmetry_equiv_pos_as_xyz
  1  'x, y, z'
loop_
 _atom_site_type_symbol
 _atom_site_label
 _atom_site_symmetry_multiplicity
 _atom_site_fract_x
 _atom_site_fract_y
 _atom_site_fract_z
 _atom_site_occupancy
  Si  Si1  1  0.85284205  0.50000000  0.89896598  1
  Si  Si1  1  0.14715795  0.50000000  0.10103402  1
  Hg  Hg1  1  0.11589592  0.23760174  0.58347380  1
  Hg  Hg1  1  0.88410408  0.23760174  0.41652620  1
  Hg  Hg1  1  0.88410408  0.76239826  0.41652620  1
  Hg  Hg1  1  0.11589592  0.76239826  0.58347380  1
  Hg  Hg2  1  0.38531680  0.50000000  0.95242958  1
  Hg  Hg2  1  0.61468320  0.50000000  0.04757042  1
  O  O1  1  0.00000000  0.50000000  0.00000000  1
  O  O2  1  0.80685366  0.67914302  0.73840902  1
  O  O2  1  0.19314634  0.67914302  0.26159098  1
  O  O2  1  0.19314634  0.32085698  0.26159098  1
  O  O2  1  0.80685366  0.32085698  0.73840902  1
  O  O3  1  0.19308345  0.50000000  0.87188426  1
  O  O3  1  0.80691655  0.50000000  0.12811574  1
  Si  Si1  1  0.35284205  0.00000000  0.89896598  1
  Si  Si1  1  0.64715795  0.00000000  0.10103402  1
  Hg  Hg1  1  0.61589592  0.73760174  0.58347380  1
  Hg  Hg1  1  0.38410408  0.73760174  0.41652620  1
  Hg  Hg1  1  0.38410408  0.26239826  0.41652620  1
  Hg  Hg1  1  0.61589592  0.26239826  0.58347380  1
  Hg  Hg2  1  0.88531680  0.00000000  0.95242958  1
  Hg  Hg2  1  0.11468320  0.00000000  0.04757042  1
  O  O1  1  0.50000000  0.00000000  0.00000000  1
  O  O2  1  0.30685366  0.17914302  0.73840902  1
  O  O2  1  0.69314634  0.17914302  0.26159098  1
  O  O2  1  0.69314634  0.82085698  0.26159098  1
  O  O2  1  0.30685366  0.82085698  0.73840902  1
  O  O3  1  0.69308345  0.00000000  0.87188426  1
  O  O3  1  0.30691655  0.00000000  0.12811574  1
