# generated using pymatgen
data_SiO2
_symmetry_space_group_name_H-M   'P 1'
_cell_length_a   5.00252193
_cell_length_b   5.00252193
_cell_length_c   7.35035212
_cell_angle_alpha   90.00000000
_cell_angle_beta   90.00000000
_cell_angle_gamma   90.00000000
_symmetry_Int_Tables_number   1
_chemical_formula_structural   SiO2
_chemical_formula_sum   'Si4 O8'
_cell_volume   183.94422073
_cell_formula_units_Z   4
loop_
 _symmetry_equiv_pos_site_id
 _symmetry_equiv_pos_as_xyz
  1  'x, y, z'
loop_
 _atom_site_type_symbol
 _atom_site_label
 _atom_site_symmetry_multiplicity
 _atom_site_fract_x
 _atom_site_fract_y
 _atom_site_fract_z
 _atom_site_occupancy
  Si  Si1  1  0.00000000  0.00000000  0.00000000  1
  Si  Si1  1  0.00000000  0.50000000  0.25000000  1
  O  O1  1  0.90666390  0.75000000  0.12500000  1
  O  O1  1  0.25000000  0.90666390  0.87500000  1
  O  O1  1  0.09333610  0.25000000  0.12500000  1
  O  O1  1  0.75000000  0.09333610  0.87500000  1
  Si  Si1  1  0.50000000  0.50000000  0.50000000  1
  Si  Si1  1  0.50000000  0.00000000  0.75000000  1
  O  O1  1  0.40666390  0.25000000  0.62500000  1
  O  O1  1  0.75000000  0.40666390  0.37500000  1
  O  O1  1  0.59333610  0.75000000  0.62500000  1
  O  O1  1  0.25000000  0.59333610  0.37500000  1
