# generated using pymatgen
data_Sn5O6
_symmetry_space_group_name_H-M   'P 1'
_cell_length_a   13.36339347
_cell_length_b   4.84918259
_cell_length_c   5.82308143
_cell_angle_alpha   90.00000000
_cell_angle_beta   92.69082477
_cell_angle_gamma   90.00000000
_symmetry_Int_Tables_number   1
_chemical_formula_structural   Sn5O6
_chemical_formula_sum   'Sn10 O12'
_cell_volume   376.92855741
_cell_formula_units_Z   2
loop_
 _symmetry_equiv_pos_site_id
 _symmetry_equiv_pos_as_xyz
  1  'x, y, z'
loop_
 _atom_site_type_symbol
 _atom_site_label
 _atom_site_symmetry_multiplicity
 _atom_site_fract_x
 _atom_site_fract_y
 _atom_site_fract_z
 _atom_site_occupancy
  Sn  Sn1  1  0.89917360  0.00251578  0.81899944  1
  Sn  Sn2  1  0.69923016  0.99761050  0.35037300  1
  Sn  Sn1  1  0.89917360  0.49748422  0.31899944  1
  Sn  Sn1  1  0.10082640  0.50251578  0.68100056  1
  Sn  Sn2  1  0.30076984  0.49761050  0.14962700  1
  Sn  Sn1  1  0.10082640  0.99748422  0.18100056  1
  Sn  Sn2  1  0.30076984  0.00238950  0.64962700  1
  Sn  Sn3  1  0.50000000  0.50000000  0.50000000  1
  Sn  Sn2  1  0.69923016  0.50238950  0.85037300  1
  Sn  Sn3  1  0.50000000  0.00000000  0.00000000  1
  O  O1  1  0.64219383  0.17737635  0.03910416  1
  O  O1  1  0.35780617  0.82262365  0.96089584  1
  O  O1  1  0.35780617  0.67737635  0.46089584  1
  O  O2  1  0.44115627  0.19755180  0.70778958  1
  O  O2  1  0.55884373  0.80244820  0.29221042  1
  O  O3  1  0.04532086  0.32217966  0.37043780  1
  O  O3  1  0.04532086  0.17782034  0.87043780  1
  O  O1  1  0.64219383  0.32262365  0.53910416  1
  O  O3  1  0.95467914  0.67782034  0.62956220  1
  O  O3  1  0.95467914  0.82217966  0.12956220  1
  O  O2  1  0.55884373  0.69755180  0.79221042  1
  O  O2  1  0.44115627  0.30244820  0.20778958  1
