# generated using pymatgen
data_Sr(AsO3)2
_symmetry_space_group_name_H-M   'P 1'
_cell_length_a   4.89831841
_cell_length_b   4.89831840
_cell_length_c   10.87495474
_cell_angle_alpha   90.00000000
_cell_angle_beta   90.00000000
_cell_angle_gamma   120.00000000
_symmetry_Int_Tables_number   1
_chemical_formula_structural   Sr(AsO3)2
_chemical_formula_sum   'Sr2 As4 O12'
_cell_volume   225.97069123
_cell_formula_units_Z   2
loop_
 _symmetry_equiv_pos_site_id
 _symmetry_equiv_pos_as_xyz
  1  'x, y, z'
loop_
 _atom_site_type_symbol
 _atom_site_label
 _atom_site_symmetry_multiplicity
 _atom_site_fract_x
 _atom_site_fract_y
 _atom_site_fract_z
 _atom_site_occupancy
  Sr  Sr1  1  0.00000000  0.00000000  0.75000000  1
  Sr  Sr1  1  0.00000000  0.00000000  0.25000000  1
  As  As1  1  0.33333333  0.66666667  0.50000000  1
  As  As1  1  0.66666667  0.33333333  0.50000000  1
  As  As1  1  0.33333333  0.66666667  0.00000000  1
  As  As1  1  0.66666667  0.33333333  0.00000000  1
  O  O1  1  0.61759642  0.00000000  0.59665415  1
  O  O1  1  0.00000000  0.61759642  0.59665415  1
  O  O1  1  0.38240358  0.38240358  0.59665415  1
  O  O1  1  0.61759642  0.00000000  0.90334585  1
  O  O1  1  0.00000000  0.61759642  0.90334585  1
  O  O1  1  0.38240358  0.38240358  0.90334585  1
  O  O1  1  0.00000000  0.38240358  0.09665415  1
  O  O1  1  0.38240358  0.00000000  0.09665415  1
  O  O1  1  0.61759642  0.61759642  0.09665415  1
  O  O1  1  0.38240358  0.00000000  0.40334585  1
  O  O1  1  0.00000000  0.38240358  0.40334585  1
  O  O1  1  0.61759642  0.61759642  0.40334585  1
