# generated using pymatgen
data_Sr(AuO2)2
_symmetry_space_group_name_H-M   'P 1'
_cell_length_a   6.18297660
_cell_length_b   6.18297660
_cell_length_c   10.15779963
_cell_angle_alpha   90.00000000
_cell_angle_beta   90.00000000
_cell_angle_gamma   90.00000000
_symmetry_Int_Tables_number   1
_chemical_formula_structural   Sr(AuO2)2
_chemical_formula_sum   'Sr4 Au8 O16'
_cell_volume   388.32454979
_cell_formula_units_Z   4
loop_
 _symmetry_equiv_pos_site_id
 _symmetry_equiv_pos_as_xyz
  1  'x, y, z'
loop_
 _atom_site_type_symbol
 _atom_site_label
 _atom_site_symmetry_multiplicity
 _atom_site_fract_x
 _atom_site_fract_y
 _atom_site_fract_z
 _atom_site_occupancy
  Sr  Sr1  1  0.00000000  0.50000000  0.25000000  1
  Sr  Sr1  1  0.00000000  0.00000000  0.00000000  1
  Au  Au1  1  0.75000000  0.00000000  0.37500000  1
  Au  Au1  1  0.50000000  0.25000000  0.12500000  1
  Au  Au1  1  0.25000000  0.00000000  0.37500000  1
  Au  Au1  1  0.50000000  0.75000000  0.12500000  1
  O  O1  1  0.34845034  0.71813198  0.29833720  1
  O  O1  1  0.78186802  0.34845034  0.04833720  1
  O  O1  1  0.21813198  0.65154966  0.04833720  1
  O  O1  1  0.65154966  0.28186802  0.29833720  1
  O  O1  1  0.15154966  0.28186802  0.45166280  1
  O  O1  1  0.21813198  0.15154966  0.20166280  1
  O  O1  1  0.84845034  0.71813198  0.45166280  1
  O  O1  1  0.78186802  0.84845034  0.20166280  1
  Sr  Sr1  1  0.50000000  0.00000000  0.75000000  1
  Sr  Sr1  1  0.50000000  0.50000000  0.50000000  1
  Au  Au1  1  0.25000000  0.50000000  0.87500000  1
  Au  Au1  1  0.00000000  0.75000000  0.62500000  1
  Au  Au1  1  0.75000000  0.50000000  0.87500000  1
  Au  Au1  1  0.00000000  0.25000000  0.62500000  1
  O  O1  1  0.84845034  0.21813198  0.79833720  1
  O  O1  1  0.28186802  0.84845034  0.54833720  1
  O  O1  1  0.71813198  0.15154966  0.54833720  1
  O  O1  1  0.15154966  0.78186802  0.79833720  1
  O  O1  1  0.65154966  0.78186802  0.95166280  1
  O  O1  1  0.71813198  0.65154966  0.70166280  1
  O  O1  1  0.34845034  0.21813198  0.95166280  1
  O  O1  1  0.28186802  0.34845034  0.70166280  1
