# generated using pymatgen
data_Sr(BO2)2
_symmetry_space_group_name_H-M   'P 1'
_cell_length_a   11.98775342
_cell_length_b   4.34818322
_cell_length_c   6.56645890
_cell_angle_alpha   90.00000000
_cell_angle_beta   90.00000000
_cell_angle_gamma   90.00000000
_symmetry_Int_Tables_number   1
_chemical_formula_structural   Sr(BO2)2
_chemical_formula_sum   'Sr4 B8 O16'
_cell_volume   342.27633019
_cell_formula_units_Z   4
loop_
 _symmetry_equiv_pos_site_id
 _symmetry_equiv_pos_as_xyz
  1  'x, y, z'
loop_
 _atom_site_type_symbol
 _atom_site_label
 _atom_site_symmetry_multiplicity
 _atom_site_fract_x
 _atom_site_fract_y
 _atom_site_fract_z
 _atom_site_occupancy
  Sr  Sr1  1  0.00000000  0.23733920  0.25000000  1
  Sr  Sr1  1  0.50000000  0.26266080  0.75000000  1
  Sr  Sr1  1  0.00000000  0.76266080  0.75000000  1
  Sr  Sr1  1  0.50000000  0.73733920  0.25000000  1
  B  B1  1  0.80614231  0.66925419  0.37307644  1
  B  B1  1  0.19385769  0.66925419  0.12692356  1
  B  B1  1  0.69385769  0.83074581  0.87307644  1
  B  B1  1  0.30614231  0.83074581  0.62692356  1
  B  B1  1  0.30614231  0.16925419  0.12692356  1
  B  B1  1  0.69385769  0.16925419  0.37307644  1
  B  B1  1  0.19385769  0.33074581  0.62692356  1
  B  B1  1  0.80614231  0.33074581  0.87307644  1
  O  O1  1  0.08968399  0.23593655  0.59421416  1
  O  O1  1  0.58968399  0.73593655  0.90578584  1
  O  O1  1  0.08968399  0.76406345  0.09421416  1
  O  O1  1  0.41031601  0.73593655  0.59421416  1
  O  O2  1  0.71063947  0.84943541  0.35154104  1
  O  O2  1  0.28936053  0.84943541  0.14845896  1
  O  O2  1  0.78936053  0.65056459  0.85154104  1
  O  O2  1  0.21063947  0.65056459  0.64845896  1
  O  O2  1  0.28936053  0.15056459  0.64845896  1
  O  O2  1  0.71063947  0.15056459  0.85154104  1
  O  O2  1  0.21063947  0.34943541  0.14845896  1
  O  O2  1  0.78936053  0.34943541  0.35154104  1
  O  O1  1  0.41031601  0.26406345  0.09421416  1
  O  O1  1  0.58968399  0.26406345  0.40578584  1
  O  O1  1  0.91031601  0.76406345  0.40578584  1
  O  O1  1  0.91031601  0.23593655  0.90578584  1
