# generated using pymatgen
data_Sr(BiO2)2
_symmetry_space_group_name_H-M   'P 1'
_cell_length_a   19.21705838
_cell_length_b   4.32888737
_cell_length_c   6.06074087
_cell_angle_alpha   90.00000000
_cell_angle_beta   94.13320120
_cell_angle_gamma   90.00000000
_symmetry_Int_Tables_number   1
_chemical_formula_structural   Sr(BiO2)2
_chemical_formula_sum   'Sr4 Bi8 O16'
_cell_volume   502.87254020
_cell_formula_units_Z   4
loop_
 _symmetry_equiv_pos_site_id
 _symmetry_equiv_pos_as_xyz
  1  'x, y, z'
loop_
 _atom_site_type_symbol
 _atom_site_label
 _atom_site_symmetry_multiplicity
 _atom_site_fract_x
 _atom_site_fract_y
 _atom_site_fract_z
 _atom_site_occupancy
  Sr  Sr1  1  0.23540550  0.00000000  0.25941014  1
  Sr  Sr1  1  0.26459450  0.50000000  0.74058986  1
  Bi  Bi1  1  0.42541621  0.00000000  0.72350221  1
  Bi  Bi1  1  0.07458379  0.50000000  0.27649779  1
  Bi  Bi2  1  0.09890877  0.00000000  0.81491464  1
  Bi  Bi2  1  0.40109123  0.50000000  0.18508536  1
  O  O1  1  0.09004063  0.00000000  0.17300927  1
  O  O1  1  0.40995937  0.50000000  0.82699073  1
  O  O2  1  0.20499229  0.00000000  0.85522530  1
  O  O2  1  0.29500771  0.50000000  0.14477470  1
  O  O3  1  0.32469789  0.00000000  0.57982904  1
  O  O3  1  0.17530211  0.50000000  0.42017096  1
  O  O4  1  0.08796868  0.50000000  0.92450464  1
  O  O4  1  0.41203132  0.00000000  0.07549536  1
  Sr  Sr1  1  0.73540550  0.50000000  0.25941014  1
  Sr  Sr1  1  0.76459450  0.00000000  0.74058986  1
  Bi  Bi1  1  0.92541621  0.50000000  0.72350221  1
  Bi  Bi1  1  0.57458379  0.00000000  0.27649779  1
  Bi  Bi2  1  0.59890877  0.50000000  0.81491464  1
  Bi  Bi2  1  0.90109123  0.00000000  0.18508536  1
  O  O1  1  0.59004063  0.50000000  0.17300927  1
  O  O1  1  0.90995937  0.00000000  0.82699073  1
  O  O2  1  0.70499229  0.50000000  0.85522530  1
  O  O2  1  0.79500771  0.00000000  0.14477470  1
  O  O3  1  0.82469789  0.50000000  0.57982904  1
  O  O3  1  0.67530211  0.00000000  0.42017096  1
  O  O4  1  0.58796868  0.00000000  0.92450464  1
  O  O4  1  0.91203132  0.50000000  0.07549536  1
