# generated using pymatgen
data_Sr(CuO)2
_symmetry_space_group_name_H-M   'P 1'
_cell_length_a   5.37343156
_cell_length_b   5.37343156
_cell_length_c   9.79258853
_cell_angle_alpha   90.00000000
_cell_angle_beta   90.00000000
_cell_angle_gamma   90.00000000
_symmetry_Int_Tables_number   1
_chemical_formula_structural   Sr(CuO)2
_chemical_formula_sum   'Sr4 Cu8 O8'
_cell_volume   282.74891742
_cell_formula_units_Z   4
loop_
 _symmetry_equiv_pos_site_id
 _symmetry_equiv_pos_as_xyz
  1  'x, y, z'
loop_
 _atom_site_type_symbol
 _atom_site_label
 _atom_site_symmetry_multiplicity
 _atom_site_fract_x
 _atom_site_fract_y
 _atom_site_fract_z
 _atom_site_occupancy
  Sr  Sr1  1  0.50000000  0.50000000  0.00000000  1
  Sr  Sr1  1  0.50000000  0.00000000  0.25000000  1
  Cu  Cu1  1  0.00000000  0.75000000  0.12500000  1
  Cu  Cu1  1  0.25000000  0.00000000  0.87500000  1
  Cu  Cu1  1  0.00000000  0.25000000  0.12500000  1
  Cu  Cu1  1  0.75000000  0.00000000  0.87500000  1
  O  O1  1  0.50000000  0.00000000  0.00093489  1
  O  O1  1  0.50000000  0.50000000  0.75093489  1
  O  O1  1  0.50000000  0.50000000  0.24906511  1
  O  O1  1  0.00000000  0.50000000  0.99906511  1
  Sr  Sr1  1  0.00000000  0.00000000  0.50000000  1
  Sr  Sr1  1  0.00000000  0.50000000  0.75000000  1
  Cu  Cu1  1  0.50000000  0.25000000  0.62500000  1
  Cu  Cu1  1  0.75000000  0.50000000  0.37500000  1
  Cu  Cu1  1  0.50000000  0.75000000  0.62500000  1
  Cu  Cu1  1  0.25000000  0.50000000  0.37500000  1
  O  O1  1  0.00000000  0.50000000  0.50093489  1
  O  O1  1  0.00000000  0.00000000  0.25093489  1
  O  O1  1  0.00000000  0.00000000  0.74906511  1
  O  O1  1  0.50000000  0.00000000  0.49906511  1
