# generated using pymatgen
data_Sr2CeO4
_symmetry_space_group_name_H-M   'P 1'
_cell_length_a   6.09148317
_cell_length_b   10.34415923
_cell_length_c   3.60111605
_cell_angle_alpha   90.00000000
_cell_angle_beta   90.00000000
_cell_angle_gamma   90.00000000
_symmetry_Int_Tables_number   1
_chemical_formula_structural   Sr2CeO4
_chemical_formula_sum   'Sr4 Ce2 O8'
_cell_volume   226.91090256
_cell_formula_units_Z   2
loop_
 _symmetry_equiv_pos_site_id
 _symmetry_equiv_pos_as_xyz
  1  'x, y, z'
loop_
 _atom_site_type_symbol
 _atom_site_label
 _atom_site_symmetry_multiplicity
 _atom_site_fract_x
 _atom_site_fract_y
 _atom_site_fract_z
 _atom_site_occupancy
  Sr  Sr1  1  0.43754394  0.17896226  0.50000000  1
  Sr  Sr1  1  0.56245606  0.82103774  0.50000000  1
  Sr  Sr1  1  0.93754394  0.32103774  0.50000000  1
  Sr  Sr1  1  0.06245606  0.67896226  0.50000000  1
  Ce  Ce1  1  0.50000000  0.50000000  0.00000000  1
  Ce  Ce1  1  0.00000000  0.00000000  0.00000000  1
  O  O1  1  0.27110639  0.45822078  0.50000000  1
  O  O1  1  0.72889361  0.54177922  0.50000000  1
  O  O1  1  0.77110639  0.04177922  0.50000000  1
  O  O1  1  0.22889361  0.95822078  0.50000000  1
  O  O2  1  0.64524231  0.30390666  0.00000000  1
  O  O2  1  0.35475769  0.69609334  0.00000000  1
  O  O2  1  0.85475769  0.80390666  0.00000000  1
  O  O2  1  0.14524231  0.19609334  0.00000000  1
