# generated using pymatgen
data_Sr2CaWO6
_symmetry_space_group_name_H-M   'P 1'
_cell_length_a   5.73092459
_cell_length_b   5.86660485
_cell_length_c   9.95483324
_cell_angle_alpha   90.00000000
_cell_angle_beta   124.97091343
_cell_angle_gamma   90.00000000
_symmetry_Int_Tables_number   1
_chemical_formula_structural   Sr2CaWO6
_chemical_formula_sum   'Sr4 Ca2 W2 O12'
_cell_volume   274.26117531
_cell_formula_units_Z   2
loop_
 _symmetry_equiv_pos_site_id
 _symmetry_equiv_pos_as_xyz
  1  'x, y, z'
loop_
 _atom_site_type_symbol
 _atom_site_label
 _atom_site_symmetry_multiplicity
 _atom_site_fract_x
 _atom_site_fract_y
 _atom_site_fract_z
 _atom_site_occupancy
  Sr  Sr1  1  0.24110614  0.45476440  0.25169182  1
  Sr  Sr1  1  0.24110614  0.04523560  0.75169182  1
  Sr  Sr1  1  0.75889386  0.54523560  0.74830818  1
  Sr  Sr1  1  0.75889386  0.95476440  0.24830818  1
  Ca  Ca1  1  0.50000000  0.00000000  0.50000000  1
  Ca  Ca1  1  0.50000000  0.50000000  0.00000000  1
  W  W1  1  0.00000000  0.00000000  0.00000000  1
  W  W1  1  0.00000000  0.50000000  0.50000000  1
  O  O1  1  0.68674865  0.97109199  0.77209612  1
  O  O1  1  0.68674865  0.52890801  0.27209612  1
  O  O1  1  0.31325135  0.02890801  0.22790388  1
  O  O1  1  0.31325135  0.47109199  0.72790388  1
  O  O2  1  0.77052777  0.18799372  0.04114358  1
  O  O2  1  0.77052777  0.31200628  0.54114358  1
  O  O2  1  0.22947223  0.81200628  0.95885642  1
  O  O2  1  0.22947223  0.68799372  0.45885642  1
  O  O3  1  0.86592272  0.73086780  0.04973478  1
  O  O3  1  0.86592272  0.76913220  0.54973478  1
  O  O3  1  0.13407728  0.26913220  0.95026522  1
  O  O3  1  0.13407728  0.23086780  0.45026522  1
