# generated using pymatgen
data_Sr2CdWO6
_symmetry_space_group_name_H-M   'P 1'
_cell_length_a   5.70910454
_cell_length_b   5.86702856
_cell_length_c   9.91748669
_cell_angle_alpha   90.00000000
_cell_angle_beta   125.11193989
_cell_angle_gamma   90.00000000
_symmetry_Int_Tables_number   1
_chemical_formula_structural   Sr2CdWO6
_chemical_formula_sum   'Sr4 Cd2 W2 O12'
_cell_volume   271.74213790
_cell_formula_units_Z   2
loop_
 _symmetry_equiv_pos_site_id
 _symmetry_equiv_pos_as_xyz
  1  'x, y, z'
loop_
 _atom_site_type_symbol
 _atom_site_label
 _atom_site_symmetry_multiplicity
 _atom_site_fract_x
 _atom_site_fract_y
 _atom_site_fract_z
 _atom_site_occupancy
  Sr  Sr1  1  0.73722574  0.04801988  0.24813192  1
  Sr  Sr1  1  0.26277426  0.54801988  0.25186808  1
  Sr  Sr1  1  0.26277426  0.95198012  0.75186808  1
  Sr  Sr1  1  0.73722574  0.45198012  0.74813192  1
  Cd  Cd1  1  0.50000000  0.00000000  0.50000000  1
  Cd  Cd1  1  0.50000000  0.50000000  0.00000000  1
  W  W1  1  0.00000000  0.50000000  0.50000000  1
  W  W1  1  0.00000000  0.00000000  0.00000000  1
  O  O1  1  0.76844506  0.76987993  0.44955426  1
  O  O1  1  0.23155494  0.26987993  0.05044574  1
  O  O1  1  0.23155494  0.23012007  0.55044574  1
  O  O1  1  0.76844506  0.73012007  0.94955426  1
  O  O2  1  0.68618305  0.31440729  0.45921246  1
  O  O2  1  0.31381695  0.81440729  0.04078754  1
  O  O2  1  0.31381695  0.68559271  0.54078754  1
  O  O2  1  0.68618305  0.18559271  0.95921246  1
  O  O3  1  0.14198882  0.97000930  0.22874888  1
  O  O3  1  0.85801118  0.47000930  0.27125112  1
  O  O3  1  0.85801118  0.02999070  0.77125112  1
  O  O3  1  0.14198882  0.52999070  0.72874888  1
