# generated using pymatgen
data_Sr2GeO4
_symmetry_space_group_name_H-M   'P 1'
_cell_length_a   5.85419808
_cell_length_b   7.22463342
_cell_length_c   11.04238536
_cell_angle_alpha   90.00000000
_cell_angle_beta   116.59556154
_cell_angle_gamma   90.00000000
_symmetry_Int_Tables_number   1
_chemical_formula_structural   Sr2GeO4
_chemical_formula_sum   'Sr8 Ge4 O16'
_cell_volume   417.61434877
_cell_formula_units_Z   4
loop_
 _symmetry_equiv_pos_site_id
 _symmetry_equiv_pos_as_xyz
  1  'x, y, z'
loop_
 _atom_site_type_symbol
 _atom_site_label
 _atom_site_symmetry_multiplicity
 _atom_site_fract_x
 _atom_site_fract_y
 _atom_site_fract_z
 _atom_site_occupancy
  Sr  Sr1  1  0.29571250  0.84807692  0.06942974  1
  Sr  Sr1  1  0.70428750  0.34807692  0.43057026  1
  Sr  Sr1  1  0.70428750  0.15192308  0.93057026  1
  Sr  Sr1  1  0.29571250  0.65192308  0.56942974  1
  Sr  Sr2  1  0.01656814  0.49726888  0.80002058  1
  Sr  Sr2  1  0.98343186  0.99726888  0.69997942  1
  Sr  Sr2  1  0.98343186  0.50273112  0.19997942  1
  Sr  Sr2  1  0.01656814  0.00273112  0.30002058  1
  Ge  Ge1  1  0.34914114  0.28354548  0.08230074  1
  Ge  Ge1  1  0.65085886  0.78354548  0.41769926  1
  Ge  Ge1  1  0.65085886  0.71645452  0.91769926  1
  Ge  Ge1  1  0.34914114  0.21645452  0.58230074  1
  O  O1  1  0.27121534  0.52118418  0.05874414  1
  O  O1  1  0.72878466  0.02118418  0.44125586  1
  O  O1  1  0.72878466  0.47881582  0.94125586  1
  O  O1  1  0.27121534  0.97881582  0.55874414  1
  O  O2  1  0.27035098  0.16737362  0.92351817  1
  O  O2  1  0.72964902  0.66737362  0.57648183  1
  O  O2  1  0.72964902  0.83262638  0.07648183  1
  O  O2  1  0.27035098  0.33262638  0.42351817  1
  O  O3  1  0.13993330  0.16674804  0.13738932  1
  O  O3  1  0.86006670  0.66674804  0.36261068  1
  O  O3  1  0.86006670  0.83325196  0.86261068  1
  O  O3  1  0.13993330  0.33325196  0.63738932  1
  O  O4  1  0.67917482  0.25075982  0.19577871  1
  O  O4  1  0.32082518  0.75075982  0.30422129  1
  O  O4  1  0.32082518  0.74924018  0.80422129  1
  O  O4  1  0.67917482  0.24924018  0.69577871  1
