# generated using pymatgen
data_Sr2InSbO6
_symmetry_space_group_name_H-M   'P 1'
_cell_length_a   5.73849432
_cell_length_b   5.79696896
_cell_length_c   9.94551394
_cell_angle_alpha   90.00000000
_cell_angle_beta   125.14443261
_cell_angle_gamma   90.00000000
_symmetry_Int_Tables_number   1
_chemical_formula_structural   Sr2InSbO6
_chemical_formula_sum   'Sr4 In2 Sb2 O12'
_cell_volume   270.53412125
_cell_formula_units_Z   2
loop_
 _symmetry_equiv_pos_site_id
 _symmetry_equiv_pos_as_xyz
  1  'x, y, z'
loop_
 _atom_site_type_symbol
 _atom_site_label
 _atom_site_symmetry_multiplicity
 _atom_site_fract_x
 _atom_site_fract_y
 _atom_site_fract_z
 _atom_site_occupancy
  Sr  Sr1  1  0.24141434  0.96176124  0.25021299  1
  Sr  Sr1  1  0.75858566  0.46176124  0.24978701  1
  Sr  Sr1  1  0.75858566  0.03823876  0.74978701  1
  Sr  Sr1  1  0.24141434  0.53823876  0.75021299  1
  In  In1  1  0.50000000  0.50000000  0.50000000  1
  In  In1  1  0.50000000  0.00000000  0.00000000  1
  Sb  Sb1  1  0.00000000  0.00000000  0.50000000  1
  Sb  Sb1  1  0.00000000  0.50000000  0.00000000  1
  O  O1  1  0.84606342  0.27774420  0.54402122  1
  O  O2  1  0.23737798  0.29948516  0.95938584  1
  O  O3  1  0.31845532  0.52289224  0.23857112  1
  O  O1  1  0.15393658  0.72225580  0.45597878  1
  O  O2  1  0.76262202  0.70051484  0.04061416  1
  O  O3  1  0.68154468  0.02289224  0.26142888  1
  O  O3  1  0.68154468  0.47710776  0.76142888  1
  O  O3  1  0.31845532  0.97710776  0.73857112  1
  O  O1  1  0.84606342  0.22225580  0.04402122  1
  O  O2  1  0.23737798  0.20051484  0.45938584  1
  O  O1  1  0.15393658  0.77774420  0.95597878  1
  O  O2  1  0.76262202  0.79948516  0.54061416  1
