# generated using pymatgen
data_Sr2LaBiO6
_symmetry_space_group_name_H-M   'P 1'
_cell_length_a   5.96953842
_cell_length_b   6.17204750
_cell_length_c   10.41204178
_cell_angle_alpha   90.00000000
_cell_angle_beta   124.67336530
_cell_angle_gamma   90.00000000
_symmetry_Int_Tables_number   1
_chemical_formula_structural   Sr2LaBiO6
_chemical_formula_sum   'Sr4 La2 Bi2 O12'
_cell_volume   315.49577738
_cell_formula_units_Z   2
loop_
 _symmetry_equiv_pos_site_id
 _symmetry_equiv_pos_as_xyz
  1  'x, y, z'
loop_
 _atom_site_type_symbol
 _atom_site_label
 _atom_site_symmetry_multiplicity
 _atom_site_fract_x
 _atom_site_fract_y
 _atom_site_fract_z
 _atom_site_occupancy
  Sr  Sr1  1  0.76368773  0.55006631  0.24851150  1
  Sr  Sr1  1  0.23631227  0.05006631  0.25148850  1
  Sr  Sr1  1  0.23631227  0.44993369  0.75148850  1
  Sr  Sr1  1  0.76368773  0.94993369  0.74851150  1
  La  La1  1  0.50000000  0.00000000  0.00000000  1
  La  La1  1  0.50000000  0.50000000  0.50000000  1
  Bi  Bi1  1  0.00000000  0.50000000  0.00000000  1
  Bi  Bi1  1  0.00000000  0.00000000  0.50000000  1
  O  O1  1  0.12226073  0.21611099  0.93687714  1
  O  O1  1  0.87773927  0.71611099  0.56312286  1
  O  O1  1  0.87773927  0.78388901  0.06312286  1
  O  O1  1  0.12226073  0.28388901  0.43687714  1
  O  O2  1  0.23286877  0.69091979  0.94629972  1
  O  O2  1  0.76713123  0.19091979  0.55370028  1
  O  O2  1  0.76713123  0.30908021  0.05370028  1
  O  O2  1  0.23286877  0.80908021  0.44629972  1
  O  O3  1  0.65589822  0.95197432  0.26512514  1
  O  O3  1  0.34410178  0.45197432  0.23487486  1
  O  O3  1  0.34410178  0.04802568  0.73487486  1
  O  O3  1  0.65589822  0.54802568  0.76512514  1
