# generated using pymatgen
data_Sr2MgSi2O7
_symmetry_space_group_name_H-M   'P 1'
_cell_length_a   8.01250511
_cell_length_b   8.01250511
_cell_length_c   5.15020774
_cell_angle_alpha   90.00000000
_cell_angle_beta   90.00000000
_cell_angle_gamma   90.00000000
_symmetry_Int_Tables_number   1
_chemical_formula_structural   Sr2MgSi2O7
_chemical_formula_sum   'Sr4 Mg2 Si4 O14'
_cell_volume   330.64456357
_cell_formula_units_Z   2
loop_
 _symmetry_equiv_pos_site_id
 _symmetry_equiv_pos_as_xyz
  1  'x, y, z'
loop_
 _atom_site_type_symbol
 _atom_site_label
 _atom_site_symmetry_multiplicity
 _atom_site_fract_x
 _atom_site_fract_y
 _atom_site_fract_z
 _atom_site_occupancy
  Sr  Sr1  1  0.66535314  0.16535314  0.50784133  1
  Sr  Sr1  1  0.83464686  0.66535314  0.49215867  1
  Sr  Sr1  1  0.16535314  0.33464686  0.49215867  1
  Sr  Sr1  1  0.33464686  0.83464686  0.50784133  1
  Mg  Mg1  1  0.00000000  0.00000000  0.00000000  1
  Mg  Mg1  1  0.50000000  0.50000000  0.00000000  1
  Si  Si1  1  0.86081292  0.36081292  0.94341510  1
  Si  Si1  1  0.13918708  0.63918708  0.94341510  1
  Si  Si1  1  0.63918708  0.86081292  0.05658490  1
  Si  Si1  1  0.36081292  0.13918708  0.05658490  1
  O  O1  1  0.68880748  0.42054026  0.79876584  1
  O  O1  1  0.31119252  0.57945974  0.79876584  1
  O  O1  1  0.42054026  0.31119252  0.20123416  1
  O  O1  1  0.57945974  0.68880748  0.20123416  1
  O  O1  1  0.92054026  0.18880748  0.79876584  1
  O  O1  1  0.81119252  0.92054026  0.20123416  1
  O  O1  1  0.18880748  0.07945974  0.20123416  1
  O  O1  1  0.07945974  0.81119252  0.79876584  1
  O  O2  1  0.86015442  0.36015442  0.25709231  1
  O  O2  1  0.63984558  0.86015442  0.74290769  1
  O  O3  1  0.50000000  0.00000000  0.16624021  1
  O  O3  1  0.00000000  0.50000000  0.83375979  1
  O  O2  1  0.13984558  0.63984558  0.25709231  1
  O  O2  1  0.36015442  0.13984558  0.74290769  1
