# generated using pymatgen
data_Sr2Mg(BO3)2
_symmetry_space_group_name_H-M   'P 1'
_cell_length_a   9.02626509
_cell_length_b   5.14206346
_cell_length_c   6.06867722
_cell_angle_alpha   90.00000000
_cell_angle_beta   118.84590470
_cell_angle_gamma   90.00000000
_symmetry_Int_Tables_number   1
_chemical_formula_structural   Sr2Mg(BO3)2
_chemical_formula_sum   'Sr4 Mg2 B4 O12'
_cell_volume   246.71991574
_cell_formula_units_Z   2
loop_
 _symmetry_equiv_pos_site_id
 _symmetry_equiv_pos_as_xyz
  1  'x, y, z'
loop_
 _atom_site_type_symbol
 _atom_site_label
 _atom_site_symmetry_multiplicity
 _atom_site_fract_x
 _atom_site_fract_y
 _atom_site_fract_z
 _atom_site_occupancy
  Sr  Sr1  1  0.70952112  0.00000000  0.18396671  1
  Sr  Sr1  1  0.79047888  0.50000000  0.81603329  1
  Mg  Mg1  1  0.00000000  0.50000000  0.50000000  1
  B  B1  1  0.93757428  0.00000000  0.73814852  1
  B  B1  1  0.56242572  0.50000000  0.26185148  1
  O  O1  1  0.76703030  0.00000000  0.66241242  1
  O  O2  1  0.97505868  0.23232801  0.22923816  1
  O  O2  1  0.52494132  0.73232801  0.77076184  1
  O  O2  1  0.52494132  0.26767199  0.77076184  1
  O  O2  1  0.97505868  0.76767199  0.22923816  1
  O  O1  1  0.73296970  0.50000000  0.33758758  1
  Sr  Sr1  1  0.20952112  0.50000000  0.18396671  1
  Sr  Sr1  1  0.29047888  0.00000000  0.81603329  1
  Mg  Mg1  1  0.50000000  0.00000000  0.50000000  1
  B  B1  1  0.43757428  0.50000000  0.73814852  1
  B  B1  1  0.06242572  0.00000000  0.26185148  1
  O  O1  1  0.26703030  0.50000000  0.66241242  1
  O  O2  1  0.47505868  0.73232801  0.22923816  1
  O  O2  1  0.02494132  0.23232801  0.77076184  1
  O  O2  1  0.02494132  0.76767199  0.77076184  1
  O  O2  1  0.47505868  0.26767199  0.22923816  1
  O  O1  1  0.23296970  0.00000000  0.33758758  1
