# generated using pymatgen
data_Sr2MgGe2O7
_symmetry_space_group_name_H-M   'P 1'
_cell_length_a   8.19212831
_cell_length_b   8.19212831
_cell_length_c   5.33379006
_cell_angle_alpha   90.00000000
_cell_angle_beta   90.00000000
_cell_angle_gamma   90.00000000
_symmetry_Int_Tables_number   1
_chemical_formula_structural   Sr2MgGe2O7
_chemical_formula_sum   'Sr4 Mg2 Ge4 O14'
_cell_volume   357.95580512
_cell_formula_units_Z   2
loop_
 _symmetry_equiv_pos_site_id
 _symmetry_equiv_pos_as_xyz
  1  'x, y, z'
loop_
 _atom_site_type_symbol
 _atom_site_label
 _atom_site_symmetry_multiplicity
 _atom_site_fract_x
 _atom_site_fract_y
 _atom_site_fract_z
 _atom_site_occupancy
  Sr  Sr1  1  0.33489098  0.83489098  0.49091774  1
  Sr  Sr1  1  0.66510902  0.16510902  0.49091774  1
  Sr  Sr1  1  0.16510902  0.33489098  0.50908226  1
  Sr  Sr1  1  0.83489098  0.66510902  0.50908226  1
  Mg  Mg1  1  0.00000000  0.00000000  0.00000000  1
  Mg  Mg1  1  0.50000000  0.50000000  0.00000000  1
  Ge  Ge1  1  0.14363158  0.64363158  0.04972308  1
  Ge  Ge1  1  0.85636842  0.35636842  0.04972308  1
  Ge  Ge1  1  0.35636842  0.14363158  0.95027692  1
  Ge  Ge1  1  0.64363158  0.85636842  0.95027692  1
  O  O1  1  0.00000000  0.50000000  0.19003877  1
  O  O2  1  0.08233892  0.82455090  0.20938137  1
  O  O2  1  0.32455090  0.58233892  0.20938137  1
  O  O2  1  0.67544910  0.41766108  0.20938137  1
  O  O2  1  0.91766108  0.17544910  0.20938137  1
  O  O3  1  0.36194098  0.13805902  0.27963538  1
  O  O3  1  0.63805902  0.86194098  0.27963538  1
  O  O3  1  0.13805902  0.63805902  0.72036462  1
  O  O3  1  0.86194098  0.36194098  0.72036462  1
  O  O2  1  0.17544910  0.08233892  0.79061863  1
  O  O2  1  0.41766108  0.32455090  0.79061863  1
  O  O2  1  0.58233892  0.67544910  0.79061863  1
  O  O2  1  0.82455090  0.91766108  0.79061863  1
  O  O1  1  0.50000000  0.00000000  0.80996123  1
