# generated using pymatgen
data_Sr2PbO4
_symmetry_space_group_name_H-M   'P 1'
_cell_length_a   6.15396195
_cell_length_b   10.13360858
_cell_length_c   3.49700641
_cell_angle_alpha   90.00000000
_cell_angle_beta   90.00000000
_cell_angle_gamma   90.00000000
_symmetry_Int_Tables_number   1
_chemical_formula_structural   Sr2PbO4
_chemical_formula_sum   'Sr4 Pb2 O8'
_cell_volume   218.07975985
_cell_formula_units_Z   2
loop_
 _symmetry_equiv_pos_site_id
 _symmetry_equiv_pos_as_xyz
  1  'x, y, z'
loop_
 _atom_site_type_symbol
 _atom_site_label
 _atom_site_symmetry_multiplicity
 _atom_site_fract_x
 _atom_site_fract_y
 _atom_site_fract_z
 _atom_site_occupancy
  Sr  Sr1  1  0.42583695  0.81891436  0.50000000  1
  Sr  Sr1  1  0.57416305  0.18108564  0.50000000  1
  Sr  Sr1  1  0.92583695  0.68108564  0.50000000  1
  Sr  Sr1  1  0.07416305  0.31891436  0.50000000  1
  Pb  Pb1  1  0.50000000  0.50000000  0.00000000  1
  Pb  Pb1  1  0.00000000  0.00000000  0.00000000  1
  O  O1  1  0.13485667  0.80416700  0.00000000  1
  O  O1  1  0.86514333  0.19583300  0.00000000  1
  O  O1  1  0.63485667  0.69583300  0.00000000  1
  O  O1  1  0.36514333  0.30416700  0.00000000  1
  O  O2  1  0.27421444  0.55057258  0.50000000  1
  O  O2  1  0.72578556  0.44942742  0.50000000  1
  O  O2  1  0.22578556  0.05057258  0.50000000  1
  O  O2  1  0.77421444  0.94942742  0.50000000  1
