# generated using pymatgen
data_Sr2SiO4
_symmetry_space_group_name_H-M   'P 1'
_cell_length_a   5.66455682
_cell_length_b   7.06983758
_cell_length_c   10.94939611
_cell_angle_alpha   90.00000000
_cell_angle_beta   117.65896865
_cell_angle_gamma   90.00000000
_symmetry_Int_Tables_number   1
_chemical_formula_structural   Sr2SiO4
_chemical_formula_sum   'Sr8 Si4 O16'
_cell_volume   388.38734863
_cell_formula_units_Z   4
loop_
 _symmetry_equiv_pos_site_id
 _symmetry_equiv_pos_as_xyz
  1  'x, y, z'
loop_
 _atom_site_type_symbol
 _atom_site_label
 _atom_site_symmetry_multiplicity
 _atom_site_fract_x
 _atom_site_fract_y
 _atom_site_fract_z
 _atom_site_occupancy
  Sr  Sr1  1  0.02780750  0.00003096  0.30256773  1
  Sr  Sr1  1  0.97219250  0.50003096  0.19743227  1
  Sr  Sr1  1  0.97219250  0.99996904  0.69743227  1
  Sr  Sr1  1  0.02780750  0.49996904  0.80256773  1
  Sr  Sr2  1  0.31140462  0.65703952  0.57572852  1
  Sr  Sr2  1  0.68859538  0.15703952  0.92427148  1
  Sr  Sr2  1  0.68859538  0.34296048  0.42427148  1
  Sr  Sr2  1  0.31140462  0.84296048  0.07572852  1
  Si  Si1  1  0.33992236  0.22080262  0.58121920  1
  Si  Si1  1  0.66007764  0.72080262  0.91878080  1
  Si  Si1  1  0.66007764  0.77919738  0.41878080  1
  Si  Si1  1  0.33992236  0.27919738  0.08121920  1
  O  O1  1  0.65672116  0.26697240  0.68006410  1
  O  O1  1  0.34327884  0.76697240  0.81993590  1
  O  O1  1  0.34327884  0.73302760  0.31993590  1
  O  O1  1  0.65672116  0.23302760  0.18006410  1
  O  O2  1  0.15192022  0.32456272  0.64030836  1
  O  O2  1  0.84807978  0.82456272  0.85969164  1
  O  O2  1  0.84807978  0.67543728  0.35969164  1
  O  O2  1  0.15192022  0.17543728  0.14030836  1
  O  O3  1  0.24661328  0.31959912  0.42807702  1
  O  O3  1  0.75338672  0.81959912  0.07192298  1
  O  O3  1  0.75338672  0.68040088  0.57192298  1
  O  O3  1  0.24661328  0.18040088  0.92807702  1
  O  O4  1  0.28769172  0.50623432  0.06886417  1
  O  O4  1  0.71230828  0.00623432  0.43113583  1
  O  O4  1  0.71230828  0.49376568  0.93113583  1
  O  O4  1  0.28769172  0.99376568  0.56886417  1
