# generated using pymatgen
data_Sr2Sb2O7
_symmetry_space_group_name_H-M   'P 1'
_cell_length_a   7.49520055
_cell_length_b   10.40606314
_cell_length_c   7.71545742
_cell_angle_alpha   90.00000000
_cell_angle_beta   90.00000000
_cell_angle_gamma   90.00000000
_symmetry_Int_Tables_number   1
_chemical_formula_structural   Sr2Sb2O7
_chemical_formula_sum   'Sr8 Sb8 O28'
_cell_volume   601.77119187
_cell_formula_units_Z   4
loop_
 _symmetry_equiv_pos_site_id
 _symmetry_equiv_pos_as_xyz
  1  'x, y, z'
loop_
 _atom_site_type_symbol
 _atom_site_label
 _atom_site_symmetry_multiplicity
 _atom_site_fract_x
 _atom_site_fract_y
 _atom_site_fract_z
 _atom_site_occupancy
  Sr  Sr1  1  0.75000000  0.25000000  0.25000000  1
  Sr  Sr1  1  0.75000000  0.75000000  0.75000000  1
  Sr  Sr2  1  0.00000000  0.00000000  0.00000000  1
  Sr  Sr2  1  0.00000000  0.50000000  0.00000000  1
  Sb  Sb1  1  0.25000000  0.75000000  0.25000000  1
  Sb  Sb1  1  0.75000000  0.75000000  0.25000000  1
  Sb  Sb2  1  0.50000000  0.50000000  0.00000000  1
  Sb  Sb2  1  0.00000000  0.50000000  0.50000000  1
  O  O1  1  0.20512914  0.88128558  0.43276870  1
  O  O1  1  0.70512914  0.61871442  0.06723130  1
  O  O1  1  0.79487086  0.61871442  0.43276870  1
  O  O1  1  0.79487086  0.38128558  0.56723130  1
  O  O1  1  0.29487086  0.61871442  0.06723130  1
  O  O1  1  0.79487086  0.88128558  0.43276870  1
  O  O1  1  0.70512914  0.88128558  0.06723130  1
  O  O1  1  0.70512914  0.11871442  0.93276870  1
  O  O2  1  0.00000000  0.75000000  0.15123570  1
  O  O2  1  0.50000000  0.75000000  0.34876430  1
  O  O3  1  0.50000000  0.40791924  0.21950244  1
  O  O3  1  0.00000000  0.09208076  0.28049756  1
  O  O3  1  0.00000000  0.59208076  0.71950244  1
  O  O3  1  0.50000000  0.90791924  0.78049756  1
  Sr  Sr1  1  0.25000000  0.75000000  0.75000000  1
  Sr  Sr1  1  0.25000000  0.25000000  0.25000000  1
  Sr  Sr2  1  0.50000000  0.50000000  0.50000000  1
  Sr  Sr2  1  0.50000000  0.00000000  0.50000000  1
  Sb  Sb1  1  0.75000000  0.25000000  0.75000000  1
  Sb  Sb1  1  0.25000000  0.25000000  0.75000000  1
  Sb  Sb2  1  0.00000000  0.00000000  0.50000000  1
  Sb  Sb2  1  0.50000000  0.00000000  0.00000000  1
  O  O1  1  0.70512914  0.38128558  0.93276870  1
  O  O1  1  0.20512914  0.11871442  0.56723130  1
  O  O1  1  0.29487086  0.11871442  0.93276870  1
  O  O1  1  0.29487086  0.88128558  0.06723130  1
  O  O1  1  0.79487086  0.11871442  0.56723130  1
  O  O1  1  0.29487086  0.38128558  0.93276870  1
  O  O1  1  0.20512914  0.38128558  0.56723130  1
  O  O1  1  0.20512914  0.61871442  0.43276870  1
  O  O2  1  0.50000000  0.25000000  0.65123570  1
  O  O2  1  0.00000000  0.25000000  0.84876430  1
  O  O3  1  0.00000000  0.90791924  0.71950244  1
  O  O3  1  0.50000000  0.59208076  0.78049756  1
  O  O3  1  0.50000000  0.09208076  0.21950244  1
  O  O3  1  0.00000000  0.40791924  0.28049756  1
