# generated using pymatgen
data_Sr2SnO4
_symmetry_space_group_name_H-M   'P 1'
_cell_length_a   5.80154346
_cell_length_b   5.80154346
_cell_length_c   12.38418764
_cell_angle_alpha   90.00000000
_cell_angle_beta   90.00000000
_cell_angle_gamma   90.00000000
_symmetry_Int_Tables_number   1
_chemical_formula_structural   Sr2SnO4
_chemical_formula_sum   'Sr8 Sn4 O16'
_cell_volume   416.82583061
_cell_formula_units_Z   4
loop_
 _symmetry_equiv_pos_site_id
 _symmetry_equiv_pos_as_xyz
  1  'x, y, z'
loop_
 _atom_site_type_symbol
 _atom_site_label
 _atom_site_symmetry_multiplicity
 _atom_site_fract_x
 _atom_site_fract_y
 _atom_site_fract_z
 _atom_site_occupancy
  Sr  Sr1  1  0.26457260  0.23542740  0.39664243  1
  Sr  Sr1  1  0.23542740  0.73542740  0.60335757  1
  Sr  Sr1  1  0.76457260  0.26457260  0.60335757  1
  Sr  Sr1  1  0.73542740  0.76457260  0.39664243  1
  Sr  Sr1  1  0.23542740  0.26457260  0.10335757  1
  Sr  Sr1  1  0.26457260  0.76457260  0.89664243  1
  Sr  Sr1  1  0.73542740  0.23542740  0.89664243  1
  Sr  Sr1  1  0.76457260  0.73542740  0.10335757  1
  Sn  Sn1  1  0.25000000  0.25000000  0.75000000  1
  Sn  Sn1  1  0.25000000  0.75000000  0.25000000  1
  Sn  Sn1  1  0.75000000  0.25000000  0.25000000  1
  Sn  Sn1  1  0.75000000  0.75000000  0.75000000  1
  O  O1  1  0.20637008  0.29362992  0.58609201  1
  O  O1  1  0.29362992  0.79362992  0.41390799  1
  O  O1  1  0.70637008  0.20637008  0.41390799  1
  O  O1  1  0.79362992  0.70637008  0.58609201  1
  O  O1  1  0.29362992  0.20637008  0.91390799  1
  O  O1  1  0.20637008  0.70637008  0.08609201  1
  O  O1  1  0.79362992  0.29362992  0.08609201  1
  O  O1  1  0.70637008  0.79362992  0.91390799  1
  O  O2  1  0.00000000  0.00000000  0.25000000  1
  O  O2  1  0.50000000  0.50000000  0.75000000  1
  O  O2  1  0.50000000  0.50000000  0.25000000  1
  O  O2  1  0.00000000  0.00000000  0.75000000  1
  O  O3  1  0.00000000  0.50000000  0.78027700  1
  O  O3  1  0.50000000  0.00000000  0.21972300  1
  O  O3  1  0.50000000  0.00000000  0.71972300  1
  O  O3  1  0.00000000  0.50000000  0.28027700  1
