# generated using pymatgen
data_Sr2TaGaO6
_symmetry_space_group_name_H-M   'P 1'
_cell_length_a   5.54886698
_cell_length_b   5.54886698
_cell_length_c   7.93628722
_cell_angle_alpha   90.00000000
_cell_angle_beta   90.00000000
_cell_angle_gamma   90.00000000
_symmetry_Int_Tables_number   1
_chemical_formula_structural   Sr2TaGaO6
_chemical_formula_sum   'Sr4 Ta2 Ga2 O12'
_cell_volume   244.35768615
_cell_formula_units_Z   2
loop_
 _symmetry_equiv_pos_site_id
 _symmetry_equiv_pos_as_xyz
  1  'x, y, z'
loop_
 _atom_site_type_symbol
 _atom_site_label
 _atom_site_symmetry_multiplicity
 _atom_site_fract_x
 _atom_site_fract_y
 _atom_site_fract_z
 _atom_site_occupancy
  Sr  Sr1  1  0.00000000  0.50000000  0.25000000  1
  Sr  Sr1  1  0.50000000  0.00000000  0.25000000  1
  Ta  Ta1  1  0.50000000  0.50000000  0.00000000  1
  Ga  Ga1  1  0.00000000  0.00000000  0.00000000  1
  O  O1  1  0.28388496  0.21582980  0.00000000  1
  O  O1  1  0.78417020  0.28388496  0.00000000  1
  O  O1  1  0.21582980  0.71611504  0.00000000  1
  O  O1  1  0.71611504  0.78417020  0.00000000  1
  O  O2  1  0.00000000  0.00000000  0.25022794  1
  O  O2  1  0.50000000  0.50000000  0.24977206  1
  Sr  Sr1  1  0.50000000  0.00000000  0.75000000  1
  Sr  Sr1  1  0.00000000  0.50000000  0.75000000  1
  Ta  Ta1  1  0.00000000  0.00000000  0.50000000  1
  Ga  Ga1  1  0.50000000  0.50000000  0.50000000  1
  O  O1  1  0.78388496  0.71582980  0.50000000  1
  O  O1  1  0.28417020  0.78388496  0.50000000  1
  O  O1  1  0.71582980  0.21611504  0.50000000  1
  O  O1  1  0.21611504  0.28417020  0.50000000  1
  O  O2  1  0.50000000  0.50000000  0.75022794  1
  O  O2  1  0.00000000  0.00000000  0.74977206  1
