# generated using pymatgen
data_Sr2YNbO6
_symmetry_space_group_name_H-M   'P 1'
_cell_length_a   5.78594090
_cell_length_b   5.88752073
_cell_length_c   10.03812862
_cell_angle_alpha   90.00000000
_cell_angle_beta   124.97851345
_cell_angle_gamma   90.00000000
_symmetry_Int_Tables_number   1
_chemical_formula_structural   Sr2YNbO6
_chemical_formula_sum   'Sr4 Y2 Nb2 O12'
_cell_volume   280.18037502
_cell_formula_units_Z   2
loop_
 _symmetry_equiv_pos_site_id
 _symmetry_equiv_pos_as_xyz
  1  'x, y, z'
loop_
 _atom_site_type_symbol
 _atom_site_label
 _atom_site_symmetry_multiplicity
 _atom_site_fract_x
 _atom_site_fract_y
 _atom_site_fract_z
 _atom_site_occupancy
  Sr  Sr1  1  0.25925560  0.95953043  0.74934180  1
  Sr  Sr1  1  0.74074440  0.45953043  0.75065820  1
  Sr  Sr1  1  0.25925560  0.54046957  0.24934180  1
  Sr  Sr1  1  0.74074440  0.04046957  0.25065820  1
  Y  Y1  1  0.00000000  0.00000000  0.00000000  1
  Y  Y1  1  0.00000000  0.50000000  0.50000000  1
  Nb  Nb1  1  0.50000000  0.50000000  0.00000000  1
  Nb  Nb1  1  0.50000000  0.00000000  0.50000000  1
  O  O1  1  0.73358655  0.69735702  0.95654118  1
  O  O1  1  0.26641345  0.19735702  0.54345882  1
  O  O1  1  0.26641345  0.30264298  0.04345882  1
  O  O1  1  0.73358655  0.80264298  0.45654118  1
  O  O2  1  0.64692960  0.22279310  0.95212904  1
  O  O2  1  0.35307040  0.72279310  0.54787096  1
  O  O2  1  0.35307040  0.77720690  0.04787096  1
  O  O2  1  0.64692960  0.27720690  0.45212904  1
  O  O3  1  0.17830143  0.52690611  0.76382010  1
  O  O3  1  0.82169857  0.02690611  0.73617990  1
  O  O3  1  0.82169857  0.47309389  0.23617990  1
  O  O3  1  0.17830143  0.97309389  0.26382010  1
