# generated using pymatgen
data_Sr2YSbO6
_symmetry_space_group_name_H-M   'P 1'
_cell_length_a   5.79421078
_cell_length_b   5.85746153
_cell_length_c   10.03876111
_cell_angle_alpha   90.00000000
_cell_angle_beta   125.00542925
_cell_angle_gamma   90.00000000
_symmetry_Int_Tables_number   1
_chemical_formula_structural   Sr2YSbO6
_chemical_formula_sum   'Sr4 Y2 Sb2 O12'
_cell_volume   279.07411404
_cell_formula_units_Z   2
loop_
 _symmetry_equiv_pos_site_id
 _symmetry_equiv_pos_as_xyz
  1  'x, y, z'
loop_
 _atom_site_type_symbol
 _atom_site_label
 _atom_site_symmetry_multiplicity
 _atom_site_fract_x
 _atom_site_fract_y
 _atom_site_fract_z
 _atom_site_occupancy
  Sr  Sr1  1  0.75916809  0.03534607  0.75038452  1
  Sr  Sr1  1  0.24083191  0.53534607  0.74961548  1
  Sr  Sr1  1  0.24083191  0.96465393  0.24961548  1
  Sr  Sr1  1  0.75916809  0.46465393  0.25038452  1
  Y  Y1  1  0.50000000  0.50000000  0.50000000  1
  Y  Y1  1  0.50000000  0.00000000  0.00000000  1
  Sb  Sb1  1  0.00000000  0.00000000  0.50000000  1
  Sb  Sb1  1  0.00000000  0.50000000  0.00000000  1
  O  O1  1  0.68510460  0.47784667  0.76378696  1
  O  O1  1  0.31489540  0.97784667  0.73621304  1
  O  O1  1  0.31489540  0.52215333  0.23621304  1
  O  O1  1  0.68510460  0.02215333  0.26378696  1
  O  O2  1  0.76739021  0.79891551  0.54059276  1
  O  O2  1  0.23260979  0.29891551  0.95940724  1
  O  O2  1  0.23260979  0.20108449  0.45940724  1
  O  O2  1  0.76739021  0.70108449  0.04059276  1
  O  O3  1  0.84536455  0.22572379  0.04326464  1
  O  O3  1  0.15463545  0.72572379  0.45673536  1
  O  O3  1  0.15463545  0.77427621  0.95673536  1
  O  O3  1  0.84536455  0.27427621  0.54326464  1
