# generated using pymatgen
data_Sr2ZnGe2O7
_symmetry_space_group_name_H-M   'P 1'
_cell_length_a   8.11984819
_cell_length_b   8.11984819
_cell_length_c   5.34503954
_cell_angle_alpha   90.00000000
_cell_angle_beta   90.00000000
_cell_angle_gamma   90.00000000
_symmetry_Int_Tables_number   1
_chemical_formula_structural   Sr2ZnGe2O7
_chemical_formula_sum   'Sr4 Zn2 Ge4 O14'
_cell_volume   352.40879732
_cell_formula_units_Z   2
loop_
 _symmetry_equiv_pos_site_id
 _symmetry_equiv_pos_as_xyz
  1  'x, y, z'
loop_
 _atom_site_type_symbol
 _atom_site_label
 _atom_site_symmetry_multiplicity
 _atom_site_fract_x
 _atom_site_fract_y
 _atom_site_fract_z
 _atom_site_occupancy
  Sr  Sr1  1  0.66469924  0.16469924  0.50828784  1
  Sr  Sr1  1  0.83530076  0.66469924  0.49171216  1
  Sr  Sr1  1  0.16469924  0.33530076  0.49171216  1
  Sr  Sr1  1  0.33530076  0.83530076  0.50828784  1
  Zn  Zn1  1  0.00000000  0.00000000  0.00000000  1
  Zn  Zn1  1  0.50000000  0.50000000  0.00000000  1
  Ge  Ge1  1  0.85528236  0.35528236  0.95653834  1
  Ge  Ge1  1  0.14471764  0.64471764  0.95653834  1
  Ge  Ge1  1  0.64471764  0.85528236  0.04346166  1
  Ge  Ge1  1  0.35528236  0.14471764  0.04346166  1
  O  O1  1  0.67322722  0.41680822  0.79385608  1
  O  O1  1  0.32677278  0.58319178  0.79385608  1
  O  O1  1  0.41680822  0.32677278  0.20614392  1
  O  O1  1  0.58319178  0.67322722  0.20614392  1
  O  O1  1  0.91680822  0.17322722  0.79385608  1
  O  O1  1  0.82677278  0.91680822  0.20614392  1
  O  O1  1  0.17322722  0.08319178  0.20614392  1
  O  O1  1  0.08319178  0.82677278  0.79385608  1
  O  O2  1  0.86222200  0.36222200  0.28451655  1
  O  O2  1  0.63777800  0.86222200  0.71548345  1
  O  O3  1  0.50000000  0.00000000  0.18475479  1
  O  O3  1  0.00000000  0.50000000  0.81524521  1
  O  O2  1  0.13777800  0.63777800  0.28451655  1
  O  O2  1  0.36222200  0.13777800  0.71548345  1
