# generated using pymatgen
data_Sr2Zr7O16
_symmetry_space_group_name_H-M   'P 1'
_cell_length_a   6.38930322
_cell_length_b   6.38930322
_cell_length_c   26.71958377
_cell_angle_alpha   90.00000000
_cell_angle_beta   90.00000000
_cell_angle_gamma   120.00000000
_symmetry_Int_Tables_number   1
_chemical_formula_structural   Sr2Zr7O16
_chemical_formula_sum   'Sr6 Zr21 O48'
_cell_volume   944.64214689
_cell_formula_units_Z   3
loop_
 _symmetry_equiv_pos_site_id
 _symmetry_equiv_pos_as_xyz
  1  'x, y, z'
loop_
 _atom_site_type_symbol
 _atom_site_label
 _atom_site_symmetry_multiplicity
 _atom_site_fract_x
 _atom_site_fract_y
 _atom_site_fract_z
 _atom_site_occupancy
  Sr  Sr1  1  0.33333333  0.66666667  0.00016338  1
  Sr  Sr1  1  0.33333333  0.66666667  0.33316996  1
  Zr  Zr1  1  0.62890457  0.62742287  0.11511144  1
  Zr  Zr2  1  0.66814837  0.96223791  0.21822190  1
  Zr  Zr3  1  0.29408954  0.33185163  0.21822190  1
  Zr  Zr4  1  0.00000000  0.00000000  0.00000000  1
  Zr  Zr3  1  0.37257713  0.00148170  0.11511144  1
  Zr  Zr2  1  0.99851830  0.37109543  0.11511144  1
  Zr  Zr1  1  0.03776209  0.70591046  0.21822190  1
  O  O1  1  0.72483049  0.71936664  0.04221069  1
  O  O2  1  0.65394011  0.61096677  0.19672299  1
  O  O3  1  0.70964001  0.98727344  0.13661034  1
  O  O4  1  0.67213052  0.05816382  0.29112264  1
  O  O5  1  0.38603330  0.32786948  0.29112264  1
  O  O6  1  0.27763344  0.29035999  0.13661034  1
  O  O7  1  0.66666667  0.33333333  0.09625191  1
  O  O8  1  0.33333333  0.66666667  0.23859768  1
  O  O7  1  0.00000000  0.00000000  0.23708143  1
  O  O8  1  0.33333333  0.66666667  0.09473565  1
  O  O6  1  0.38903323  0.04297334  0.19672299  1
  O  O5  1  0.28063336  0.00546385  0.04221069  1
  O  O4  1  0.99453615  0.27516951  0.04221069  1
  O  O3  1  0.95702666  0.34605989  0.19672299  1
  O  O2  1  0.01272656  0.72236656  0.13661034  1
  O  O1  1  0.94183618  0.61396670  0.29112264  1
  Sr  Sr1  1  0.00000000  0.00000000  0.33349671  1
  Sr  Sr1  1  0.00000000  0.00000000  0.66650329  1
  Zr  Zr1  1  0.29557124  0.96075621  0.44844477  1
  Zr  Zr2  1  0.33481503  0.29557124  0.55155523  1
  Zr  Zr3  1  0.96075621  0.66518497  0.55155523  1
  Zr  Zr4  1  0.66666667  0.33333333  0.33333333  1
  Zr  Zr3  1  0.03924379  0.33481503  0.44844477  1
  Zr  Zr2  1  0.66518497  0.70442876  0.44844477  1
  Zr  Zr1  1  0.70442876  0.03924379  0.55155523  1
  O  O1  1  0.39149716  0.05269997  0.37554403  1
  O  O2  1  0.32060678  0.94430010  0.53005632  1
  O  O3  1  0.37630667  0.32060678  0.46994368  1
  O  O4  1  0.33879719  0.39149716  0.62445597  1
  O  O5  1  0.05269997  0.66120281  0.62445597  1
  O  O6  1  0.94430010  0.62369333  0.46994368  1
  O  O7  1  0.33333333  0.66666667  0.42958524  1
  O  O8  1  0.00000000  0.00000000  0.57193102  1
  O  O7  1  0.66666667  0.33333333  0.57041476  1
  O  O8  1  0.00000000  0.00000000  0.42806898  1
  O  O6  1  0.05569990  0.37630667  0.53005632  1
  O  O5  1  0.94730003  0.33879719  0.37554403  1
  O  O4  1  0.66120281  0.60850284  0.37554403  1
  O  O3  1  0.62369333  0.67939322  0.53005632  1
  O  O2  1  0.67939322  0.05569990  0.46994368  1
  O  O1  1  0.60850284  0.94730003  0.62445597  1
  Sr  Sr1  1  0.66666667  0.33333333  0.66683004  1
  Sr  Sr1  1  0.66666667  0.33333333  0.99983662  1
  Zr  Zr1  1  0.96223791  0.29408954  0.78177810  1
  Zr  Zr2  1  0.00148170  0.62890457  0.88488856  1
  Zr  Zr3  1  0.62742287  0.99851830  0.88488856  1
  Zr  Zr4  1  0.33333333  0.66666667  0.66666667  1
  Zr  Zr3  1  0.70591046  0.66814837  0.78177810  1
  Zr  Zr2  1  0.33185163  0.03776209  0.78177810  1
  Zr  Zr1  1  0.37109543  0.37257713  0.88488856  1
  O  O1  1  0.05816382  0.38603330  0.70887736  1
  O  O2  1  0.98727344  0.27763344  0.86338966  1
  O  O3  1  0.04297334  0.65394011  0.80327701  1
  O  O4  1  0.00546385  0.72483049  0.95778931  1
  O  O5  1  0.71936664  0.99453615  0.95778931  1
  O  O6  1  0.61096677  0.95702666  0.80327701  1
  O  O7  1  0.00000000  0.00000000  0.76291857  1
  O  O8  1  0.66666667  0.33333333  0.90526435  1
  O  O7  1  0.33333333  0.66666667  0.90374809  1
  O  O8  1  0.66666667  0.33333333  0.76140232  1
  O  O6  1  0.72236656  0.70964001  0.86338966  1
  O  O5  1  0.61396670  0.67213052  0.70887736  1
  O  O4  1  0.32786948  0.94183618  0.70887736  1
  O  O3  1  0.29035999  0.01272656  0.86338966  1
  O  O2  1  0.34605989  0.38903323  0.80327701  1
  O  O1  1  0.27516951  0.28063336  0.95778931  1
