# generated using pymatgen
data_Sr3CdPtO6
_symmetry_space_group_name_H-M   'P 1'
_cell_length_a   9.57079175
_cell_length_b   9.57079175
_cell_length_c   11.69710192
_cell_angle_alpha   90.00000000
_cell_angle_beta   90.00000000
_cell_angle_gamma   120.00000000
_symmetry_Int_Tables_number   1
_chemical_formula_structural   Sr3CdPtO6
_chemical_formula_sum   'Sr18 Cd6 Pt6 O36'
_cell_volume   927.90740140
_cell_formula_units_Z   6
loop_
 _symmetry_equiv_pos_site_id
 _symmetry_equiv_pos_as_xyz
  1  'x, y, z'
loop_
 _atom_site_type_symbol
 _atom_site_label
 _atom_site_symmetry_multiplicity
 _atom_site_fract_x
 _atom_site_fract_y
 _atom_site_fract_z
 _atom_site_occupancy
  Sr  Sr1  1  0.02965488  0.69632155  0.08333333  1
  Sr  Sr1  1  0.66666667  0.97034512  0.08333333  1
  Sr  Sr1  1  0.30367845  0.33333333  0.08333333  1
  Sr  Sr1  1  0.63701178  0.63701178  0.25000000  1
  Sr  Sr1  1  0.36298822  0.00000000  0.25000000  1
  Sr  Sr1  1  -0.00000000  0.36298822  0.25000000  1
  Cd  Cd1  1  0.33333333  0.66666667  0.41666667  1
  Cd  Cd1  1  0.33333333  0.66666667  0.91666667  1
  Pt  Pt1  1  0.33333333  0.66666667  0.16666667  1
  Pt  Pt1  1  0.00000000  0.00000000  0.00000000  1
  O  O1  1  0.97825456  0.15735378  0.10537208  1
  O  O1  1  0.84264622  0.82090078  0.10537208  1
  O  O1  1  0.17909922  0.02174544  0.10537208  1
  O  O1  1  0.15423411  0.50931289  0.06129459  1
  O  O1  1  0.49068711  0.64492122  0.06129459  1
  O  O1  1  0.35507878  0.84576589  0.06129459  1
  O  O1  1  0.68841211  0.17597955  0.22796125  1
  O  O1  1  0.82402045  0.51243256  0.22796125  1
  O  O1  1  0.48756744  0.31158789  0.22796125  1
  O  O1  1  0.51243256  0.82402045  0.27203875  1
  O  O1  1  0.31158789  0.48756744  0.27203875  1
  O  O1  1  0.17597955  0.68841211  0.27203875  1
  Sr  Sr1  1  0.69632155  0.02965488  0.41666667  1
  Sr  Sr1  1  0.33333333  0.30367845  0.41666667  1
  Sr  Sr1  1  0.97034512  0.66666667  0.41666667  1
  Sr  Sr1  1  0.30367845  0.97034512  0.58333333  1
  Sr  Sr1  1  0.02965488  0.33333333  0.58333333  1
  Sr  Sr1  1  0.66666667  0.69632155  0.58333333  1
  Cd  Cd1  1  0.00000000  0.00000000  0.75000000  1
  Cd  Cd1  1  0.00000000  0.00000000  0.25000000  1
  Pt  Pt1  1  -0.00000000  0.00000000  0.50000000  1
  Pt  Pt1  1  0.66666667  0.33333333  0.33333333  1
  O  O1  1  0.64492122  0.49068711  0.43870541  1
  O  O1  1  0.50931289  0.15423411  0.43870541  1
  O  O1  1  0.84576589  0.35507878  0.43870541  1
  O  O1  1  0.82090078  0.84264622  0.39462792  1
  O  O1  1  0.15735378  0.97825456  0.39462792  1
  O  O1  1  0.02174544  0.17909922  0.39462792  1
  O  O1  1  0.35507878  0.50931289  0.56129459  1
  O  O1  1  0.49068711  0.84576589  0.56129459  1
  O  O1  1  0.15423411  0.64492122  0.56129459  1
  O  O1  1  0.17909922  0.15735378  0.60537208  1
  O  O1  1  0.97825456  0.82090078  0.60537208  1
  O  O1  1  0.84264622  0.02174544  0.60537208  1
  Sr  Sr1  1  0.36298822  0.36298822  0.75000000  1
  Sr  Sr1  1  0.00000000  0.63701178  0.75000000  1
  Sr  Sr1  1  0.63701178  -0.00000000  0.75000000  1
  Sr  Sr1  1  0.97034512  0.30367845  0.91666667  1
  Sr  Sr1  1  0.69632155  0.66666667  0.91666667  1
  Sr  Sr1  1  0.33333333  0.02965488  0.91666667  1
  Cd  Cd1  1  0.66666667  0.33333333  0.08333333  1
  Cd  Cd1  1  0.66666667  0.33333333  0.58333333  1
  Pt  Pt1  1  0.66666667  0.33333333  0.83333333  1
  Pt  Pt1  1  0.33333333  0.66666667  0.66666667  1
  O  O1  1  0.31158789  0.82402045  0.77203875  1
  O  O1  1  0.17597955  0.48756744  0.77203875  1
  O  O1  1  0.51243256  0.68841211  0.77203875  1
  O  O1  1  0.48756744  0.17597955  0.72796125  1
  O  O1  1  0.82402045  0.31158789  0.72796125  1
  O  O1  1  0.68841211  0.51243256  0.72796125  1
  O  O1  1  0.02174544  0.84264622  0.89462792  1
  O  O1  1  0.15735378  0.17909922  0.89462792  1
  O  O1  1  0.82090078  0.97825456  0.89462792  1
  O  O1  1  0.84576589  0.49068711  0.93870541  1
  O  O1  1  0.64492122  0.15423411  0.93870541  1
  O  O1  1  0.50931289  0.35507878  0.93870541  1
