# generated using pymatgen
data_Sr3LiSbO6
_symmetry_space_group_name_H-M   'P 1'
_cell_length_a   9.74999950
_cell_length_b   9.74999950
_cell_length_c   11.19951116
_cell_angle_alpha   90.00000000
_cell_angle_beta   90.00000000
_cell_angle_gamma   120.00000000
_symmetry_Int_Tables_number   1
_chemical_formula_structural   Sr3LiSbO6
_chemical_formula_sum   'Sr18 Li6 Sb6 O36'
_cell_volume   922.01690834
_cell_formula_units_Z   6
loop_
 _symmetry_equiv_pos_site_id
 _symmetry_equiv_pos_as_xyz
  1  'x, y, z'
loop_
 _atom_site_type_symbol
 _atom_site_label
 _atom_site_symmetry_multiplicity
 _atom_site_fract_x
 _atom_site_fract_y
 _atom_site_fract_z
 _atom_site_occupancy
  Sr  Sr1  1  0.31451535  0.98118201  0.58333333  1
  Sr  Sr1  1  0.01881799  0.33333333  0.58333333  1
  Sr  Sr1  1  0.66666667  0.68548465  0.58333333  1
  Sr  Sr1  1  0.98118201  0.66666667  0.41666667  1
  Sr  Sr1  1  0.33333333  0.31451535  0.41666667  1
  Sr  Sr1  1  0.68548465  0.01881799  0.41666667  1
  Li  Li1  1  0.00000000  0.00000000  0.25000000  1
  Li  Li1  1  0.00000000  0.00000000  0.75000000  1
  Sb  Sb1  1  0.00000000  0.00000000  0.00000000  1
  Sb  Sb1  1  0.00000000  0.00000000  0.50000000  1
  O  O1  1  0.51344703  0.15611642  0.43860806  1
  O  O1  1  0.84388358  0.35733061  0.43860806  1
  O  O1  1  0.64266939  0.48655297  0.43860806  1
  O  O1  1  0.84678037  0.02399728  0.60527472  1
  O  O1  1  0.97600272  0.82278309  0.60527472  1
  O  O1  1  0.17721691  0.15321963  0.60527472  1
  O  O1  1  0.48655297  0.84388358  0.56139194  1
  O  O1  1  0.15611642  0.64266939  0.56139194  1
  O  O1  1  0.35733061  0.51344703  0.56139194  1
  O  O1  1  0.15321963  0.97600272  0.39472528  1
  O  O1  1  0.02399728  0.17721691  0.39472528  1
  O  O1  1  0.82278309  0.84678037  0.39472528  1
  Sr  Sr1  1  0.98118201  0.31451535  0.91666667  1
  Sr  Sr1  1  0.68548465  0.66666667  0.91666667  1
  Sr  Sr1  1  0.33333333  0.01881799  0.91666667  1
  Sr  Sr1  1  0.64784868  0.00000000  0.75000000  1
  Sr  Sr1  1  0.00000000  0.64784868  0.75000000  1
  Sr  Sr1  1  0.35215132  0.35215132  0.75000000  1
  Li  Li1  1  0.66666667  0.33333333  0.58333333  1
  Li  Li1  1  0.66666667  0.33333333  0.08333333  1
  Sb  Sb1  1  0.66666667  0.33333333  0.33333333  1
  Sb  Sb1  1  0.66666667  0.33333333  0.83333333  1
  O  O1  1  0.18011370  0.48944975  0.77194139  1
  O  O1  1  0.51055025  0.69066395  0.77194139  1
  O  O1  1  0.30933605  0.81988630  0.77194139  1
  O  O1  1  0.51344703  0.35733061  0.93860806  1
  O  O1  1  0.64266939  0.15611642  0.93860806  1
  O  O1  1  0.84388358  0.48655297  0.93860806  1
  O  O1  1  0.15321963  0.17721691  0.89472528  1
  O  O1  1  0.82278309  0.97600272  0.89472528  1
  O  O1  1  0.02399728  0.84678037  0.89472528  1
  O  O1  1  0.81988630  0.30933605  0.72805861  1
  O  O1  1  0.69066395  0.51055025  0.72805861  1
  O  O1  1  0.48944975  0.18011370  0.72805861  1
  Sr  Sr1  1  0.64784868  0.64784868  0.25000000  1
  Sr  Sr1  1  0.35215132  0.00000000  0.25000000  1
  Sr  Sr1  1  0.00000000  0.35215132  0.25000000  1
  Sr  Sr1  1  0.31451535  0.33333333  0.08333333  1
  Sr  Sr1  1  0.66666667  0.98118201  0.08333333  1
  Sr  Sr1  1  0.01881799  0.68548465  0.08333333  1
  Li  Li1  1  0.33333333  0.66666667  0.91666667  1
  Li  Li1  1  0.33333333  0.66666667  0.41666667  1
  Sb  Sb1  1  0.33333333  0.66666667  0.66666667  1
  Sb  Sb1  1  0.33333333  0.66666667  0.16666667  1
  O  O1  1  0.84678037  0.82278309  0.10527472  1
  O  O1  1  0.17721691  0.02399728  0.10527472  1
  O  O1  1  0.97600272  0.15321963  0.10527472  1
  O  O1  1  0.18011370  0.69066395  0.27194139  1
  O  O1  1  0.30933605  0.48944975  0.27194139  1
  O  O1  1  0.51055025  0.81988630  0.27194139  1
  O  O1  1  0.81988630  0.51055025  0.22805861  1
  O  O1  1  0.48944975  0.30933605  0.22805861  1
  O  O1  1  0.69066395  0.18011370  0.22805861  1
  O  O1  1  0.48655297  0.64266939  0.06139194  1
  O  O1  1  0.35733061  0.84388358  0.06139194  1
  O  O1  1  0.15611642  0.51344703  0.06139194  1
