# generated using pymatgen
data_Sr3LiTaO6
_symmetry_space_group_name_H-M   'P 1'
_cell_length_a   9.76331705
_cell_length_b   9.76331705
_cell_length_c   11.14844166
_cell_angle_alpha   90.00000000
_cell_angle_beta   90.00000000
_cell_angle_gamma   120.00000000
_symmetry_Int_Tables_number   1
_chemical_formula_structural   Sr3LiTaO6
_chemical_formula_sum   'Sr18 Li6 Ta6 O36'
_cell_volume   920.32153101
_cell_formula_units_Z   6
loop_
 _symmetry_equiv_pos_site_id
 _symmetry_equiv_pos_as_xyz
  1  'x, y, z'
loop_
 _atom_site_type_symbol
 _atom_site_label
 _atom_site_symmetry_multiplicity
 _atom_site_fract_x
 _atom_site_fract_y
 _atom_site_fract_z
 _atom_site_occupancy
  Sr  Sr1  1  0.33333333  0.31381688  0.41666667  1
  Sr  Sr1  1  0.68618312  0.01951645  0.41666667  1
  Sr  Sr1  1  0.98048355  0.66666667  0.41666667  1
  Sr  Sr1  1  0.66666667  0.68618312  0.58333333  1
  Sr  Sr1  1  0.31381688  0.98048355  0.58333333  1
  Sr  Sr1  1  0.01951645  0.33333333  0.58333333  1
  Li  Li1  1  0.00000000  0.00000000  0.25000000  1
  Li  Li1  1  0.00000000  0.00000000  0.75000000  1
  Ta  Ta1  1  0.00000000  0.00000000  0.50000000  1
  Ta  Ta1  1  0.00000000  0.00000000  0.00000000  1
  O  O1  1  0.02468067  0.17716610  0.39532531  1
  O  O1  1  0.82283390  0.84751457  0.39532531  1
  O  O1  1  0.15248543  0.97531933  0.39532531  1
  O  O1  1  0.35801400  0.51418124  0.56199197  1
  O  O1  1  0.48581876  0.84383277  0.56199197  1
  O  O1  1  0.15616723  0.64198600  0.56199197  1
  O  O1  1  0.97531933  0.82283390  0.60467469  1
  O  O1  1  0.17716610  0.15248543  0.60467469  1
  O  O1  1  0.84751457  0.02468067  0.60467469  1
  O  O1  1  0.64198600  0.48581876  0.43800803  1
  O  O1  1  0.51418124  0.15616723  0.43800803  1
  O  O1  1  0.84383277  0.35801400  0.43800803  1
  Sr  Sr1  1  0.00000000  0.64715021  0.75000000  1
  Sr  Sr1  1  0.35284979  0.35284979  0.75000000  1
  Sr  Sr1  1  0.64715021  0.00000000  0.75000000  1
  Sr  Sr1  1  0.33333333  0.01951645  0.91666667  1
  Sr  Sr1  1  0.98048355  0.31381688  0.91666667  1
  Sr  Sr1  1  0.68618312  0.66666667  0.91666667  1
  Li  Li1  1  0.66666667  0.33333333  0.58333333  1
  Li  Li1  1  0.66666667  0.33333333  0.08333333  1
  Ta  Ta1  1  0.66666667  0.33333333  0.83333333  1
  Ta  Ta1  1  0.66666667  0.33333333  0.33333333  1
  O  O1  1  0.69134734  0.51049943  0.72865864  1
  O  O1  1  0.48950057  0.18084790  0.72865864  1
  O  O1  1  0.81915210  0.30865266  0.72865864  1
  O  O1  1  0.02468067  0.84751457  0.89532531  1
  O  O1  1  0.15248543  0.17716610  0.89532531  1
  O  O1  1  0.82283390  0.97531933  0.89532531  1
  O  O1  1  0.64198600  0.15616723  0.93800803  1
  O  O1  1  0.84383277  0.48581876  0.93800803  1
  O  O1  1  0.51418124  0.35801400  0.93800803  1
  O  O1  1  0.30865266  0.81915210  0.77134136  1
  O  O1  1  0.18084790  0.48950057  0.77134136  1
  O  O1  1  0.51049943  0.69134734  0.77134136  1
  Sr  Sr1  1  0.66666667  0.98048355  0.08333333  1
  Sr  Sr1  1  0.01951645  0.68618312  0.08333333  1
  Sr  Sr1  1  0.31381688  0.33333333  0.08333333  1
  Sr  Sr1  1  0.00000000  0.35284979  0.25000000  1
  Sr  Sr1  1  0.64715021  0.64715021  0.25000000  1
  Sr  Sr1  1  0.35284979  0.00000000  0.25000000  1
  Li  Li1  1  0.33333333  0.66666667  0.91666667  1
  Li  Li1  1  0.33333333  0.66666667  0.41666667  1
  Ta  Ta1  1  0.33333333  0.66666667  0.16666667  1
  Ta  Ta1  1  0.33333333  0.66666667  0.66666667  1
  O  O1  1  0.35801400  0.84383277  0.06199197  1
  O  O1  1  0.15616723  0.51418124  0.06199197  1
  O  O1  1  0.48581876  0.64198600  0.06199197  1
  O  O1  1  0.69134734  0.18084790  0.22865864  1
  O  O1  1  0.81915210  0.51049943  0.22865864  1
  O  O1  1  0.48950057  0.30865266  0.22865864  1
  O  O1  1  0.30865266  0.48950057  0.27134136  1
  O  O1  1  0.51049943  0.81915210  0.27134136  1
  O  O1  1  0.18084790  0.69134734  0.27134136  1
  O  O1  1  0.97531933  0.15248543  0.10467469  1
  O  O1  1  0.84751457  0.82283390  0.10467469  1
  O  O1  1  0.17716610  0.02468067  0.10467469  1
