# generated using pymatgen
data_Sr3MgPtO6
_symmetry_space_group_name_H-M   'P 1'
_cell_length_a   9.58244012
_cell_length_b   9.58244012
_cell_length_c   11.10771319
_cell_angle_alpha   90.00000000
_cell_angle_beta   90.00000000
_cell_angle_gamma   120.00000000
_symmetry_Int_Tables_number   1
_chemical_formula_structural   Sr3MgPtO6
_chemical_formula_sum   'Sr18 Mg6 Pt6 O36'
_cell_volume   883.29854938
_cell_formula_units_Z   6
loop_
 _symmetry_equiv_pos_site_id
 _symmetry_equiv_pos_as_xyz
  1  'x, y, z'
loop_
 _atom_site_type_symbol
 _atom_site_label
 _atom_site_symmetry_multiplicity
 _atom_site_fract_x
 _atom_site_fract_y
 _atom_site_fract_z
 _atom_site_occupancy
  Sr  Sr1  1  0.66666667  0.96808441  0.58333333  1
  Sr  Sr1  1  0.03191559  0.69858226  0.58333333  1
  Sr  Sr1  1  0.69858226  0.66666667  0.41666667  1
  Sr  Sr1  1  0.33333333  0.03191559  0.41666667  1
  Sr  Sr1  1  0.96808441  0.30141774  0.41666667  1
  Sr  Sr1  1  0.30141774  0.33333333  0.58333333  1
  Mg  Mg1  1  0.00000000  0.00000000  0.25000000  1
  Mg  Mg1  1  0.00000000  0.00000000  0.75000000  1
  Pt  Pt1  1  0.00000000  0.00000000  0.00000000  1
  Pt  Pt1  1  0.00000000  0.00000000  0.50000000  1
  O  O1  1  0.17280923  0.02088936  0.61578251  1
  O  O1  1  0.97911064  0.15191987  0.61578251  1
  O  O1  1  0.84808013  0.82719077  0.61578251  1
  O  O1  1  0.48525321  0.64577731  0.55088416  1
  O  O1  1  0.35422269  0.83947590  0.55088416  1
  O  O1  1  0.16052410  0.51474679  0.55088416  1
  O  O1  1  0.82719077  0.97911064  0.38421749  1
  O  O1  1  0.02088936  0.84808013  0.38421749  1
  O  O1  1  0.15191987  0.17280923  0.38421749  1
  O  O1  1  0.51474679  0.35422269  0.44911584  1
  O  O1  1  0.83947590  0.48525321  0.44911584  1
  O  O1  1  0.64577731  0.16052410  0.44911584  1
  Sr  Sr1  1  0.33333333  0.30141774  0.91666667  1
  Sr  Sr1  1  0.69858226  0.03191559  0.91666667  1
  Sr  Sr1  1  0.36524893  0.00000000  0.75000000  1
  Sr  Sr1  1  0.00000000  0.36524893  0.75000000  1
  Sr  Sr1  1  0.63475107  0.63475107  0.75000000  1
  Sr  Sr1  1  0.96808441  0.66666667  0.91666667  1
  Mg  Mg1  1  0.66666667  0.33333333  0.58333333  1
  Mg  Mg1  1  0.66666667  0.33333333  0.08333333  1
  Pt  Pt1  1  0.66666667  0.33333333  0.33333333  1
  Pt  Pt1  1  0.66666667  0.33333333  0.83333333  1
  O  O1  1  0.83947590  0.35422269  0.94911584  1
  O  O1  1  0.64577731  0.48525321  0.94911584  1
  O  O1  1  0.51474679  0.16052410  0.94911584  1
  O  O1  1  0.15191987  0.97911064  0.88421749  1
  O  O1  1  0.02088936  0.17280923  0.88421749  1
  O  O1  1  0.82719077  0.84808013  0.88421749  1
  O  O1  1  0.49385743  0.31244397  0.71755083  1
  O  O1  1  0.68755603  0.18141346  0.71755083  1
  O  O1  1  0.81858654  0.50614257  0.71755083  1
  O  O1  1  0.18141346  0.68755603  0.78244917  1
  O  O1  1  0.50614257  0.81858654  0.78244917  1
  O  O1  1  0.31244397  0.49385743  0.78244917  1
  Sr  Sr1  1  0.00000000  0.63475107  0.25000000  1
  Sr  Sr1  1  0.36524893  0.36524893  0.25000000  1
  Sr  Sr1  1  0.03191559  0.33333333  0.08333333  1
  Sr  Sr1  1  0.66666667  0.69858226  0.08333333  1
  Sr  Sr1  1  0.30141774  0.96808441  0.08333333  1
  Sr  Sr1  1  0.63475107  0.00000000  0.25000000  1
  Mg  Mg1  1  0.33333333  0.66666667  0.91666667  1
  Mg  Mg1  1  0.33333333  0.66666667  0.41666667  1
  Pt  Pt1  1  0.33333333  0.66666667  0.66666667  1
  Pt  Pt1  1  0.33333333  0.66666667  0.16666667  1
  O  O1  1  0.50614257  0.68755603  0.28244917  1
  O  O1  1  0.31244397  0.81858654  0.28244917  1
  O  O1  1  0.18141346  0.49385743  0.28244917  1
  O  O1  1  0.81858654  0.31244397  0.21755083  1
  O  O1  1  0.68755603  0.50614257  0.21755083  1
  O  O1  1  0.49385743  0.18141346  0.21755083  1
  O  O1  1  0.16052410  0.64577731  0.05088416  1
  O  O1  1  0.35422269  0.51474679  0.05088416  1
  O  O1  1  0.48525321  0.83947590  0.05088416  1
  O  O1  1  0.84808013  0.02088936  0.11578251  1
  O  O1  1  0.17280923  0.15191987  0.11578251  1
  O  O1  1  0.97911064  0.82719077  0.11578251  1
