# generated using pymatgen
data_Sr3NbGa3(SiO7)2
_symmetry_space_group_name_H-M   'P 1'
_cell_length_a   8.29058789
_cell_length_b   8.29058789
_cell_length_c   5.08404275
_cell_angle_alpha   90.00000000
_cell_angle_beta   90.00000000
_cell_angle_gamma   120.00000000
_symmetry_Int_Tables_number   1
_chemical_formula_structural   Sr3NbGa3(SiO7)2
_chemical_formula_sum   'Sr3 Nb1 Ga3 Si2 O14'
_cell_volume   302.62895626
_cell_formula_units_Z   1
loop_
 _symmetry_equiv_pos_site_id
 _symmetry_equiv_pos_as_xyz
  1  'x, y, z'
loop_
 _atom_site_type_symbol
 _atom_site_label
 _atom_site_symmetry_multiplicity
 _atom_site_fract_x
 _atom_site_fract_y
 _atom_site_fract_z
 _atom_site_occupancy
  Sr  Sr1  1  0.42820590  0.42820590  0.00000000  1
  Sr  Sr1  1  0.00000000  0.57179410  0.00000000  1
  Sr  Sr1  1  0.57179410  0.00000000  0.00000000  1
  Nb  Nb1  1  0.00000000  0.00000000  0.00000000  1
  Ga  Ga1  1  0.74666084  0.74666084  0.50000000  1
  Ga  Ga1  1  0.00000000  0.25333916  0.50000000  1
  Ga  Ga1  1  0.25333916  0.00000000  0.50000000  1
  Si  Si1  1  0.33333333  0.66666667  0.53687588  1
  Si  Si1  1  0.66666667  0.33333333  0.46312412  1
  O  O1  1  0.33333333  0.66666667  0.22056043  1
  O  O1  1  0.66666667  0.33333333  0.77943957  1
  O  O2  1  0.47365012  0.16538638  0.32673117  1
  O  O2  1  0.69173626  0.52634988  0.32673117  1
  O  O2  1  0.83461362  0.30826374  0.32673117  1
  O  O2  1  0.30826374  0.83461362  0.67326883  1
  O  O2  1  0.52634988  0.69173626  0.67326883  1
  O  O2  1  0.16538638  0.47365012  0.67326883  1
  O  O3  1  0.22327024  0.13162782  0.76623009  1
  O  O3  1  0.90835758  0.77672976  0.76623009  1
  O  O3  1  0.86837218  0.09164242  0.76623009  1
  O  O3  1  0.09164242  0.86837218  0.23376991  1
  O  O3  1  0.77672976  0.90835758  0.23376991  1
  O  O3  1  0.13162782  0.22327024  0.23376991  1
