# generated using pymatgen
data_Sr3TaGa3(SiO7)2
_symmetry_space_group_name_H-M   'P 1'
_cell_length_a   8.29145607
_cell_length_b   8.29145607
_cell_length_c   5.07330646
_cell_angle_alpha   90.00000000
_cell_angle_beta   90.00000000
_cell_angle_gamma   120.00000000
_symmetry_Int_Tables_number   1
_chemical_formula_structural   Sr3TaGa3(SiO7)2
_chemical_formula_sum   'Sr3 Ta1 Ga3 Si2 O14'
_cell_volume   302.05312715
_cell_formula_units_Z   1
loop_
 _symmetry_equiv_pos_site_id
 _symmetry_equiv_pos_as_xyz
  1  'x, y, z'
loop_
 _atom_site_type_symbol
 _atom_site_label
 _atom_site_symmetry_multiplicity
 _atom_site_fract_x
 _atom_site_fract_y
 _atom_site_fract_z
 _atom_site_occupancy
  Sr  Sr1  1  0.00000000  0.57195730  0.00000000  1
  Sr  Sr1  1  0.42804270  0.42804270  0.00000000  1
  Sr  Sr1  1  0.57195730  0.00000000  0.00000000  1
  Ta  Ta1  1  0.00000000  0.00000000  0.00000000  1
  Ga  Ga1  1  0.00000000  0.25306538  0.50000000  1
  Ga  Ga1  1  0.25306538  0.00000000  0.50000000  1
  Ga  Ga1  1  0.74693462  0.74693462  0.50000000  1
  Si  Si1  1  0.66666667  0.33333333  0.53642459  1
  Si  Si1  1  0.33333333  0.66666667  0.46357541  1
  O  O1  1  0.87014226  0.09231658  0.23168661  1
  O  O1  1  0.90768342  0.77782568  0.23168661  1
  O  O1  1  0.22217432  0.12985774  0.23168661  1
  O  O1  1  0.09231658  0.87014226  0.76831339  1
  O  O1  1  0.77782568  0.90768342  0.76831339  1
  O  O1  1  0.12985774  0.22217432  0.76831339  1
  O  O2  1  0.83427730  0.30776436  0.67284177  1
  O  O2  1  0.69223564  0.52651294  0.67284177  1
  O  O2  1  0.47348706  0.16572270  0.67284177  1
  O  O3  1  0.66666667  0.33333333  0.21949639  1
  O  O3  1  0.33333333  0.66666667  0.78050361  1
  O  O2  1  0.16572270  0.47348706  0.32715823  1
  O  O2  1  0.52651294  0.69223564  0.32715823  1
  O  O2  1  0.30776436  0.83427730  0.32715823  1
