# generated using pymatgen
data_Sr3WO6
_symmetry_space_group_name_H-M   'P 1'
_cell_length_a   9.79313546
_cell_length_b   9.79313546
_cell_length_c   11.44112506
_cell_angle_alpha   90.00000000
_cell_angle_beta   90.00000000
_cell_angle_gamma   120.00000000
_symmetry_Int_Tables_number   1
_chemical_formula_structural   Sr3WO6
_chemical_formula_sum   'Sr18 W6 O36'
_cell_volume   950.26096155
_cell_formula_units_Z   6
loop_
 _symmetry_equiv_pos_site_id
 _symmetry_equiv_pos_as_xyz
  1  'x, y, z'
loop_
 _atom_site_type_symbol
 _atom_site_label
 _atom_site_symmetry_multiplicity
 _atom_site_fract_x
 _atom_site_fract_y
 _atom_site_fract_z
 _atom_site_occupancy
  Sr  Sr1  1  0.95911775  0.22881237  0.29442091  1
  Sr  Sr1  1  0.22881237  0.26969462  0.70557909  1
  Sr  Sr1  1  0.73030538  0.95911775  0.70557909  1
  Sr  Sr1  1  0.26969462  0.04088225  0.29442091  1
  Sr  Sr1  1  0.77118763  0.73030538  0.29442091  1
  Sr  Sr1  1  0.04088225  0.77118763  0.70557909  1
  W  W1  1  0.00000000  0.00000000  0.50000000  1
  W  W2  1  0.00000000  0.00000000  0.00000000  1
  O  O1  1  0.84441298  0.35955666  0.42677506  1
  O  O1  1  0.35955666  0.51514368  0.57322494  1
  O  O2  1  0.97405719  0.14595651  0.59933916  1
  O  O1  1  0.48485632  0.84441298  0.57322494  1
  O  O2  1  0.14595651  0.17189932  0.40066084  1
  O  O2  1  0.82810068  0.97405719  0.40066084  1
  O  O2  1  0.17189932  0.02594281  0.59933916  1
  O  O2  1  0.85404349  0.82810068  0.59933916  1
  O  O1  1  0.51514368  0.15558702  0.42677506  1
  O  O2  1  0.02594281  0.85404349  0.40066084  1
  O  O1  1  0.64044334  0.48485632  0.42677506  1
  O  O1  1  0.15558702  0.64044334  0.57322494  1
  Sr  Sr1  1  0.62578442  0.56214570  0.62775424  1
  Sr  Sr1  1  0.89547904  0.60302795  0.03891243  1
  Sr  Sr1  1  0.39697205  0.29245109  0.03891243  1
  Sr  Sr1  1  0.93636128  0.37421558  0.62775424  1
  Sr  Sr1  1  0.43785430  0.06363872  0.62775424  1
  Sr  Sr1  1  0.70754891  0.10452096  0.03891243  1
  W  W1  1  0.66666667  0.33333333  0.83333333  1
  W  W2  1  0.66666667  0.33333333  0.33333333  1
  O  O1  1  0.51107965  0.69289000  0.76010840  1
  O  O1  1  0.02622333  0.84847702  0.90655827  1
  O  O2  1  0.64072386  0.47928984  0.93267249  1
  O  O1  1  0.15152298  0.17774631  0.90655827  1
  O  O2  1  0.81262317  0.50523265  0.73399417  1
  O  O2  1  0.49476735  0.30739052  0.73399417  1
  O  O2  1  0.83856598  0.35927614  0.93267249  1
  O  O2  1  0.52071016  0.16143402  0.93267249  1
  O  O1  1  0.18181035  0.48892035  0.76010840  1
  O  O2  1  0.69260948  0.18737683  0.73399417  1
  O  O1  1  0.30711000  0.81818965  0.76010840  1
  O  O1  1  0.82225369  0.97377667  0.90655827  1
  Sr  Sr1  1  0.29245109  0.89547904  0.96108757  1
  Sr  Sr1  1  0.56214570  0.93636128  0.37224576  1
  Sr  Sr1  1  0.06363872  0.62578442  0.37224576  1
  Sr  Sr1  1  0.60302795  0.70754891  0.96108757  1
  Sr  Sr1  1  0.10452096  0.39697205  0.96108757  1
  Sr  Sr1  1  0.37421558  0.43785430  0.37224576  1
  W  W1  1  0.33333333  0.66666667  0.16666667  1
  W  W2  1  0.33333333  0.66666667  0.66666667  1
  O  O1  1  0.17774631  0.02622333  0.09344173  1
  O  O1  1  0.69289000  0.18181035  0.23989160  1
  O  O2  1  0.30739052  0.81262317  0.26600583  1
  O  O1  1  0.81818965  0.51107965  0.23989160  1
  O  O2  1  0.47928984  0.83856598  0.06732751  1
  O  O2  1  0.16143402  0.64072386  0.06732751  1
  O  O2  1  0.50523265  0.69260948  0.26600583  1
  O  O2  1  0.18737683  0.49476735  0.26600583  1
  O  O1  1  0.84847702  0.82225369  0.09344173  1
  O  O2  1  0.35927614  0.52071016  0.06732751  1
  O  O1  1  0.97377667  0.15152298  0.09344173  1
  O  O1  1  0.48892035  0.30711000  0.23989160  1
