# generated using pymatgen
data_Sr3ZnPtO6
_symmetry_space_group_name_H-M   'P 1'
_cell_length_a   9.54002240
_cell_length_b   9.54002240
_cell_length_c   11.17035222
_cell_angle_alpha   90.00000000
_cell_angle_beta   90.00000000
_cell_angle_gamma   120.00000000
_symmetry_Int_Tables_number   1
_chemical_formula_structural   Sr3ZnPtO6
_chemical_formula_sum   'Sr18 Zn6 Pt6 O36'
_cell_volume   880.43295074
_cell_formula_units_Z   6
loop_
 _symmetry_equiv_pos_site_id
 _symmetry_equiv_pos_as_xyz
  1  'x, y, z'
loop_
 _atom_site_type_symbol
 _atom_site_label
 _atom_site_symmetry_multiplicity
 _atom_site_fract_x
 _atom_site_fract_y
 _atom_site_fract_z
 _atom_site_occupancy
  Sr  Sr1  1  0.33333333  0.30217019  0.41666667  1
  Sr  Sr1  1  0.69782981  0.03116314  0.41666667  1
  Sr  Sr1  1  0.03116314  0.33333333  0.58333333  1
  Sr  Sr1  1  0.66666667  0.69782981  0.58333333  1
  Sr  Sr1  1  0.30217019  0.96883686  0.58333333  1
  Sr  Sr1  1  0.96883686  0.66666667  0.41666667  1
  Zn  Zn1  1  0.00000000  0.00000000  0.75000000  1
  Zn  Zn1  1  0.00000000  0.00000000  0.25000000  1
  Pt  Pt1  1  0.00000000  0.00000000  0.50000000  1
  Pt  Pt1  1  0.00000000  0.00000000  0.00000000  1
  O  O1  1  0.64688412  0.48564257  0.44869101  1
  O  O1  1  0.51435743  0.16124155  0.44869101  1
  O  O1  1  0.83875845  0.35311588  0.44869101  1
  O  O1  1  0.82790821  0.84769076  0.38464232  1
  O  O1  1  0.15230924  0.98021745  0.38464232  1
  O  O1  1  0.01978255  0.17209179  0.38464232  1
  O  O1  1  0.35311588  0.51435743  0.55130899  1
  O  O1  1  0.48564257  0.83875845  0.55130899  1
  O  O1  1  0.16124155  0.64688412  0.55130899  1
  O  O1  1  0.17209179  0.15230924  0.61535768  1
  O  O1  1  0.98021745  0.82790821  0.61535768  1
  O  O1  1  0.84769076  0.01978255  0.61535768  1
  Sr  Sr1  1  0.00000000  0.63550352  0.75000000  1
  Sr  Sr1  1  0.36449648  0.36449648  0.75000000  1
  Sr  Sr1  1  0.69782981  0.66666667  0.91666667  1
  Sr  Sr1  1  0.33333333  0.03116314  0.91666667  1
  Sr  Sr1  1  0.96883686  0.30217019  0.91666667  1
  Sr  Sr1  1  0.63550352  0.00000000  0.75000000  1
  Zn  Zn1  1  0.66666667  0.33333333  0.08333333  1
  Zn  Zn1  1  0.66666667  0.33333333  0.58333333  1
  Pt  Pt1  1  0.66666667  0.33333333  0.83333333  1
  Pt  Pt1  1  0.66666667  0.33333333  0.33333333  1
  O  O1  1  0.31355078  0.81897590  0.78202435  1
  O  O1  1  0.18102410  0.49457488  0.78202435  1
  O  O1  1  0.50542512  0.68644922  0.78202435  1
  O  O1  1  0.49457488  0.18102410  0.71797565  1
  O  O1  1  0.81897590  0.31355078  0.71797565  1
  O  O1  1  0.68644922  0.50542512  0.71797565  1
  O  O1  1  0.01978255  0.84769076  0.88464232  1
  O  O1  1  0.15230924  0.17209179  0.88464232  1
  O  O1  1  0.82790821  0.98021745  0.88464232  1
  O  O1  1  0.83875845  0.48564257  0.94869101  1
  O  O1  1  0.64688412  0.16124155  0.94869101  1
  O  O1  1  0.51435743  0.35311588  0.94869101  1
  Sr  Sr1  1  0.66666667  0.96883686  0.08333333  1
  Sr  Sr1  1  0.03116314  0.69782981  0.08333333  1
  Sr  Sr1  1  0.36449648  0.00000000  0.25000000  1
  Sr  Sr1  1  0.00000000  0.36449648  0.25000000  1
  Sr  Sr1  1  0.63550352  0.63550352  0.25000000  1
  Sr  Sr1  1  0.30217019  0.33333333  0.08333333  1
  Zn  Zn1  1  0.33333333  0.66666667  0.41666667  1
  Zn  Zn1  1  0.33333333  0.66666667  0.91666667  1
  Pt  Pt1  1  0.33333333  0.66666667  0.16666667  1
  Pt  Pt1  1  0.33333333  0.66666667  0.66666667  1
  O  O1  1  0.98021745  0.15230924  0.11535768  1
  O  O1  1  0.84769076  0.82790821  0.11535768  1
  O  O1  1  0.17209179  0.01978255  0.11535768  1
  O  O1  1  0.16124155  0.51435743  0.05130899  1
  O  O1  1  0.48564257  0.64688412  0.05130899  1
  O  O1  1  0.35311588  0.83875845  0.05130899  1
  O  O1  1  0.68644922  0.18102410  0.21797565  1
  O  O1  1  0.81897590  0.50542512  0.21797565  1
  O  O1  1  0.49457488  0.31355078  0.21797565  1
  O  O1  1  0.50542512  0.81897590  0.28202435  1
  O  O1  1  0.31355078  0.49457488  0.28202435  1
  O  O1  1  0.18102410  0.68644922  0.28202435  1
