# generated using pymatgen
data_Sr4Cu2O7
_symmetry_space_group_name_H-M   'P 1'
_cell_length_a   6.67035083
_cell_length_b   5.41275660
_cell_length_c   10.67961160
_cell_angle_alpha   90.00000000
_cell_angle_beta   113.70765439
_cell_angle_gamma   90.00000000
_symmetry_Int_Tables_number   1
_chemical_formula_structural   Sr4Cu2O7
_chemical_formula_sum   'Sr8 Cu4 O14'
_cell_volume   353.04708703
_cell_formula_units_Z   2
loop_
 _symmetry_equiv_pos_site_id
 _symmetry_equiv_pos_as_xyz
  1  'x, y, z'
loop_
 _atom_site_type_symbol
 _atom_site_label
 _atom_site_symmetry_multiplicity
 _atom_site_fract_x
 _atom_site_fract_y
 _atom_site_fract_z
 _atom_site_occupancy
  Sr  Sr1  1  0.71217514  0.76661728  0.56040348  1
  Sr  Sr2  1  0.28784994  0.72392970  0.20533920  1
  Sr  Sr1  1  0.71217514  0.73338272  0.06040348  1
  Sr  Sr2  1  0.71215006  0.22392970  0.29466080  1
  Sr  Sr1  1  0.28782486  0.23338272  0.43959652  1
  Sr  Sr2  1  0.28784994  0.77607030  0.70533920  1
  Sr  Sr2  1  0.71215006  0.27607030  0.79466080  1
  Sr  Sr1  1  0.28782486  0.26661728  0.93959652  1
  Cu  Cu1  1  0.00053974  0.74472228  0.38318412  1
  Cu  Cu1  1  0.99946026  0.25527772  0.61681588  1
  Cu  Cu1  1  0.00053974  0.75527772  0.88318412  1
  Cu  Cu1  1  0.99946026  0.24472228  0.11681588  1
  O  O1  1  0.69168006  0.72740010  0.31093931  1
  O  O2  1  0.30941378  0.73574102  0.46486519  1
  O  O3  1  0.00050366  0.49356318  0.27559122  1
  O  O4  1  0.00000000  0.00000000  0.50000000  1
  O  O4  1  0.00000000  0.50000000  0.00000000  1
  O  O3  1  0.99949634  0.99356318  0.22440878  1
  O  O2  1  0.69058622  0.26425898  0.53513481  1
  O  O3  1  0.99949634  0.50643682  0.72440878  1
  O  O1  1  0.30831994  0.22740010  0.18906069  1
  O  O2  1  0.30941378  0.76425898  0.96486519  1
  O  O1  1  0.69168006  0.77259990  0.81093931  1
  O  O2  1  0.69058622  0.23574102  0.03513481  1
  O  O1  1  0.30831994  0.27259990  0.68906069  1
  O  O3  1  0.00050366  0.00643682  0.77559122  1
