# generated using pymatgen
data_Sr4Nb2O9
_symmetry_space_group_name_H-M   'P 1'
_cell_length_a   5.87229705
_cell_length_b   5.87229705
_cell_length_c   15.71527609
_cell_angle_alpha   90.00000000
_cell_angle_beta   90.00000000
_cell_angle_gamma   120.00000000
_symmetry_Int_Tables_number   1
_chemical_formula_structural   Sr4Nb2O9
_chemical_formula_sum   'Sr8 Nb4 O18'
_cell_volume   469.31958600
_cell_formula_units_Z   2
loop_
 _symmetry_equiv_pos_site_id
 _symmetry_equiv_pos_as_xyz
  1  'x, y, z'
loop_
 _atom_site_type_symbol
 _atom_site_label
 _atom_site_symmetry_multiplicity
 _atom_site_fract_x
 _atom_site_fract_y
 _atom_site_fract_z
 _atom_site_occupancy
  Sr  Sr1  1  0.66666667  0.33333333  0.85994714  1
  Sr  Sr1  1  0.33333333  0.66666667  0.35994714  1
  Sr  Sr1  1  0.33333333  0.66666667  0.14005286  1
  Sr  Sr1  1  0.66666667  0.33333333  0.64005286  1
  Sr  Sr2  1  0.00000000  0.00000000  0.75000000  1
  Sr  Sr3  1  0.00000000  0.00000000  0.00000000  1
  Sr  Sr2  1  0.00000000  0.00000000  0.25000000  1
  Sr  Sr3  1  0.00000000  0.00000000  0.50000000  1
  Nb  Nb1  1  0.66666667  0.33333333  0.34578764  1
  Nb  Nb1  1  0.66666667  0.33333333  0.15421236  1
  Nb  Nb1  1  0.33333333  0.66666667  0.65421236  1
  Nb  Nb1  1  0.33333333  0.66666667  0.84578764  1
  O  O1  1  0.65320947  0.92235936  0.89709727  1
  O  O1  1  0.73085011  0.65320947  0.39709727  1
  O  O1  1  0.26914989  0.34679053  0.60290273  1
  O  O2  1  0.96490618  0.55499164  0.25000000  1
  O  O2  1  0.55499164  0.59008546  0.75000000  1
  O  O1  1  0.73085011  0.65320947  0.10290273  1
  O  O1  1  0.07764064  0.73085011  0.89709727  1
  O  O2  1  0.44500836  0.40991454  0.25000000  1
  O  O1  1  0.34679053  0.07764064  0.10290273  1
  O  O2  1  0.59008546  0.03509382  0.25000000  1
  O  O2  1  0.40991454  0.96490618  0.75000000  1
  O  O2  1  0.03509382  0.44500836  0.75000000  1
  O  O1  1  0.07764064  0.73085011  0.60290273  1
  O  O1  1  0.65320947  0.92235936  0.60290273  1
  O  O1  1  0.92235936  0.26914989  0.39709727  1
  O  O1  1  0.92235936  0.26914989  0.10290273  1
  O  O1  1  0.34679053  0.07764064  0.39709727  1
  O  O1  1  0.26914989  0.34679053  0.89709727  1
