# generated using pymatgen
data_Sr4PtO6
_symmetry_space_group_name_H-M   'P 1'
_cell_length_a   9.69658062
_cell_length_b   9.69658062
_cell_length_c   11.86048357
_cell_angle_alpha   90.00000000
_cell_angle_beta   90.00000000
_cell_angle_gamma   120.00000000
_symmetry_Int_Tables_number   1
_chemical_formula_structural   Sr4PtO6
_chemical_formula_sum   'Sr24 Pt6 O36'
_cell_volume   965.76231153
_cell_formula_units_Z   6
loop_
 _symmetry_equiv_pos_site_id
 _symmetry_equiv_pos_as_xyz
  1  'x, y, z'
loop_
 _atom_site_type_symbol
 _atom_site_label
 _atom_site_symmetry_multiplicity
 _atom_site_fract_x
 _atom_site_fract_y
 _atom_site_fract_z
 _atom_site_occupancy
  Sr  Sr1  1  0.36762755  0.00000000  0.75000000  1
  Sr  Sr1  1  0.00000000  0.36762755  0.75000000  1
  Sr  Sr1  1  0.63237245  0.63237245  0.75000000  1
  Sr  Sr1  1  0.96570579  0.66666667  0.91666667  1
  Sr  Sr1  1  0.33333333  0.29903912  0.91666667  1
  Sr  Sr1  1  0.70096088  0.03429421  0.91666667  1
  Sr  Sr2  1  0.66666667  0.33333333  0.08333333  1
  Sr  Sr2  1  0.66666667  0.33333333  0.58333333  1
  Pt  Pt1  1  0.66666667  0.33333333  0.83333333  1
  Pt  Pt1  1  -0.00000000  0.00000000  0.00000000  1
  O  O1  1  0.85226241  0.36021327  0.93337077  1
  O  O1  1  0.63978673  0.49204913  0.93337077  1
  O  O1  1  0.50795087  0.14773759  0.93337077  1
  O  O1  1  0.15871580  0.97312006  0.89996256  1
  O  O1  1  0.02687994  0.18559574  0.89996256  1
  O  O1  1  0.81440426  0.84128420  0.89996256  1
  O  O1  1  0.48107093  0.30645339  0.73329589  1
  O  O1  1  0.69354661  0.17461753  0.73329589  1
  O  O1  1  0.82538247  0.51892907  0.73329589  1
  O  O1  1  0.17461753  0.69354661  0.76670411  1
  O  O1  1  0.51892907  0.82538247  0.76670411  1
  O  O1  1  0.30645339  0.48107093  0.76670411  1
  Sr  Sr1  1  0.03429421  0.33333333  0.08333333  1
  Sr  Sr1  1  0.66666667  0.70096088  0.08333333  1
  Sr  Sr1  1  0.29903912  0.96570579  0.08333333  1
  Sr  Sr1  1  0.63237245  0.00000000  0.25000000  1
  Sr  Sr1  1  0.00000000  0.63237245  0.25000000  1
  Sr  Sr1  1  0.36762755  0.36762755  0.25000000  1
  Sr  Sr2  1  0.33333333  0.66666667  0.41666667  1
  Sr  Sr2  1  0.33333333  0.66666667  0.91666667  1
  Pt  Pt1  1  0.33333333  0.66666667  0.16666667  1
  Pt  Pt1  1  0.66666667  0.33333333  0.33333333  1
  O  O1  1  0.51892907  0.69354661  0.26670411  1
  O  O1  1  0.30645339  0.82538247  0.26670411  1
  O  O1  1  0.17461753  0.48107093  0.26670411  1
  O  O1  1  0.82538247  0.30645339  0.23329589  1
  O  O1  1  0.69354661  0.51892907  0.23329589  1
  O  O1  1  0.48107093  0.17461753  0.23329589  1
  O  O1  1  0.14773759  0.63978673  0.06662923  1
  O  O1  1  0.36021327  0.50795087  0.06662923  1
  O  O1  1  0.49204913  0.85226241  0.06662923  1
  O  O1  1  0.84128420  0.02687994  0.10003744  1
  O  O1  1  0.18559574  0.15871580  0.10003744  1
  O  O1  1  0.97312006  0.81440426  0.10003744  1
  Sr  Sr1  1  0.70096088  0.66666667  0.41666667  1
  Sr  Sr1  1  0.33333333  0.03429421  0.41666667  1
  Sr  Sr1  1  0.96570579  0.29903912  0.41666667  1
  Sr  Sr1  1  0.29903912  0.33333333  0.58333333  1
  Sr  Sr1  1  0.66666667  0.96570579  0.58333333  1
  Sr  Sr1  1  0.03429421  0.70096088  0.58333333  1
  Sr  Sr2  1  0.00000000  0.00000000  0.75000000  1
  Sr  Sr2  1  0.00000000  0.00000000  0.25000000  1
  Pt  Pt1  1  0.00000000  -0.00000000  0.50000000  1
  Pt  Pt1  1  0.33333333  0.66666667  0.66666667  1
  O  O1  1  0.18559574  0.02687994  0.60003744  1
  O  O1  1  0.97312006  0.15871580  0.60003744  1
  O  O1  1  0.84128420  0.81440426  0.60003744  1
  O  O1  1  0.49204913  0.63978673  0.56662923  1
  O  O1  1  0.36021327  0.85226241  0.56662923  1
  O  O1  1  0.14773759  0.50795087  0.56662923  1
  O  O1  1  0.81440426  0.97312006  0.39996256  1
  O  O1  1  0.02687994  0.84128420  0.39996256  1
  O  O1  1  0.15871580  0.18559574  0.39996256  1
  O  O1  1  0.50795087  0.36021327  0.43337077  1
  O  O1  1  0.85226241  0.49204913  0.43337077  1
  O  O1  1  0.63978673  0.14773759  0.43337077  1
