# generated using pymatgen
data_Sr4PdO6
_symmetry_space_group_name_H-M   'P 1'
_cell_length_a   9.66816439
_cell_length_b   9.66816439
_cell_length_c   11.84677412
_cell_angle_alpha   90.00000000
_cell_angle_beta   90.00000000
_cell_angle_gamma   120.00000000
_symmetry_Int_Tables_number   1
_chemical_formula_structural   Sr4PdO6
_chemical_formula_sum   'Sr24 Pd6 O36'
_cell_volume   959.00040823
_cell_formula_units_Z   6
loop_
 _symmetry_equiv_pos_site_id
 _symmetry_equiv_pos_as_xyz
  1  'x, y, z'
loop_
 _atom_site_type_symbol
 _atom_site_label
 _atom_site_symmetry_multiplicity
 _atom_site_fract_x
 _atom_site_fract_y
 _atom_site_fract_z
 _atom_site_occupancy
  Sr  Sr1  1  0.66666667  0.33333333  0.08333333  1
  Sr  Sr1  1  0.66666667  0.33333333  0.58333333  1
  Sr  Sr2  1  0.70259636  0.66666667  0.91666667  1
  Sr  Sr2  1  0.33333333  0.03592969  0.91666667  1
  Sr  Sr2  1  0.96407031  0.29740364  0.91666667  1
  Sr  Sr2  1  0.63073697  0.00000000  0.75000000  1
  Sr  Sr2  1  0.00000000  0.63073697  0.75000000  1
  Sr  Sr2  1  0.36926303  0.36926303  0.75000000  1
  Pd  Pd1  1  0.66666667  0.33333333  0.83333333  1
  Pd  Pd1  1  -0.00000000  0.00000000  0.00000000  1
  O  O1  1  0.51824870  0.69322540  0.76619910  1
  O  O1  1  0.30677460  0.82502330  0.76619910  1
  O  O1  1  0.17497670  0.48175130  0.76619910  1
  O  O1  1  0.82502330  0.30677460  0.73380090  1
  O  O1  1  0.69322540  0.51824870  0.73380090  1
  O  O1  1  0.48175130  0.17497670  0.73380090  1
  O  O1  1  0.81508463  0.97344126  0.90046756  1
  O  O1  1  0.02655874  0.84164337  0.90046756  1
  O  O1  1  0.15835663  0.18491537  0.90046756  1
  O  O1  1  0.50831004  0.35989207  0.93286577  1
  O  O1  1  0.85158203  0.49168996  0.93286577  1
  O  O1  1  0.64010793  0.14841797  0.93286577  1
  Sr  Sr1  1  0.33333333  0.66666667  0.41666667  1
  Sr  Sr1  1  0.33333333  0.66666667  0.91666667  1
  Sr  Sr2  1  0.36926303  0.00000000  0.25000000  1
  Sr  Sr2  1  0.00000000  0.36926303  0.25000000  1
  Sr  Sr2  1  0.63073697  0.63073697  0.25000000  1
  Sr  Sr2  1  0.29740364  0.33333333  0.08333333  1
  Sr  Sr2  1  0.66666667  0.96407031  0.08333333  1
  Sr  Sr2  1  0.03592969  0.70259636  0.08333333  1
  Pd  Pd1  1  0.33333333  0.66666667  0.16666667  1
  Pd  Pd1  1  0.66666667  0.33333333  0.33333333  1
  O  O1  1  0.18491537  0.02655874  0.09953244  1
  O  O1  1  0.97344126  0.15835663  0.09953244  1
  O  O1  1  0.84164337  0.81508463  0.09953244  1
  O  O1  1  0.49168996  0.64010793  0.06713423  1
  O  O1  1  0.35989207  0.85158203  0.06713423  1
  O  O1  1  0.14841797  0.50831004  0.06713423  1
  O  O1  1  0.48175130  0.30677460  0.23380090  1
  O  O1  1  0.69322540  0.17497670  0.23380090  1
  O  O1  1  0.82502330  0.51824870  0.23380090  1
  O  O1  1  0.17497670  0.69322540  0.26619910  1
  O  O1  1  0.51824870  0.82502330  0.26619910  1
  O  O1  1  0.30677460  0.48175130  0.26619910  1
  Sr  Sr1  1  0.00000000  0.00000000  0.75000000  1
  Sr  Sr1  1  0.00000000  0.00000000  0.25000000  1
  Sr  Sr2  1  0.03592969  0.33333333  0.58333333  1
  Sr  Sr2  1  0.66666667  0.70259636  0.58333333  1
  Sr  Sr2  1  0.29740364  0.96407031  0.58333333  1
  Sr  Sr2  1  0.96407031  0.66666667  0.41666667  1
  Sr  Sr2  1  0.33333333  0.29740364  0.41666667  1
  Sr  Sr2  1  0.70259636  0.03592969  0.41666667  1
  Pd  Pd1  1  0.00000000  -0.00000000  0.50000000  1
  Pd  Pd1  1  0.33333333  0.66666667  0.66666667  1
  O  O1  1  0.85158203  0.35989207  0.43286577  1
  O  O1  1  0.64010793  0.49168996  0.43286577  1
  O  O1  1  0.50831004  0.14841797  0.43286577  1
  O  O1  1  0.15835663  0.97344126  0.40046756  1
  O  O1  1  0.02655874  0.18491537  0.40046756  1
  O  O1  1  0.81508463  0.84164337  0.40046756  1
  O  O1  1  0.14841797  0.64010793  0.56713423  1
  O  O1  1  0.35989207  0.50831004  0.56713423  1
  O  O1  1  0.49168996  0.85158203  0.56713423  1
  O  O1  1  0.84164337  0.02655874  0.59953244  1
  O  O1  1  0.18491537  0.15835663  0.59953244  1
  O  O1  1  0.97344126  0.81508463  0.59953244  1
