# generated using pymatgen
data_Sr4Ta2O9
_symmetry_space_group_name_H-M   'P 1'
_cell_length_a   5.86006030
_cell_length_b   5.86006030
_cell_length_c   15.67942762
_cell_angle_alpha   90.00000000
_cell_angle_beta   90.00000000
_cell_angle_gamma   120.00000000
_symmetry_Int_Tables_number   1
_chemical_formula_structural   Sr4Ta2O9
_chemical_formula_sum   'Sr8 Ta4 O18'
_cell_volume   466.29956112
_cell_formula_units_Z   2
loop_
 _symmetry_equiv_pos_site_id
 _symmetry_equiv_pos_as_xyz
  1  'x, y, z'
loop_
 _atom_site_type_symbol
 _atom_site_label
 _atom_site_symmetry_multiplicity
 _atom_site_fract_x
 _atom_site_fract_y
 _atom_site_fract_z
 _atom_site_occupancy
  Sr  Sr1  1  0.00000000  0.00000000  0.25000000  1
  Sr  Sr2  1  0.00000000  0.00000000  0.50000000  1
  Sr  Sr2  1  0.00000000  0.00000000  0.00000000  1
  Sr  Sr3  1  0.66666667  0.33333333  0.36183708  1
  Sr  Sr3  1  0.66666667  0.33333333  0.13816292  1
  Sr  Sr3  1  0.33333333  0.66666667  0.86183708  1
  Sr  Sr3  1  0.33333333  0.66666667  0.63816292  1
  Sr  Sr1  1  0.00000000  0.00000000  0.75000000  1
  Ta  Ta1  1  0.66666667  0.33333333  0.84473781  1
  Ta  Ta1  1  0.66666667  0.33333333  0.65526219  1
  Ta  Ta1  1  0.33333333  0.66666667  0.34473781  1
  Ta  Ta1  1  0.33333333  0.66666667  0.15526219  1
  O  O1  1  0.96116080  0.40962017  0.75000000  1
  O  O2  1  0.73125904  0.07944859  0.60301797  1
  O  O2  1  0.73125904  0.07944859  0.89698203  1
  O  O2  1  0.92055141  0.65181045  0.60301797  1
  O  O2  1  0.92055141  0.65181045  0.89698203  1
  O  O1  1  0.44845937  0.03883920  0.75000000  1
  O  O1  1  0.59037983  0.55154063  0.75000000  1
  O  O2  1  0.65181045  0.73125904  0.10301797  1
  O  O2  1  0.65181045  0.73125904  0.39698203  1
  O  O2  1  0.34818955  0.26874096  0.60301797  1
  O  O2  1  0.34818955  0.26874096  0.89698203  1
  O  O1  1  0.40962017  0.44845937  0.25000000  1
  O  O1  1  0.55154063  0.96116080  0.25000000  1
  O  O2  1  0.07944859  0.34818955  0.10301797  1
  O  O2  1  0.07944859  0.34818955  0.39698203  1
  O  O2  1  0.26874096  0.92055141  0.10301797  1
  O  O2  1  0.26874096  0.92055141  0.39698203  1
  O  O1  1  0.03883920  0.59037983  0.25000000  1
