# generated using pymatgen
data_Sr5(AuO4)2
_symmetry_space_group_name_H-M   'P 1'
_cell_length_a   8.27265907
_cell_length_b   8.27265907
_cell_length_c   6.49500966
_cell_angle_alpha   90.00000000
_cell_angle_beta   90.00000000
_cell_angle_gamma   90.00000000
_symmetry_Int_Tables_number   1
_chemical_formula_structural   Sr5(AuO4)2
_chemical_formula_sum   'Sr10 Au4 O16'
_cell_volume   444.49824971
_cell_formula_units_Z   2
loop_
 _symmetry_equiv_pos_site_id
 _symmetry_equiv_pos_as_xyz
  1  'x, y, z'
loop_
 _atom_site_type_symbol
 _atom_site_label
 _atom_site_symmetry_multiplicity
 _atom_site_fract_x
 _atom_site_fract_y
 _atom_site_fract_z
 _atom_site_occupancy
  Sr  Sr1  1  0.77755187  0.22244813  0.50000000  1
  Sr  Sr1  1  0.72244813  0.27755187  0.00000000  1
  Sr  Sr1  1  0.22244813  0.22244813  0.50000000  1
  Sr  Sr1  1  0.27755187  0.27755187  0.00000000  1
  Sr  Sr2  1  0.00000000  0.00000000  0.00000000  1
  Au  Au1  1  0.00000000  0.50000000  0.25000000  1
  Au  Au1  1  0.00000000  0.50000000  0.75000000  1
  O  O1  1  0.24420950  0.50000000  0.26161180  1
  O  O1  1  0.75579050  0.50000000  0.26161180  1
  O  O1  1  0.00000000  0.74420950  0.23838820  1
  O  O1  1  0.00000000  0.25579050  0.23838820  1
  O  O1  1  0.00000000  0.25579050  0.76161180  1
  O  O1  1  0.00000000  0.74420950  0.76161180  1
  O  O1  1  0.75579050  0.50000000  0.73838820  1
  O  O1  1  0.24420950  0.50000000  0.73838820  1
  Sr  Sr1  1  0.27755187  0.72244813  0.00000000  1
  Sr  Sr1  1  0.22244813  0.77755187  0.50000000  1
  Sr  Sr1  1  0.72244813  0.72244813  0.00000000  1
  Sr  Sr1  1  0.77755187  0.77755187  0.50000000  1
  Sr  Sr2  1  0.50000000  0.50000000  0.50000000  1
  Au  Au1  1  0.50000000  0.00000000  0.75000000  1
  Au  Au1  1  0.50000000  0.00000000  0.25000000  1
  O  O1  1  0.74420950  0.00000000  0.76161180  1
  O  O1  1  0.25579050  0.00000000  0.76161180  1
  O  O1  1  0.50000000  0.24420950  0.73838820  1
  O  O1  1  0.50000000  0.75579050  0.73838820  1
  O  O1  1  0.50000000  0.75579050  0.26161180  1
  O  O1  1  0.50000000  0.24420950  0.26161180  1
  O  O1  1  0.25579050  0.00000000  0.23838820  1
  O  O1  1  0.74420950  0.00000000  0.23838820  1
