# generated using pymatgen
data_SrAgO2
_symmetry_space_group_name_H-M   'P 1'
_cell_length_a   7.19862321
_cell_length_b   9.44102369
_cell_length_c   3.57157030
_cell_angle_alpha   90.00000000
_cell_angle_beta   90.57749330
_cell_angle_gamma   90.00000000
_symmetry_Int_Tables_number   1
_chemical_formula_structural   SrAgO2
_chemical_formula_sum   'Sr4 Ag4 O8'
_cell_volume   242.72006059
_cell_formula_units_Z   4
loop_
 _symmetry_equiv_pos_site_id
 _symmetry_equiv_pos_as_xyz
  1  'x, y, z'
loop_
 _atom_site_type_symbol
 _atom_site_label
 _atom_site_symmetry_multiplicity
 _atom_site_fract_x
 _atom_site_fract_y
 _atom_site_fract_z
 _atom_site_occupancy
  Sr  Sr1  1  0.75000000  0.75000000  0.00000000  1
  Sr  Sr1  1  0.75000000  0.25000000  0.00000000  1
  Ag  Ag1  1  0.00000000  0.00000000  0.50000000  1
  Ag  Ag2  1  0.50000000  0.00000000  0.50000000  1
  O  O1  1  0.50000000  0.78201564  0.50000000  1
  O  O1  1  0.50000000  0.21798436  0.50000000  1
  O  O2  1  0.24983422  0.00000000  0.22452920  1
  O  O2  1  0.75016578  0.00000000  0.77547080  1
  Sr  Sr1  1  0.25000000  0.25000000  0.00000000  1
  Sr  Sr1  1  0.25000000  0.75000000  0.00000000  1
  Ag  Ag1  1  0.50000000  0.50000000  0.50000000  1
  Ag  Ag2  1  0.00000000  0.50000000  0.50000000  1
  O  O1  1  0.00000000  0.28201564  0.50000000  1
  O  O1  1  0.00000000  0.71798436  0.50000000  1
  O  O2  1  0.74983422  0.50000000  0.22452920  1
  O  O2  1  0.25016578  0.50000000  0.77547080  1
