# generated using pymatgen
data_SrAl4O7
_symmetry_space_group_name_H-M   'P 1'
_cell_length_a   13.09235418
_cell_length_b   9.05026980
_cell_length_c   5.54923339
_cell_angle_alpha   90.00000000
_cell_angle_beta   106.56627032
_cell_angle_gamma   90.00000000
_symmetry_Int_Tables_number   1
_chemical_formula_structural   SrAl4O7
_chemical_formula_sum   'Sr4 Al16 O28'
_cell_volume   630.23151503
_cell_formula_units_Z   4
loop_
 _symmetry_equiv_pos_site_id
 _symmetry_equiv_pos_as_xyz
  1  'x, y, z'
loop_
 _atom_site_type_symbol
 _atom_site_label
 _atom_site_symmetry_multiplicity
 _atom_site_fract_x
 _atom_site_fract_y
 _atom_site_fract_z
 _atom_site_occupancy
  Sr  Sr1  1  0.00000000  0.81296626  0.75000000  1
  Sr  Sr1  1  0.00000000  0.18703374  0.25000000  1
  Al  Al1  1  0.87937516  0.44069494  0.74133319  1
  Al  Al1  1  0.12062484  0.44069494  0.75866681  1
  Al  Al1  1  0.12062484  0.55930506  0.25866681  1
  Al  Al1  1  0.87937516  0.55930506  0.24133319  1
  Al  Al2  1  0.33182922  0.58703818  0.70418374  1
  Al  Al2  1  0.66817078  0.58703818  0.79581626  1
  Al  Al2  1  0.66817078  0.41296182  0.29581626  1
  Al  Al2  1  0.33182922  0.41296182  0.20418374  1
  O  O1  1  0.80959385  0.44487170  0.40746653  1
  O  O1  1  0.19040615  0.44487170  0.09253347  1
  O  O1  1  0.19040615  0.55512830  0.59253347  1
  O  O1  1  0.80959385  0.55512830  0.90746653  1
  O  O2  1  0.87622124  0.25851436  0.83357577  1
  O  O2  1  0.12377876  0.25851436  0.66642423  1
  O  O2  1  0.12377876  0.74148564  0.16642423  1
  O  O2  1  0.87622124  0.74148564  0.33357577  1
  O  O3  1  0.38201979  0.53884008  0.45338331  1
  O  O3  1  0.61798021  0.53884008  0.04661669  1
  O  O4  1  0.00000000  0.47181552  0.25000000  1
  O  O4  1  0.00000000  0.52818448  0.75000000  1
  O  O3  1  0.38201979  0.46115992  0.95338331  1
  O  O3  1  0.61798021  0.46115992  0.54661669  1
  Sr  Sr1  1  0.50000000  0.31296626  0.75000000  1
  Sr  Sr1  1  0.50000000  0.68703374  0.25000000  1
  Al  Al1  1  0.37937516  0.94069494  0.74133319  1
  Al  Al1  1  0.62062484  0.94069494  0.75866681  1
  Al  Al1  1  0.62062484  0.05930506  0.25866681  1
  Al  Al1  1  0.37937516  0.05930506  0.24133319  1
  Al  Al2  1  0.83182922  0.08703818  0.70418374  1
  Al  Al2  1  0.16817078  0.08703818  0.79581626  1
  Al  Al2  1  0.16817078  0.91296182  0.29581626  1
  Al  Al2  1  0.83182922  0.91296182  0.20418374  1
  O  O1  1  0.30959385  0.94487170  0.40746653  1
  O  O1  1  0.69040615  0.94487170  0.09253347  1
  O  O1  1  0.69040615  0.05512830  0.59253347  1
  O  O1  1  0.30959385  0.05512830  0.90746653  1
  O  O2  1  0.37622124  0.75851436  0.83357577  1
  O  O2  1  0.62377876  0.75851436  0.66642423  1
  O  O2  1  0.62377876  0.24148564  0.16642423  1
  O  O2  1  0.37622124  0.24148564  0.33357577  1
  O  O3  1  0.88201979  0.03884008  0.45338331  1
  O  O3  1  0.11798021  0.03884008  0.04661669  1
  O  O4  1  0.50000000  0.97181552  0.25000000  1
  O  O4  1  0.50000000  0.02818448  0.75000000  1
  O  O3  1  0.88201979  0.96115992  0.95338331  1
  O  O3  1  0.11798021  0.96115992  0.54661669  1
