# generated using pymatgen
data_SrAl2(SiO4)2
_symmetry_space_group_name_H-M   'P 1'
_cell_length_a   5.19922535
_cell_length_b   5.19922535
_cell_length_c   15.23541454
_cell_angle_alpha   90.00000000
_cell_angle_beta   90.00000000
_cell_angle_gamma   120.00000000
_symmetry_Int_Tables_number   1
_chemical_formula_structural   SrAl2(SiO4)2
_chemical_formula_sum   'Sr2 Al4 Si4 O16'
_cell_volume   356.66639326
_cell_formula_units_Z   2
loop_
 _symmetry_equiv_pos_site_id
 _symmetry_equiv_pos_as_xyz
  1  'x, y, z'
loop_
 _atom_site_type_symbol
 _atom_site_label
 _atom_site_symmetry_multiplicity
 _atom_site_fract_x
 _atom_site_fract_y
 _atom_site_fract_z
 _atom_site_occupancy
  Sr  Sr1  1  0.00000000  0.00000000  0.50000000  1
  Sr  Sr1  1  0.00000000  0.00000000  0.00000000  1
  Al  Al1  1  0.66666667  0.33333333  0.35573244  1
  Al  Al1  1  0.33333333  0.66666667  0.64426756  1
  Al  Al1  1  0.66666667  0.33333333  0.85573244  1
  Al  Al1  1  0.33333333  0.66666667  0.14426756  1
  Si  Si1  1  0.33333333  0.66666667  0.36105840  1
  Si  Si1  1  0.66666667  0.33333333  0.63894160  1
  Si  Si1  1  0.33333333  0.66666667  0.86105840  1
  Si  Si1  1  0.66666667  0.33333333  0.13894160  1
  O  O1  1  0.66666667  0.33333333  0.24357608  1
  O  O1  1  0.33333333  0.66666667  0.25642392  1
  O  O1  1  0.33333333  0.66666667  0.75642392  1
  O  O1  1  0.66666667  0.33333333  0.74357608  1
  O  O2  1  0.39434943  0.98799851  0.40014356  1
  O  O2  1  0.01200149  0.40635092  0.40014356  1
  O  O2  1  0.59364908  0.60565057  0.40014356  1
  O  O2  1  0.60565057  0.01200149  0.59985644  1
  O  O2  1  0.98799851  0.59364908  0.59985644  1
  O  O2  1  0.40635092  0.39434943  0.59985644  1
  O  O2  1  0.59364908  0.98799851  0.90014356  1
  O  O2  1  0.01200149  0.60565057  0.90014356  1
  O  O2  1  0.39434943  0.40635092  0.90014356  1
  O  O2  1  0.40635092  0.01200149  0.09985644  1
  O  O2  1  0.98799851  0.39434943  0.09985644  1
  O  O2  1  0.60565057  0.59364908  0.09985644  1
