# generated using pymatgen
data_SrBe3O4
_symmetry_space_group_name_H-M   'P 1'
_cell_length_a   4.58971239
_cell_length_b   4.58971239
_cell_length_c   8.90934302
_cell_angle_alpha   90.00000000
_cell_angle_beta   90.00000000
_cell_angle_gamma   120.00000000
_symmetry_Int_Tables_number   1
_chemical_formula_structural   SrBe3O4
_chemical_formula_sum   'Sr2 Be6 O8'
_cell_volume   162.53513461
_cell_formula_units_Z   2
loop_
 _symmetry_equiv_pos_site_id
 _symmetry_equiv_pos_as_xyz
  1  'x, y, z'
loop_
 _atom_site_type_symbol
 _atom_site_label
 _atom_site_symmetry_multiplicity
 _atom_site_fract_x
 _atom_site_fract_y
 _atom_site_fract_z
 _atom_site_occupancy
  Sr  Sr1  1  0.33333333  0.66666667  0.75000000  1
  Sr  Sr1  1  0.66666667  0.33333333  0.25000000  1
  Be  Be1  1  0.00000000  0.00000000  0.00000000  1
  Be  Be1  1  0.00000000  0.00000000  0.50000000  1
  Be  Be2  1  0.66666667  0.33333333  0.57111140  1
  Be  Be2  1  0.66666667  0.33333333  0.92888860  1
  Be  Be2  1  0.33333333  0.66666667  0.42888860  1
  Be  Be2  1  0.33333333  0.66666667  0.07111140  1
  O  O1  1  0.00000000  0.33502434  0.50000000  1
  O  O1  1  0.33502434  0.00000000  0.00000000  1
  O  O2  1  0.33333333  0.66666667  0.25000000  1
  O  O2  1  0.66666667  0.33333333  0.75000000  1
  O  O1  1  0.00000000  0.33502434  0.00000000  1
  O  O1  1  0.33502434  0.00000000  0.50000000  1
  O  O1  1  0.66497566  0.66497566  0.50000000  1
  O  O1  1  0.66497566  0.66497566  0.00000000  1
