# generated using pymatgen
data_SrBiO3
_symmetry_space_group_name_H-M   'P 1'
_cell_length_a   5.94010500
_cell_length_b   6.13421984
_cell_length_c   10.35503445
_cell_angle_alpha   90.00000000
_cell_angle_beta   124.94796487
_cell_angle_gamma   90.00000000
_symmetry_Int_Tables_number   1
_chemical_formula_structural   SrBiO3
_chemical_formula_sum   'Sr4 Bi4 O12'
_cell_volume   309.27544043
_cell_formula_units_Z   4
loop_
 _symmetry_equiv_pos_site_id
 _symmetry_equiv_pos_as_xyz
  1  'x, y, z'
loop_
 _atom_site_type_symbol
 _atom_site_label
 _atom_site_symmetry_multiplicity
 _atom_site_fract_x
 _atom_site_fract_y
 _atom_site_fract_z
 _atom_site_occupancy
  Sr  Sr1  1  0.26472423  0.55192171  0.24918446  1
  Sr  Sr1  1  0.73527577  0.05192171  0.25081554  1
  Sr  Sr1  1  0.73527577  0.44807829  0.75081554  1
  Sr  Sr1  1  0.26472423  0.94807829  0.74918446  1
  Bi  Bi1  1  0.00000000  0.00000000  0.00000000  1
  Bi  Bi1  1  0.00000000  0.50000000  0.50000000  1
  Bi  Bi2  1  0.50000000  0.00000000  0.50000000  1
  Bi  Bi2  1  0.50000000  0.50000000  0.00000000  1
  O  O1  1  0.37108416  0.78652584  0.06120484  1
  O  O1  1  0.62891584  0.28652584  0.43879516  1
  O  O1  1  0.62891584  0.21347416  0.93879516  1
  O  O1  1  0.37108416  0.71347416  0.56120484  1
  O  O2  1  0.26609237  0.30520059  0.05524746  1
  O  O2  1  0.73390763  0.80520059  0.44475254  1
  O  O2  1  0.73390763  0.69479941  0.94475254  1
  O  O2  1  0.26609237  0.19479941  0.55524746  1
  O  O3  1  0.84857263  0.45512341  0.23930972  1
  O  O3  1  0.15142737  0.95512341  0.26069028  1
  O  O3  1  0.15142737  0.54487659  0.76069028  1
  O  O3  1  0.84857263  0.04487659  0.73930972  1
