# generated using pymatgen
data_SrCrO4
_symmetry_space_group_name_H-M   'P 1'
_cell_length_a   6.69715733
_cell_length_b   7.38576156
_cell_length_c   8.56344044
_cell_angle_alpha   90.00000000
_cell_angle_beta   126.37639897
_cell_angle_gamma   90.00000000
_symmetry_Int_Tables_number   1
_chemical_formula_structural   SrCrO4
_chemical_formula_sum   'Sr4 Cr4 O16'
_cell_volume   341.03934084
_cell_formula_units_Z   4
loop_
 _symmetry_equiv_pos_site_id
 _symmetry_equiv_pos_as_xyz
  1  'x, y, z'
loop_
 _atom_site_type_symbol
 _atom_site_label
 _atom_site_symmetry_multiplicity
 _atom_site_fract_x
 _atom_site_fract_y
 _atom_site_fract_z
 _atom_site_occupancy
  Sr  Sr1  1  0.67161286  0.34237678  0.77301758  1
  Sr  Sr1  1  0.32838714  0.84237678  0.72698242  1
  Sr  Sr1  1  0.32838714  0.65762322  0.22698242  1
  Sr  Sr1  1  0.67161286  0.15762322  0.27301758  1
  Cr  Cr1  1  0.18854308  0.33470480  0.80301330  1
  Cr  Cr1  1  0.81145692  0.83470480  0.69698670  1
  Cr  Cr1  1  0.81145692  0.66529520  0.19698670  1
  Cr  Cr1  1  0.18854308  0.16529520  0.30301330  1
  O  O1  1  0.90378920  0.27856920  0.61971516  1
  O  O1  1  0.09621080  0.77856920  0.88028484  1
  O  O1  1  0.09621080  0.72143080  0.38028484  1
  O  O1  1  0.90378920  0.22143080  0.11971516  1
  O  O2  1  0.30226862  0.49693762  0.74254262  1
  O  O2  1  0.69773138  0.99693762  0.75745738  1
  O  O2  1  0.69773138  0.50306238  0.25745738  1
  O  O2  1  0.30226862  0.00306238  0.24254262  1
  O  O3  1  0.16813868  0.39938162  0.97766568  1
  O  O3  1  0.83186132  0.89938162  0.52233432  1
  O  O3  1  0.83186132  0.60061838  0.02233432  1
  O  O3  1  0.16813868  0.10061838  0.47766568  1
  O  O4  1  0.38318248  0.15995036  0.88172732  1
  O  O4  1  0.61681752  0.65995036  0.61827268  1
  O  O4  1  0.61681752  0.84004964  0.11827268  1
  O  O4  1  0.38318248  0.34004964  0.38172732  1
