# generated using pymatgen
data_SrGa2B2O7
_symmetry_space_group_name_H-M   'P 1'
_cell_length_a   11.74086673
_cell_length_b   8.34513463
_cell_length_c   5.68824897
_cell_angle_alpha   90.00000000
_cell_angle_beta   90.00000000
_cell_angle_gamma   90.00000000
_symmetry_Int_Tables_number   1
_chemical_formula_structural   SrGa2B2O7
_chemical_formula_sum   'Sr4 Ga8 B8 O28'
_cell_volume   557.32959165
_cell_formula_units_Z   4
loop_
 _symmetry_equiv_pos_site_id
 _symmetry_equiv_pos_as_xyz
  1  'x, y, z'
loop_
 _atom_site_type_symbol
 _atom_site_label
 _atom_site_symmetry_multiplicity
 _atom_site_fract_x
 _atom_site_fract_y
 _atom_site_fract_z
 _atom_site_occupancy
  Sr  Sr1  1  0.00000000  0.18189632  0.75000000  1
  Sr  Sr1  1  0.00000000  0.81810368  0.25000000  1
  Ga  Ga1  1  0.29043131  0.58460712  0.25000000  1
  Ga  Ga1  1  0.29043131  0.41539288  0.75000000  1
  Ga  Ga1  1  0.70956869  0.58460712  0.25000000  1
  Ga  Ga1  1  0.70956869  0.41539288  0.75000000  1
  B  B1  1  0.10902524  0.59516257  0.75000000  1
  B  B1  1  0.89097476  0.59516257  0.75000000  1
  B  B1  1  0.10902524  0.40483743  0.25000000  1
  B  B1  1  0.89097476  0.40483743  0.25000000  1
  O  O1  1  0.00000000  0.66276928  0.75000000  1
  O  O2  1  0.37127591  0.50000000  0.00000000  1
  O  O3  1  0.12955118  0.56726416  0.25000000  1
  O  O1  1  0.00000000  0.33723072  0.25000000  1
  O  O2  1  0.62872409  0.50000000  0.00000000  1
  O  O4  1  0.79964746  0.69474624  0.75000000  1
  O  O4  1  0.20035254  0.69474624  0.75000000  1
  O  O4  1  0.79964746  0.30525376  0.25000000  1
  O  O3  1  0.87044882  0.43273584  0.75000000  1
  O  O3  1  0.87044882  0.56726416  0.25000000  1
  O  O4  1  0.20035254  0.30525376  0.25000000  1
  O  O2  1  0.37127591  0.50000000  0.50000000  1
  O  O2  1  0.62872409  0.50000000  0.50000000  1
  O  O3  1  0.12955118  0.43273584  0.75000000  1
  Sr  Sr1  1  0.50000000  0.68189632  0.75000000  1
  Sr  Sr1  1  0.50000000  0.31810368  0.25000000  1
  Ga  Ga1  1  0.79043131  0.08460712  0.25000000  1
  Ga  Ga1  1  0.79043131  0.91539288  0.75000000  1
  Ga  Ga1  1  0.20956869  0.08460712  0.25000000  1
  Ga  Ga1  1  0.20956869  0.91539288  0.75000000  1
  B  B1  1  0.60902524  0.09516257  0.75000000  1
  B  B1  1  0.39097476  0.09516257  0.75000000  1
  B  B1  1  0.60902524  0.90483743  0.25000000  1
  B  B1  1  0.39097476  0.90483743  0.25000000  1
  O  O1  1  0.50000000  0.16276928  0.75000000  1
  O  O2  1  0.87127591  0.00000000  0.00000000  1
  O  O3  1  0.62955118  0.06726416  0.25000000  1
  O  O1  1  0.50000000  0.83723072  0.25000000  1
  O  O2  1  0.12872409  0.00000000  0.00000000  1
  O  O4  1  0.29964746  0.19474624  0.75000000  1
  O  O4  1  0.70035254  0.19474624  0.75000000  1
  O  O4  1  0.29964746  0.80525376  0.25000000  1
  O  O3  1  0.37044882  0.93273584  0.75000000  1
  O  O3  1  0.37044882  0.06726416  0.25000000  1
  O  O4  1  0.70035254  0.80525376  0.25000000  1
  O  O2  1  0.87127591  0.00000000  0.50000000  1
  O  O2  1  0.12872409  0.00000000  0.50000000  1
  O  O3  1  0.62955118  0.93273584  0.75000000  1
