# generated using pymatgen
data_SrGa4O7
_symmetry_space_group_name_H-M   'P 1'
_cell_length_a   13.50439192
_cell_length_b   9.21288794
_cell_length_c   5.71068648
_cell_angle_alpha   90.00000000
_cell_angle_beta   105.91730741
_cell_angle_gamma   90.00000000
_symmetry_Int_Tables_number   1
_chemical_formula_structural   SrGa4O7
_chemical_formula_sum   'Sr4 Ga16 O28'
_cell_volume   683.25059689
_cell_formula_units_Z   4
loop_
 _symmetry_equiv_pos_site_id
 _symmetry_equiv_pos_as_xyz
  1  'x, y, z'
loop_
 _atom_site_type_symbol
 _atom_site_label
 _atom_site_symmetry_multiplicity
 _atom_site_fract_x
 _atom_site_fract_y
 _atom_site_fract_z
 _atom_site_occupancy
  Sr  Sr1  1  0.00000000  0.31455002  0.25000000  1
  Sr  Sr1  1  0.00000000  0.68544998  0.75000000  1
  Ga  Ga1  1  0.83173714  0.58825550  0.20183900  1
  Ga  Ga1  1  0.16826286  0.58825550  0.29816100  1
  Ga  Ga1  1  0.16826286  0.41174450  0.79816100  1
  Ga  Ga1  1  0.83173714  0.41174450  0.70183900  1
  Ga  Ga2  1  0.38111349  0.43946010  0.24400093  1
  Ga  Ga2  1  0.61888651  0.43946010  0.25599907  1
  Ga  Ga2  1  0.38111349  0.56053990  0.74400093  1
  Ga  Ga2  1  0.61888651  0.56053990  0.75599907  1
  O  O1  1  0.00000000  0.03681246  0.25000000  1
  O  O1  1  0.00000000  0.96318754  0.75000000  1
  O  O2  1  0.88024705  0.75696666  0.35700105  1
  O  O2  1  0.11975295  0.75696666  0.14299895  1
  O  O2  1  0.11975295  0.24303334  0.64299895  1
  O  O2  1  0.88024705  0.24303334  0.85700105  1
  O  O3  1  0.11539264  0.45361650  0.05389458  1
  O  O3  1  0.88460736  0.45361650  0.44610542  1
  O  O4  1  0.68853619  0.43652668  0.59252171  1
  O  O4  1  0.31146381  0.43652668  0.90747829  1
  O  O4  1  0.31146381  0.56347332  0.40747829  1
  O  O4  1  0.68853619  0.56347332  0.09252171  1
  O  O3  1  0.11539264  0.54638350  0.55389458  1
  O  O3  1  0.88460736  0.54638350  0.94610542  1
  Sr  Sr1  1  0.50000000  0.81455002  0.25000000  1
  Sr  Sr1  1  0.50000000  0.18544998  0.75000000  1
  Ga  Ga1  1  0.33173714  0.08825550  0.20183900  1
  Ga  Ga1  1  0.66826286  0.08825550  0.29816100  1
  Ga  Ga1  1  0.66826286  0.91174450  0.79816100  1
  Ga  Ga1  1  0.33173714  0.91174450  0.70183900  1
  Ga  Ga2  1  0.88111349  0.93946010  0.24400093  1
  Ga  Ga2  1  0.11888651  0.93946010  0.25599907  1
  Ga  Ga2  1  0.88111349  0.06053990  0.74400093  1
  Ga  Ga2  1  0.11888651  0.06053990  0.75599907  1
  O  O1  1  0.50000000  0.53681246  0.25000000  1
  O  O1  1  0.50000000  0.46318754  0.75000000  1
  O  O2  1  0.38024705  0.25696666  0.35700105  1
  O  O2  1  0.61975295  0.25696666  0.14299895  1
  O  O2  1  0.61975295  0.74303334  0.64299895  1
  O  O2  1  0.38024705  0.74303334  0.85700105  1
  O  O3  1  0.61539264  0.95361650  0.05389458  1
  O  O3  1  0.38460736  0.95361650  0.44610542  1
  O  O4  1  0.18853619  0.93652668  0.59252171  1
  O  O4  1  0.81146381  0.93652668  0.90747829  1
  O  O4  1  0.81146381  0.06347332  0.40747829  1
  O  O4  1  0.18853619  0.06347332  0.09252171  1
  O  O3  1  0.61539264  0.04638350  0.55389458  1
  O  O3  1  0.38460736  0.04638350  0.94610542  1
