# generated using pymatgen
data_SrGePbO4
_symmetry_space_group_name_H-M   'P 1'
_cell_length_a   6.01611504
_cell_length_b   7.24626131
_cell_length_c   9.97187781
_cell_angle_alpha   90.00000000
_cell_angle_beta   90.00000000
_cell_angle_gamma   90.00000000
_symmetry_Int_Tables_number   1
_chemical_formula_structural   SrGePbO4
_chemical_formula_sum   'Sr4 Ge4 Pb4 O16'
_cell_volume   434.71744769
_cell_formula_units_Z   4
loop_
 _symmetry_equiv_pos_site_id
 _symmetry_equiv_pos_as_xyz
  1  'x, y, z'
loop_
 _atom_site_type_symbol
 _atom_site_label
 _atom_site_symmetry_multiplicity
 _atom_site_fract_x
 _atom_site_fract_y
 _atom_site_fract_z
 _atom_site_occupancy
  Sr  Sr1  1  0.47725980  0.74829174  0.79451856  1
  Sr  Sr1  1  0.97725980  0.75170826  0.20548144  1
  Sr  Sr1  1  0.02274020  0.25170826  0.29451856  1
  Sr  Sr1  1  0.52274020  0.24829174  0.70548144  1
  Ge  Ge1  1  0.52283661  0.96382034  0.08700970  1
  Ge  Ge1  1  0.02283661  0.53617966  0.91299030  1
  Ge  Ge1  1  0.97716339  0.03617966  0.58700970  1
  Ge  Ge1  1  0.47716339  0.46382034  0.41299030  1
  Pb  Pb1  1  0.43151684  0.93101376  0.40668188  1
  Pb  Pb1  1  0.93151684  0.56898624  0.59331812  1
  Pb  Pb1  1  0.06848316  0.06898624  0.90668188  1
  Pb  Pb1  1  0.56848316  0.43101376  0.09331812  1
  O  O1  1  0.45452881  0.06849750  0.92924366  1
  O  O1  1  0.95452881  0.43150250  0.07075634  1
  O  O1  1  0.04547119  0.93150250  0.42924366  1
  O  O1  1  0.54547119  0.56849750  0.57075634  1
  O  O2  1  0.74888144  0.05716676  0.17910384  1
  O  O2  1  0.24888144  0.44283324  0.82089616  1
  O  O2  1  0.75111856  0.94283324  0.67910384  1
  O  O2  1  0.25111856  0.55716676  0.32089616  1
  O  O3  1  0.61534592  0.73516882  0.04537932  1
  O  O3  1  0.11534592  0.76483118  0.95462068  1
  O  O3  1  0.88465408  0.26483118  0.54537932  1
  O  O3  1  0.38465408  0.23516882  0.45462068  1
  O  O4  1  0.28286116  0.99121226  0.19298312  1
  O  O4  1  0.78286116  0.50878774  0.80701688  1
  O  O4  1  0.21713884  0.00878774  0.69298312  1
  O  O4  1  0.71713884  0.49121226  0.30701688  1
