# generated using pymatgen
data_SrHfO3
_symmetry_space_group_name_H-M   'P 1'
_cell_length_a   5.77254929
_cell_length_b   8.12200049
_cell_length_c   5.73812791
_cell_angle_alpha   90.00000000
_cell_angle_beta   90.00000000
_cell_angle_gamma   90.00000000
_symmetry_Int_Tables_number   1
_chemical_formula_structural   SrHfO3
_chemical_formula_sum   'Sr4 Hf4 O12'
_cell_volume   269.03010865
_cell_formula_units_Z   4
loop_
 _symmetry_equiv_pos_site_id
 _symmetry_equiv_pos_as_xyz
  1  'x, y, z'
loop_
 _atom_site_type_symbol
 _atom_site_label
 _atom_site_symmetry_multiplicity
 _atom_site_fract_x
 _atom_site_fract_y
 _atom_site_fract_z
 _atom_site_occupancy
  Sr  Sr1  1  0.52811038  0.25000000  0.00636649  1
  Sr  Sr1  1  0.97188962  0.75000000  0.50636649  1
  Sr  Sr1  1  0.02811038  0.25000000  0.49363351  1
  Sr  Sr1  1  0.47188962  0.75000000  0.99363351  1
  Hf  Hf1  1  0.00000000  0.00000000  0.00000000  1
  Hf  Hf1  1  0.50000000  0.00000000  0.50000000  1
  Hf  Hf1  1  0.50000000  0.50000000  0.50000000  1
  Hf  Hf1  1  0.00000000  0.50000000  0.00000000  1
  O  O1  1  0.28255973  0.46247892  0.21734558  1
  O  O1  1  0.21744027  0.53752108  0.71734558  1
  O  O1  1  0.78255973  0.03752108  0.28265442  1
  O  O1  1  0.71744027  0.96247892  0.78265442  1
  O  O1  1  0.71744027  0.53752108  0.78265442  1
  O  O1  1  0.78255973  0.46247892  0.28265442  1
  O  O1  1  0.21744027  0.96247892  0.71734558  1
  O  O1  1  0.28255973  0.03752108  0.21734558  1
  O  O2  1  0.98394612  0.25000000  0.92885950  1
  O  O2  1  0.51605388  0.75000000  0.42885950  1
  O  O2  1  0.48394612  0.25000000  0.57114050  1
  O  O2  1  0.01605388  0.75000000  0.07114050  1
