# generated using pymatgen
data_SrIn2O4
_symmetry_space_group_name_H-M   'P 1'
_cell_length_a   9.84558661
_cell_length_b   3.29343644
_cell_length_c   11.60887491
_cell_angle_alpha   90.00000000
_cell_angle_beta   90.00000000
_cell_angle_gamma   90.00000000
_symmetry_Int_Tables_number   1
_chemical_formula_structural   SrIn2O4
_chemical_formula_sum   'Sr4 In8 O16'
_cell_volume   376.42721527
_cell_formula_units_Z   4
loop_
 _symmetry_equiv_pos_site_id
 _symmetry_equiv_pos_as_xyz
  1  'x, y, z'
loop_
 _atom_site_type_symbol
 _atom_site_label
 _atom_site_symmetry_multiplicity
 _atom_site_fract_x
 _atom_site_fract_y
 _atom_site_fract_z
 _atom_site_occupancy
  Sr  Sr1  1  0.25590772  0.75000000  0.84608190  1
  Sr  Sr1  1  0.74409228  0.25000000  0.15391810  1
  Sr  Sr1  1  0.75590772  0.75000000  0.65391810  1
  Sr  Sr1  1  0.24409228  0.25000000  0.34608190  1
  In  In1  1  0.91857010  0.75000000  0.39479026  1
  In  In1  1  0.08142990  0.25000000  0.60520974  1
  In  In1  1  0.41857010  0.75000000  0.10520974  1
  In  In1  1  0.58142990  0.25000000  0.89479026  1
  In  In2  1  0.93017815  0.75000000  0.88907234  1
  In  In2  1  0.06982185  0.25000000  0.11092766  1
  In  In2  1  0.43017815  0.75000000  0.61092766  1
  In  In2  1  0.56982185  0.25000000  0.38907234  1
  O  O1  1  0.70663347  0.75000000  0.33044268  1
  O  O1  1  0.29336653  0.25000000  0.66955732  1
  O  O1  1  0.20663347  0.75000000  0.16955732  1
  O  O1  1  0.79336653  0.25000000  0.83044268  1
  O  O2  1  0.62346751  0.75000000  0.02212531  1
  O  O2  1  0.37653249  0.25000000  0.97787469  1
  O  O2  1  0.12346751  0.75000000  0.47787469  1
  O  O2  1  0.87653249  0.25000000  0.52212531  1
  O  O3  1  0.02260162  0.75000000  0.71710752  1
  O  O3  1  0.97739838  0.25000000  0.28289248  1
  O  O3  1  0.52260162  0.75000000  0.78289248  1
  O  O3  1  0.47739838  0.25000000  0.21710752  1
  O  O4  1  0.91804672  0.75000000  0.07588416  1
  O  O4  1  0.08195328  0.25000000  0.92411584  1
  O  O4  1  0.41804672  0.75000000  0.42411584  1
  O  O4  1  0.58195328  0.25000000  0.57588416  1
