# generated using pymatgen
data_SrMoO4
_symmetry_space_group_name_H-M   'P 1'
_cell_length_a   5.40121238
_cell_length_b   5.40121238
_cell_length_c   11.94694779
_cell_angle_alpha   90.00000000
_cell_angle_beta   90.00000000
_cell_angle_gamma   90.00000000
_symmetry_Int_Tables_number   1
_chemical_formula_structural   SrMoO4
_chemical_formula_sum   'Sr4 Mo4 O16'
_cell_volume   348.52944427
_cell_formula_units_Z   4
loop_
 _symmetry_equiv_pos_site_id
 _symmetry_equiv_pos_as_xyz
  1  'x, y, z'
loop_
 _atom_site_type_symbol
 _atom_site_label
 _atom_site_symmetry_multiplicity
 _atom_site_fract_x
 _atom_site_fract_y
 _atom_site_fract_z
 _atom_site_occupancy
  Sr  Sr1  1  0.50000000  0.00000000  0.25000000  1
  Sr  Sr1  1  0.00000000  0.00000000  0.50000000  1
  Mo  Mo1  1  0.00000000  0.50000000  0.25000000  1
  Mo  Mo1  1  0.50000000  0.50000000  0.50000000  1
  O  O1  1  0.73833458  0.35874134  0.58288574  1
  O  O1  1  0.73833458  0.85874134  0.66711426  1
  O  O1  1  0.35874134  0.26166542  0.41711426  1
  O  O1  1  0.64125866  0.73833458  0.41711426  1
  O  O1  1  0.85874134  0.26166542  0.33288574  1
  O  O1  1  0.26166542  0.14125866  0.66711426  1
  O  O1  1  0.26166542  0.64125866  0.58288574  1
  O  O1  1  0.14125866  0.73833458  0.33288574  1
  Sr  Sr1  1  0.00000000  0.50000000  0.75000000  1
  Sr  Sr1  1  0.50000000  0.50000000  0.00000000  1
  Mo  Mo1  1  0.50000000  0.00000000  0.75000000  1
  Mo  Mo1  1  0.00000000  0.00000000  0.00000000  1
  O  O1  1  0.23833458  0.85874134  0.08288574  1
  O  O1  1  0.23833458  0.35874134  0.16711426  1
  O  O1  1  0.85874134  0.76166542  0.91711426  1
  O  O1  1  0.14125866  0.23833458  0.91711426  1
  O  O1  1  0.35874134  0.76166542  0.83288574  1
  O  O1  1  0.76166542  0.64125866  0.16711426  1
  O  O1  1  0.76166542  0.14125866  0.08288574  1
  O  O1  1  0.64125866  0.23833458  0.83288574  1
