# generated using pymatgen
data_SrSc2O4
_symmetry_space_group_name_H-M   'P 1'
_cell_length_a   9.61619485
_cell_length_b   3.16434127
_cell_length_c   11.21252492
_cell_angle_alpha   90.00000000
_cell_angle_beta   90.00000000
_cell_angle_gamma   90.00000000
_symmetry_Int_Tables_number   1
_chemical_formula_structural   SrSc2O4
_chemical_formula_sum   'Sr4 Sc8 O16'
_cell_volume   341.18504837
_cell_formula_units_Z   4
loop_
 _symmetry_equiv_pos_site_id
 _symmetry_equiv_pos_as_xyz
  1  'x, y, z'
loop_
 _atom_site_type_symbol
 _atom_site_label
 _atom_site_symmetry_multiplicity
 _atom_site_fract_x
 _atom_site_fract_y
 _atom_site_fract_z
 _atom_site_occupancy
  Sr  Sr1  1  0.24496860  0.75000000  0.65412783  1
  Sr  Sr1  1  0.25503140  0.25000000  0.15412783  1
  Sr  Sr1  1  0.74496860  0.75000000  0.84587217  1
  Sr  Sr1  1  0.75503140  0.25000000  0.34587217  1
  Sc  Sc1  1  0.07051983  0.75000000  0.89038590  1
  Sc  Sc2  1  0.07832367  0.75000000  0.39400916  1
  Sc  Sc2  1  0.42167633  0.25000000  0.89400916  1
  Sc  Sc1  1  0.42948017  0.25000000  0.39038590  1
  Sc  Sc1  1  0.57051983  0.75000000  0.60961410  1
  Sc  Sc2  1  0.57832367  0.75000000  0.10599084  1
  Sc  Sc2  1  0.92167633  0.25000000  0.60599084  1
  Sc  Sc1  1  0.92948017  0.25000000  0.10961410  1
  O  O1  1  0.02123400  0.25000000  0.28320339  1
  O  O2  1  0.07386473  0.75000000  0.07439017  1
  O  O3  1  0.11696214  0.25000000  0.52020905  1
  O  O4  1  0.20787873  0.25000000  0.84027097  1
  O  O4  1  0.29212127  0.75000000  0.34027097  1
  O  O3  1  0.38303786  0.75000000  0.02020905  1
  O  O2  1  0.42613527  0.25000000  0.57439017  1
  O  O1  1  0.47876600  0.75000000  0.78320339  1
  O  O1  1  0.52123400  0.25000000  0.21679661  1
  O  O2  1  0.57386473  0.75000000  0.42560983  1
  O  O3  1  0.61696214  0.25000000  0.97979095  1
  O  O4  1  0.70787873  0.25000000  0.65972903  1
  O  O4  1  0.79212127  0.75000000  0.15972903  1
  O  O3  1  0.88303786  0.75000000  0.47979095  1
  O  O2  1  0.92613527  0.25000000  0.92560983  1
  O  O1  1  0.97876600  0.75000000  0.71679661  1
