# generated using pymatgen
data_SrSn(BO3)2
_symmetry_space_group_name_H-M   'P 1'
_cell_length_a   4.95653646
_cell_length_b   4.95653646
_cell_length_c   16.82294509
_cell_angle_alpha   90.00000000
_cell_angle_beta   90.00000000
_cell_angle_gamma   120.00000000
_symmetry_Int_Tables_number   1
_chemical_formula_structural   SrSn(BO3)2
_chemical_formula_sum   'Sr3 Sn3 B6 O18'
_cell_volume   357.92272189
_cell_formula_units_Z   3
loop_
 _symmetry_equiv_pos_site_id
 _symmetry_equiv_pos_as_xyz
  1  'x, y, z'
loop_
 _atom_site_type_symbol
 _atom_site_label
 _atom_site_symmetry_multiplicity
 _atom_site_fract_x
 _atom_site_fract_y
 _atom_site_fract_z
 _atom_site_occupancy
  Sr  Sr1  1  0.00000000  0.00000000  0.00000000  1
  Sn  Sn1  1  0.33333333  0.66666667  0.16666667  1
  B  B1  1  0.00000000  0.00000000  0.23509189  1
  B  B1  1  0.66666667  0.33333333  0.09824145  1
  O  O1  1  0.04161395  0.29712129  0.23875075  1
  O  O1  1  0.70287871  0.74449266  0.23875075  1
  O  O1  1  0.41115933  0.37494729  0.09458259  1
  O  O1  1  0.62505271  0.03621204  0.09458259  1
  O  O1  1  0.96378796  0.58884067  0.09458259  1
  O  O1  1  0.25550734  0.95838605  0.23875075  1
  Sr  Sr1  1  0.66666667  0.33333333  0.33333333  1
  Sn  Sn1  1  -0.00000000  0.00000000  0.50000000  1
  B  B1  1  0.66666667  0.33333333  0.56842522  1
  B  B1  1  0.33333333  0.66666667  0.43157478  1
  O  O1  1  0.70828062  0.63045462  0.57208408  1
  O  O1  1  0.36954538  0.07782600  0.57208408  1
  O  O1  1  0.07782600  0.70828062  0.42791592  1
  O  O1  1  0.29171938  0.36954538  0.42791592  1
  O  O1  1  0.63045462  0.92217400  0.42791592  1
  O  O1  1  0.92217400  0.29171938  0.57208408  1
  Sr  Sr1  1  0.33333333  0.66666667  0.66666667  1
  Sn  Sn1  1  0.66666667  0.33333333  0.83333333  1
  B  B1  1  0.33333333  0.66666667  0.90175855  1
  B  B1  1  0.00000000  0.00000000  0.76490811  1
  O  O1  1  0.37494729  0.96378796  0.90541741  1
  O  O1  1  0.03621204  0.41115933  0.90541741  1
  O  O1  1  0.74449266  0.04161395  0.76124925  1
  O  O1  1  0.95838605  0.70287871  0.76124925  1
  O  O1  1  0.29712129  0.25550734  0.76124925  1
  O  O1  1  0.58884067  0.62505271  0.90541741  1
