# generated using pymatgen
data_SrSnO3
_symmetry_space_group_name_H-M   'P 1'
_cell_length_a   5.74990213
_cell_length_b   8.09464301
_cell_length_c   5.71832528
_cell_angle_alpha   90.00000000
_cell_angle_beta   90.00000000
_cell_angle_gamma   90.00000000
_symmetry_Int_Tables_number   1
_chemical_formula_structural   SrSnO3
_chemical_formula_sum   'Sr4 Sn4 O12'
_cell_volume   266.15032991
_cell_formula_units_Z   4
loop_
 _symmetry_equiv_pos_site_id
 _symmetry_equiv_pos_as_xyz
  1  'x, y, z'
loop_
 _atom_site_type_symbol
 _atom_site_label
 _atom_site_symmetry_multiplicity
 _atom_site_fract_x
 _atom_site_fract_y
 _atom_site_fract_z
 _atom_site_occupancy
  Sr  Sr1  1  0.53335159  0.25000000  0.50747905  1
  Sr  Sr1  1  0.03335159  0.25000000  0.99252095  1
  Sr  Sr1  1  0.96664841  0.75000000  0.00747905  1
  Sr  Sr1  1  0.46664841  0.75000000  0.49252095  1
  Sn  Sn1  1  0.50000000  0.00000000  0.00000000  1
  Sn  Sn1  1  0.00000000  0.50000000  0.50000000  1
  Sn  Sn1  1  0.00000000  0.00000000  0.50000000  1
  Sn  Sn1  1  0.50000000  0.50000000  0.00000000  1
  O  O1  1  0.28599611  0.46065362  0.71326412  1
  O  O1  1  0.78599611  0.03934638  0.78673588  1
  O  O1  1  0.21400389  0.53934638  0.21326412  1
  O  O1  1  0.71400389  0.96065362  0.28673588  1
  O  O1  1  0.71400389  0.53934638  0.28673588  1
  O  O1  1  0.21400389  0.96065362  0.21326412  1
  O  O1  1  0.78599611  0.46065362  0.78673588  1
  O  O1  1  0.28599611  0.03934638  0.71326412  1
  O  O2  1  0.48182143  0.25000000  0.07428766  1
  O  O2  1  0.98182143  0.25000000  0.42571234  1
  O  O2  1  0.01817857  0.75000000  0.57428766  1
  O  O2  1  0.51817857  0.75000000  0.92571234  1
