# generated using pymatgen
data_SrTlVO4
_symmetry_space_group_name_H-M   'P 1'
_cell_length_a   5.83678971
_cell_length_b   7.52504835
_cell_length_c   9.94893558
_cell_angle_alpha   90.00000000
_cell_angle_beta   90.00000000
_cell_angle_gamma   90.00000000
_symmetry_Int_Tables_number   1
_chemical_formula_structural   SrTlVO4
_chemical_formula_sum   'Sr4 Tl4 V4 O16'
_cell_volume   436.97838968
_cell_formula_units_Z   4
loop_
 _symmetry_equiv_pos_site_id
 _symmetry_equiv_pos_as_xyz
  1  'x, y, z'
loop_
 _atom_site_type_symbol
 _atom_site_label
 _atom_site_symmetry_multiplicity
 _atom_site_fract_x
 _atom_site_fract_y
 _atom_site_fract_z
 _atom_site_occupancy
  Sr  Sr1  1  0.97517235  0.25133370  0.70318784  1
  Sr  Sr1  1  0.02482765  0.75133370  0.79681216  1
  Sr  Sr1  1  0.52482765  0.74866630  0.20318784  1
  Sr  Sr1  1  0.47517235  0.24866630  0.29681216  1
  Tl  Tl1  1  0.47740345  0.41325708  0.92252746  1
  Tl  Tl1  1  0.97740345  0.08674292  0.07747254  1
  Tl  Tl1  1  0.52259655  0.91325708  0.57747254  1
  Tl  Tl1  1  0.02259655  0.58674292  0.42252746  1
  V  V1  1  0.51587533  0.47018356  0.58229632  1
  V  V1  1  0.48412467  0.97018356  0.91770368  1
  V  V1  1  0.01587533  0.02981644  0.41770368  1
  V  V1  1  0.98412467  0.52981644  0.08229632  1
  O  O1  1  0.24083141  0.49078308  0.16519332  1
  O  O2  1  0.50076013  0.05500548  0.07917246  1
  O  O3  1  0.74815310  0.55271042  0.66897848  1
  O  O2  1  0.00076013  0.44499452  0.92082754  1
  O  O3  1  0.25184690  0.05271042  0.83102152  1
  O  O1  1  0.74083141  0.00921692  0.83480668  1
  O  O1  1  0.25916859  0.50921692  0.66519332  1
  O  O3  1  0.24815310  0.94728958  0.33102152  1
  O  O4  1  0.42780966  0.74751548  0.93642472  1
  O  O4  1  0.92780966  0.75248452  0.06357528  1
  O  O1  1  0.75916859  0.99078308  0.33480668  1
  O  O2  1  0.49923987  0.55500548  0.42082754  1
  O  O3  1  0.75184690  0.44728958  0.16897848  1
  O  O2  1  0.99923987  0.94499452  0.57917246  1
  O  O4  1  0.07219034  0.25248452  0.43642472  1
  O  O4  1  0.57219034  0.24751548  0.56357528  1
