# generated using pymatgen
data_SrWO4
_symmetry_space_group_name_H-M   'P 1'
_cell_length_a   5.41642618
_cell_length_b   5.41642618
_cell_length_c   11.85696467
_cell_angle_alpha   90.00000000
_cell_angle_beta   90.00000000
_cell_angle_gamma   90.00000000
_symmetry_Int_Tables_number   1
_chemical_formula_structural   SrWO4
_chemical_formula_sum   'Sr4 W4 O16'
_cell_volume   347.85574708
_cell_formula_units_Z   4
loop_
 _symmetry_equiv_pos_site_id
 _symmetry_equiv_pos_as_xyz
  1  'x, y, z'
loop_
 _atom_site_type_symbol
 _atom_site_label
 _atom_site_symmetry_multiplicity
 _atom_site_fract_x
 _atom_site_fract_y
 _atom_site_fract_z
 _atom_site_occupancy
  Sr  Sr1  1  0.50000000  0.50000000  0.50000000  1
  Sr  Sr1  1  0.00000000  0.50000000  0.25000000  1
  W  W1  1  0.00000000  0.00000000  0.50000000  1
  W  W1  1  0.50000000  0.00000000  0.25000000  1
  O  O1  1  0.85549356  0.23598690  0.41615829  1
  O  O1  1  0.14450644  0.76401310  0.41615829  1
  O  O1  1  0.76401310  0.35549356  0.66615829  1
  O  O1  1  0.23598690  0.64450644  0.66615829  1
  O  O1  1  0.64450644  0.76401310  0.33384171  1
  O  O1  1  0.35549356  0.23598690  0.33384171  1
  O  O1  1  0.23598690  0.14450644  0.58384171  1
  O  O1  1  0.76401310  0.85549356  0.58384171  1
  Sr  Sr1  1  0.00000000  0.00000000  0.00000000  1
  Sr  Sr1  1  0.50000000  0.00000000  0.75000000  1
  W  W1  1  0.50000000  0.50000000  0.00000000  1
  W  W1  1  0.00000000  0.50000000  0.75000000  1
  O  O1  1  0.35549356  0.73598690  0.91615829  1
  O  O1  1  0.64450644  0.26401310  0.91615829  1
  O  O1  1  0.26401310  0.85549356  0.16615829  1
  O  O1  1  0.73598690  0.14450644  0.16615829  1
  O  O1  1  0.14450644  0.26401310  0.83384171  1
  O  O1  1  0.85549356  0.73598690  0.83384171  1
  O  O1  1  0.73598690  0.64450644  0.08384171  1
  O  O1  1  0.26401310  0.35549356  0.08384171  1
