# generated using pymatgen
data_Ta2Cd2O7
_symmetry_space_group_name_H-M   'P 1'
_cell_length_a   10.39362496
_cell_length_b   10.39362496
_cell_length_c   10.39362496
_cell_angle_alpha   90.00000000
_cell_angle_beta   90.00000000
_cell_angle_gamma   90.00000000
_symmetry_Int_Tables_number   1
_chemical_formula_structural   Ta2Cd2O7
_chemical_formula_sum   'Ta16 Cd16 O56'
_cell_volume   1122.79669477
_cell_formula_units_Z   8
loop_
 _symmetry_equiv_pos_site_id
 _symmetry_equiv_pos_as_xyz
  1  'x, y, z'
loop_
 _atom_site_type_symbol
 _atom_site_label
 _atom_site_symmetry_multiplicity
 _atom_site_fract_x
 _atom_site_fract_y
 _atom_site_fract_z
 _atom_site_occupancy
  Ta  Ta1  1  0.12500000  0.62500000  0.62500000  1
  Ta  Ta1  1  0.12500000  0.87500000  0.87500000  1
  Ta  Ta1  1  0.37500000  0.87500000  0.62500000  1
  Ta  Ta1  1  0.37500000  0.62500000  0.87500000  1
  Cd  Cd1  1  0.12500000  0.12500000  0.62500000  1
  Cd  Cd1  1  0.12500000  0.87500000  0.37500000  1
  Cd  Cd1  1  0.37500000  0.87500000  0.12500000  1
  Cd  Cd1  1  0.37500000  0.12500000  0.87500000  1
  O  O1  1  0.25000000  0.75000000  0.55675027  1
  O  O1  1  0.00000000  0.00000000  0.80675027  1
  O  O1  1  0.25000000  0.94324973  0.75000000  1
  O  O1  1  0.05675027  0.75000000  0.75000000  1
  O  O1  1  0.44324973  0.75000000  0.75000000  1
  O  O1  1  0.25000000  0.55675027  0.75000000  1
  O  O1  1  0.00000000  0.30675027  0.50000000  1
  O  O1  1  0.00000000  0.69324973  0.50000000  1
  O  O2  1  0.25000000  0.25000000  0.75000000  1
  O  O2  1  0.00000000  0.00000000  0.50000000  1
  O  O1  1  0.25000000  0.75000000  0.94324973  1
  O  O1  1  0.30675027  0.00000000  0.50000000  1
  O  O1  1  0.19324973  0.00000000  0.00000000  1
  O  O1  1  0.00000000  0.00000000  0.19324973  1
  Ta  Ta1  1  0.12500000  0.12500000  0.12500000  1
  Ta  Ta1  1  0.12500000  0.37500000  0.37500000  1
  Ta  Ta1  1  0.37500000  0.37500000  0.12500000  1
  Ta  Ta1  1  0.37500000  0.12500000  0.37500000  1
  Cd  Cd1  1  0.12500000  0.62500000  0.12500000  1
  Cd  Cd1  1  0.12500000  0.37500000  0.87500000  1
  Cd  Cd1  1  0.37500000  0.37500000  0.62500000  1
  Cd  Cd1  1  0.37500000  0.62500000  0.37500000  1
  O  O1  1  0.25000000  0.25000000  0.05675027  1
  O  O1  1  0.00000000  0.50000000  0.30675027  1
  O  O1  1  0.25000000  0.44324973  0.25000000  1
  O  O1  1  0.05675027  0.25000000  0.25000000  1
  O  O1  1  0.44324973  0.25000000  0.25000000  1
  O  O1  1  0.25000000  0.05675027  0.25000000  1
  O  O1  1  0.00000000  0.80675027  0.00000000  1
  O  O1  1  0.00000000  0.19324973  0.00000000  1
  O  O2  1  0.25000000  0.75000000  0.25000000  1
  O  O2  1  0.00000000  0.50000000  0.00000000  1
  O  O1  1  0.25000000  0.25000000  0.44324973  1
  O  O1  1  0.30675027  0.50000000  0.00000000  1
  O  O1  1  0.19324973  0.50000000  0.50000000  1
  O  O1  1  0.00000000  0.50000000  0.69324973  1
  Ta  Ta1  1  0.62500000  0.62500000  0.12500000  1
  Ta  Ta1  1  0.62500000  0.87500000  0.37500000  1
  Ta  Ta1  1  0.87500000  0.87500000  0.12500000  1
  Ta  Ta1  1  0.87500000  0.62500000  0.37500000  1
  Cd  Cd1  1  0.62500000  0.12500000  0.12500000  1
  Cd  Cd1  1  0.62500000  0.87500000  0.87500000  1
  Cd  Cd1  1  0.87500000  0.87500000  0.62500000  1
  Cd  Cd1  1  0.87500000  0.12500000  0.37500000  1
  O  O1  1  0.75000000  0.75000000  0.05675027  1
  O  O1  1  0.50000000  0.00000000  0.30675027  1
  O  O1  1  0.75000000  0.94324973  0.25000000  1
  O  O1  1  0.55675027  0.75000000  0.25000000  1
  O  O1  1  0.94324973  0.75000000  0.25000000  1
  O  O1  1  0.75000000  0.55675027  0.25000000  1
  O  O1  1  0.50000000  0.30675027  0.00000000  1
  O  O1  1  0.50000000  0.69324973  0.00000000  1
  O  O2  1  0.75000000  0.25000000  0.25000000  1
  O  O2  1  0.50000000  0.00000000  0.00000000  1
  O  O1  1  0.75000000  0.75000000  0.44324973  1
  O  O1  1  0.80675027  0.00000000  0.00000000  1
  O  O1  1  0.69324973  0.00000000  0.50000000  1
  O  O1  1  0.50000000  0.00000000  0.69324973  1
  Ta  Ta1  1  0.62500000  0.12500000  0.62500000  1
  Ta  Ta1  1  0.62500000  0.37500000  0.87500000  1
  Ta  Ta1  1  0.87500000  0.37500000  0.62500000  1
  Ta  Ta1  1  0.87500000  0.12500000  0.87500000  1
  Cd  Cd1  1  0.62500000  0.62500000  0.62500000  1
  Cd  Cd1  1  0.62500000  0.37500000  0.37500000  1
  Cd  Cd1  1  0.87500000  0.37500000  0.12500000  1
  Cd  Cd1  1  0.87500000  0.62500000  0.87500000  1
  O  O1  1  0.75000000  0.25000000  0.55675027  1
  O  O1  1  0.50000000  0.50000000  0.80675027  1
  O  O1  1  0.75000000  0.44324973  0.75000000  1
  O  O1  1  0.55675027  0.25000000  0.75000000  1
  O  O1  1  0.94324973  0.25000000  0.75000000  1
  O  O1  1  0.75000000  0.05675027  0.75000000  1
  O  O1  1  0.50000000  0.80675027  0.50000000  1
  O  O1  1  0.50000000  0.19324973  0.50000000  1
  O  O2  1  0.75000000  0.75000000  0.75000000  1
  O  O2  1  0.50000000  0.50000000  0.50000000  1
  O  O1  1  0.75000000  0.25000000  0.94324973  1
  O  O1  1  0.80675027  0.50000000  0.50000000  1
  O  O1  1  0.69324973  0.50000000  0.00000000  1
  O  O1  1  0.50000000  0.50000000  0.19324973  1
