# generated using pymatgen
data_Ta2Mo2O11
_symmetry_space_group_name_H-M   'P 1'
_cell_length_a   5.66553695
_cell_length_b   5.66553695
_cell_length_c   25.93728848
_cell_angle_alpha   90.00000000
_cell_angle_beta   90.00000000
_cell_angle_gamma   120.00000000
_symmetry_Int_Tables_number   1
_chemical_formula_structural   Ta2Mo2O11
_chemical_formula_sum   'Ta6 Mo6 O33'
_cell_volume   721.00347388
_cell_formula_units_Z   3
loop_
 _symmetry_equiv_pos_site_id
 _symmetry_equiv_pos_as_xyz
  1  'x, y, z'
loop_
 _atom_site_type_symbol
 _atom_site_label
 _atom_site_symmetry_multiplicity
 _atom_site_fract_x
 _atom_site_fract_y
 _atom_site_fract_z
 _atom_site_occupancy
  Ta  Ta1  1  0.66666667  0.33333333  0.96164670  1
  Ta  Ta1  1  0.66666667  0.33333333  0.70501997  1
  Mo  Mo1  1  0.00000000  0.00000000  0.88811428  1
  Mo  Mo1  1  0.33333333  0.66666667  0.77855239  1
  O  O1  1  0.98760093  0.49380047  0.75484446  1
  O  O1  1  0.50619953  0.49380047  0.75484446  1
  O  O1  1  0.50619953  0.01239907  0.75484446  1
  O  O1  1  0.82713380  0.17286620  0.91182221  1
  O  O1  1  0.34573240  0.17286620  0.91182221  1
  O  O1  1  0.82713380  0.65426760  0.91182221  1
  O  O2  1  0.00000000  0.00000000  0.82167258  1
  O  O2  1  0.33333333  0.66666667  0.84499408  1
  O  O3  1  0.50000000  0.00000000  0.00000000  1
  O  O3  1  0.00000000  0.50000000  0.00000000  1
  O  O3  1  0.50000000  0.50000000  0.00000000  1
  Ta  Ta1  1  0.33333333  0.66666667  0.29498003  1
  Ta  Ta1  1  0.33333333  0.66666667  0.03835330  1
  Mo  Mo1  1  0.66666667  0.33333333  0.22144761  1
  Mo  Mo1  1  0.00000000  0.00000000  0.11188572  1
  O  O1  1  0.65426760  0.82713380  0.08817779  1
  O  O1  1  0.17286620  0.82713380  0.08817779  1
  O  O1  1  0.17286620  0.34573240  0.08817779  1
  O  O1  1  0.49380047  0.50619953  0.24515554  1
  O  O1  1  0.01239907  0.50619953  0.24515554  1
  O  O1  1  0.49380047  0.98760093  0.24515554  1
  O  O2  1  0.66666667  0.33333333  0.15500592  1
  O  O2  1  0.00000000  0.00000000  0.17832742  1
  O  O3  1  0.16666667  0.33333333  0.33333333  1
  O  O3  1  0.66666667  0.83333333  0.33333333  1
  O  O3  1  0.16666667  0.83333333  0.33333333  1
  Ta  Ta1  1  0.00000000  0.00000000  0.62831337  1
  Ta  Ta1  1  0.00000000  0.00000000  0.37168663  1
  Mo  Mo1  1  0.33333333  0.66666667  0.55478094  1
  Mo  Mo1  1  0.66666667  0.33333333  0.44521906  1
  O  O1  1  0.32093427  0.16046713  0.42151112  1
  O  O1  1  0.83953287  0.16046713  0.42151112  1
  O  O1  1  0.83953287  0.67906573  0.42151112  1
  O  O1  1  0.16046713  0.83953287  0.57848888  1
  O  O1  1  0.67906573  0.83953287  0.57848888  1
  O  O1  1  0.16046713  0.32093427  0.57848888  1
  O  O2  1  0.33333333  0.66666667  0.48833925  1
  O  O2  1  0.66666667  0.33333333  0.51166075  1
  O  O3  1  0.83333333  0.66666667  0.66666667  1
  O  O3  1  0.33333333  0.16666667  0.66666667  1
  O  O3  1  0.83333333  0.16666667  0.66666667  1
