# generated using pymatgen
data_Ta2O5
_symmetry_space_group_name_H-M   'P 1'
_cell_length_a   3.84996809
_cell_length_b   12.98531466
_cell_length_c   3.87355913
_cell_angle_alpha   90.00000000
_cell_angle_beta   90.00000000
_cell_angle_gamma   90.00000000
_symmetry_Int_Tables_number   1
_chemical_formula_structural   Ta2O5
_chemical_formula_sum   'Ta4 O10'
_cell_volume   193.65102412
_cell_formula_units_Z   2
loop_
 _symmetry_equiv_pos_site_id
 _symmetry_equiv_pos_as_xyz
  1  'x, y, z'
loop_
 _atom_site_type_symbol
 _atom_site_label
 _atom_site_symmetry_multiplicity
 _atom_site_fract_x
 _atom_site_fract_y
 _atom_site_fract_z
 _atom_site_occupancy
  Ta  Ta1  1  0.00000000  0.14661676  0.02145472  1
  Ta  Ta1  1  0.50000000  0.35338324  0.97854528  1
  Ta  Ta1  1  0.50000000  0.64661676  0.97854528  1
  Ta  Ta1  1  0.00000000  0.85338324  0.02145472  1
  O  O1  1  0.50000000  0.18540784  0.00188592  1
  O  O1  1  0.00000000  0.31459216  0.99811408  1
  O  O1  1  0.00000000  0.68540784  0.99811408  1
  O  O1  1  0.50000000  0.81459216  0.00188592  1
  O  O2  1  0.00000000  0.85016678  0.50756721  1
  O  O2  1  0.50000000  0.64983322  0.49243279  1
  O  O2  1  0.50000000  0.35016678  0.49243279  1
  O  O3  1  0.50000000  0.50000000  0.99537952  1
  O  O3  1  0.00000000  0.00000000  0.00462048  1
  O  O2  1  0.00000000  0.14983322  0.50756721  1
