# generated using pymatgen
data_Ta2SnO6
_symmetry_space_group_name_H-M   'P 1'
_cell_length_a   17.20923971
_cell_length_b   4.86282205
_cell_length_c   5.54411395
_cell_angle_alpha   90.00000000
_cell_angle_beta   91.49679865
_cell_angle_gamma   90.00000000
_symmetry_Int_Tables_number   1
_chemical_formula_structural   Ta2SnO6
_chemical_formula_sum   'Ta8 Sn4 O24'
_cell_volume   463.80347368
_cell_formula_units_Z   4
loop_
 _symmetry_equiv_pos_site_id
 _symmetry_equiv_pos_as_xyz
  1  'x, y, z'
loop_
 _atom_site_type_symbol
 _atom_site_label
 _atom_site_symmetry_multiplicity
 _atom_site_fract_x
 _atom_site_fract_y
 _atom_site_fract_z
 _atom_site_occupancy
  Ta  Ta1  1  0.16982267  0.75740992  0.66000259  1
  Ta  Ta1  1  0.16982267  0.24259008  0.16000259  1
  Ta  Ta1  1  0.33017733  0.25740992  0.83999741  1
  Ta  Ta1  1  0.33017733  0.74259008  0.33999741  1
  Sn  Sn1  1  0.00000000  0.76506120  0.25000000  1
  Sn  Sn1  1  0.00000000  0.23493880  0.75000000  1
  O  O1  1  0.35721628  0.96147584  0.07517306  1
  O  O1  1  0.14278372  0.53852416  0.92482694  1
  O  O2  1  0.21942221  0.06197580  0.85188392  1
  O  O1  1  0.35721628  0.03852416  0.57517306  1
  O  O3  1  0.07250651  0.07784936  0.08991168  1
  O  O3  1  0.42749349  0.42215064  0.91008832  1
  O  O3  1  0.07250651  0.92215064  0.58991168  1
  O  O2  1  0.28057779  0.43802420  0.14811608  1
  O  O3  1  0.42749349  0.57784936  0.41008832  1
  O  O2  1  0.21942221  0.93802420  0.35188392  1
  O  O2  1  0.28057779  0.56197580  0.64811608  1
  O  O1  1  0.14278372  0.46147584  0.42482694  1
  Ta  Ta1  1  0.66982267  0.25740992  0.66000259  1
  Ta  Ta1  1  0.66982267  0.74259008  0.16000259  1
  Ta  Ta1  1  0.83017733  0.75740992  0.83999741  1
  Ta  Ta1  1  0.83017733  0.24259008  0.33999741  1
  Sn  Sn1  1  0.50000000  0.26506120  0.25000000  1
  Sn  Sn1  1  0.50000000  0.73493880  0.75000000  1
  O  O1  1  0.85721628  0.46147584  0.07517306  1
  O  O1  1  0.64278372  0.03852416  0.92482694  1
  O  O2  1  0.71942221  0.56197580  0.85188392  1
  O  O1  1  0.85721628  0.53852416  0.57517306  1
  O  O3  1  0.57250651  0.57784936  0.08991168  1
  O  O3  1  0.92749349  0.92215064  0.91008832  1
  O  O3  1  0.57250651  0.42215064  0.58991168  1
  O  O2  1  0.78057779  0.93802420  0.14811608  1
  O  O3  1  0.92749349  0.07784936  0.41008832  1
  O  O2  1  0.71942221  0.43802420  0.35188392  1
  O  O2  1  0.78057779  0.06197580  0.64811608  1
  O  O1  1  0.64278372  0.96147584  0.42482694  1
