# generated using pymatgen
data_Ta2Zn3O8
_symmetry_space_group_name_H-M   'P 1'
_cell_length_a   8.75566361
_cell_length_b   8.36952838
_cell_length_c   9.44771740
_cell_angle_alpha   90.00000000
_cell_angle_beta   116.34616192
_cell_angle_gamma   90.00000000
_symmetry_Int_Tables_number   1
_chemical_formula_structural   Ta2Zn3O8
_chemical_formula_sum   'Ta8 Zn12 O32'
_cell_volume   620.42253071
_cell_formula_units_Z   4
loop_
 _symmetry_equiv_pos_site_id
 _symmetry_equiv_pos_as_xyz
  1  'x, y, z'
loop_
 _atom_site_type_symbol
 _atom_site_label
 _atom_site_symmetry_multiplicity
 _atom_site_fract_x
 _atom_site_fract_y
 _atom_site_fract_z
 _atom_site_occupancy
  Ta  Ta1  1  0.41940442  0.64246818  0.37290906  1
  Ta  Ta1  1  0.08059558  0.14246818  0.12709094  1
  Ta  Ta1  1  0.08059558  0.85753182  0.62709094  1
  Ta  Ta1  1  0.41940442  0.35753182  0.87290906  1
  Zn  Zn1  1  0.50000000  0.26277670  0.25000000  1
  Zn  Zn1  1  0.00000000  0.23722330  0.75000000  1
  Zn  Zn2  1  0.15640926  0.51768910  0.99600040  1
  Zn  Zn2  1  0.84359074  0.51768910  0.50399960  1
  Zn  Zn2  1  0.34359074  0.98231090  0.00399960  1
  Zn  Zn2  1  0.65640926  0.98231090  0.49600040  1
  O  O1  1  0.80607650  0.37561776  0.64423800  1
  O  O1  1  0.19392350  0.37561776  0.85576200  1
  O  O1  1  0.69392350  0.12438224  0.35576200  1
  O  O1  1  0.30607650  0.12438224  0.14423800  1
  O  O2  1  0.44658746  0.86615684  0.40856328  1
  O  O2  1  0.05341254  0.36615684  0.09143672  1
  O  O2  1  0.05341254  0.63384316  0.59143672  1
  O  O2  1  0.44658746  0.13384316  0.90856328  1
  O  O3  1  0.34670796  0.63262768  0.14224050  1
  O  O3  1  0.15329204  0.13262768  0.35775950  1
  O  O4  1  0.95982818  0.10214296  0.89350312  1
  O  O4  1  0.04017182  0.10214296  0.60649688  1
  O  O4  1  0.54017182  0.39785704  0.10649688  1
  O  O4  1  0.45982818  0.39785704  0.39350312  1
  O  O3  1  0.34670796  0.36737232  0.64224050  1
  O  O3  1  0.15329204  0.86737232  0.85775950  1
  Ta  Ta1  1  0.91940442  0.14246818  0.37290906  1
  Ta  Ta1  1  0.58059558  0.64246818  0.12709094  1
  Ta  Ta1  1  0.58059558  0.35753182  0.62709094  1
  Ta  Ta1  1  0.91940442  0.85753182  0.87290906  1
  Zn  Zn1  1  0.00000000  0.76277670  0.25000000  1
  Zn  Zn1  1  0.50000000  0.73722330  0.75000000  1
  Zn  Zn2  1  0.65640926  0.01768910  0.99600040  1
  Zn  Zn2  1  0.34359074  0.01768910  0.50399960  1
  Zn  Zn2  1  0.84359074  0.48231090  0.00399960  1
  Zn  Zn2  1  0.15640926  0.48231090  0.49600040  1
  O  O1  1  0.30607650  0.87561776  0.64423800  1
  O  O1  1  0.69392350  0.87561776  0.85576200  1
  O  O1  1  0.19392350  0.62438224  0.35576200  1
  O  O1  1  0.80607650  0.62438224  0.14423800  1
  O  O2  1  0.94658746  0.36615684  0.40856328  1
  O  O2  1  0.55341254  0.86615684  0.09143672  1
  O  O2  1  0.55341254  0.13384316  0.59143672  1
  O  O2  1  0.94658746  0.63384316  0.90856328  1
  O  O3  1  0.84670796  0.13262768  0.14224050  1
  O  O3  1  0.65329204  0.63262768  0.35775950  1
  O  O4  1  0.45982818  0.60214296  0.89350312  1
  O  O4  1  0.54017182  0.60214296  0.60649688  1
  O  O4  1  0.04017182  0.89785704  0.10649688  1
  O  O4  1  0.95982818  0.89785704  0.39350312  1
  O  O3  1  0.84670796  0.86737232  0.64224050  1
  O  O3  1  0.65329204  0.36737232  0.85775950  1
