# generated using pymatgen
data_Ta6TiTl2O18
_symmetry_space_group_name_H-M   'P 1'
_cell_length_a   7.54636769
_cell_length_b   7.54636769
_cell_length_c   8.27921432
_cell_angle_alpha   90.00000000
_cell_angle_beta   90.00000000
_cell_angle_gamma   120.00000000
_symmetry_Int_Tables_number   1
_chemical_formula_structural   Ta6TiTl2O18
_chemical_formula_sum   'Ta6 Ti1 Tl2 O18'
_cell_volume   408.31532572
_cell_formula_units_Z   1
loop_
 _symmetry_equiv_pos_site_id
 _symmetry_equiv_pos_as_xyz
  1  'x, y, z'
loop_
 _atom_site_type_symbol
 _atom_site_label
 _atom_site_symmetry_multiplicity
 _atom_site_fract_x
 _atom_site_fract_y
 _atom_site_fract_z
 _atom_site_occupancy
  Ta  Ta1  1  0.83298032  0.66596064  0.15217948  1
  Ta  Ta1  1  0.83298032  0.16701968  0.15217948  1
  Ta  Ta1  1  0.33403936  0.16701968  0.15217948  1
  Ta  Ta1  1  0.16701968  0.33403936  0.84782052  1
  Ta  Ta1  1  0.16701968  0.83298032  0.84782052  1
  Ta  Ta1  1  0.66596064  0.83298032  0.84782052  1
  Ti  Ti1  1  0.00000000  0.00000000  0.50000000  1
  Tl  Tl1  1  0.66666667  0.33333333  0.72202004  1
  Tl  Tl1  1  0.33333333  0.66666667  0.27797996  1
  O  O1  1  0.55013461  0.10026922  0.15908946  1
  O  O1  1  0.55013461  0.44986539  0.15908946  1
  O  O1  1  0.89973078  0.44986539  0.15908946  1
  O  O1  1  0.44986539  0.89973078  0.84091054  1
  O  O1  1  0.44986539  0.55013461  0.84091054  1
  O  O1  1  0.10026922  0.55013461  0.84091054  1
  O  O2  1  0.14207978  0.28415956  0.10130728  1
  O  O2  1  0.14207978  0.85792022  0.10130728  1
  O  O2  1  0.71584044  0.85792022  0.10130728  1
  O  O2  1  0.85792022  0.71584044  0.89869272  1
  O  O2  1  0.85792022  0.14207978  0.89869272  1
  O  O2  1  0.28415956  0.14207978  0.89869272  1
  O  O3  1  0.87880435  0.75760870  0.36232098  1
  O  O3  1  0.87880435  0.12119565  0.36232098  1
  O  O3  1  0.24239130  0.12119565  0.36232098  1
  O  O3  1  0.12119565  0.24239130  0.63767902  1
  O  O3  1  0.12119565  0.87880435  0.63767902  1
  O  O3  1  0.75760870  0.87880435  0.63767902  1
