# generated using pymatgen
data_TaAlO4
_symmetry_space_group_name_H-M   'P 1'
_cell_length_a   12.16524381
_cell_length_b   3.79064814
_cell_length_c   6.44887243
_cell_angle_alpha   90.00000000
_cell_angle_beta   107.71638509
_cell_angle_gamma   90.00000000
_symmetry_Int_Tables_number   1
_chemical_formula_structural   TaAlO4
_chemical_formula_sum   'Ta4 Al4 O16'
_cell_volume   283.28072584
_cell_formula_units_Z   4
loop_
 _symmetry_equiv_pos_site_id
 _symmetry_equiv_pos_as_xyz
  1  'x, y, z'
loop_
 _atom_site_type_symbol
 _atom_site_label
 _atom_site_symmetry_multiplicity
 _atom_site_fract_x
 _atom_site_fract_y
 _atom_site_fract_z
 _atom_site_occupancy
  Ta  Ta1  1  0.89403122  0.00000000  0.76913288  1
  Ta  Ta1  1  0.60596878  0.50000000  0.23086712  1
  Al  Al1  1  0.79906685  0.00000000  0.17973386  1
  Al  Al1  1  0.70093315  0.50000000  0.82026614  1
  O  O1  1  0.85802144  0.50000000  0.79789276  1
  O  O1  1  0.64197856  0.00000000  0.20210724  1
  O  O2  1  0.94210236  0.00000000  0.13402826  1
  O  O2  1  0.55789764  0.50000000  0.86597174  1
  O  O3  1  0.64108876  0.50000000  0.52494654  1
  O  O3  1  0.85891124  0.00000000  0.47505346  1
  O  O4  1  0.76244264  0.50000000  0.14248116  1
  O  O4  1  0.73755736  0.00000000  0.85751884  1
  Ta  Ta1  1  0.39403122  0.50000000  0.76913288  1
  Ta  Ta1  1  0.10596878  0.00000000  0.23086712  1
  Al  Al1  1  0.29906685  0.50000000  0.17973386  1
  Al  Al1  1  0.20093315  0.00000000  0.82026614  1
  O  O1  1  0.35802144  0.00000000  0.79789276  1
  O  O1  1  0.14197856  0.50000000  0.20210724  1
  O  O2  1  0.44210236  0.50000000  0.13402826  1
  O  O2  1  0.05789764  0.00000000  0.86597174  1
  O  O3  1  0.14108876  0.00000000  0.52494654  1
  O  O3  1  0.35891124  0.50000000  0.47505346  1
  O  O4  1  0.26244264  0.00000000  0.14248116  1
  O  O4  1  0.23755736  0.50000000  0.85751884  1
