# generated using pymatgen
data_TaBO4
_symmetry_space_group_name_H-M   'P 1'
_cell_length_a   6.22005475
_cell_length_b   6.22005475
_cell_length_c   5.48632121
_cell_angle_alpha   90.00000000
_cell_angle_beta   90.00000000
_cell_angle_gamma   90.00000000
_symmetry_Int_Tables_number   1
_chemical_formula_structural   TaBO4
_chemical_formula_sum   'Ta4 B4 O16'
_cell_volume   212.26072634
_cell_formula_units_Z   4
loop_
 _symmetry_equiv_pos_site_id
 _symmetry_equiv_pos_as_xyz
  1  'x, y, z'
loop_
 _atom_site_type_symbol
 _atom_site_label
 _atom_site_symmetry_multiplicity
 _atom_site_fract_x
 _atom_site_fract_y
 _atom_site_fract_z
 _atom_site_occupancy
  Ta  Ta1  1  0.50000000  0.50000000  0.50000000  1
  Ta  Ta1  1  0.50000000  0.00000000  0.75000000  1
  B  B1  1  0.00000000  0.00000000  0.50000000  1
  B  B1  1  0.50000000  0.00000000  0.25000000  1
  O  O1  1  0.00000000  0.17858908  0.32406034  1
  O  O1  1  0.17858908  0.50000000  0.57406034  1
  O  O1  1  0.82141092  0.00000000  0.67593966  1
  O  O1  1  0.00000000  0.32141092  0.92593966  1
  O  O1  1  0.50000000  0.17858908  0.42593966  1
  O  O1  1  0.17858908  0.00000000  0.67593966  1
  O  O1  1  0.00000000  0.82141092  0.32406034  1
  O  O1  1  0.32141092  0.00000000  0.07406034  1
  Ta  Ta1  1  0.00000000  0.00000000  0.00000000  1
  Ta  Ta1  1  0.00000000  0.50000000  0.25000000  1
  B  B1  1  0.50000000  0.50000000  0.00000000  1
  B  B1  1  0.00000000  0.50000000  0.75000000  1
  O  O1  1  0.50000000  0.67858908  0.82406034  1
  O  O1  1  0.67858908  0.00000000  0.07406034  1
  O  O1  1  0.32141092  0.50000000  0.17593966  1
  O  O1  1  0.50000000  0.82141092  0.42593966  1
  O  O1  1  0.00000000  0.67858908  0.92593966  1
  O  O1  1  0.67858908  0.50000000  0.17593966  1
  O  O1  1  0.50000000  0.32141092  0.82406034  1
  O  O1  1  0.82141092  0.50000000  0.57406034  1
