# generated using pymatgen
data_TaInO4
_symmetry_space_group_name_H-M   'P 1'
_cell_length_a   4.86559880
_cell_length_b   5.82425152
_cell_length_c   5.18925145
_cell_angle_alpha   90.00000000
_cell_angle_beta   91.42331843
_cell_angle_gamma   90.00000000
_symmetry_Int_Tables_number   1
_chemical_formula_structural   TaInO4
_chemical_formula_sum   'Ta2 In2 O8'
_cell_volume   147.01008055
_cell_formula_units_Z   2
loop_
 _symmetry_equiv_pos_site_id
 _symmetry_equiv_pos_as_xyz
  1  'x, y, z'
loop_
 _atom_site_type_symbol
 _atom_site_label
 _atom_site_symmetry_multiplicity
 _atom_site_fract_x
 _atom_site_fract_y
 _atom_site_fract_z
 _atom_site_occupancy
  Ta  Ta1  1  0.00000000  0.82949476  0.25000000  1
  Ta  Ta1  1  0.00000000  0.17050524  0.75000000  1
  In  In1  1  0.50000000  0.32359786  0.25000000  1
  In  In1  1  0.50000000  0.67640214  0.75000000  1
  O  O1  1  0.74169334  0.62013672  0.10205400  1
  O  O1  1  0.25830666  0.62013672  0.39794600  1
  O  O1  1  0.25830666  0.37986328  0.89794600  1
  O  O1  1  0.74169334  0.37986328  0.60205400  1
  O  O2  1  0.78670060  0.10038540  0.06271142  1
  O  O2  1  0.21329940  0.10038540  0.43728858  1
  O  O2  1  0.21329940  0.89961460  0.93728858  1
  O  O2  1  0.78670060  0.89961460  0.56271142  1
