# generated using pymatgen
data_TaTlWO6
_symmetry_space_group_name_H-M   'P 1'
_cell_length_a   7.37274715
_cell_length_b   10.27224885
_cell_length_c   7.47698753
_cell_angle_alpha   90.00000000
_cell_angle_beta   90.00000000
_cell_angle_gamma   90.00000000
_symmetry_Int_Tables_number   1
_chemical_formula_structural   TaTlWO6
_chemical_formula_sum   'Ta4 Tl4 W4 O24'
_cell_volume   566.26735826
_cell_formula_units_Z   4
loop_
 _symmetry_equiv_pos_site_id
 _symmetry_equiv_pos_as_xyz
  1  'x, y, z'
loop_
 _atom_site_type_symbol
 _atom_site_label
 _atom_site_symmetry_multiplicity
 _atom_site_fract_x
 _atom_site_fract_y
 _atom_site_fract_z
 _atom_site_occupancy
  Ta  Ta1  1  0.00000000  0.50000000  0.49602134  1
  Ta  Ta1  1  0.00000000  0.00000000  0.99602134  1
  Tl  Tl1  1  0.75000000  0.66286760  0.12179804  1
  Tl  Tl1  1  0.75000000  0.83713240  0.62179804  1
  W  W1  1  0.75000000  0.24390078  0.26893886  1
  W  W1  1  0.75000000  0.25609922  0.76893886  1
  O  O1  1  0.75000000  0.18694406  0.49492256  1
  O  O2  1  0.25000000  0.06678786  0.97902468  1
  O  O3  1  0.56893736  0.37153264  0.67463246  1
  O  O4  1  0.93188495  0.37191486  0.30301480  1
  O  O3  1  0.43106264  0.87153264  0.17463246  1
  O  O4  1  0.56811505  0.37191486  0.30301480  1
  O  O1  1  0.75000000  0.31305594  0.99492256  1
  O  O2  1  0.25000000  0.43321214  0.47902468  1
  O  O4  1  0.93188495  0.12808514  0.80301480  1
  O  O3  1  0.56893736  0.12846736  0.17463246  1
  O  O4  1  0.06811505  0.62808514  0.30301480  1
  O  O3  1  0.93106264  0.12846736  0.17463246  1
  Ta  Ta1  1  0.50000000  0.00000000  0.99602134  1
  Ta  Ta1  1  0.50000000  0.50000000  0.49602134  1
  Tl  Tl1  1  0.25000000  0.16286760  0.62179804  1
  Tl  Tl1  1  0.25000000  0.33713240  0.12179804  1
  W  W1  1  0.25000000  0.74390078  0.76893886  1
  W  W1  1  0.25000000  0.75609922  0.26893886  1
  O  O1  1  0.25000000  0.68694406  0.99492256  1
  O  O2  1  0.75000000  0.56678786  0.47902468  1
  O  O3  1  0.06893736  0.87153264  0.17463246  1
  O  O4  1  0.43188495  0.87191486  0.80301480  1
  O  O3  1  0.93106264  0.37153264  0.67463246  1
  O  O4  1  0.06811505  0.87191486  0.80301480  1
  O  O1  1  0.25000000  0.81305594  0.49492256  1
  O  O2  1  0.75000000  0.93321214  0.97902468  1
  O  O4  1  0.43188495  0.62808514  0.30301480  1
  O  O3  1  0.06893736  0.62846736  0.67463246  1
  O  O4  1  0.56811505  0.12808514  0.80301480  1
  O  O3  1  0.43106264  0.62846736  0.67463246  1
