# generated using pymatgen
data_TaTl(GeO3)3
_symmetry_space_group_name_H-M   'P 1'
_cell_length_a   7.06255582
_cell_length_b   7.06255582
_cell_length_c   10.29036055
_cell_angle_alpha   90.00000000
_cell_angle_beta   90.00000000
_cell_angle_gamma   120.00000000
_symmetry_Int_Tables_number   1
_chemical_formula_structural   TaTl(GeO3)3
_chemical_formula_sum   'Ta2 Tl2 Ge6 O18'
_cell_volume   444.51355686
_cell_formula_units_Z   2
loop_
 _symmetry_equiv_pos_site_id
 _symmetry_equiv_pos_as_xyz
  1  'x, y, z'
loop_
 _atom_site_type_symbol
 _atom_site_label
 _atom_site_symmetry_multiplicity
 _atom_site_fract_x
 _atom_site_fract_y
 _atom_site_fract_z
 _atom_site_occupancy
  Ta  Ta1  1  0.00000000  0.00000000  0.00000000  1
  Ta  Ta1  1  0.00000000  0.00000000  0.50000000  1
  Tl  Tl1  1  0.33333333  0.66666667  0.00000000  1
  Tl  Tl1  1  0.33333333  0.66666667  0.50000000  1
  Ge  Ge1  1  0.73958938  0.62406492  0.25000000  1
  Ge  Ge1  1  0.88447554  0.26041062  0.25000000  1
  Ge  Ge1  1  0.37593508  0.11552446  0.25000000  1
  Ge  Ge1  1  0.37593508  0.26041062  0.75000000  1
  Ge  Ge1  1  0.88447554  0.62406492  0.75000000  1
  Ge  Ge1  1  0.73958938  0.11552446  0.75000000  1
  O  O1  1  0.93656712  0.53572180  0.25000000  1
  O  O1  1  0.59915468  0.06343288  0.25000000  1
  O  O1  1  0.46427820  0.40084532  0.25000000  1
  O  O1  1  0.46427820  0.06343288  0.75000000  1
  O  O1  1  0.59915468  0.53572180  0.75000000  1
  O  O1  1  0.93656712  0.40084532  0.75000000  1
  O  O2  1  0.76344316  0.77551136  0.10870303  1
  O  O2  1  0.01206820  0.23655684  0.39129697  1
  O  O2  1  0.22448864  0.98793180  0.39129697  1
  O  O2  1  0.22448864  0.98793180  0.10870303  1
  O  O2  1  0.01206820  0.23655684  0.10870303  1
  O  O2  1  0.22448864  0.23655684  0.89129697  1
  O  O2  1  0.01206820  0.77551136  0.89129697  1
  O  O2  1  0.76344316  0.98793180  0.89129697  1
  O  O2  1  0.01206820  0.77551136  0.60870303  1
  O  O2  1  0.76344316  0.98793180  0.60870303  1
  O  O2  1  0.76344316  0.77551136  0.39129697  1
  O  O2  1  0.22448864  0.23655684  0.60870303  1
