# generated using pymatgen
data_TiBi2O5
_symmetry_space_group_name_H-M   'P 1'
_cell_length_a   15.75419896
_cell_length_b   5.56969055
_cell_length_c   5.47508292
_cell_angle_alpha   90.00000000
_cell_angle_beta   90.00000000
_cell_angle_gamma   90.00000000
_symmetry_Int_Tables_number   1
_chemical_formula_structural   TiBi2O5
_chemical_formula_sum   'Ti4 Bi8 O20'
_cell_volume   480.41669775
_cell_formula_units_Z   4
loop_
 _symmetry_equiv_pos_site_id
 _symmetry_equiv_pos_as_xyz
  1  'x, y, z'
loop_
 _atom_site_type_symbol
 _atom_site_label
 _atom_site_symmetry_multiplicity
 _atom_site_fract_x
 _atom_site_fract_y
 _atom_site_fract_z
 _atom_site_occupancy
  Ti  Ti1  1  0.00000000  0.18828964  0.73663995  1
  Ti  Ti1  1  0.00000000  0.81171036  0.23663995  1
  Bi  Bi1  1  0.16985353  0.71456002  0.75898547  1
  Bi  Bi1  1  0.16985353  0.28543998  0.25898547  1
  Bi  Bi1  1  0.33014647  0.21456002  0.75898547  1
  Bi  Bi1  1  0.33014647  0.78543998  0.25898547  1
  O  O1  1  0.09649291  0.34481584  0.65607796  1
  O  O1  1  0.09649291  0.65518416  0.15607796  1
  O  O2  1  0.25219362  0.51218058  0.48732623  1
  O  O2  1  0.25219362  0.48781942  0.98732623  1
  O  O2  1  0.24780638  0.98781942  0.98732623  1
  O  O2  1  0.24780638  0.01218058  0.48732623  1
  O  O1  1  0.40350709  0.84481584  0.65607796  1
  O  O1  1  0.40350709  0.15518416  0.15607796  1
  O  O3  1  0.00000000  0.89793805  0.56733073  1
  O  O3  1  0.00000000  0.10206195  0.06733073  1
  Ti  Ti1  1  0.50000000  0.68828964  0.73663995  1
  Ti  Ti1  1  0.50000000  0.31171036  0.23663995  1
  Bi  Bi1  1  0.66985353  0.21456002  0.75898547  1
  Bi  Bi1  1  0.66985353  0.78543998  0.25898547  1
  Bi  Bi1  1  0.83014647  0.71456002  0.75898547  1
  Bi  Bi1  1  0.83014647  0.28543998  0.25898547  1
  O  O1  1  0.59649291  0.84481584  0.65607796  1
  O  O1  1  0.59649291  0.15518416  0.15607796  1
  O  O2  1  0.75219362  0.01218058  0.48732623  1
  O  O2  1  0.75219362  0.98781942  0.98732623  1
  O  O2  1  0.74780638  0.48781942  0.98732623  1
  O  O2  1  0.74780638  0.51218058  0.48732623  1
  O  O1  1  0.90350709  0.34481584  0.65607796  1
  O  O1  1  0.90350709  0.65518416  0.15607796  1
  O  O3  1  0.50000000  0.39793805  0.56733073  1
  O  O3  1  0.50000000  0.60206195  0.06733073  1
