# generated using pymatgen
data_TiCdO3
_symmetry_space_group_name_H-M   'P 1'
_cell_length_a   5.25351947
_cell_length_b   5.25351947
_cell_length_c   14.84968376
_cell_angle_alpha   90.00000000
_cell_angle_beta   90.00000000
_cell_angle_gamma   120.00000000
_symmetry_Int_Tables_number   1
_chemical_formula_structural   TiCdO3
_chemical_formula_sum   'Ti6 Cd6 O18'
_cell_volume   354.93475680
_cell_formula_units_Z   6
loop_
 _symmetry_equiv_pos_site_id
 _symmetry_equiv_pos_as_xyz
  1  'x, y, z'
loop_
 _atom_site_type_symbol
 _atom_site_label
 _atom_site_symmetry_multiplicity
 _atom_site_fract_x
 _atom_site_fract_y
 _atom_site_fract_z
 _atom_site_occupancy
  Ti  Ti1  1  0.00000000  0.00000000  0.15092508  1
  Ti  Ti1  1  0.66666667  0.33333333  0.18240825  1
  Cd  Cd1  1  0.33333333  0.66666667  0.03041584  1
  Cd  Cd1  1  0.33333333  0.66666667  0.30291749  1
  O  O1  1  0.72403916  0.68031646  0.24100098  1
  O  O1  1  0.95627730  0.27596084  0.24100098  1
  O  O1  1  0.31968354  0.04372270  0.24100098  1
  O  O1  1  0.94262751  0.65301687  0.09233235  1
  O  O1  1  0.34698313  0.28961063  0.09233235  1
  O  O1  1  0.71038937  0.05737249  0.09233235  1
  Ti  Ti1  1  0.66666667  0.33333333  0.48425842  1
  Ti  Ti1  1  0.33333333  0.66666667  0.51574158  1
  Cd  Cd1  1  0.00000000  0.00000000  0.36374918  1
  Cd  Cd1  1  0.00000000  0.00000000  0.63625082  1
  O  O1  1  0.39070583  0.01364979  0.57433431  1
  O  O1  1  0.62294397  0.60929417  0.57433431  1
  O  O1  1  0.98635021  0.37705603  0.57433431  1
  O  O1  1  0.60929417  0.98635021  0.42566569  1
  O  O1  1  0.01364979  0.62294397  0.42566569  1
  O  O1  1  0.37705603  0.39070583  0.42566569  1
  Ti  Ti1  1  0.33333333  0.66666667  0.81759175  1
  Ti  Ti1  1  0.00000000  0.00000000  0.84907492  1
  Cd  Cd1  1  0.66666667  0.33333333  0.69708251  1
  Cd  Cd1  1  0.66666667  0.33333333  0.96958416  1
  O  O1  1  0.05737249  0.34698313  0.90766765  1
  O  O1  1  0.28961063  0.94262751  0.90766765  1
  O  O1  1  0.65301687  0.71038937  0.90766765  1
  O  O1  1  0.27596084  0.31968354  0.75899902  1
  O  O1  1  0.68031646  0.95627730  0.75899902  1
  O  O1  1  0.04372270  0.72403916  0.75899902  1
