# generated using pymatgen
data_TiNb3O6
_symmetry_space_group_name_H-M   'P 1'
_cell_length_a   7.91677359
_cell_length_b   7.91677359
_cell_length_c   14.46430668
_cell_angle_alpha   90.00000000
_cell_angle_beta   90.00000000
_cell_angle_gamma   120.00000000
_symmetry_Int_Tables_number   1
_chemical_formula_structural   TiNb3O6
_chemical_formula_sum   'Ti6 Nb18 O36'
_cell_volume   785.09950353
_cell_formula_units_Z   6
loop_
 _symmetry_equiv_pos_site_id
 _symmetry_equiv_pos_as_xyz
  1  'x, y, z'
loop_
 _atom_site_type_symbol
 _atom_site_label
 _atom_site_symmetry_multiplicity
 _atom_site_fract_x
 _atom_site_fract_y
 _atom_site_fract_z
 _atom_site_occupancy
  Ti  Ti1  1  0.33333333  0.66666667  0.39555312  1
  Ti  Ti1  1  0.33333333  0.66666667  0.93778021  1
  Nb  Nb1  1  0.97568766  0.19583557  0.07761611  1
  Nb  Nb1  1  0.22014791  0.02431234  0.07761611  1
  Nb  Nb1  1  0.80416443  0.77985209  0.07761611  1
  Nb  Nb1  1  0.69097901  0.13749777  0.25571722  1
  Nb  Nb1  1  0.44651876  0.30902099  0.25571722  1
  Nb  Nb1  1  0.86250223  0.55348124  0.25571722  1
  O  O1  1  0.50035085  0.90356111  0.33309011  1
  O  O1  1  0.40321026  0.49964915  0.33309011  1
  O  O1  1  0.09643889  0.59678974  0.33309011  1
  O  O1  1  0.16631582  0.42977223  0.00024322  1
  O  O1  1  0.26345641  0.83368418  0.00024322  1
  O  O1  1  0.57022777  0.73654359  0.00024322  1
  O  O2  1  0.17875204  0.20877013  0.17307830  1
  O  O2  1  0.03001809  0.82124796  0.17307830  1
  O  O2  1  0.87543679  0.36335142  0.16025503  1
  O  O2  1  0.63664858  0.51208537  0.16025503  1
  O  O2  1  0.48791463  0.12456321  0.16025503  1
  O  O2  1  0.79122987  0.96998191  0.17307830  1
  Ti  Ti1  1  0.00000000  0.00000000  0.72888646  1
  Ti  Ti1  1  0.00000000  0.00000000  0.27111354  1
  Nb  Nb1  1  0.64235433  0.52916890  0.41094944  1
  Nb  Nb1  1  0.88681457  0.35764567  0.41094944  1
  Nb  Nb1  1  0.47083110  0.11318543  0.41094944  1
  Nb  Nb1  1  0.35764567  0.47083110  0.58905056  1
  Nb  Nb1  1  0.11318543  0.64235433  0.58905056  1
  Nb  Nb1  1  0.52916890  0.88681457  0.58905056  1
  O  O1  1  0.16701751  0.23689444  0.66642345  1
  O  O1  1  0.06987693  0.83298249  0.66642345  1
  O  O1  1  0.76310556  0.93012307  0.66642345  1
  O  O1  1  0.83298249  0.76310556  0.33357655  1
  O  O1  1  0.93012307  0.16701751  0.33357655  1
  O  O1  1  0.23689444  0.06987693  0.33357655  1
  O  O2  1  0.84541871  0.54210346  0.50641164  1
  O  O2  1  0.69668475  0.15458129  0.50641164  1
  O  O2  1  0.54210346  0.69668475  0.49358836  1
  O  O2  1  0.30331525  0.84541871  0.49358836  1
  O  O2  1  0.15458129  0.45789654  0.49358836  1
  O  O2  1  0.45789654  0.30331525  0.50641164  1
  Ti  Ti1  1  0.66666667  0.33333333  0.06221979  1
  Ti  Ti1  1  0.66666667  0.33333333  0.60444688  1
  Nb  Nb1  1  0.30902099  0.86250223  0.74428278  1
  Nb  Nb1  1  0.55348124  0.69097901  0.74428278  1
  Nb  Nb1  1  0.13749777  0.44651876  0.74428278  1
  Nb  Nb1  1  0.02431234  0.80416443  0.92238389  1
  Nb  Nb1  1  0.77985209  0.97568766  0.92238389  1
  Nb  Nb1  1  0.19583557  0.22014791  0.92238389  1
  O  O1  1  0.83368418  0.57022777  0.99975678  1
  O  O1  1  0.73654359  0.16631582  0.99975678  1
  O  O1  1  0.42977223  0.26345641  0.99975678  1
  O  O1  1  0.49964915  0.09643889  0.66690989  1
  O  O1  1  0.59678974  0.50035085  0.66690989  1
  O  O1  1  0.90356111  0.40321026  0.66690989  1
  O  O2  1  0.51208537  0.87543679  0.83974497  1
  O  O2  1  0.36335142  0.48791463  0.83974497  1
  O  O2  1  0.20877013  0.03001809  0.82692170  1
  O  O2  1  0.96998191  0.17875204  0.82692170  1
  O  O2  1  0.82124796  0.79122987  0.82692170  1
  O  O2  1  0.12456321  0.63664858  0.83974497  1
