# generated using pymatgen
data_TiSnO3
_symmetry_space_group_name_H-M   'P 1'
_cell_length_a   5.08665885
_cell_length_b   5.08665885
_cell_length_c   20.42844435
_cell_angle_alpha   90.00000000
_cell_angle_beta   90.00000000
_cell_angle_gamma   120.00000000
_symmetry_Int_Tables_number   1
_chemical_formula_structural   TiSnO3
_chemical_formula_sum   'Ti6 Sn6 O18'
_cell_volume   457.75294782
_cell_formula_units_Z   6
loop_
 _symmetry_equiv_pos_site_id
 _symmetry_equiv_pos_as_xyz
  1  'x, y, z'
loop_
 _atom_site_type_symbol
 _atom_site_label
 _atom_site_symmetry_multiplicity
 _atom_site_fract_x
 _atom_site_fract_y
 _atom_site_fract_z
 _atom_site_occupancy
  Ti  Ti1  1  0.00000000  0.00000000  0.33154002  1
  Ti  Ti1  1  0.66666667  0.33333333  0.00179331  1
  Sn  Sn1  1  0.00000000  0.00000000  0.10756251  1
  Sn  Sn1  1  0.66666667  0.33333333  0.22577082  1
  O  O1  1  0.00119732  0.35719579  0.05275753  1
  O  O1  1  0.35599847  0.99880268  0.05275753  1
  O  O1  1  0.02386245  0.68933180  0.28057580  1
  O  O1  1  0.64280421  0.64400153  0.05275753  1
  O  O1  1  0.31066820  0.33453065  0.28057580  1
  O  O1  1  0.66546935  0.97613755  0.28057580  1
  Ti  Ti1  1  0.66666667  0.33333333  0.66487335  1
  Ti  Ti1  1  0.33333333  0.66666667  0.33512665  1
  Sn  Sn1  1  0.66666667  0.33333333  0.44089585  1
  Sn  Sn1  1  0.33333333  0.66666667  0.55910415  1
  O  O1  1  0.66786399  0.69052912  0.38609086  1
  O  O1  1  0.02266513  0.33213601  0.38609086  1
  O  O1  1  0.69052912  0.02266513  0.61390914  1
  O  O1  1  0.30947088  0.97733487  0.38609086  1
  O  O1  1  0.97733487  0.66786399  0.61390914  1
  O  O1  1  0.33213601  0.30947088  0.61390914  1
  Ti  Ti1  1  0.33333333  0.66666667  0.99820669  1
  Ti  Ti1  1  0.00000000  0.00000000  0.66845998  1
  Sn  Sn1  1  0.33333333  0.66666667  0.77422918  1
  Sn  Sn1  1  0.00000000  0.00000000  0.89243749  1
  O  O1  1  0.33453065  0.02386245  0.71942420  1
  O  O1  1  0.68933180  0.66546935  0.71942420  1
  O  O1  1  0.35719579  0.35599847  0.94724247  1
  O  O1  1  0.97613755  0.31066820  0.71942420  1
  O  O1  1  0.64400153  0.00119732  0.94724247  1
  O  O1  1  0.99880268  0.64280421  0.94724247  1
