# generated using pymatgen
data_TiTl2(GeO3)3
_symmetry_space_group_name_H-M   'P 1'
_cell_length_a   6.97790624
_cell_length_b   6.97790624
_cell_length_c   10.44814668
_cell_angle_alpha   90.00000000
_cell_angle_beta   90.00000000
_cell_angle_gamma   120.00000000
_symmetry_Int_Tables_number   1
_chemical_formula_structural   TiTl2(GeO3)3
_chemical_formula_sum   'Ti2 Tl4 Ge6 O18'
_cell_volume   440.57530648
_cell_formula_units_Z   2
loop_
 _symmetry_equiv_pos_site_id
 _symmetry_equiv_pos_as_xyz
  1  'x, y, z'
loop_
 _atom_site_type_symbol
 _atom_site_label
 _atom_site_symmetry_multiplicity
 _atom_site_fract_x
 _atom_site_fract_y
 _atom_site_fract_z
 _atom_site_occupancy
  Ti  Ti1  1  0.00000000  0.00000000  0.00000000  1
  Ti  Ti1  1  0.00000000  0.00000000  0.50000000  1
  Tl  Tl1  1  0.66666667  0.33333333  0.05248847  1
  Tl  Tl1  1  0.33333333  0.66666667  0.55248847  1
  Tl  Tl1  1  0.33333333  0.66666667  0.94751153  1
  Tl  Tl1  1  0.66666667  0.33333333  0.44751153  1
  Ge  Ge1  1  0.36446030  0.11790004  0.75000000  1
  Ge  Ge1  1  0.88209996  0.24656026  0.75000000  1
  Ge  Ge1  1  0.75343974  0.63553970  0.75000000  1
  Ge  Ge1  1  0.11790004  0.75343974  0.25000000  1
  Ge  Ge1  1  0.24656026  0.36446030  0.25000000  1
  Ge  Ge1  1  0.63553970  0.88209996  0.25000000  1
  O  O1  1  0.99239094  0.76454804  0.10628828  1
  O  O1  1  0.76454804  0.77215710  0.60628828  1
  O  O1  1  0.22784290  0.99239094  0.60628828  1
  O  O1  1  0.77215710  0.00760906  0.10628828  1
  O  O1  1  0.23545196  0.22784290  0.10628828  1
  O  O1  1  0.00760906  0.23545196  0.60628828  1
  O  O1  1  0.00760906  0.23545196  0.89371172  1
  O  O1  1  0.23545196  0.22784290  0.39371172  1
  O  O1  1  0.77215710  0.00760906  0.39371172  1
  O  O1  1  0.22784290  0.99239094  0.89371172  1
  O  O1  1  0.76454804  0.77215710  0.89371172  1
  O  O1  1  0.99239094  0.76454804  0.39371172  1
  O  O2  1  0.41083782  0.94235998  0.25000000  1
  O  O2  1  0.94235998  0.53152216  0.75000000  1
  O  O2  1  0.46847784  0.41083782  0.75000000  1
  O  O2  1  0.53152216  0.58916218  0.25000000  1
  O  O2  1  0.05764002  0.46847784  0.25000000  1
  O  O2  1  0.58916218  0.05764002  0.75000000  1
