# generated using pymatgen
data_Tl2Pt2O7
_symmetry_space_group_name_H-M   'P 1'
_cell_length_a   10.17969877
_cell_length_b   10.17969877
_cell_length_c   10.17969877
_cell_angle_alpha   90.00000000
_cell_angle_beta   90.00000000
_cell_angle_gamma   90.00000000
_symmetry_Int_Tables_number   1
_chemical_formula_structural   Tl2Pt2O7
_chemical_formula_sum   'Tl16 Pt16 O56'
_cell_volume   1054.88418321
_cell_formula_units_Z   8
loop_
 _symmetry_equiv_pos_site_id
 _symmetry_equiv_pos_as_xyz
  1  'x, y, z'
loop_
 _atom_site_type_symbol
 _atom_site_label
 _atom_site_symmetry_multiplicity
 _atom_site_fract_x
 _atom_site_fract_y
 _atom_site_fract_z
 _atom_site_occupancy
  Tl  Tl1  1  0.12500000  0.12500000  0.62500000  1
  Tl  Tl1  1  0.12500000  0.87500000  0.37500000  1
  Tl  Tl1  1  0.37500000  0.87500000  0.12500000  1
  Tl  Tl1  1  0.37500000  0.12500000  0.87500000  1
  Pt  Pt1  1  0.12500000  0.62500000  0.62500000  1
  Pt  Pt1  1  0.12500000  0.87500000  0.87500000  1
  Pt  Pt1  1  0.37500000  0.87500000  0.62500000  1
  Pt  Pt1  1  0.37500000  0.62500000  0.87500000  1
  O  O1  1  0.25000000  0.75000000  0.95953848  1
  O  O1  1  0.00000000  0.00000000  0.20953848  1
  O  O1  1  0.25000000  0.54046152  0.75000000  1
  O  O1  1  0.45953848  0.75000000  0.75000000  1
  O  O1  1  0.04046152  0.75000000  0.75000000  1
  O  O1  1  0.25000000  0.95953848  0.75000000  1
  O  O1  1  0.00000000  0.70953848  0.50000000  1
  O  O1  1  0.00000000  0.29046152  0.50000000  1
  O  O2  1  0.25000000  0.25000000  0.75000000  1
  O  O2  1  0.00000000  0.00000000  0.50000000  1
  O  O1  1  0.25000000  0.75000000  0.54046152  1
  O  O1  1  0.20953848  0.00000000  0.00000000  1
  O  O1  1  0.29046152  0.00000000  0.50000000  1
  O  O1  1  0.00000000  0.00000000  0.79046152  1
  Tl  Tl1  1  0.12500000  0.62500000  0.12500000  1
  Tl  Tl1  1  0.12500000  0.37500000  0.87500000  1
  Tl  Tl1  1  0.37500000  0.37500000  0.62500000  1
  Tl  Tl1  1  0.37500000  0.62500000  0.37500000  1
  Pt  Pt1  1  0.12500000  0.12500000  0.12500000  1
  Pt  Pt1  1  0.12500000  0.37500000  0.37500000  1
  Pt  Pt1  1  0.37500000  0.37500000  0.12500000  1
  Pt  Pt1  1  0.37500000  0.12500000  0.37500000  1
  O  O1  1  0.25000000  0.25000000  0.45953848  1
  O  O1  1  0.00000000  0.50000000  0.70953848  1
  O  O1  1  0.25000000  0.04046152  0.25000000  1
  O  O1  1  0.45953848  0.25000000  0.25000000  1
  O  O1  1  0.04046152  0.25000000  0.25000000  1
  O  O1  1  0.25000000  0.45953848  0.25000000  1
  O  O1  1  0.00000000  0.20953848  0.00000000  1
  O  O1  1  0.00000000  0.79046152  0.00000000  1
  O  O2  1  0.25000000  0.75000000  0.25000000  1
  O  O2  1  0.00000000  0.50000000  0.00000000  1
  O  O1  1  0.25000000  0.25000000  0.04046152  1
  O  O1  1  0.20953848  0.50000000  0.50000000  1
  O  O1  1  0.29046152  0.50000000  0.00000000  1
  O  O1  1  0.00000000  0.50000000  0.29046152  1
  Tl  Tl1  1  0.62500000  0.12500000  0.12500000  1
  Tl  Tl1  1  0.62500000  0.87500000  0.87500000  1
  Tl  Tl1  1  0.87500000  0.87500000  0.62500000  1
  Tl  Tl1  1  0.87500000  0.12500000  0.37500000  1
  Pt  Pt1  1  0.62500000  0.62500000  0.12500000  1
  Pt  Pt1  1  0.62500000  0.87500000  0.37500000  1
  Pt  Pt1  1  0.87500000  0.87500000  0.12500000  1
  Pt  Pt1  1  0.87500000  0.62500000  0.37500000  1
  O  O1  1  0.75000000  0.75000000  0.45953848  1
  O  O1  1  0.50000000  0.00000000  0.70953848  1
  O  O1  1  0.75000000  0.54046152  0.25000000  1
  O  O1  1  0.95953848  0.75000000  0.25000000  1
  O  O1  1  0.54046152  0.75000000  0.25000000  1
  O  O1  1  0.75000000  0.95953848  0.25000000  1
  O  O1  1  0.50000000  0.70953848  0.00000000  1
  O  O1  1  0.50000000  0.29046152  0.00000000  1
  O  O2  1  0.75000000  0.25000000  0.25000000  1
  O  O2  1  0.50000000  0.00000000  0.00000000  1
  O  O1  1  0.75000000  0.75000000  0.04046152  1
  O  O1  1  0.70953848  0.00000000  0.50000000  1
  O  O1  1  0.79046152  0.00000000  0.00000000  1
  O  O1  1  0.50000000  0.00000000  0.29046152  1
  Tl  Tl1  1  0.62500000  0.62500000  0.62500000  1
  Tl  Tl1  1  0.62500000  0.37500000  0.37500000  1
  Tl  Tl1  1  0.87500000  0.37500000  0.12500000  1
  Tl  Tl1  1  0.87500000  0.62500000  0.87500000  1
  Pt  Pt1  1  0.62500000  0.12500000  0.62500000  1
  Pt  Pt1  1  0.62500000  0.37500000  0.87500000  1
  Pt  Pt1  1  0.87500000  0.37500000  0.62500000  1
  Pt  Pt1  1  0.87500000  0.12500000  0.87500000  1
  O  O1  1  0.75000000  0.25000000  0.95953848  1
  O  O1  1  0.50000000  0.50000000  0.20953848  1
  O  O1  1  0.75000000  0.04046152  0.75000000  1
  O  O1  1  0.95953848  0.25000000  0.75000000  1
  O  O1  1  0.54046152  0.25000000  0.75000000  1
  O  O1  1  0.75000000  0.45953848  0.75000000  1
  O  O1  1  0.50000000  0.20953848  0.50000000  1
  O  O1  1  0.50000000  0.79046152  0.50000000  1
  O  O2  1  0.75000000  0.75000000  0.75000000  1
  O  O2  1  0.50000000  0.50000000  0.50000000  1
  O  O1  1  0.75000000  0.25000000  0.54046152  1
  O  O1  1  0.70953848  0.50000000  0.00000000  1
  O  O1  1  0.79046152  0.50000000  0.50000000  1
  O  O1  1  0.50000000  0.50000000  0.79046152  1
