# generated using pymatgen
data_Tl2SnO3
_symmetry_space_group_name_H-M   'P 1'
_cell_length_a   10.18749776
_cell_length_b   3.24200350
_cell_length_c   12.44244070
_cell_angle_alpha   90.00000000
_cell_angle_beta   90.00000000
_cell_angle_gamma   90.00000000
_symmetry_Int_Tables_number   1
_chemical_formula_structural   Tl2SnO3
_chemical_formula_sum   'Tl8 Sn4 O12'
_cell_volume   410.94772879
_cell_formula_units_Z   4
loop_
 _symmetry_equiv_pos_site_id
 _symmetry_equiv_pos_as_xyz
  1  'x, y, z'
loop_
 _atom_site_type_symbol
 _atom_site_label
 _atom_site_symmetry_multiplicity
 _atom_site_fract_x
 _atom_site_fract_y
 _atom_site_fract_z
 _atom_site_occupancy
  Tl  Tl1  1  0.63354644  0.75000000  0.39554298  1
  Tl  Tl1  1  0.36645356  0.25000000  0.60445702  1
  Tl  Tl1  1  0.13354644  0.75000000  0.10445702  1
  Tl  Tl1  1  0.86645356  0.25000000  0.89554298  1
  Tl  Tl2  1  0.79303848  0.75000000  0.15214907  1
  Tl  Tl2  1  0.20696152  0.25000000  0.84785093  1
  Tl  Tl2  1  0.29303848  0.75000000  0.34785093  1
  Tl  Tl2  1  0.70696152  0.25000000  0.65214907  1
  Sn  Sn1  1  0.96039779  0.25000000  0.38915843  1
  Sn  Sn1  1  0.03960221  0.75000000  0.61084157  1
  Sn  Sn1  1  0.46039779  0.25000000  0.11084157  1
  Sn  Sn1  1  0.53960221  0.75000000  0.88915843  1
  O  O1  1  0.89195191  0.75000000  0.49014547  1
  O  O1  1  0.10804809  0.25000000  0.50985453  1
  O  O1  1  0.39195191  0.75000000  0.00985453  1
  O  O1  1  0.60804809  0.25000000  0.99014547  1
  O  O2  1  0.54414449  0.75000000  0.19226372  1
  O  O2  1  0.45585551  0.25000000  0.80773628  1
  O  O2  1  0.04414449  0.75000000  0.30773628  1
  O  O2  1  0.95585551  0.25000000  0.69226372  1
  O  O3  1  0.78682069  0.25000000  0.30815959  1
  O  O3  1  0.21317931  0.75000000  0.69184041  1
  O  O3  1  0.28682069  0.25000000  0.19184041  1
  O  O3  1  0.71317931  0.75000000  0.80815959  1
