# generated using pymatgen
data_Tl3AsO4
_symmetry_space_group_name_H-M   'P 1'
_cell_length_a   8.61035211
_cell_length_b   8.61035211
_cell_length_c   5.18624247
_cell_angle_alpha   90.00000000
_cell_angle_beta   90.00000000
_cell_angle_gamma   120.00000000
_symmetry_Int_Tables_number   1
_chemical_formula_structural   Tl3AsO4
_chemical_formula_sum   'Tl6 As2 O8'
_cell_volume   332.98546155
_cell_formula_units_Z   2
loop_
 _symmetry_equiv_pos_site_id
 _symmetry_equiv_pos_as_xyz
  1  'x, y, z'
loop_
 _atom_site_type_symbol
 _atom_site_label
 _atom_site_symmetry_multiplicity
 _atom_site_fract_x
 _atom_site_fract_y
 _atom_site_fract_z
 _atom_site_occupancy
  Tl  Tl1  1  0.64261451  0.91430229  0.49359948  1
  Tl  Tl1  1  0.27168778  0.35738549  0.49359948  1
  Tl  Tl1  1  0.91430229  0.27168778  0.99359948  1
  Tl  Tl1  1  0.35738549  0.08569771  0.99359948  1
  Tl  Tl1  1  0.72831222  0.64261451  0.99359948  1
  Tl  Tl1  1  0.08569771  0.72831222  0.49359948  1
  As  As1  1  0.66666667  0.33333333  0.51662856  1
  As  As1  1  0.33333333  0.66666667  0.01662856  1
  O  O1  1  0.48600043  0.87948177  0.91736856  1
  O  O1  1  0.87948177  0.39348134  0.41736856  1
  O  O1  1  0.60651866  0.48600043  0.41736856  1
  O  O1  1  0.39348134  0.51399957  0.91736856  1
  O  O2  1  0.66666667  0.33333333  0.85236731  1
  O  O1  1  0.51399957  0.12051823  0.41736856  1
  O  O2  1  0.33333333  0.66666667  0.35236731  1
  O  O1  1  0.12051823  0.60651866  0.91736856  1
