# generated using pymatgen
data_Tl3BO3
_symmetry_space_group_name_H-M   'P 1'
_cell_length_a   9.22207492
_cell_length_b   9.22207492
_cell_length_c   3.68659965
_cell_angle_alpha   90.00000000
_cell_angle_beta   90.00000000
_cell_angle_gamma   120.00000000
_symmetry_Int_Tables_number   1
_chemical_formula_structural   Tl3BO3
_chemical_formula_sum   'Tl6 B2 O6'
_cell_volume   271.52755012
_cell_formula_units_Z   2
loop_
 _symmetry_equiv_pos_site_id
 _symmetry_equiv_pos_as_xyz
  1  'x, y, z'
loop_
 _atom_site_type_symbol
 _atom_site_label
 _atom_site_symmetry_multiplicity
 _atom_site_fract_x
 _atom_site_fract_y
 _atom_site_fract_z
 _atom_site_occupancy
  Tl  Tl1  1  0.05358055  0.35010305  0.75000000  1
  Tl  Tl1  1  0.35010305  0.29652250  0.25000000  1
  Tl  Tl1  1  0.70347750  0.05358055  0.25000000  1
  Tl  Tl1  1  0.29652250  0.94641945  0.75000000  1
  Tl  Tl1  1  0.64989695  0.70347750  0.75000000  1
  Tl  Tl1  1  0.94641945  0.64989695  0.25000000  1
  B  B1  1  0.66666667  0.33333333  0.75000000  1
  B  B1  1  0.33333333  0.66666667  0.25000000  1
  O  O1  1  0.59256247  0.15989487  0.75000000  1
  O  O1  1  0.15989487  0.56733240  0.25000000  1
  O  O1  1  0.43266760  0.59256247  0.25000000  1
  O  O1  1  0.56733240  0.40743753  0.75000000  1
  O  O1  1  0.40743753  0.84010513  0.25000000  1
  O  O1  1  0.84010513  0.43266760  0.75000000  1
