# generated using pymatgen
data_Tl4V2O7
_symmetry_space_group_name_H-M   'P 1'
_cell_length_a   5.91595617
_cell_length_b   5.91595617
_cell_length_c   7.67431443
_cell_angle_alpha   90.00000000
_cell_angle_beta   90.00000000
_cell_angle_gamma   120.00000000
_symmetry_Int_Tables_number   1
_chemical_formula_structural   Tl4V2O7
_chemical_formula_sum   'Tl4 V2 O7'
_cell_volume   232.60557308
_cell_formula_units_Z   1
loop_
 _symmetry_equiv_pos_site_id
 _symmetry_equiv_pos_as_xyz
  1  'x, y, z'
loop_
 _atom_site_type_symbol
 _atom_site_label
 _atom_site_symmetry_multiplicity
 _atom_site_fract_x
 _atom_site_fract_y
 _atom_site_fract_z
 _atom_site_occupancy
  Tl  Tl1  1  0.33333333  0.66666667  0.92026610  1
  Tl  Tl1  1  0.66666667  0.33333333  0.07973390  1
  Tl  Tl2  1  0.33333333  0.66666667  0.41212188  1
  Tl  Tl2  1  0.66666667  0.33333333  0.58787812  1
  V  V1  1  0.00000000  0.00000000  0.73433082  1
  V  V1  1  0.00000000  0.00000000  0.26566918  1
  O  O1  1  0.68424948  0.84212474  0.19533040  1
  O  O1  1  0.15787526  0.84212474  0.19533040  1
  O  O1  1  0.15787526  0.31575052  0.19533040  1
  O  O1  1  0.84212474  0.68424948  0.80466960  1
  O  O1  1  0.84212474  0.15787526  0.80466960  1
  O  O1  1  0.31575052  0.15787526  0.80466960  1
  O  O2  1  0.00000000  0.00000000  0.50000000  1
