# generated using pymatgen
data_Tl6Si2O7
_symmetry_space_group_name_H-M   'P 1'
_cell_length_a   9.60853791
_cell_length_b   9.60853791
_cell_length_c   7.93669484
_cell_angle_alpha   90.00000000
_cell_angle_beta   90.00000000
_cell_angle_gamma   120.00000000
_symmetry_Int_Tables_number   1
_chemical_formula_structural   Tl6Si2O7
_chemical_formula_sum   'Tl12 Si4 O14'
_cell_volume   634.57788045
_cell_formula_units_Z   2
loop_
 _symmetry_equiv_pos_site_id
 _symmetry_equiv_pos_as_xyz
  1  'x, y, z'
loop_
 _atom_site_type_symbol
 _atom_site_label
 _atom_site_symmetry_multiplicity
 _atom_site_fract_x
 _atom_site_fract_y
 _atom_site_fract_z
 _atom_site_occupancy
  Tl  Tl1  1  0.65048915  0.96455587  0.63195956  1
  Tl  Tl1  1  0.03544413  0.68593328  0.63195956  1
  Tl  Tl1  1  0.31406672  0.34951085  0.63195956  1
  Tl  Tl1  1  0.34951085  0.03544413  0.36804044  1
  Tl  Tl1  1  0.96455587  0.31406672  0.36804044  1
  Tl  Tl1  1  0.68593328  0.65048915  0.36804044  1
  Tl  Tl2  1  0.64598339  0.95052039  0.12005358  1
  Tl  Tl2  1  0.04947961  0.69546300  0.12005358  1
  Tl  Tl2  1  0.30453700  0.35401661  0.12005358  1
  Tl  Tl2  1  0.35401661  0.04947961  0.87994642  1
  Tl  Tl2  1  0.95052039  0.30453700  0.87994642  1
  Tl  Tl2  1  0.69546300  0.64598339  0.87994642  1
  Si  Si1  1  0.33333333  0.66666667  0.83396390  1
  Si  Si2  1  0.66666667  0.33333333  0.58481036  1
  Si  Si2  1  0.33333333  0.66666667  0.41518964  1
  Si  Si1  1  0.66666667  0.33333333  0.16603610  1
  O  O1  1  0.55000923  0.14574525  0.11067876  1
  O  O1  1  0.59573602  0.44999077  0.11067876  1
  O  O1  1  0.85425475  0.40426398  0.11067876  1
  O  O1  1  0.14574525  0.59573602  0.88932124  1
  O  O2  1  0.66666667  0.33333333  0.37555756  1
  O  O2  1  0.33333333  0.66666667  0.62444244  1
  O  O3  1  0.85338177  0.39885275  0.64069320  1
  O  O3  1  0.60114725  0.45452902  0.64069320  1
  O  O3  1  0.54547098  0.14661823  0.64069320  1
  O  O3  1  0.14661823  0.60114725  0.35930680  1
  O  O3  1  0.39885275  0.54547098  0.35930680  1
  O  O3  1  0.45452902  0.85338177  0.35930680  1
  O  O1  1  0.44999077  0.85425475  0.88932124  1
  O  O1  1  0.40426398  0.55000923  0.88932124  1
