# generated using pymatgen
data_TlBi(WO4)2
_symmetry_space_group_name_H-M   'P 1'
_cell_length_a   10.80702311
_cell_length_b   10.68583838
_cell_length_c   7.53505782
_cell_angle_alpha   90.00000000
_cell_angle_beta   130.69971638
_cell_angle_gamma   90.00000000
_symmetry_Int_Tables_number   1
_chemical_formula_structural   TlBi(WO4)2
_chemical_formula_sum   'Tl4 Bi4 W8 O32'
_cell_volume   659.70425702
_cell_formula_units_Z   4
loop_
 _symmetry_equiv_pos_site_id
 _symmetry_equiv_pos_as_xyz
  1  'x, y, z'
loop_
 _atom_site_type_symbol
 _atom_site_label
 _atom_site_symmetry_multiplicity
 _atom_site_fract_x
 _atom_site_fract_y
 _atom_site_fract_z
 _atom_site_occupancy
  Tl  Tl1  1  0.00000000  0.21151502  0.75000000  1
  Tl  Tl1  1  0.00000000  0.78848498  0.25000000  1
  Bi  Bi1  1  0.00000000  0.77513524  0.75000000  1
  Bi  Bi1  1  0.00000000  0.22486476  0.25000000  1
  W  W1  1  0.80492092  0.50253812  0.76935398  1
  W  W1  1  0.19507908  0.49746188  0.23064602  1
  W  W1  1  0.19507908  0.50253812  0.73064602  1
  W  W1  1  0.80492092  0.49746188  0.26935398  1
  O  O1  1  0.81007116  0.43389026  0.55407626  1
  O  O1  1  0.18992884  0.56610974  0.44592374  1
  O  O1  1  0.18992884  0.43389026  0.94592374  1
  O  O1  1  0.81007116  0.56610974  0.05407626  1
  O  O2  1  0.27184534  0.65823496  0.86553042  1
  O  O2  1  0.72815466  0.34176504  0.13446958  1
  O  O2  1  0.72815466  0.65823496  0.63446958  1
  O  O2  1  0.27184534  0.34176504  0.36553042  1
  O  O3  1  0.02171392  0.60615030  0.97582104  1
  O  O3  1  0.97828608  0.39384970  0.02417896  1
  O  O3  1  0.97828608  0.60615030  0.52417896  1
  O  O3  1  0.02171392  0.39384970  0.47582104  1
  O  O4  1  0.62799936  0.41968384  0.68382754  1
  O  O4  1  0.37200064  0.58031616  0.31617246  1
  O  O4  1  0.37200064  0.41968384  0.81617246  1
  O  O4  1  0.62799936  0.58031616  0.18382754  1
  Tl  Tl1  1  0.50000000  0.71151502  0.75000000  1
  Tl  Tl1  1  0.50000000  0.28848498  0.25000000  1
  Bi  Bi1  1  0.50000000  0.27513524  0.75000000  1
  Bi  Bi1  1  0.50000000  0.72486476  0.25000000  1
  W  W1  1  0.30492092  0.00253812  0.76935398  1
  W  W1  1  0.69507908  0.99746188  0.23064602  1
  W  W1  1  0.69507908  0.00253812  0.73064602  1
  W  W1  1  0.30492092  0.99746188  0.26935398  1
  O  O1  1  0.31007116  0.93389026  0.55407626  1
  O  O1  1  0.68992884  0.06610974  0.44592374  1
  O  O1  1  0.68992884  0.93389026  0.94592374  1
  O  O1  1  0.31007116  0.06610974  0.05407626  1
  O  O2  1  0.77184534  0.15823496  0.86553042  1
  O  O2  1  0.22815466  0.84176504  0.13446958  1
  O  O2  1  0.22815466  0.15823496  0.63446958  1
  O  O2  1  0.77184534  0.84176504  0.36553042  1
  O  O3  1  0.52171392  0.10615030  0.97582104  1
  O  O3  1  0.47828608  0.89384970  0.02417896  1
  O  O3  1  0.47828608  0.10615030  0.52417896  1
  O  O3  1  0.52171392  0.89384970  0.47582104  1
  O  O4  1  0.12799936  0.91968384  0.68382754  1
  O  O4  1  0.87200064  0.08031616  0.31617246  1
  O  O4  1  0.87200064  0.91968384  0.81617246  1
  O  O4  1  0.12799936  0.08031616  0.18382754  1
