# generated using pymatgen
data_TlPd3O4
_symmetry_space_group_name_H-M   'P 1'
_cell_length_a   9.56925118
_cell_length_b   9.56925118
_cell_length_c   9.56925118
_cell_angle_alpha   90.00000000
_cell_angle_beta   90.00000000
_cell_angle_gamma   90.00000000
_symmetry_Int_Tables_number   1
_chemical_formula_structural   TlPd3O4
_chemical_formula_sum   'Tl8 Pd24 O32'
_cell_volume   876.26176728
_cell_formula_units_Z   8
loop_
 _symmetry_equiv_pos_site_id
 _symmetry_equiv_pos_as_xyz
  1  'x, y, z'
loop_
 _atom_site_type_symbol
 _atom_site_label
 _atom_site_symmetry_multiplicity
 _atom_site_fract_x
 _atom_site_fract_y
 _atom_site_fract_z
 _atom_site_occupancy
  Tl  Tl1  1  0.00000000  0.00000000  0.50000000  1
  Tl  Tl2  1  0.00000000  0.00000000  0.00000000  1
  Pd  Pd1  1  0.00000000  0.75000000  0.75000000  1
  Pd  Pd1  1  0.25000000  0.25000000  0.00000000  1
  Pd  Pd1  1  0.25000000  0.00000000  0.75000000  1
  Pd  Pd1  1  0.00000000  0.25000000  0.75000000  1
  Pd  Pd1  1  0.25000000  0.00000000  0.25000000  1
  Pd  Pd1  1  0.25000000  0.75000000  0.00000000  1
  O  O1  1  0.35786015  0.35786015  0.85786015  1
  O  O1  1  0.14213985  0.85786015  0.85786015  1
  O  O1  1  0.35786015  0.85786015  0.64213985  1
  O  O1  1  0.35786015  0.64213985  0.85786015  1
  O  O1  1  0.14213985  0.14213985  0.85786015  1
  O  O1  1  0.14213985  0.35786015  0.64213985  1
  O  O1  1  0.14213985  0.64213985  0.64213985  1
  O  O1  1  0.35786015  0.14213985  0.64213985  1
  Tl  Tl1  1  0.00000000  0.50000000  0.00000000  1
  Tl  Tl2  1  0.00000000  0.50000000  0.50000000  1
  Pd  Pd1  1  0.00000000  0.25000000  0.25000000  1
  Pd  Pd1  1  0.25000000  0.75000000  0.50000000  1
  Pd  Pd1  1  0.25000000  0.50000000  0.25000000  1
  Pd  Pd1  1  0.00000000  0.75000000  0.25000000  1
  Pd  Pd1  1  0.25000000  0.50000000  0.75000000  1
  Pd  Pd1  1  0.25000000  0.25000000  0.50000000  1
  O  O1  1  0.35786015  0.85786015  0.35786015  1
  O  O1  1  0.14213985  0.35786015  0.35786015  1
  O  O1  1  0.35786015  0.35786015  0.14213985  1
  O  O1  1  0.35786015  0.14213985  0.35786015  1
  O  O1  1  0.14213985  0.64213985  0.35786015  1
  O  O1  1  0.14213985  0.85786015  0.14213985  1
  O  O1  1  0.14213985  0.14213985  0.14213985  1
  O  O1  1  0.35786015  0.64213985  0.14213985  1
  Tl  Tl1  1  0.50000000  0.00000000  0.00000000  1
  Tl  Tl2  1  0.50000000  0.00000000  0.50000000  1
  Pd  Pd1  1  0.50000000  0.75000000  0.25000000  1
  Pd  Pd1  1  0.75000000  0.25000000  0.50000000  1
  Pd  Pd1  1  0.75000000  0.00000000  0.25000000  1
  Pd  Pd1  1  0.50000000  0.25000000  0.25000000  1
  Pd  Pd1  1  0.75000000  0.00000000  0.75000000  1
  Pd  Pd1  1  0.75000000  0.75000000  0.50000000  1
  O  O1  1  0.85786015  0.35786015  0.35786015  1
  O  O1  1  0.64213985  0.85786015  0.35786015  1
  O  O1  1  0.85786015  0.85786015  0.14213985  1
  O  O1  1  0.85786015  0.64213985  0.35786015  1
  O  O1  1  0.64213985  0.14213985  0.35786015  1
  O  O1  1  0.64213985  0.35786015  0.14213985  1
  O  O1  1  0.64213985  0.64213985  0.14213985  1
  O  O1  1  0.85786015  0.14213985  0.14213985  1
  Tl  Tl1  1  0.50000000  0.50000000  0.50000000  1
  Tl  Tl2  1  0.50000000  0.50000000  0.00000000  1
  Pd  Pd1  1  0.50000000  0.25000000  0.75000000  1
  Pd  Pd1  1  0.75000000  0.75000000  0.00000000  1
  Pd  Pd1  1  0.75000000  0.50000000  0.75000000  1
  Pd  Pd1  1  0.50000000  0.75000000  0.75000000  1
  Pd  Pd1  1  0.75000000  0.50000000  0.25000000  1
  Pd  Pd1  1  0.75000000  0.25000000  0.00000000  1
  O  O1  1  0.85786015  0.85786015  0.85786015  1
  O  O1  1  0.64213985  0.35786015  0.85786015  1
  O  O1  1  0.85786015  0.35786015  0.64213985  1
  O  O1  1  0.85786015  0.14213985  0.85786015  1
  O  O1  1  0.64213985  0.64213985  0.85786015  1
  O  O1  1  0.64213985  0.85786015  0.64213985  1
  O  O1  1  0.64213985  0.14213985  0.64213985  1
  O  O1  1  0.85786015  0.64213985  0.64213985  1
