# generated using pymatgen
data_TlSbO3
_symmetry_space_group_name_H-M   'P 1'
_cell_length_a   5.35559439
_cell_length_b   5.35559439
_cell_length_c   14.29896619
_cell_angle_alpha   90.00000000
_cell_angle_beta   90.00000000
_cell_angle_gamma   120.00000000
_symmetry_Int_Tables_number   1
_chemical_formula_structural   TlSbO3
_chemical_formula_sum   'Tl4 Sb4 O12'
_cell_volume   355.18173707
_cell_formula_units_Z   4
loop_
 _symmetry_equiv_pos_site_id
 _symmetry_equiv_pos_as_xyz
  1  'x, y, z'
loop_
 _atom_site_type_symbol
 _atom_site_label
 _atom_site_symmetry_multiplicity
 _atom_site_fract_x
 _atom_site_fract_y
 _atom_site_fract_z
 _atom_site_occupancy
  Tl  Tl1  1  0.66666667  0.33333333  0.43262698  1
  Tl  Tl1  1  0.33333333  0.66666667  0.93262698  1
  Tl  Tl1  1  0.33333333  0.66666667  0.56737302  1
  Tl  Tl1  1  0.66666667  0.33333333  0.06737302  1
  Sb  Sb1  1  0.66666667  0.33333333  0.75000000  1
  Sb  Sb2  1  0.00000000  0.00000000  0.75000000  1
  Sb  Sb1  1  0.33333333  0.66666667  0.25000000  1
  Sb  Sb2  1  0.00000000  0.00000000  0.25000000  1
  O  O1  1  0.28484136  0.33332743  0.32849025  1
  O  O1  1  0.71515864  0.04848607  0.82849025  1
  O  O1  1  0.71515864  0.66667257  0.67150975  1
  O  O1  1  0.04848607  0.33332743  0.17150975  1
  O  O1  1  0.95151393  0.28484136  0.67150975  1
  O  O1  1  0.33332743  0.04848607  0.67150975  1
  O  O1  1  0.66667257  0.71515864  0.17150975  1
  O  O1  1  0.04848607  0.71515864  0.32849025  1
  O  O1  1  0.33332743  0.28484136  0.82849025  1
  O  O1  1  0.66667257  0.95151393  0.32849025  1
  O  O1  1  0.95151393  0.66667257  0.82849025  1
  O  O1  1  0.28484136  0.95151393  0.17150975  1
