# generated using pymatgen
data_TlSbWO6
_symmetry_space_group_name_H-M   'P 1'
_cell_length_a   7.24386998
_cell_length_b   10.22425577
_cell_length_c   7.45022909
_cell_angle_alpha   90.00000000
_cell_angle_beta   90.00000000
_cell_angle_gamma   90.00000000
_symmetry_Int_Tables_number   1
_chemical_formula_structural   TlSbWO6
_chemical_formula_sum   'Tl4 Sb4 W4 O24'
_cell_volume   551.78765385
_cell_formula_units_Z   4
loop_
 _symmetry_equiv_pos_site_id
 _symmetry_equiv_pos_as_xyz
  1  'x, y, z'
loop_
 _atom_site_type_symbol
 _atom_site_label
 _atom_site_symmetry_multiplicity
 _atom_site_fract_x
 _atom_site_fract_y
 _atom_site_fract_z
 _atom_site_occupancy
  Tl  Tl1  1  0.75000000  0.15354094  0.09918564  1
  Tl  Tl1  1  0.25000000  0.84645906  0.09918564  1
  Sb  Sb1  1  0.00000000  0.50000000  0.99159568  1
  Sb  Sb1  1  0.50000000  0.50000000  0.99159568  1
  W  W1  1  0.25000000  0.23990452  0.76861324  1
  W  W1  1  0.75000000  0.76009548  0.76861324  1
  O  O1  1  0.25000000  0.18916746  0.99876718  1
  O  O2  1  0.25000000  0.57834466  0.98233106  1
  O  O3  1  0.43706382  0.37286178  0.18240484  1
  O  O4  1  0.06356778  0.37175078  0.80034874  1
  O  O3  1  0.06293618  0.37286178  0.18240484  1
  O  O4  1  0.43643222  0.37175078  0.80034874  1
  O  O1  1  0.75000000  0.81083254  0.99876718  1
  O  O2  1  0.75000000  0.42165534  0.98233106  1
  O  O4  1  0.56356778  0.62824922  0.80034874  1
  O  O3  1  0.93706382  0.62713822  0.18240484  1
  O  O4  1  0.93643222  0.62824922  0.80034874  1
  O  O3  1  0.56293618  0.62713822  0.18240484  1
  Tl  Tl1  1  0.25000000  0.65354094  0.59918564  1
  Tl  Tl1  1  0.75000000  0.34645906  0.59918564  1
  Sb  Sb1  1  0.50000000  0.00000000  0.49159568  1
  Sb  Sb1  1  0.00000000  0.00000000  0.49159568  1
  W  W1  1  0.75000000  0.73990452  0.26861324  1
  W  W1  1  0.25000000  0.26009548  0.26861324  1
  O  O1  1  0.75000000  0.68916746  0.49876718  1
  O  O2  1  0.75000000  0.07834466  0.48233106  1
  O  O3  1  0.93706382  0.87286178  0.68240484  1
  O  O4  1  0.56356778  0.87175078  0.30034874  1
  O  O3  1  0.56293618  0.87286178  0.68240484  1
  O  O4  1  0.93643222  0.87175078  0.30034874  1
  O  O1  1  0.25000000  0.31083254  0.49876718  1
  O  O2  1  0.25000000  0.92165534  0.48233106  1
  O  O4  1  0.06356778  0.12824922  0.30034874  1
  O  O3  1  0.43706382  0.12713822  0.68240484  1
  O  O4  1  0.43643222  0.12824922  0.30034874  1
  O  O3  1  0.06293618  0.12713822  0.68240484  1
