# generated using pymatgen
data_TlV2AgO6
_symmetry_space_group_name_H-M   'P 1'
_cell_length_a   10.62936970
_cell_length_b   10.06119497
_cell_length_c   5.88094857
_cell_angle_alpha   90.00000000
_cell_angle_beta   104.91818672
_cell_angle_gamma   90.00000000
_symmetry_Int_Tables_number   1
_chemical_formula_structural   TlV2AgO6
_chemical_formula_sum   'Tl4 V8 Ag4 O24'
_cell_volume   607.73455070
_cell_formula_units_Z   4
loop_
 _symmetry_equiv_pos_site_id
 _symmetry_equiv_pos_as_xyz
  1  'x, y, z'
loop_
 _atom_site_type_symbol
 _atom_site_label
 _atom_site_symmetry_multiplicity
 _atom_site_fract_x
 _atom_site_fract_y
 _atom_site_fract_z
 _atom_site_occupancy
  Tl  Tl1  1  0.00000000  0.28349222  0.75000000  1
  Tl  Tl1  1  0.00000000  0.71650778  0.25000000  1
  V  V1  1  0.78838881  0.41789155  0.21728730  1
  V  V1  1  0.21161119  0.41789155  0.28271270  1
  V  V1  1  0.21161119  0.58210845  0.78271270  1
  V  V1  1  0.78838881  0.58210845  0.71728730  1
  Ag  Ag1  1  0.00000000  0.89519104  0.75000000  1
  Ag  Ag1  1  0.00000000  0.10480896  0.25000000  1
  O  O1  1  0.84694588  0.51227178  0.48261698  1
  O  O1  1  0.15305412  0.51227178  0.01738302  1
  O  O1  1  0.15305412  0.48772822  0.51738302  1
  O  O1  1  0.84694588  0.48772822  0.98261698  1
  O  O2  1  0.15969193  0.26196876  0.22536556  1
  O  O2  1  0.84030807  0.26196876  0.27463444  1
  O  O2  1  0.84030807  0.73803124  0.77463444  1
  O  O2  1  0.15969193  0.73803124  0.72536556  1
  O  O3  1  0.37570939  0.57556116  0.85681342  1
  O  O3  1  0.62429061  0.57556116  0.64318658  1
  O  O3  1  0.62429061  0.42443884  0.14318658  1
  O  O3  1  0.37570939  0.42443884  0.35681342  1
  Tl  Tl1  1  0.50000000  0.78349222  0.75000000  1
  Tl  Tl1  1  0.50000000  0.21650778  0.25000000  1
  V  V1  1  0.28838881  0.91789155  0.21728730  1
  V  V1  1  0.71161119  0.91789155  0.28271270  1
  V  V1  1  0.71161119  0.08210845  0.78271270  1
  V  V1  1  0.28838881  0.08210845  0.71728730  1
  Ag  Ag1  1  0.50000000  0.39519104  0.75000000  1
  Ag  Ag1  1  0.50000000  0.60480896  0.25000000  1
  O  O1  1  0.34694588  0.01227178  0.48261698  1
  O  O1  1  0.65305412  0.01227178  0.01738302  1
  O  O1  1  0.65305412  0.98772822  0.51738302  1
  O  O1  1  0.34694588  0.98772822  0.98261698  1
  O  O2  1  0.65969193  0.76196876  0.22536556  1
  O  O2  1  0.34030807  0.76196876  0.27463444  1
  O  O2  1  0.34030807  0.23803124  0.77463444  1
  O  O2  1  0.65969193  0.23803124  0.72536556  1
  O  O3  1  0.87570939  0.07556116  0.85681342  1
  O  O3  1  0.12429061  0.07556116  0.64318658  1
  O  O3  1  0.12429061  0.92443884  0.14318658  1
  O  O3  1  0.87570939  0.92443884  0.35681342  1
