# generated using pymatgen
data_V2CdO6
_symmetry_space_group_name_H-M   'P 1'
_cell_length_a   10.03554581
_cell_length_b   3.58129578
_cell_length_c   7.11319812
_cell_angle_alpha   90.00000000
_cell_angle_beta   102.09240962
_cell_angle_gamma   90.00000000
_symmetry_Int_Tables_number   1
_chemical_formula_structural   V2CdO6
_chemical_formula_sum   'V4 Cd2 O12'
_cell_volume   249.97755195
_cell_formula_units_Z   2
loop_
 _symmetry_equiv_pos_site_id
 _symmetry_equiv_pos_as_xyz
  1  'x, y, z'
loop_
 _atom_site_type_symbol
 _atom_site_label
 _atom_site_symmetry_multiplicity
 _atom_site_fract_x
 _atom_site_fract_y
 _atom_site_fract_z
 _atom_site_occupancy
  V  V1  1  0.73850869  0.50000000  0.67479848  1
  V  V1  1  0.76149131  0.00000000  0.32520152  1
  Cd  Cd1  1  0.00000000  0.00000000  0.00000000  1
  O  O1  1  0.59030361  0.50000000  0.74076444  1
  O  O2  1  0.74456953  0.50000000  0.39646566  1
  O  O2  1  0.75543047  0.00000000  0.60353434  1
  O  O3  1  0.86524078  0.50000000  0.87461288  1
  O  O3  1  0.63475922  0.00000000  0.12538712  1
  O  O1  1  0.90969639  0.00000000  0.25923556  1
  V  V1  1  0.23850869  0.00000000  0.67479848  1
  V  V1  1  0.26149131  0.50000000  0.32520152  1
  Cd  Cd1  1  0.50000000  0.50000000  0.00000000  1
  O  O1  1  0.09030361  0.00000000  0.74076444  1
  O  O2  1  0.24456953  0.00000000  0.39646566  1
  O  O2  1  0.25543047  0.50000000  0.60353434  1
  O  O3  1  0.36524078  0.00000000  0.87461288  1
  O  O3  1  0.13475922  0.50000000  0.12538712  1
  O  O1  1  0.40969639  0.50000000  0.25923556  1
