# generated using pymatgen
data_V2Pb3O8
_symmetry_space_group_name_H-M   'P 1'
_cell_length_a   7.35297541
_cell_length_b   6.35836075
_cell_length_c   9.25368548
_cell_angle_alpha   90.00000000
_cell_angle_beta   114.70104063
_cell_angle_gamma   90.00000000
_symmetry_Int_Tables_number   1
_chemical_formula_structural   V2Pb3O8
_chemical_formula_sum   'V4 Pb6 O16'
_cell_volume   393.05038403
_cell_formula_units_Z   2
loop_
 _symmetry_equiv_pos_site_id
 _symmetry_equiv_pos_as_xyz
  1  'x, y, z'
loop_
 _atom_site_type_symbol
 _atom_site_label
 _atom_site_symmetry_multiplicity
 _atom_site_fract_x
 _atom_site_fract_y
 _atom_site_fract_z
 _atom_site_occupancy
  V  V1  1  0.79546986  0.51633042  0.09622298  1
  V  V1  1  0.20453014  0.01633042  0.40377702  1
  V  V1  1  0.20453014  0.48366958  0.90377702  1
  V  V1  1  0.79546986  0.98366958  0.59622298  1
  Pb  Pb1  1  0.60758149  0.10265977  0.20674792  1
  Pb  Pb1  1  0.39241851  0.60265977  0.29325208  1
  Pb  Pb1  1  0.39241851  0.89734023  0.79325208  1
  Pb  Pb1  1  0.60758149  0.39734023  0.70674792  1
  Pb  Pb2  1  0.00000000  0.50000000  0.50000000  1
  Pb  Pb2  1  0.00000000  0.00000000  0.00000000  1
  O  O1  1  0.03940649  0.53703610  0.22847644  1
  O  O1  1  0.96059351  0.03703610  0.27152356  1
  O  O1  1  0.96059351  0.46296390  0.77152356  1
  O  O1  1  0.03940649  0.96296390  0.72847644  1
  O  O2  1  0.66453400  0.47763559  0.21363652  1
  O  O2  1  0.33546600  0.97763559  0.28636348  1
  O  O2  1  0.33546600  0.52236441  0.78636348  1
  O  O2  1  0.66453400  0.02236441  0.71363652  1
  O  O3  1  0.74965165  0.29274391  0.97634554  1
  O  O3  1  0.25034835  0.79274391  0.52365446  1
  O  O4  1  0.72506789  0.76611049  0.47542864  1
  O  O4  1  0.27493211  0.26611049  0.02457136  1
  O  O4  1  0.27493211  0.23388951  0.52457136  1
  O  O4  1  0.72506789  0.73388951  0.97542864  1
  O  O3  1  0.74965165  0.20725609  0.47634554  1
  O  O3  1  0.25034835  0.70725609  0.02365446  1
