# generated using pymatgen
data_V2Zn2O7
_symmetry_space_group_name_H-M   'P 1'
_cell_length_a   7.50377512
_cell_length_b   8.13946393
_cell_length_c   10.03029472
_cell_angle_alpha   90.00000000
_cell_angle_beta   110.89524881
_cell_angle_gamma   90.00000000
_symmetry_Int_Tables_number   1
_chemical_formula_structural   V2Zn2O7
_chemical_formula_sum   'V8 Zn8 O28'
_cell_volume   572.32800924
_cell_formula_units_Z   4
loop_
 _symmetry_equiv_pos_site_id
 _symmetry_equiv_pos_as_xyz
  1  'x, y, z'
loop_
 _atom_site_type_symbol
 _atom_site_label
 _atom_site_symmetry_multiplicity
 _atom_site_fract_x
 _atom_site_fract_y
 _atom_site_fract_z
 _atom_site_occupancy
  V  V1  1  0.25984108  0.74285596  0.20743604  1
  V  V1  1  0.74015892  0.74285596  0.29256396  1
  V  V1  1  0.74015892  0.25714404  0.79256396  1
  V  V1  1  0.25984108  0.25714404  0.70743604  1
  Zn  Zn1  1  0.32993346  0.92248164  0.52231006  1
  Zn  Zn1  1  0.67006654  0.92248164  0.97768994  1
  Zn  Zn1  1  0.67006654  0.07751836  0.47768994  1
  Zn  Zn1  1  0.32993346  0.07751836  0.02231006  1
  O  O1  1  0.22938234  0.91956678  0.11698974  1
  O  O1  1  0.77061766  0.91956678  0.38301026  1
  O  O1  1  0.77061766  0.08043322  0.88301026  1
  O  O1  1  0.22938234  0.08043322  0.61698974  1
  O  O2  1  0.60884946  0.09593128  0.10277724  1
  O  O2  1  0.39115054  0.09593128  0.39722276  1
  O  O2  1  0.39115054  0.90406872  0.89722276  1
  O  O2  1  0.60884946  0.90406872  0.60277724  1
  O  O3  1  0.50000000  0.32117986  0.75000000  1
  O  O3  1  0.50000000  0.67882014  0.25000000  1
  O  O4  1  0.71669450  0.72850590  0.86419348  1
  O  O4  1  0.28330550  0.72850590  0.63580652  1
  O  O4  1  0.28330550  0.27149410  0.13580652  1
  O  O4  1  0.71669450  0.27149410  0.36419348  1
  V  V1  1  0.75984108  0.24285596  0.20743604  1
  V  V1  1  0.24015892  0.24285596  0.29256396  1
  V  V1  1  0.24015892  0.75714404  0.79256396  1
  V  V1  1  0.75984108  0.75714404  0.70743604  1
  Zn  Zn1  1  0.82993346  0.42248164  0.52231006  1
  Zn  Zn1  1  0.17006654  0.42248164  0.97768994  1
  Zn  Zn1  1  0.17006654  0.57751836  0.47768994  1
  Zn  Zn1  1  0.82993346  0.57751836  0.02231006  1
  O  O1  1  0.72938234  0.41956678  0.11698974  1
  O  O1  1  0.27061766  0.41956678  0.38301026  1
  O  O1  1  0.27061766  0.58043322  0.88301026  1
  O  O1  1  0.72938234  0.58043322  0.61698974  1
  O  O2  1  0.10884946  0.59593128  0.10277724  1
  O  O2  1  0.89115054  0.59593128  0.39722276  1
  O  O2  1  0.89115054  0.40406872  0.89722276  1
  O  O2  1  0.10884946  0.40406872  0.60277724  1
  O  O3  1  0.00000000  0.82117986  0.75000000  1
  O  O3  1  0.00000000  0.17882014  0.25000000  1
  O  O4  1  0.21669450  0.22850590  0.86419348  1
  O  O4  1  0.78330550  0.22850590  0.63580652  1
  O  O4  1  0.78330550  0.77149410  0.13580652  1
  O  O4  1  0.21669450  0.77149410  0.36419348  1
