# generated using pymatgen
data_VAg3O4
_symmetry_space_group_name_H-M   'P 1'
_cell_length_a   9.88501429
_cell_length_b   4.98891808
_cell_length_c   10.03969187
_cell_angle_alpha   90.00000000
_cell_angle_beta   115.39668366
_cell_angle_gamma   90.00000000
_symmetry_Int_Tables_number   1
_chemical_formula_structural   VAg3O4
_chemical_formula_sum   'V4 Ag12 O16'
_cell_volume   447.26505888
_cell_formula_units_Z   4
loop_
 _symmetry_equiv_pos_site_id
 _symmetry_equiv_pos_as_xyz
  1  'x, y, z'
loop_
 _atom_site_type_symbol
 _atom_site_label
 _atom_site_symmetry_multiplicity
 _atom_site_fract_x
 _atom_site_fract_y
 _atom_site_fract_z
 _atom_site_occupancy
  V  V1  1  0.50000000  0.94813904  0.25000000  1
  V  V1  1  0.50000000  0.05186096  0.75000000  1
  Ag  Ag1  1  0.76011569  0.54788088  0.40542768  1
  Ag  Ag1  1  0.26011569  0.95211912  0.90542768  1
  Ag  Ag1  1  0.23988431  0.45211912  0.59457232  1
  Ag  Ag1  1  0.73988431  0.04788088  0.09457232  1
  Ag  Ag2  1  0.00000000  0.00000000  0.50000000  1
  Ag  Ag2  1  0.50000000  0.50000000  0.00000000  1
  O  O1  1  0.12239467  0.75145512  0.70666677  1
  O  O1  1  0.37760533  0.25145512  0.79333323  1
  O  O1  1  0.87760533  0.24854488  0.29333323  1
  O  O1  1  0.62239467  0.74854488  0.20666677  1
  O  O2  1  0.59682441  0.15687914  0.39822135  1
  O  O2  1  0.40317559  0.84312086  0.60177865  1
  O  O2  1  0.40317559  0.15687914  0.10177865  1
  O  O2  1  0.59682441  0.84312086  0.89822135  1
  V  V1  1  0.00000000  0.44813904  0.25000000  1
  V  V1  1  0.00000000  0.55186096  0.75000000  1
  Ag  Ag1  1  0.26011569  0.04788088  0.40542768  1
  Ag  Ag1  1  0.76011569  0.45211912  0.90542768  1
  Ag  Ag1  1  0.73988431  0.95211912  0.59457232  1
  Ag  Ag1  1  0.23988431  0.54788088  0.09457232  1
  Ag  Ag2  1  0.50000000  0.50000000  0.50000000  1
  Ag  Ag2  1  0.00000000  0.00000000  0.00000000  1
  O  O1  1  0.62239467  0.25145512  0.70666677  1
  O  O1  1  0.87760533  0.75145512  0.79333323  1
  O  O1  1  0.37760533  0.74854488  0.29333323  1
  O  O1  1  0.12239467  0.24854488  0.20666677  1
  O  O2  1  0.09682441  0.65687914  0.39822135  1
  O  O2  1  0.90317559  0.34312086  0.60177865  1
  O  O2  1  0.90317559  0.65687914  0.10177865  1
  O  O2  1  0.09682441  0.34312086  0.89822135  1
