# generated using pymatgen
data_VAgO3
_symmetry_space_group_name_H-M   'P 1'
_cell_length_a   10.66504663
_cell_length_b   9.93690684
_cell_length_c   5.79756361
_cell_angle_alpha   90.00000000
_cell_angle_beta   112.79963951
_cell_angle_gamma   90.00000000
_symmetry_Int_Tables_number   1
_chemical_formula_structural   VAgO3
_chemical_formula_sum   'V8 Ag8 O24'
_cell_volume   566.40503338
_cell_formula_units_Z   8
loop_
 _symmetry_equiv_pos_site_id
 _symmetry_equiv_pos_as_xyz
  1  'x, y, z'
loop_
 _atom_site_type_symbol
 _atom_site_label
 _atom_site_symmetry_multiplicity
 _atom_site_fract_x
 _atom_site_fract_y
 _atom_site_fract_z
 _atom_site_occupancy
  V  V1  1  0.32048903  0.41636244  0.76857580  1
  V  V1  1  0.67951097  0.41636244  0.73142420  1
  V  V1  1  0.67951097  0.58363756  0.23142420  1
  V  V1  1  0.32048903  0.58363756  0.26857580  1
  Ag  Ag1  1  0.00000000  0.26606517  0.75000000  1
  Ag  Ag1  1  0.00000000  0.73393483  0.25000000  1
  Ag  Ag2  1  0.00000000  0.58413933  0.75000000  1
  Ag  Ag2  1  0.00000000  0.41586067  0.25000000  1
  O  O1  1  0.37204332  0.53480145  0.02216040  1
  O  O1  1  0.62795668  0.53480145  0.47783960  1
  O  O1  1  0.62795668  0.46519855  0.97783960  1
  O  O1  1  0.37204332  0.46519855  0.52216040  1
  O  O2  1  0.87442322  0.75852222  0.86377494  1
  O  O2  1  0.12557678  0.75852222  0.63622506  1
  O  O2  1  0.12557678  0.24147778  0.13622506  1
  O  O2  1  0.87442322  0.24147778  0.36377494  1
  O  O3  1  0.14884825  0.58060699  0.14712844  1
  O  O3  1  0.85115175  0.58060699  0.35287156  1
  O  O3  1  0.85115175  0.41939301  0.85287156  1
  O  O3  1  0.14884825  0.41939301  0.64712844  1
  V  V1  1  0.82048903  0.91636244  0.76857580  1
  V  V1  1  0.17951097  0.91636244  0.73142420  1
  V  V1  1  0.17951097  0.08363756  0.23142420  1
  V  V1  1  0.82048903  0.08363756  0.26857580  1
  Ag  Ag1  1  0.50000000  0.76606517  0.75000000  1
  Ag  Ag1  1  0.50000000  0.23393483  0.25000000  1
  Ag  Ag2  1  0.50000000  0.08413933  0.75000000  1
  Ag  Ag2  1  0.50000000  0.91586067  0.25000000  1
  O  O1  1  0.87204332  0.03480145  0.02216040  1
  O  O1  1  0.12795668  0.03480145  0.47783960  1
  O  O1  1  0.12795668  0.96519855  0.97783960  1
  O  O1  1  0.87204332  0.96519855  0.52216040  1
  O  O2  1  0.37442322  0.25852222  0.86377494  1
  O  O2  1  0.62557678  0.25852222  0.63622506  1
  O  O2  1  0.62557678  0.74147778  0.13622506  1
  O  O2  1  0.37442322  0.74147778  0.36377494  1
  O  O3  1  0.64884825  0.08060699  0.14712844  1
  O  O3  1  0.35115175  0.08060699  0.35287156  1
  O  O3  1  0.35115175  0.91939301  0.85287156  1
  O  O3  1  0.64884825  0.91939301  0.64712844  1
