# generated using pymatgen
data_VBiO4
_symmetry_space_group_name_H-M   'P 1'
_cell_length_a   7.31145002
_cell_length_b   7.31145002
_cell_length_c   6.40552471
_cell_angle_alpha   90.00000000
_cell_angle_beta   90.00000000
_cell_angle_gamma   90.00000000
_symmetry_Int_Tables_number   1
_chemical_formula_structural   VBiO4
_chemical_formula_sum   'V4 Bi4 O16'
_cell_volume   342.42206502
_cell_formula_units_Z   4
loop_
 _symmetry_equiv_pos_site_id
 _symmetry_equiv_pos_as_xyz
  1  'x, y, z'
loop_
 _atom_site_type_symbol
 _atom_site_label
 _atom_site_symmetry_multiplicity
 _atom_site_fract_x
 _atom_site_fract_y
 _atom_site_fract_z
 _atom_site_occupancy
  V  V1  1  0.50000000  0.50000000  0.50000000  1
  V  V1  1  0.50000000  0.00000000  0.75000000  1
  Bi  Bi1  1  0.50000000  0.00000000  0.25000000  1
  Bi  Bi1  1  0.00000000  0.00000000  0.50000000  1
  O  O1  1  0.68167692  0.00000000  0.57830046  1
  O  O1  1  0.50000000  0.31832308  0.32830046  1
  O  O1  1  0.18167692  0.00000000  0.17169954  1
  O  O1  1  0.00000000  0.18167692  0.82830046  1
  O  O1  1  0.00000000  0.31832308  0.42169954  1
  O  O1  1  0.31832308  0.00000000  0.57830046  1
  O  O1  1  0.00000000  0.68167692  0.42169954  1
  O  O1  1  0.31832308  0.50000000  0.67169954  1
  V  V1  1  0.00000000  0.00000000  0.00000000  1
  V  V1  1  0.00000000  0.50000000  0.25000000  1
  Bi  Bi1  1  0.00000000  0.50000000  0.75000000  1
  Bi  Bi1  1  0.50000000  0.50000000  0.00000000  1
  O  O1  1  0.18167692  0.50000000  0.07830046  1
  O  O1  1  0.00000000  0.81832308  0.82830046  1
  O  O1  1  0.68167692  0.50000000  0.67169954  1
  O  O1  1  0.50000000  0.68167692  0.32830046  1
  O  O1  1  0.50000000  0.81832308  0.92169954  1
  O  O1  1  0.81832308  0.50000000  0.07830046  1
  O  O1  1  0.50000000  0.18167692  0.92169954  1
  O  O1  1  0.81832308  0.00000000  0.17169954  1
