# generated using pymatgen
data_VCd2BiO6
_symmetry_space_group_name_H-M   'P 1'
_cell_length_a   8.71171405
_cell_length_b   11.41314308
_cell_length_c   5.60795508
_cell_angle_alpha   90.00000000
_cell_angle_beta   90.00000000
_cell_angle_gamma   90.00000000
_symmetry_Int_Tables_number   1
_chemical_formula_structural   VCd2BiO6
_chemical_formula_sum   'V4 Cd8 Bi4 O24'
_cell_volume   557.58797598
_cell_formula_units_Z   4
loop_
 _symmetry_equiv_pos_site_id
 _symmetry_equiv_pos_as_xyz
  1  'x, y, z'
loop_
 _atom_site_type_symbol
 _atom_site_label
 _atom_site_symmetry_multiplicity
 _atom_site_fract_x
 _atom_site_fract_y
 _atom_site_fract_z
 _atom_site_occupancy
  V  V1  1  0.50000000  0.32953439  0.51321674  1
  V  V1  1  0.50000000  0.67046561  0.01321674  1
  Cd  Cd1  1  0.20292568  0.88811808  0.02229100  1
  Cd  Cd1  1  0.79707432  0.11188192  0.52229100  1
  Cd  Cd1  1  0.20292568  0.11188192  0.52229100  1
  Cd  Cd1  1  0.79707432  0.88811808  0.02229100  1
  Bi  Bi1  1  0.50000000  0.09764878  0.04136364  1
  Bi  Bi1  1  0.50000000  0.90235122  0.54136364  1
  O  O1  1  0.65910944  0.27219096  0.36850162  1
  O  O1  1  0.34089056  0.72780904  0.86850162  1
  O  O1  1  0.65910944  0.72780904  0.86850162  1
  O  O1  1  0.34089056  0.27219096  0.36850162  1
  O  O2  1  0.34410316  0.99369529  0.28178150  1
  O  O2  1  0.65589684  0.00630471  0.78178150  1
  O  O2  1  0.34410316  0.00630471  0.78178150  1
  O  O2  1  0.65589684  0.99369529  0.28178150  1
  O  O3  1  0.50000000  0.29522776  0.81687330  1
  O  O3  1  0.50000000  0.70477224  0.31687330  1
  O  O4  1  0.50000000  0.47817924  0.49340008  1
  O  O4  1  0.50000000  0.52182076  0.99340008  1
  V  V1  1  0.00000000  0.82953439  0.51321674  1
  V  V1  1  0.00000000  0.17046561  0.01321674  1
  Cd  Cd1  1  0.70292568  0.38811808  0.02229100  1
  Cd  Cd1  1  0.29707432  0.61188192  0.52229100  1
  Cd  Cd1  1  0.70292568  0.61188192  0.52229100  1
  Cd  Cd1  1  0.29707432  0.38811808  0.02229100  1
  Bi  Bi1  1  0.00000000  0.59764878  0.04136364  1
  Bi  Bi1  1  0.00000000  0.40235122  0.54136364  1
  O  O1  1  0.15910944  0.77219096  0.36850162  1
  O  O1  1  0.84089056  0.22780904  0.86850162  1
  O  O1  1  0.15910944  0.22780904  0.86850162  1
  O  O1  1  0.84089056  0.77219096  0.36850162  1
  O  O2  1  0.84410316  0.49369529  0.28178150  1
  O  O2  1  0.15589684  0.50630471  0.78178150  1
  O  O2  1  0.84410316  0.50630471  0.78178150  1
  O  O2  1  0.15589684  0.49369529  0.28178150  1
  O  O3  1  0.00000000  0.79522776  0.81687330  1
  O  O3  1  0.00000000  0.20477224  0.31687330  1
  O  O4  1  0.00000000  0.97817924  0.49340008  1
  O  O4  1  0.00000000  0.02182076  0.99340008  1
