# generated using pymatgen
data_VInO4
_symmetry_space_group_name_H-M   'P 1'
_cell_length_a   5.76879731
_cell_length_b   8.59017194
_cell_length_c   6.69631186
_cell_angle_alpha   90.00000000
_cell_angle_beta   90.00000000
_cell_angle_gamma   90.00000000
_symmetry_Int_Tables_number   1
_chemical_formula_structural   VInO4
_chemical_formula_sum   'V4 In4 O16'
_cell_volume   331.83547124
_cell_formula_units_Z   4
loop_
 _symmetry_equiv_pos_site_id
 _symmetry_equiv_pos_as_xyz
  1  'x, y, z'
loop_
 _atom_site_type_symbol
 _atom_site_label
 _atom_site_symmetry_multiplicity
 _atom_site_fract_x
 _atom_site_fract_y
 _atom_site_fract_z
 _atom_site_occupancy
  V  V1  1  0.00000000  0.36083658  0.75000000  1
  V  V1  1  0.00000000  0.63916342  0.25000000  1
  In  In1  1  0.00000000  0.00000000  0.00000000  1
  In  In1  1  0.00000000  0.00000000  0.50000000  1
  O  O1  1  0.74395866  0.47629798  0.75000000  1
  O  O1  1  0.74395866  0.52370202  0.25000000  1
  O  O1  1  0.25604134  0.52370202  0.25000000  1
  O  O1  1  0.25604134  0.47629798  0.75000000  1
  O  O2  1  0.00000000  0.75052192  0.04489001  1
  O  O2  1  0.00000000  0.24947808  0.95510999  1
  O  O2  1  0.00000000  0.75052192  0.45510999  1
  O  O2  1  0.00000000  0.24947808  0.54489001  1
  V  V1  1  0.50000000  0.86083658  0.75000000  1
  V  V1  1  0.50000000  0.13916342  0.25000000  1
  In  In1  1  0.50000000  0.50000000  0.00000000  1
  In  In1  1  0.50000000  0.50000000  0.50000000  1
  O  O1  1  0.24395866  0.97629798  0.75000000  1
  O  O1  1  0.24395866  0.02370202  0.25000000  1
  O  O1  1  0.75604134  0.02370202  0.25000000  1
  O  O1  1  0.75604134  0.97629798  0.75000000  1
  O  O2  1  0.50000000  0.25052192  0.04489001  1
  O  O2  1  0.50000000  0.74947808  0.95510999  1
  O  O2  1  0.50000000  0.25052192  0.45510999  1
  O  O2  1  0.50000000  0.74947808  0.54489001  1
