# generated using pymatgen
data_Y2Sn2O7
_symmetry_space_group_name_H-M   'P 1'
_cell_length_a   10.38709574
_cell_length_b   10.38709574
_cell_length_c   10.38709574
_cell_angle_alpha   90.00000000
_cell_angle_beta   90.00000000
_cell_angle_gamma   90.00000000
_symmetry_Int_Tables_number   1
_chemical_formula_structural   Y2Sn2O7
_chemical_formula_sum   'Y16 Sn16 O56'
_cell_volume   1120.68201899
_cell_formula_units_Z   8
loop_
 _symmetry_equiv_pos_site_id
 _symmetry_equiv_pos_as_xyz
  1  'x, y, z'
loop_
 _atom_site_type_symbol
 _atom_site_label
 _atom_site_symmetry_multiplicity
 _atom_site_fract_x
 _atom_site_fract_y
 _atom_site_fract_z
 _atom_site_occupancy
  Y  Y1  1  0.12500000  0.12500000  0.62500000  1
  Y  Y1  1  0.12500000  0.87500000  0.37500000  1
  Y  Y1  1  0.37500000  0.12500000  0.87500000  1
  Y  Y1  1  0.37500000  0.87500000  0.12500000  1
  Sn  Sn1  1  0.12500000  0.62500000  0.62500000  1
  Sn  Sn1  1  0.12500000  0.87500000  0.87500000  1
  Sn  Sn1  1  0.37500000  0.62500000  0.87500000  1
  Sn  Sn1  1  0.37500000  0.87500000  0.62500000  1
  O  O1  1  0.25000000  0.25000000  0.75000000  1
  O  O1  1  0.00000000  0.00000000  0.50000000  1
  O  O2  1  0.00000000  0.28512810  0.50000000  1
  O  O2  1  0.25000000  0.53512810  0.75000000  1
  O  O2  1  0.00000000  0.00000000  0.78512810  1
  O  O2  1  0.28512810  0.00000000  0.50000000  1
  O  O2  1  0.21487190  0.00000000  0.00000000  1
  O  O2  1  0.00000000  0.00000000  0.21487190  1
  O  O2  1  0.00000000  0.71487190  0.50000000  1
  O  O2  1  0.03512810  0.75000000  0.75000000  1
  O  O2  1  0.46487190  0.75000000  0.75000000  1
  O  O2  1  0.25000000  0.96487190  0.75000000  1
  O  O2  1  0.25000000  0.75000000  0.53512810  1
  O  O2  1  0.25000000  0.75000000  0.96487190  1
  Y  Y1  1  0.12500000  0.62500000  0.12500000  1
  Y  Y1  1  0.12500000  0.37500000  0.87500000  1
  Y  Y1  1  0.37500000  0.62500000  0.37500000  1
  Y  Y1  1  0.37500000  0.37500000  0.62500000  1
  Sn  Sn1  1  0.12500000  0.12500000  0.12500000  1
  Sn  Sn1  1  0.12500000  0.37500000  0.37500000  1
  Sn  Sn1  1  0.37500000  0.12500000  0.37500000  1
  Sn  Sn1  1  0.37500000  0.37500000  0.12500000  1
  O  O1  1  0.25000000  0.75000000  0.25000000  1
  O  O1  1  0.00000000  0.50000000  0.00000000  1
  O  O2  1  0.00000000  0.78512810  0.00000000  1
  O  O2  1  0.25000000  0.03512810  0.25000000  1
  O  O2  1  0.00000000  0.50000000  0.28512810  1
  O  O2  1  0.28512810  0.50000000  0.00000000  1
  O  O2  1  0.21487190  0.50000000  0.50000000  1
  O  O2  1  0.00000000  0.50000000  0.71487190  1
  O  O2  1  0.00000000  0.21487190  0.00000000  1
  O  O2  1  0.03512810  0.25000000  0.25000000  1
  O  O2  1  0.46487190  0.25000000  0.25000000  1
  O  O2  1  0.25000000  0.46487190  0.25000000  1
  O  O2  1  0.25000000  0.25000000  0.03512810  1
  O  O2  1  0.25000000  0.25000000  0.46487190  1
  Y  Y1  1  0.62500000  0.12500000  0.12500000  1
  Y  Y1  1  0.62500000  0.87500000  0.87500000  1
  Y  Y1  1  0.87500000  0.12500000  0.37500000  1
  Y  Y1  1  0.87500000  0.87500000  0.62500000  1
  Sn  Sn1  1  0.62500000  0.62500000  0.12500000  1
  Sn  Sn1  1  0.62500000  0.87500000  0.37500000  1
  Sn  Sn1  1  0.87500000  0.62500000  0.37500000  1
  Sn  Sn1  1  0.87500000  0.87500000  0.12500000  1
  O  O1  1  0.75000000  0.25000000  0.25000000  1
  O  O1  1  0.50000000  0.00000000  0.00000000  1
  O  O2  1  0.50000000  0.28512810  0.00000000  1
  O  O2  1  0.75000000  0.53512810  0.25000000  1
  O  O2  1  0.50000000  0.00000000  0.28512810  1
  O  O2  1  0.78512810  0.00000000  0.00000000  1
  O  O2  1  0.71487190  0.00000000  0.50000000  1
  O  O2  1  0.50000000  0.00000000  0.71487190  1
  O  O2  1  0.50000000  0.71487190  0.00000000  1
  O  O2  1  0.53512810  0.75000000  0.25000000  1
  O  O2  1  0.96487190  0.75000000  0.25000000  1
  O  O2  1  0.75000000  0.96487190  0.25000000  1
  O  O2  1  0.75000000  0.75000000  0.03512810  1
  O  O2  1  0.75000000  0.75000000  0.46487190  1
  Y  Y1  1  0.62500000  0.62500000  0.62500000  1
  Y  Y1  1  0.62500000  0.37500000  0.37500000  1
  Y  Y1  1  0.87500000  0.62500000  0.87500000  1
  Y  Y1  1  0.87500000  0.37500000  0.12500000  1
  Sn  Sn1  1  0.62500000  0.12500000  0.62500000  1
  Sn  Sn1  1  0.62500000  0.37500000  0.87500000  1
  Sn  Sn1  1  0.87500000  0.12500000  0.87500000  1
  Sn  Sn1  1  0.87500000  0.37500000  0.62500000  1
  O  O1  1  0.75000000  0.75000000  0.75000000  1
  O  O1  1  0.50000000  0.50000000  0.50000000  1
  O  O2  1  0.50000000  0.78512810  0.50000000  1
  O  O2  1  0.75000000  0.03512810  0.75000000  1
  O  O2  1  0.50000000  0.50000000  0.78512810  1
  O  O2  1  0.78512810  0.50000000  0.50000000  1
  O  O2  1  0.71487190  0.50000000  0.00000000  1
  O  O2  1  0.50000000  0.50000000  0.21487190  1
  O  O2  1  0.50000000  0.21487190  0.50000000  1
  O  O2  1  0.53512810  0.25000000  0.75000000  1
  O  O2  1  0.96487190  0.25000000  0.75000000  1
  O  O2  1  0.75000000  0.46487190  0.75000000  1
  O  O2  1  0.75000000  0.25000000  0.53512810  1
  O  O2  1  0.75000000  0.25000000  0.96487190  1
