# generated using pymatgen
data_Y3SbO7
_symmetry_space_group_name_H-M   'P 1'
_cell_length_a   7.38570612
_cell_length_b   10.45501515
_cell_length_c   7.44583059
_cell_angle_alpha   90.00000000
_cell_angle_beta   90.00000000
_cell_angle_gamma   90.00000000
_symmetry_Int_Tables_number   1
_chemical_formula_structural   Y3SbO7
_chemical_formula_sum   'Y12 Sb4 O28'
_cell_volume   574.94968474
_cell_formula_units_Z   4
loop_
 _symmetry_equiv_pos_site_id
 _symmetry_equiv_pos_as_xyz
  1  'x, y, z'
loop_
 _atom_site_type_symbol
 _atom_site_label
 _atom_site_symmetry_multiplicity
 _atom_site_fract_x
 _atom_site_fract_y
 _atom_site_fract_z
 _atom_site_occupancy
  Y  Y1  1  0.50000000  0.00000000  0.50000000  1
  Y  Y1  1  0.50000000  0.00000000  0.00000000  1
  Y  Y2  1  0.73408862  0.73417396  0.25000000  1
  Y  Y2  1  0.26591138  0.26582604  0.75000000  1
  Y  Y2  1  0.26591138  0.73417396  0.25000000  1
  Y  Y2  1  0.73408862  0.26582604  0.75000000  1
  Sb  Sb1  1  0.00000000  0.00000000  0.50000000  1
  Sb  Sb1  1  0.00000000  0.00000000  0.00000000  1
  O  O1  1  0.50000000  0.86296847  0.25000000  1
  O  O1  1  0.50000000  0.13703153  0.75000000  1
  O  O2  1  0.50000000  0.12986866  0.25000000  1
  O  O2  1  0.50000000  0.87013134  0.75000000  1
  O  O3  1  0.50000000  0.57103705  0.25000000  1
  O  O3  1  0.50000000  0.42896295  0.75000000  1
  O  O4  1  0.19859034  0.12507374  0.52982524  1
  O  O4  1  0.80140966  0.87492626  0.02982524  1
  O  O4  1  0.80140966  0.12507374  0.97017476  1
  O  O4  1  0.19859034  0.87492626  0.47017476  1
  O  O4  1  0.80140966  0.87492626  0.47017476  1
  O  O4  1  0.19859034  0.12507374  0.97017476  1
  O  O4  1  0.19859034  0.87492626  0.02982524  1
  O  O4  1  0.80140966  0.12507374  0.52982524  1
  Y  Y1  1  0.00000000  0.50000000  0.50000000  1
  Y  Y1  1  0.00000000  0.50000000  0.00000000  1
  Y  Y2  1  0.23408862  0.23417396  0.25000000  1
  Y  Y2  1  0.76591138  0.76582604  0.75000000  1
  Y  Y2  1  0.76591138  0.23417396  0.25000000  1
  Y  Y2  1  0.23408862  0.76582604  0.75000000  1
  Sb  Sb1  1  0.50000000  0.50000000  0.50000000  1
  Sb  Sb1  1  0.50000000  0.50000000  0.00000000  1
  O  O1  1  0.00000000  0.36296847  0.25000000  1
  O  O1  1  0.00000000  0.63703153  0.75000000  1
  O  O2  1  0.00000000  0.62986866  0.25000000  1
  O  O2  1  0.00000000  0.37013134  0.75000000  1
  O  O3  1  0.00000000  0.07103705  0.25000000  1
  O  O3  1  0.00000000  0.92896295  0.75000000  1
  O  O4  1  0.69859034  0.62507374  0.52982524  1
  O  O4  1  0.30140966  0.37492626  0.02982524  1
  O  O4  1  0.30140966  0.62507374  0.97017476  1
  O  O4  1  0.69859034  0.37492626  0.47017476  1
  O  O4  1  0.30140966  0.37492626  0.47017476  1
  O  O4  1  0.69859034  0.62507374  0.97017476  1
  O  O4  1  0.69859034  0.37492626  0.02982524  1
  O  O4  1  0.30140966  0.62507374  0.52982524  1
