# generated using pymatgen
data_Y6WO12
_symmetry_space_group_name_H-M   'P 1'
_cell_length_a   9.70318179
_cell_length_b   9.70318179
_cell_length_c   9.27798789
_cell_angle_alpha   90.00000000
_cell_angle_beta   90.00000000
_cell_angle_gamma   120.00000000
_symmetry_Int_Tables_number   1
_chemical_formula_structural   Y6WO12
_chemical_formula_sum   'Y18 W3 O36'
_cell_volume   756.50668392
_cell_formula_units_Z   3
loop_
 _symmetry_equiv_pos_site_id
 _symmetry_equiv_pos_as_xyz
  1  'x, y, z'
loop_
 _atom_site_type_symbol
 _atom_site_label
 _atom_site_symmetry_multiplicity
 _atom_site_fract_x
 _atom_site_fract_y
 _atom_site_fract_z
 _atom_site_occupancy
  Y  Y1  1  0.04200503  0.78685044  0.64323123  1
  Y  Y1  1  0.25515459  0.04200503  0.35676877  1
  Y  Y1  1  0.78685044  0.74484541  0.35676877  1
  Y  Y1  1  0.95799497  0.21314956  0.35676877  1
  Y  Y1  1  0.74484541  0.95799497  0.64323123  1
  Y  Y1  1  0.21314956  0.25515459  0.64323123  1
  W  W1  1  0.00000000  0.00000000  0.00000000  1
  O  O1  1  0.22324051  0.03227196  0.59973424  1
  O  O1  1  0.80903145  0.77675949  0.59973424  1
  O  O1  1  0.96772804  0.19096855  0.59973424  1
  O  O1  1  0.77675949  0.96772804  0.40026576  1
  O  O1  1  0.19096855  0.22324051  0.40026576  1
  O  O1  1  0.03227196  0.80903145  0.40026576  1
  O  O2  1  0.62883659  0.47962755  0.44631206  1
  O  O2  1  0.47962755  0.85079096  0.55368794  1
  O  O2  1  0.14920904  0.62883659  0.55368794  1
  O  O2  1  0.37116341  0.52037245  0.55368794  1
  O  O2  1  0.52037245  0.14920904  0.44631206  1
  O  O2  1  0.85079096  0.37116341  0.44631206  1
  Y  Y1  1  0.70867170  0.12018377  0.97656457  1
  Y  Y1  1  0.92182126  0.37533837  0.69010210  1
  Y  Y1  1  0.45351711  0.07817874  0.69010210  1
  Y  Y1  1  0.62466163  0.54648289  0.69010210  1
  Y  Y1  1  0.41151207  0.29132830  0.97656457  1
  Y  Y1  1  0.87981623  0.58848793  0.97656457  1
  W  W1  1  0.66666667  0.33333333  0.33333333  1
  O  O1  1  0.88990718  0.36560529  0.93306757  1
  O  O1  1  0.47569811  0.11009282  0.93306757  1
  O  O1  1  0.63439471  0.52430189  0.93306757  1
  O  O1  1  0.44342615  0.30106137  0.73359909  1
  O  O1  1  0.85763522  0.55657385  0.73359909  1
  O  O1  1  0.69893863  0.14236478  0.73359909  1
  O  O2  1  0.29550326  0.81296089  0.77964539  1
  O  O2  1  0.14629422  0.18412429  0.88702127  1
  O  O2  1  0.81587571  0.96216993  0.88702127  1
  O  O2  1  0.03783007  0.85370578  0.88702127  1
  O  O2  1  0.18703911  0.48254237  0.77964539  1
  O  O2  1  0.51745763  0.70449674  0.77964539  1
  Y  Y1  1  0.37533837  0.45351711  0.30989790  1
  Y  Y1  1  0.58848793  0.70867170  0.02343543  1
  Y  Y1  1  0.12018377  0.41151207  0.02343543  1
  Y  Y1  1  0.29132830  0.87981623  0.02343543  1
  Y  Y1  1  0.07817874  0.62466163  0.30989790  1
  Y  Y1  1  0.54648289  0.92182126  0.30989790  1
  W  W1  1  0.33333333  0.66666667  0.66666667  1
  O  O1  1  0.55657385  0.69893863  0.26640091  1
  O  O1  1  0.14236478  0.44342615  0.26640091  1
  O  O1  1  0.30106137  0.85763522  0.26640091  1
  O  O1  1  0.11009282  0.63439471  0.06693243  1
  O  O1  1  0.52430189  0.88990718  0.06693243  1
  O  O1  1  0.36560529  0.47569811  0.06693243  1
  O  O2  1  0.96216993  0.14629422  0.11297873  1
  O  O2  1  0.81296089  0.51745763  0.22035461  1
  O  O2  1  0.48254237  0.29550326  0.22035461  1
  O  O2  1  0.70449674  0.18703911  0.22035461  1
  O  O2  1  0.85370578  0.81587571  0.11297873  1
  O  O2  1  0.18412429  0.03783007  0.11297873  1
