# generated using pymatgen
data_YAl3(BO3)4
_symmetry_space_group_name_H-M   'P 1'
_cell_length_a   9.30561641
_cell_length_b   9.30561641
_cell_length_c   7.20221581
_cell_angle_alpha   90.00000000
_cell_angle_beta   90.00000000
_cell_angle_gamma   120.00000000
_symmetry_Int_Tables_number   1
_chemical_formula_structural   YAl3(BO3)4
_chemical_formula_sum   'Y3 Al9 B12 O36'
_cell_volume   540.11601534
_cell_formula_units_Z   3
loop_
 _symmetry_equiv_pos_site_id
 _symmetry_equiv_pos_as_xyz
  1  'x, y, z'
loop_
 _atom_site_type_symbol
 _atom_site_label
 _atom_site_symmetry_multiplicity
 _atom_site_fract_x
 _atom_site_fract_y
 _atom_site_fract_z
 _atom_site_occupancy
  Y  Y1  1  0.00000000  0.00000000  0.00000000  1
  Al  Al1  1  0.11107260  0.33333333  0.33333333  1
  Al  Al1  1  0.66666667  0.77773927  0.33333333  1
  Al  Al1  1  0.22226073  0.88892740  0.33333333  1
  B  B1  1  0.55664241  0.00000000  0.50000000  1
  B  B1  1  0.00000000  0.55664241  0.50000000  1
  B  B1  1  0.44335759  0.44335759  0.50000000  1
  B  B2  1  0.00000000  0.00000000  0.50000000  1
  O  O1  1  0.69968216  0.15012032  0.52078807  1
  O  O1  1  0.30031784  0.45043816  0.47921193  1
  O  O1  1  0.15012032  0.69968216  0.47921193  1
  O  O1  1  0.54956184  0.84987968  0.47921193  1
  O  O2  1  0.85101903  0.85101903  0.50000000  1
  O  O2  1  0.00000000  0.14898097  0.50000000  1
  O  O2  1  0.14898097  0.00000000  0.50000000  1
  O  O3  1  0.59192809  0.59192809  0.50000000  1
  O  O3  1  0.00000000  0.40807191  0.50000000  1
  O  O3  1  0.40807191  0.00000000  0.50000000  1
  O  O1  1  0.45043816  0.30031784  0.52078807  1
  O  O1  1  0.84987968  0.54956184  0.52078807  1
  Y  Y1  1  0.66666667  0.33333333  0.33333333  1
  Al  Al1  1  0.77773927  0.66666667  0.66666667  1
  Al  Al1  1  0.33333333  0.11107260  0.66666667  1
  Al  Al1  1  0.88892740  0.22226073  0.66666667  1
  B  B1  1  0.22330907  0.33333333  0.83333333  1
  B  B1  1  0.66666667  0.88997574  0.83333333  1
  B  B1  1  0.11002426  0.77669093  0.83333333  1
  B  B2  1  0.66666667  0.33333333  0.83333333  1
  O  O1  1  0.36634883  0.48345365  0.85412140  1
  O  O1  1  0.96698451  0.78377149  0.81254527  1
  O  O1  1  0.81678699  0.03301549  0.81254527  1
  O  O1  1  0.21622851  0.18321301  0.81254527  1
  O  O2  1  0.51768569  0.18435236  0.83333333  1
  O  O2  1  0.66666667  0.48231431  0.83333333  1
  O  O2  1  0.81564764  0.33333333  0.83333333  1
  O  O3  1  0.25859476  0.92526143  0.83333333  1
  O  O3  1  0.66666667  0.74140524  0.83333333  1
  O  O3  1  0.07473857  0.33333333  0.83333333  1
  O  O1  1  0.11710483  0.63365117  0.85412140  1
  O  O1  1  0.51654635  0.88289517  0.85412140  1
  Y  Y1  1  0.33333333  0.66666667  0.66666667  1
  Al  Al1  1  0.44440594  0.00000000  0.00000000  1
  Al  Al1  1  0.00000000  0.44440594  0.00000000  1
  Al  Al1  1  0.55559406  0.55559406  0.00000000  1
  B  B1  1  0.88997574  0.66666667  0.16666667  1
  B  B1  1  0.33333333  0.22330907  0.16666667  1
  B  B1  1  0.77669093  0.11002426  0.16666667  1
  B  B2  1  0.33333333  0.66666667  0.16666667  1
  O  O1  1  0.03301549  0.81678699  0.18745473  1
  O  O1  1  0.63365117  0.11710483  0.14587860  1
  O  O1  1  0.48345365  0.36634883  0.14587860  1
  O  O1  1  0.88289517  0.51654635  0.14587860  1
  O  O2  1  0.18435236  0.51768569  0.16666667  1
  O  O2  1  0.33333333  0.81564764  0.16666667  1
  O  O2  1  0.48231431  0.66666667  0.16666667  1
  O  O3  1  0.92526143  0.25859476  0.16666667  1
  O  O3  1  0.33333333  0.07473857  0.16666667  1
  O  O3  1  0.74140524  0.66666667  0.16666667  1
  O  O1  1  0.78377149  0.96698451  0.18745473  1
  O  O1  1  0.18321301  0.21622851  0.18745473  1
