# generated using pymatgen
data_YAsO4
_symmetry_space_group_name_H-M   'P 1'
_cell_length_a   7.06359250
_cell_length_b   7.06359250
_cell_length_c   6.29840881
_cell_angle_alpha   90.00000000
_cell_angle_beta   90.00000000
_cell_angle_gamma   90.00000000
_symmetry_Int_Tables_number   1
_chemical_formula_structural   YAsO4
_chemical_formula_sum   'Y4 As4 O16'
_cell_volume   314.25494412
_cell_formula_units_Z   4
loop_
 _symmetry_equiv_pos_site_id
 _symmetry_equiv_pos_as_xyz
  1  'x, y, z'
loop_
 _atom_site_type_symbol
 _atom_site_label
 _atom_site_symmetry_multiplicity
 _atom_site_fract_x
 _atom_site_fract_y
 _atom_site_fract_z
 _atom_site_occupancy
  Y  Y1  1  0.50000000  0.00000000  0.25000000  1
  Y  Y1  1  0.00000000  0.00000000  0.50000000  1
  As  As1  1  0.50000000  0.00000000  0.75000000  1
  As  As1  1  0.50000000  0.50000000  0.50000000  1
  O  O1  1  0.50000000  0.31750842  0.32196270  1
  O  O1  1  0.31750842  0.00000000  0.57196270  1
  O  O1  1  0.68249158  0.00000000  0.57196270  1
  O  O1  1  0.00000000  0.18249158  0.82196270  1
  O  O1  1  0.18249158  0.00000000  0.17803730  1
  O  O1  1  0.00000000  0.68249158  0.42803730  1
  O  O1  1  0.00000000  0.31750842  0.42803730  1
  O  O1  1  0.31750842  0.50000000  0.67803730  1
  Y  Y1  1  0.00000000  0.50000000  0.75000000  1
  Y  Y1  1  0.50000000  0.50000000  0.00000000  1
  As  As1  1  0.00000000  0.50000000  0.25000000  1
  As  As1  1  0.00000000  0.00000000  0.00000000  1
  O  O1  1  0.00000000  0.81750842  0.82196270  1
  O  O1  1  0.81750842  0.50000000  0.07196270  1
  O  O1  1  0.18249158  0.50000000  0.07196270  1
  O  O1  1  0.50000000  0.68249158  0.32196270  1
  O  O1  1  0.68249158  0.50000000  0.67803730  1
  O  O1  1  0.50000000  0.18249158  0.92803730  1
  O  O1  1  0.50000000  0.81750842  0.92803730  1
  O  O1  1  0.81750842  0.00000000  0.17803730  1
