# generated using pymatgen
data_YBO3
_symmetry_space_group_name_H-M   'P 1'
_cell_length_a   11.28192500
_cell_length_b   6.50561532
_cell_length_c   8.81335399
_cell_angle_alpha   90.00000000
_cell_angle_beta   90.00000000
_cell_angle_gamma   90.00000000
_symmetry_Int_Tables_number   1
_chemical_formula_structural   YBO3
_chemical_formula_sum   'Y12 B12 O36'
_cell_volume   646.86373188
_cell_formula_units_Z   12
loop_
 _symmetry_equiv_pos_site_id
 _symmetry_equiv_pos_as_xyz
  1  'x, y, z'
loop_
 _atom_site_type_symbol
 _atom_site_label
 _atom_site_symmetry_multiplicity
 _atom_site_fract_x
 _atom_site_fract_y
 _atom_site_fract_z
 _atom_site_occupancy
  Y  Y1  1  0.67026330  0.00000000  0.50000000  1
  Y  Y1  1  0.67026330  0.00000000  0.00000000  1
  Y  Y2  1  0.00000000  0.00000000  0.50000000  1
  Y  Y2  1  0.00000000  0.00000000  0.00000000  1
  Y  Y1  1  0.82973670  0.50000000  0.50000000  1
  Y  Y1  1  0.82973670  0.50000000  0.00000000  1
  B  B1  1  0.87925045  0.78650030  0.75000000  1
  B  B1  1  0.62074955  0.28650030  0.75000000  1
  B  B2  1  0.00000000  0.42345902  0.75000000  1
  B  B2  1  0.00000000  0.57654098  0.25000000  1
  B  B1  1  0.62074955  0.71349970  0.25000000  1
  B  B1  1  0.87925045  0.21349970  0.25000000  1
  O  O1  1  0.60936255  0.94405230  0.25000000  1
  O  O1  1  0.89063745  0.44405230  0.25000000  1
  O  O2  1  0.00000000  0.11637164  0.25000000  1
  O  O2  1  0.00000000  0.88362836  0.75000000  1
  O  O1  1  0.89063745  0.55594770  0.75000000  1
  O  O1  1  0.60936255  0.05594770  0.75000000  1
  O  O3  1  0.82449316  0.15824410  0.10745217  1
  O  O3  1  0.82449316  0.15824410  0.39254783  1
  O  O3  1  0.67550684  0.65824410  0.10745217  1
  O  O3  1  0.67550684  0.65824410  0.39254783  1
  O  O4  1  0.00000000  0.68532144  0.10564040  1
  O  O4  1  0.00000000  0.68532144  0.39435960  1
  O  O4  1  0.00000000  0.31467856  0.60564040  1
  O  O4  1  0.00000000  0.31467856  0.89435960  1
  O  O3  1  0.67550684  0.34175590  0.60745217  1
  O  O3  1  0.67550684  0.34175590  0.89254783  1
  O  O3  1  0.82449316  0.84175590  0.60745217  1
  O  O3  1  0.82449316  0.84175590  0.89254783  1
  Y  Y1  1  0.17026330  0.50000000  0.50000000  1
  Y  Y1  1  0.17026330  0.50000000  0.00000000  1
  Y  Y2  1  0.50000000  0.50000000  0.50000000  1
  Y  Y2  1  0.50000000  0.50000000  0.00000000  1
  Y  Y1  1  0.32973670  0.00000000  0.50000000  1
  Y  Y1  1  0.32973670  0.00000000  0.00000000  1
  B  B1  1  0.37925045  0.28650030  0.75000000  1
  B  B1  1  0.12074955  0.78650030  0.75000000  1
  B  B2  1  0.50000000  0.92345902  0.75000000  1
  B  B2  1  0.50000000  0.07654098  0.25000000  1
  B  B1  1  0.12074955  0.21349970  0.25000000  1
  B  B1  1  0.37925045  0.71349970  0.25000000  1
  O  O1  1  0.10936255  0.44405230  0.25000000  1
  O  O1  1  0.39063745  0.94405230  0.25000000  1
  O  O2  1  0.50000000  0.61637164  0.25000000  1
  O  O2  1  0.50000000  0.38362836  0.75000000  1
  O  O1  1  0.39063745  0.05594770  0.75000000  1
  O  O1  1  0.10936255  0.55594770  0.75000000  1
  O  O3  1  0.32449316  0.65824410  0.10745217  1
  O  O3  1  0.32449316  0.65824410  0.39254783  1
  O  O3  1  0.17550684  0.15824410  0.10745217  1
  O  O3  1  0.17550684  0.15824410  0.39254783  1
  O  O4  1  0.50000000  0.18532144  0.10564040  1
  O  O4  1  0.50000000  0.18532144  0.39435960  1
  O  O4  1  0.50000000  0.81467856  0.60564040  1
  O  O4  1  0.50000000  0.81467856  0.89435960  1
  O  O3  1  0.17550684  0.84175590  0.60745217  1
  O  O3  1  0.17550684  0.84175590  0.89254783  1
  O  O3  1  0.32449316  0.34175590  0.60745217  1
  O  O3  1  0.32449316  0.34175590  0.89254783  1
