# generated using pymatgen
data_YNbO4
_symmetry_space_group_name_H-M   'P 1'
_cell_length_a   7.02608995
_cell_length_b   10.93144233
_cell_length_c   5.08245613
_cell_angle_alpha   90.00000000
_cell_angle_beta   131.39732980
_cell_angle_gamma   90.00000000
_symmetry_Int_Tables_number   1
_chemical_formula_structural   YNbO4
_chemical_formula_sum   'Y4 Nb4 O16'
_cell_volume   292.82505209
_cell_formula_units_Z   4
loop_
 _symmetry_equiv_pos_site_id
 _symmetry_equiv_pos_as_xyz
  1  'x, y, z'
loop_
 _atom_site_type_symbol
 _atom_site_label
 _atom_site_symmetry_multiplicity
 _atom_site_fract_x
 _atom_site_fract_y
 _atom_site_fract_z
 _atom_site_occupancy
  Y  Y1  1  0.00000000  0.62923914  0.25000000  1
  Y  Y1  1  0.50000000  0.87076086  0.75000000  1
  Nb  Nb1  1  0.50000000  0.60549686  0.25000000  1
  Nb  Nb1  1  0.00000000  0.89450314  0.75000000  1
  O  O1  1  0.75237514  0.96918279  0.28897893  1
  O  O1  1  0.24762486  0.96918279  0.21102107  1
  O  O1  1  0.74762486  0.53081721  0.71102107  1
  O  O1  1  0.25237514  0.53081721  0.78897893  1
  O  O2  1  0.83918990  0.78797236  0.83928866  1
  O  O2  1  0.16081010  0.78797236  0.66071134  1
  O  O2  1  0.66081010  0.71202764  0.16071134  1
  O  O2  1  0.33918990  0.71202764  0.33928866  1
  Y  Y1  1  0.50000000  0.12923914  0.25000000  1
  Y  Y1  1  0.00000000  0.37076086  0.75000000  1
  Nb  Nb1  1  0.00000000  0.10549686  0.25000000  1
  Nb  Nb1  1  0.50000000  0.39450314  0.75000000  1
  O  O1  1  0.25237514  0.46918279  0.28897893  1
  O  O1  1  0.74762486  0.46918279  0.21102107  1
  O  O1  1  0.24762486  0.03081721  0.71102107  1
  O  O1  1  0.75237514  0.03081721  0.78897893  1
  O  O2  1  0.33918990  0.28797236  0.83928866  1
  O  O2  1  0.66081010  0.28797236  0.66071134  1
  O  O2  1  0.16081010  0.21202764  0.16071134  1
  O  O2  1  0.83918990  0.21202764  0.33928866  1
