# generated using pymatgen
data_YTaO4
_symmetry_space_group_name_H-M   'P 1'
_cell_length_a   5.10742755
_cell_length_b   5.42263438
_cell_length_c   5.28659790
_cell_angle_alpha   90.00000000
_cell_angle_beta   96.95875256
_cell_angle_gamma   90.00000000
_symmetry_Int_Tables_number   1
_chemical_formula_structural   YTaO4
_chemical_formula_sum   'Y2 Ta2 O8'
_cell_volume   145.33753877
_cell_formula_units_Z   2
loop_
 _symmetry_equiv_pos_site_id
 _symmetry_equiv_pos_as_xyz
  1  'x, y, z'
loop_
 _atom_site_type_symbol
 _atom_site_label
 _atom_site_symmetry_multiplicity
 _atom_site_fract_x
 _atom_site_fract_y
 _atom_site_fract_z
 _atom_site_occupancy
  Y  Y1  1  0.00000000  0.23372234  0.75000000  1
  Y  Y1  1  0.00000000  0.76627766  0.25000000  1
  Ta  Ta1  1  0.50000000  0.69303822  0.75000000  1
  Ta  Ta1  1  0.50000000  0.30696178  0.25000000  1
  O  O1  1  0.75081082  0.91911289  0.89953734  1
  O  O1  1  0.24918918  0.91911289  0.60046266  1
  O  O1  1  0.24918918  0.08088711  0.10046266  1
  O  O1  1  0.75081082  0.08088711  0.39953734  1
  O  O2  1  0.73279342  0.43900785  0.00645324  1
  O  O2  1  0.26720658  0.43900785  0.49354676  1
  O  O2  1  0.26720658  0.56099215  0.99354676  1
  O  O2  1  0.73279342  0.56099215  0.50645324  1
