# generated using pymatgen
data_YTl(WO4)2
_symmetry_space_group_name_H-M   'P 1'
_cell_length_a   10.66577136
_cell_length_b   10.46222369
_cell_length_c   7.45848772
_cell_angle_alpha   90.00000000
_cell_angle_beta   130.61992648
_cell_angle_gamma   90.00000000
_symmetry_Int_Tables_number   1
_chemical_formula_structural   YTl(WO4)2
_chemical_formula_sum   'Y4 Tl4 W8 O32'
_cell_volume   631.73441347
_cell_formula_units_Z   4
loop_
 _symmetry_equiv_pos_site_id
 _symmetry_equiv_pos_as_xyz
  1  'x, y, z'
loop_
 _atom_site_type_symbol
 _atom_site_label
 _atom_site_symmetry_multiplicity
 _atom_site_fract_x
 _atom_site_fract_y
 _atom_site_fract_z
 _atom_site_occupancy
  Y  Y1  1  0.00000000  0.77182660  0.75000000  1
  Y  Y1  1  0.00000000  0.22817340  0.25000000  1
  Tl  Tl1  1  0.00000000  0.20846974  0.75000000  1
  Tl  Tl1  1  0.00000000  0.79153026  0.25000000  1
  W  W1  1  0.80275920  0.50251946  0.76882770  1
  W  W1  1  0.19724080  0.49748054  0.23117230  1
  W  W1  1  0.19724080  0.50251946  0.73117230  1
  W  W1  1  0.80275920  0.49748054  0.26882770  1
  O  O1  1  0.80878262  0.42891002  0.55347174  1
  O  O1  1  0.19121738  0.57108998  0.44652826  1
  O  O1  1  0.19121738  0.42891002  0.94652826  1
  O  O1  1  0.80878262  0.57108998  0.05347174  1
  O  O2  1  0.27580248  0.65883798  0.87580334  1
  O  O2  1  0.72419752  0.34116202  0.12419666  1
  O  O2  1  0.72419752  0.65883798  0.62419666  1
  O  O2  1  0.27580248  0.34116202  0.37580334  1
  O  O3  1  0.02254724  0.60829654  0.97026920  1
  O  O3  1  0.97745276  0.39170346  0.02973080  1
  O  O3  1  0.97745276  0.60829654  0.52973080  1
  O  O3  1  0.02254724  0.39170346  0.47026920  1
  O  O4  1  0.62645250  0.41655724  0.68831662  1
  O  O4  1  0.37354750  0.58344276  0.31168338  1
  O  O4  1  0.37354750  0.41655724  0.81168338  1
  O  O4  1  0.62645250  0.58344276  0.18831662  1
  Y  Y1  1  0.50000000  0.27182660  0.75000000  1
  Y  Y1  1  0.50000000  0.72817340  0.25000000  1
  Tl  Tl1  1  0.50000000  0.70846974  0.75000000  1
  Tl  Tl1  1  0.50000000  0.29153026  0.25000000  1
  W  W1  1  0.30275920  0.00251946  0.76882770  1
  W  W1  1  0.69724080  0.99748054  0.23117230  1
  W  W1  1  0.69724080  0.00251946  0.73117230  1
  W  W1  1  0.30275920  0.99748054  0.26882770  1
  O  O1  1  0.30878262  0.92891002  0.55347174  1
  O  O1  1  0.69121738  0.07108998  0.44652826  1
  O  O1  1  0.69121738  0.92891002  0.94652826  1
  O  O1  1  0.30878262  0.07108998  0.05347174  1
  O  O2  1  0.77580248  0.15883798  0.87580334  1
  O  O2  1  0.22419752  0.84116202  0.12419666  1
  O  O2  1  0.22419752  0.15883798  0.62419666  1
  O  O2  1  0.77580248  0.84116202  0.37580334  1
  O  O3  1  0.52254724  0.10829654  0.97026920  1
  O  O3  1  0.47745276  0.89170346  0.02973080  1
  O  O3  1  0.47745276  0.10829654  0.52973080  1
  O  O3  1  0.52254724  0.89170346  0.47026920  1
  O  O4  1  0.12645250  0.91655724  0.68831662  1
  O  O4  1  0.87354750  0.08344276  0.31168338  1
  O  O4  1  0.87354750  0.91655724  0.81168338  1
  O  O4  1  0.12645250  0.08344276  0.18831662  1
