# generated using pymatgen
data_YVO4
_symmetry_space_group_name_H-M   'P 1'
_cell_length_a   7.11887901
_cell_length_b   7.11887901
_cell_length_c   6.25047152
_cell_angle_alpha   90.00000000
_cell_angle_beta   90.00000000
_cell_angle_gamma   90.00000000
_symmetry_Int_Tables_number   1
_chemical_formula_structural   YVO4
_chemical_formula_sum   'Y4 V4 O16'
_cell_volume   316.76413564
_cell_formula_units_Z   4
loop_
 _symmetry_equiv_pos_site_id
 _symmetry_equiv_pos_as_xyz
  1  'x, y, z'
loop_
 _atom_site_type_symbol
 _atom_site_label
 _atom_site_symmetry_multiplicity
 _atom_site_fract_x
 _atom_site_fract_y
 _atom_site_fract_z
 _atom_site_occupancy
  Y  Y1  1  0.50000000  0.50000000  0.50000000  1
  Y  Y1  1  0.50000000  0.00000000  0.75000000  1
  V  V1  1  0.00000000  0.00000000  0.50000000  1
  V  V1  1  0.50000000  0.00000000  0.25000000  1
  O  O1  1  0.18531224  0.50000000  0.57421602  1
  O  O1  1  0.00000000  0.81468776  0.32421602  1
  O  O1  1  0.00000000  0.18531224  0.32421602  1
  O  O1  1  0.31468776  0.00000000  0.07421602  1
  O  O1  1  0.00000000  0.31468776  0.92578398  1
  O  O1  1  0.18531224  0.00000000  0.67578398  1
  O  O1  1  0.81468776  0.00000000  0.67578398  1
  O  O1  1  0.50000000  0.18531224  0.42578398  1
  Y  Y1  1  0.00000000  0.00000000  0.00000000  1
  Y  Y1  1  0.00000000  0.50000000  0.25000000  1
  V  V1  1  0.50000000  0.50000000  0.00000000  1
  V  V1  1  0.00000000  0.50000000  0.75000000  1
  O  O1  1  0.68531224  0.00000000  0.07421602  1
  O  O1  1  0.50000000  0.31468776  0.82421602  1
  O  O1  1  0.50000000  0.68531224  0.82421602  1
  O  O1  1  0.81468776  0.50000000  0.57421602  1
  O  O1  1  0.50000000  0.81468776  0.42578398  1
  O  O1  1  0.68531224  0.50000000  0.17578398  1
  O  O1  1  0.31468776  0.50000000  0.17578398  1
  O  O1  1  0.00000000  0.68531224  0.92578398  1
