# generated using pymatgen
data_Zn(GaO2)2
_symmetry_space_group_name_H-M   'P 1'
_cell_length_a   8.30379059
_cell_length_b   8.30379059
_cell_length_c   8.30379059
_cell_angle_alpha   90.00000000
_cell_angle_beta   90.00000000
_cell_angle_gamma   90.00000000
_symmetry_Int_Tables_number   1
_chemical_formula_structural   Zn(GaO2)2
_chemical_formula_sum   'Zn8 Ga16 O32'
_cell_volume   572.57075907
_cell_formula_units_Z   8
loop_
 _symmetry_equiv_pos_site_id
 _symmetry_equiv_pos_as_xyz
  1  'x, y, z'
loop_
 _atom_site_type_symbol
 _atom_site_label
 _atom_site_symmetry_multiplicity
 _atom_site_fract_x
 _atom_site_fract_y
 _atom_site_fract_z
 _atom_site_occupancy
  Zn  Zn1  1  0.00000000  0.00000000  0.00000000  1
  Zn  Zn1  1  0.25000000  0.25000000  0.25000000  1
  Ga  Ga1  1  0.37500000  0.87500000  0.12500000  1
  Ga  Ga1  1  0.37500000  0.12500000  0.87500000  1
  Ga  Ga1  1  0.12500000  0.87500000  0.37500000  1
  Ga  Ga1  1  0.12500000  0.12500000  0.62500000  1
  O  O1  1  0.11487732  0.88512268  0.61487732  1
  O  O1  1  0.13512268  0.63512268  0.36487732  1
  O  O1  1  0.36487732  0.86487732  0.36487732  1
  O  O1  1  0.36487732  0.63512268  0.13512268  1
  O  O1  1  0.38512268  0.88512268  0.88512268  1
  O  O1  1  0.38512268  0.11487732  0.11487732  1
  O  O1  1  0.13512268  0.86487732  0.13512268  1
  O  O1  1  0.11487732  0.11487732  0.38512268  1
  Zn  Zn1  1  0.00000000  0.50000000  0.50000000  1
  Zn  Zn1  1  0.25000000  0.75000000  0.75000000  1
  Ga  Ga1  1  0.37500000  0.37500000  0.62500000  1
  Ga  Ga1  1  0.37500000  0.62500000  0.37500000  1
  Ga  Ga1  1  0.12500000  0.37500000  0.87500000  1
  Ga  Ga1  1  0.12500000  0.62500000  0.12500000  1
  O  O1  1  0.11487732  0.38512268  0.11487732  1
  O  O1  1  0.13512268  0.13512268  0.86487732  1
  O  O1  1  0.36487732  0.36487732  0.86487732  1
  O  O1  1  0.36487732  0.13512268  0.63512268  1
  O  O1  1  0.38512268  0.38512268  0.38512268  1
  O  O1  1  0.38512268  0.61487732  0.61487732  1
  O  O1  1  0.13512268  0.36487732  0.63512268  1
  O  O1  1  0.11487732  0.61487732  0.88512268  1
  Zn  Zn1  1  0.50000000  0.00000000  0.50000000  1
  Zn  Zn1  1  0.75000000  0.25000000  0.75000000  1
  Ga  Ga1  1  0.87500000  0.87500000  0.62500000  1
  Ga  Ga1  1  0.87500000  0.12500000  0.37500000  1
  Ga  Ga1  1  0.62500000  0.87500000  0.87500000  1
  Ga  Ga1  1  0.62500000  0.12500000  0.12500000  1
  O  O1  1  0.61487732  0.88512268  0.11487732  1
  O  O1  1  0.63512268  0.63512268  0.86487732  1
  O  O1  1  0.86487732  0.86487732  0.86487732  1
  O  O1  1  0.86487732  0.63512268  0.63512268  1
  O  O1  1  0.88512268  0.88512268  0.38512268  1
  O  O1  1  0.88512268  0.11487732  0.61487732  1
  O  O1  1  0.63512268  0.86487732  0.63512268  1
  O  O1  1  0.61487732  0.11487732  0.88512268  1
  Zn  Zn1  1  0.50000000  0.50000000  0.00000000  1
  Zn  Zn1  1  0.75000000  0.75000000  0.25000000  1
  Ga  Ga1  1  0.87500000  0.37500000  0.12500000  1
  Ga  Ga1  1  0.87500000  0.62500000  0.87500000  1
  Ga  Ga1  1  0.62500000  0.37500000  0.37500000  1
  Ga  Ga1  1  0.62500000  0.62500000  0.62500000  1
  O  O1  1  0.61487732  0.38512268  0.61487732  1
  O  O1  1  0.63512268  0.13512268  0.36487732  1
  O  O1  1  0.86487732  0.36487732  0.36487732  1
  O  O1  1  0.86487732  0.13512268  0.13512268  1
  O  O1  1  0.88512268  0.38512268  0.88512268  1
  O  O1  1  0.88512268  0.61487732  0.11487732  1
  O  O1  1  0.63512268  0.36487732  0.13512268  1
  O  O1  1  0.61487732  0.61487732  0.38512268  1
