# generated using pymatgen
data_Zn(PtO2)3
_symmetry_space_group_name_H-M   'P 1'
_cell_length_a   7.06547962
_cell_length_b   9.87318581
_cell_length_c   3.17152502
_cell_angle_alpha   90.00000000
_cell_angle_beta   90.00000000
_cell_angle_gamma   90.00000000
_symmetry_Int_Tables_number   1
_chemical_formula_structural   Zn(PtO2)3
_chemical_formula_sum   'Zn2 Pt6 O12'
_cell_volume   221.24175776
_cell_formula_units_Z   2
loop_
 _symmetry_equiv_pos_site_id
 _symmetry_equiv_pos_as_xyz
  1  'x, y, z'
loop_
 _atom_site_type_symbol
 _atom_site_label
 _atom_site_symmetry_multiplicity
 _atom_site_fract_x
 _atom_site_fract_y
 _atom_site_fract_z
 _atom_site_occupancy
  Zn  Zn1  1  0.00000000  0.50000000  0.00000000  1
  Pt  Pt1  1  0.75000000  0.25000000  0.50000000  1
  Pt  Pt2  1  0.00000000  0.00000000  0.00000000  1
  Pt  Pt1  1  0.25000000  0.25000000  0.50000000  1
  O  O1  1  0.71251608  0.62707628  0.00000000  1
  O  O1  1  0.28748392  0.37292372  0.00000000  1
  O  O1  1  0.71251608  0.37292372  0.00000000  1
  O  O1  1  0.28748392  0.62707628  0.00000000  1
  O  O2  1  0.00000000  0.35312058  0.50000000  1
  O  O2  1  0.00000000  0.64687942  0.50000000  1
  Zn  Zn1  1  0.50000000  0.00000000  0.00000000  1
  Pt  Pt1  1  0.25000000  0.75000000  0.50000000  1
  Pt  Pt2  1  0.50000000  0.50000000  0.00000000  1
  Pt  Pt1  1  0.75000000  0.75000000  0.50000000  1
  O  O1  1  0.21251608  0.12707628  0.00000000  1
  O  O1  1  0.78748392  0.87292372  0.00000000  1
  O  O1  1  0.21251608  0.87292372  0.00000000  1
  O  O1  1  0.78748392  0.12707628  0.00000000  1
  O  O2  1  0.50000000  0.85312058  0.50000000  1
  O  O2  1  0.50000000  0.14687942  0.50000000  1
