# generated using pymatgen
data_Zn(SbO3)2
_symmetry_space_group_name_H-M   'P 1'
_cell_length_a   4.67058572
_cell_length_b   4.67058572
_cell_length_c   9.28625778
_cell_angle_alpha   90.00000000
_cell_angle_beta   90.00000000
_cell_angle_gamma   90.00000000
_symmetry_Int_Tables_number   1
_chemical_formula_structural   Zn(SbO3)2
_chemical_formula_sum   'Zn2 Sb4 O12'
_cell_volume   202.57387255
_cell_formula_units_Z   2
loop_
 _symmetry_equiv_pos_site_id
 _symmetry_equiv_pos_as_xyz
  1  'x, y, z'
loop_
 _atom_site_type_symbol
 _atom_site_label
 _atom_site_symmetry_multiplicity
 _atom_site_fract_x
 _atom_site_fract_y
 _atom_site_fract_z
 _atom_site_occupancy
  Zn  Zn1  1  0.00000000  0.00000000  0.00000000  1
  Zn  Zn1  1  0.50000000  0.50000000  0.50000000  1
  Sb  Sb1  1  0.50000000  0.50000000  0.83241867  1
  Sb  Sb1  1  0.00000000  0.00000000  0.33241867  1
  Sb  Sb1  1  0.50000000  0.50000000  0.16758133  1
  Sb  Sb1  1  0.00000000  0.00000000  0.66758133  1
  O  O1  1  0.69681150  0.30318850  0.67003442  1
  O  O1  1  0.30318850  0.69681150  0.67003442  1
  O  O1  1  0.69681150  0.30318850  0.32996558  1
  O  O1  1  0.80318850  0.80318850  0.17003442  1
  O  O1  1  0.19681150  0.19681150  0.17003442  1
  O  O1  1  0.19681150  0.19681150  0.82996558  1
  O  O2  1  0.30789716  0.69210284  0.00000000  1
  O  O2  1  0.80789716  0.80789716  0.50000000  1
  O  O2  1  0.19210284  0.19210284  0.50000000  1
  O  O2  1  0.69210284  0.30789716  0.00000000  1
  O  O1  1  0.30318850  0.69681150  0.32996558  1
  O  O1  1  0.80318850  0.80318850  0.82996558  1
