# generated using pymatgen
data_Zn2PtO4
_symmetry_space_group_name_H-M   'P 1'
_cell_length_a   5.80234233
_cell_length_b   6.08038723
_cell_length_c   8.54447930
_cell_angle_alpha   90.00000000
_cell_angle_beta   90.00000000
_cell_angle_gamma   90.00000000
_symmetry_Int_Tables_number   1
_chemical_formula_structural   Zn2PtO4
_chemical_formula_sum   'Zn8 Pt4 O16'
_cell_volume   301.45340169
_cell_formula_units_Z   4
loop_
 _symmetry_equiv_pos_site_id
 _symmetry_equiv_pos_as_xyz
  1  'x, y, z'
loop_
 _atom_site_type_symbol
 _atom_site_label
 _atom_site_symmetry_multiplicity
 _atom_site_fract_x
 _atom_site_fract_y
 _atom_site_fract_z
 _atom_site_occupancy
  Zn  Zn1  1  0.00000000  0.75000000  0.85101968  1
  Zn  Zn1  1  0.00000000  0.25000000  0.14898032  1
  Zn  Zn2  1  0.75000000  0.75000000  0.25000000  1
  Zn  Zn2  1  0.25000000  0.75000000  0.25000000  1
  Pt  Pt1  1  0.50000000  0.00000000  0.00000000  1
  Pt  Pt1  1  0.50000000  0.50000000  0.00000000  1
  O  O1  1  0.00000000  0.51905762  0.26386332  1
  O  O1  1  0.50000000  0.48094238  0.76386332  1
  O  O2  1  0.26927382  0.25000000  0.99985426  1
  O  O2  1  0.73072618  0.25000000  0.99985426  1
  O  O2  1  0.26927382  0.75000000  0.00014574  1
  O  O1  1  0.50000000  0.51905762  0.23613668  1
  O  O2  1  0.73072618  0.75000000  0.00014574  1
  O  O1  1  0.00000000  0.48094238  0.73613668  1
  Zn  Zn1  1  0.50000000  0.25000000  0.35101968  1
  Zn  Zn1  1  0.50000000  0.75000000  0.64898032  1
  Zn  Zn2  1  0.25000000  0.25000000  0.75000000  1
  Zn  Zn2  1  0.75000000  0.25000000  0.75000000  1
  Pt  Pt1  1  0.00000000  0.50000000  0.50000000  1
  Pt  Pt1  1  0.00000000  0.00000000  0.50000000  1
  O  O1  1  0.50000000  0.01905762  0.76386332  1
  O  O1  1  0.00000000  0.98094238  0.26386332  1
  O  O2  1  0.76927382  0.75000000  0.49985426  1
  O  O2  1  0.23072618  0.75000000  0.49985426  1
  O  O2  1  0.76927382  0.25000000  0.50014574  1
  O  O1  1  0.00000000  0.01905762  0.73613668  1
  O  O2  1  0.23072618  0.25000000  0.50014574  1
  O  O1  1  0.50000000  0.98094238  0.23613668  1
