# generated using pymatgen
data_Zn3(AsO4)2
_symmetry_space_group_name_H-M   'P 1'
_cell_length_a   5.25629475
_cell_length_b   8.31217810
_cell_length_c   8.78724109
_cell_angle_alpha   90.00000000
_cell_angle_beta   119.25261949
_cell_angle_gamma   90.00000000
_symmetry_Int_Tables_number   1
_chemical_formula_structural   Zn3(AsO4)2
_chemical_formula_sum   'Zn6 As4 O16'
_cell_volume   334.96499205
_cell_formula_units_Z   2
loop_
 _symmetry_equiv_pos_site_id
 _symmetry_equiv_pos_as_xyz
  1  'x, y, z'
loop_
 _atom_site_type_symbol
 _atom_site_label
 _atom_site_symmetry_multiplicity
 _atom_site_fract_x
 _atom_site_fract_y
 _atom_site_fract_z
 _atom_site_occupancy
  Zn  Zn1  1  0.51048236  0.14025350  0.10614760  1
  Zn  Zn1  1  0.48951764  0.64025350  0.39385240  1
  Zn  Zn1  1  0.48951764  0.85974650  0.89385240  1
  Zn  Zn1  1  0.51048236  0.35974650  0.60614760  1
  Zn  Zn2  1  0.50000000  0.00000000  0.50000000  1
  Zn  Zn2  1  0.50000000  0.50000000  0.00000000  1
  As  As1  1  0.14526631  0.30671642  0.19235028  1
  As  As1  1  0.85473369  0.80671642  0.30764972  1
  As  As1  1  0.85473369  0.69328358  0.80764972  1
  As  As1  1  0.14526631  0.19328358  0.69235028  1
  O  O1  1  0.28694266  0.06199742  0.86450984  1
  O  O1  1  0.71305734  0.56199742  0.63549016  1
  O  O1  1  0.71305734  0.93800258  0.13549016  1
  O  O1  1  0.28694266  0.43800258  0.36450984  1
  O  O2  1  0.77756237  0.19794346  0.61456476  1
  O  O2  1  0.22243763  0.69794346  0.88543524  1
  O  O2  1  0.22243763  0.80205654  0.38543524  1
  O  O2  1  0.77756237  0.30205654  0.11456476  1
  O  O3  1  0.22106390  0.13886306  0.53109858  1
  O  O3  1  0.77893610  0.63886306  0.96890142  1
  O  O4  1  0.32955098  0.12507186  0.25447566  1
  O  O4  1  0.67044902  0.62507186  0.24552434  1
  O  O4  1  0.67044902  0.87492814  0.74552434  1
  O  O4  1  0.32955098  0.37492814  0.75447566  1
  O  O3  1  0.22106390  0.36113694  0.03109858  1
  O  O3  1  0.77893610  0.86113694  0.46890142  1
