# generated using pymatgen
data_Zn4B6O13
_symmetry_space_group_name_H-M   'P 1'
_cell_length_a   7.41441603
_cell_length_b   7.41441603
_cell_length_c   7.41441603
_cell_angle_alpha   90.00000000
_cell_angle_beta   90.00000000
_cell_angle_gamma   90.00000000
_symmetry_Int_Tables_number   1
_chemical_formula_structural   Zn4B6O13
_chemical_formula_sum   'Zn8 B12 O26'
_cell_volume   407.59688205
_cell_formula_units_Z   2
loop_
 _symmetry_equiv_pos_site_id
 _symmetry_equiv_pos_as_xyz
  1  'x, y, z'
loop_
 _atom_site_type_symbol
 _atom_site_label
 _atom_site_symmetry_multiplicity
 _atom_site_fract_x
 _atom_site_fract_y
 _atom_site_fract_z
 _atom_site_occupancy
  Zn  Zn1  1  0.34787522  0.34787522  0.34787522  1
  Zn  Zn1  1  0.15212478  0.84787522  0.15212478  1
  Zn  Zn1  1  0.84787522  0.15212478  0.15212478  1
  Zn  Zn1  1  0.15212478  0.15212478  0.84787522  1
  B  B1  1  0.50000000  0.25000000  0.00000000  1
  B  B1  1  0.00000000  0.50000000  0.25000000  1
  B  B1  1  0.50000000  0.00000000  0.25000000  1
  B  B1  1  0.25000000  0.00000000  0.50000000  1
  B  B1  1  0.25000000  0.50000000  0.00000000  1
  B  B1  1  0.00000000  0.25000000  0.50000000  1
  O  O1  1  0.13892596  0.13892596  0.58881424  1
  O  O1  1  0.13892596  0.86107404  0.41118576  1
  O  O1  1  0.36107404  0.08881424  0.36107404  1
  O  O1  1  0.86107404  0.13892596  0.41118576  1
  O  O1  1  0.41118576  0.86107404  0.13892596  1
  O  O1  1  0.08881424  0.36107404  0.36107404  1
  O  O1  1  0.58881424  0.13892596  0.13892596  1
  O  O1  1  0.13892596  0.58881424  0.13892596  1
  O  O1  1  0.13892596  0.41118576  0.86107404  1
  O  O1  1  0.41118576  0.13892596  0.86107404  1
  O  O1  1  0.36107404  0.36107404  0.08881424  1
  O  O1  1  0.86107404  0.41118576  0.13892596  1
  O  O2  1  0.00000000  0.00000000  0.00000000  1
  Zn  Zn1  1  0.84787522  0.84787522  0.84787522  1
  Zn  Zn1  1  0.65212478  0.34787522  0.65212478  1
  Zn  Zn1  1  0.34787522  0.65212478  0.65212478  1
  Zn  Zn1  1  0.65212478  0.65212478  0.34787522  1
  B  B1  1  0.00000000  0.75000000  0.50000000  1
  B  B1  1  0.50000000  0.00000000  0.75000000  1
  B  B1  1  0.00000000  0.50000000  0.75000000  1
  B  B1  1  0.75000000  0.50000000  0.00000000  1
  B  B1  1  0.75000000  0.00000000  0.50000000  1
  B  B1  1  0.50000000  0.75000000  0.00000000  1
  O  O1  1  0.63892596  0.63892596  0.08881424  1
  O  O1  1  0.63892596  0.36107404  0.91118576  1
  O  O1  1  0.86107404  0.58881424  0.86107404  1
  O  O1  1  0.36107404  0.63892596  0.91118576  1
  O  O1  1  0.91118576  0.36107404  0.63892596  1
  O  O1  1  0.58881424  0.86107404  0.86107404  1
  O  O1  1  0.08881424  0.63892596  0.63892596  1
  O  O1  1  0.63892596  0.08881424  0.63892596  1
  O  O1  1  0.63892596  0.91118576  0.36107404  1
  O  O1  1  0.91118576  0.63892596  0.36107404  1
  O  O1  1  0.86107404  0.86107404  0.58881424  1
  O  O1  1  0.36107404  0.91118576  0.63892596  1
  O  O2  1  0.50000000  0.50000000  0.50000000  1
