# generated using pymatgen
data_ZnWO4
_symmetry_space_group_name_H-M   'P 1'
_cell_length_a   4.62054732
_cell_length_b   5.67202064
_cell_length_c   4.89256294
_cell_angle_alpha   90.00000000
_cell_angle_beta   90.38775213
_cell_angle_gamma   90.00000000
_symmetry_Int_Tables_number   1
_chemical_formula_structural   ZnWO4
_chemical_formula_sum   'Zn2 W2 O8'
_cell_volume   128.22056912
_cell_formula_units_Z   2
loop_
 _symmetry_equiv_pos_site_id
 _symmetry_equiv_pos_as_xyz
  1  'x, y, z'
loop_
 _atom_site_type_symbol
 _atom_site_label
 _atom_site_symmetry_multiplicity
 _atom_site_fract_x
 _atom_site_fract_y
 _atom_site_fract_z
 _atom_site_occupancy
  Zn  Zn1  1  0.50000000  0.67286663  0.25000000  1
  Zn  Zn1  1  0.50000000  0.32713337  0.75000000  1
  W  W1  1  0.00000000  0.18105329  0.25000000  1
  W  W1  1  0.00000000  0.81894671  0.75000000  1
  O  O1  1  0.78008194  0.10765690  0.56915669  1
  O  O1  1  0.21991806  0.10765690  0.93084331  1
  O  O1  1  0.21991806  0.89234310  0.43084331  1
  O  O1  1  0.78008194  0.89234310  0.06915669  1
  O  O2  1  0.73956488  0.37800719  0.09493897  1
  O  O2  1  0.26043512  0.37800719  0.40506103  1
  O  O2  1  0.26043512  0.62199281  0.90506103  1
  O  O2  1  0.73956488  0.62199281  0.59493897  1
