# generated using pymatgen
data_ZrGeO4
_symmetry_space_group_name_H-M   'P 1'
_cell_length_a   4.88909891
_cell_length_b   4.88909891
_cell_length_c   10.54344866
_cell_angle_alpha   90.00000000
_cell_angle_beta   90.00000000
_cell_angle_gamma   90.00000000
_symmetry_Int_Tables_number   1
_chemical_formula_structural   ZrGeO4
_chemical_formula_sum   'Zr4 Ge4 O16'
_cell_volume   252.02309195
_cell_formula_units_Z   4
loop_
 _symmetry_equiv_pos_site_id
 _symmetry_equiv_pos_as_xyz
  1  'x, y, z'
loop_
 _atom_site_type_symbol
 _atom_site_label
 _atom_site_symmetry_multiplicity
 _atom_site_fract_x
 _atom_site_fract_y
 _atom_site_fract_z
 _atom_site_occupancy
  Zr  Zr1  1  0.00000000  0.00000000  0.50000000  1
  Zr  Zr1  1  0.50000000  0.00000000  0.25000000  1
  Ge  Ge1  1  0.50000000  0.50000000  0.50000000  1
  Ge  Ge1  1  0.00000000  0.50000000  0.25000000  1
  O  O1  1  0.67683736  0.23210862  0.41610728  1
  O  O1  1  0.76789138  0.17683736  0.66610728  1
  O  O1  1  0.23210862  0.82316264  0.66610728  1
  O  O1  1  0.32316264  0.76789138  0.41610728  1
  O  O1  1  0.17683736  0.23210862  0.33389272  1
  O  O1  1  0.76789138  0.67683736  0.58389272  1
  O  O1  1  0.23210862  0.32316264  0.58389272  1
  O  O1  1  0.82316264  0.76789138  0.33389272  1
  Zr  Zr1  1  0.50000000  0.50000000  0.00000000  1
  Zr  Zr1  1  0.00000000  0.50000000  0.75000000  1
  Ge  Ge1  1  0.00000000  0.00000000  0.00000000  1
  Ge  Ge1  1  0.50000000  0.00000000  0.75000000  1
  O  O1  1  0.17683736  0.73210862  0.91610728  1
  O  O1  1  0.26789138  0.67683736  0.16610728  1
  O  O1  1  0.73210862  0.32316264  0.16610728  1
  O  O1  1  0.82316264  0.26789138  0.91610728  1
  O  O1  1  0.67683736  0.73210862  0.83389272  1
  O  O1  1  0.26789138  0.17683736  0.08389272  1
  O  O1  1  0.73210862  0.82316264  0.08389272  1
  O  O1  1  0.32316264  0.26789138  0.83389272  1
