# generated using pymatgen
data_ZrSiO4
_symmetry_space_group_name_H-M   'P 1'
_cell_length_a   6.61788924
_cell_length_b   6.61788924
_cell_length_c   5.98637247
_cell_angle_alpha   90.00000000
_cell_angle_beta   90.00000000
_cell_angle_gamma   90.00000000
_symmetry_Int_Tables_number   1
_chemical_formula_structural   ZrSiO4
_chemical_formula_sum   'Zr4 Si4 O16'
_cell_volume   262.18191063
_cell_formula_units_Z   4
loop_
 _symmetry_equiv_pos_site_id
 _symmetry_equiv_pos_as_xyz
  1  'x, y, z'
loop_
 _atom_site_type_symbol
 _atom_site_label
 _atom_site_symmetry_multiplicity
 _atom_site_fract_x
 _atom_site_fract_y
 _atom_site_fract_z
 _atom_site_occupancy
  Zr  Zr1  1  0.00000000  0.00000000  0.50000000  1
  Zr  Zr1  1  0.50000000  0.00000000  0.25000000  1
  Si  Si1  1  0.50000000  0.50000000  0.50000000  1
  Si  Si1  1  0.50000000  0.00000000  0.75000000  1
  O  O1  1  0.00000000  0.18456292  0.81894582  1
  O  O1  1  0.68456292  0.00000000  0.56894582  1
  O  O1  1  0.31543708  0.00000000  0.56894582  1
  O  O1  1  0.50000000  0.31543708  0.31894582  1
  O  O1  1  0.31543708  0.50000000  0.68105418  1
  O  O1  1  0.00000000  0.31543708  0.43105418  1
  O  O1  1  0.00000000  0.68456292  0.43105418  1
  O  O1  1  0.18456292  0.00000000  0.18105418  1
  Zr  Zr1  1  0.50000000  0.50000000  0.00000000  1
  Zr  Zr1  1  0.00000000  0.50000000  0.75000000  1
  Si  Si1  1  0.00000000  0.00000000  0.00000000  1
  Si  Si1  1  0.00000000  0.50000000  0.25000000  1
  O  O1  1  0.50000000  0.68456292  0.31894582  1
  O  O1  1  0.18456292  0.50000000  0.06894582  1
  O  O1  1  0.81543708  0.50000000  0.06894582  1
  O  O1  1  0.00000000  0.81543708  0.81894582  1
  O  O1  1  0.81543708  0.00000000  0.18105418  1
  O  O1  1  0.50000000  0.81543708  0.93105418  1
  O  O1  1  0.50000000  0.18456292  0.93105418  1
  O  O1  1  0.68456292  0.50000000  0.68105418  1
