# generated using pymatgen
data_LaAgO2
_symmetry_space_group_name_H-M   'P 1'
_cell_length_a   11.38565304
_cell_length_b   11.38565304
_cell_length_c   12.12374286
_cell_angle_alpha   90.00000000
_cell_angle_beta   90.00000000
_cell_angle_gamma   120.00000000
_symmetry_Int_Tables_number   1
_chemical_formula_structural   LaAgO2
_chemical_formula_sum   'La18 Ag18 O36'
_cell_volume   1361.07870265
_cell_formula_units_Z   18
loop_
 _symmetry_equiv_pos_site_id
 _symmetry_equiv_pos_as_xyz
  1  'x, y, z'
loop_
 _atom_site_type_symbol
 _atom_site_label
 _atom_site_symmetry_multiplicity
 _atom_site_fract_x
 _atom_site_fract_y
 _atom_site_fract_z
 _atom_site_occupancy
  La  La0  1  0.00000000  0.00000000  0.50000000  1
  La  La1  1  -0.00000000  0.33333333  0.50000000  1
  La  La2  1  -0.00000000  0.66666667  0.50000000  1
  La  La3  1  0.33333333  0.00000000  0.50000000  1
  La  La4  1  0.33333333  0.33333333  0.50000000  1
  La  La5  1  0.33333333  0.66666667  0.50000000  1
  La  La6  1  0.66666667  0.00000000  0.50000000  1
  La  La7  1  0.66666667  0.33333333  0.50000000  1
  La  La8  1  0.66666667  0.66666667  0.50000000  1
  La  La9  1  0.00000000  0.00000000  0.00000000  1
  La  La10  1  -0.00000000  0.33333333  0.00000000  1
  La  La11  1  -0.00000000  0.66666667  0.00000000  1
  La  La12  1  0.33333333  0.00000000  0.00000000  1
  La  La13  1  0.33333333  0.33333333  0.00000000  1
  La  La14  1  0.33333333  0.66666667  0.00000000  1
  La  La15  1  0.66666667  0.00000000  0.00000000  1
  La  La16  1  0.66666667  0.33333333  0.00000000  1
  La  La17  1  0.66666667  0.66666667  0.00000000  1
  Ag  Ag18  1  0.22222222  0.11111111  0.75000000  1
  Ag  Ag19  1  0.22222222  0.44444444  0.75000000  1
  Ag  Ag20  1  0.22222222  0.77777778  0.75000000  1
  Ag  Ag21  1  0.55555556  0.11111111  0.75000000  1
  Ag  Ag22  1  0.55555556  0.44444444  0.75000000  1
  Ag  Ag23  1  0.55555556  0.77777778  0.75000000  1
  Ag  Ag24  1  0.88888889  0.11111111  0.75000000  1
  Ag  Ag25  1  0.88888889  0.44444444  0.75000000  1
  Ag  Ag26  1  0.88888889  0.77777778  0.75000000  1
  Ag  Ag27  1  0.11111111  0.22222222  0.25000000  1
  Ag  Ag28  1  0.11111111  0.55555556  0.25000000  1
  Ag  Ag29  1  0.11111111  0.88888889  0.25000000  1
  Ag  Ag30  1  0.44444444  0.22222222  0.25000000  1
  Ag  Ag31  1  0.44444444  0.55555556  0.25000000  1
  Ag  Ag32  1  0.44444444  0.88888889  0.25000000  1
  Ag  Ag33  1  0.77777778  0.22222222  0.25000000  1
  Ag  Ag34  1  0.77777778  0.55555556  0.25000000  1
  Ag  Ag35  1  0.77777778  0.88888889  0.25000000  1
  O  O36  1  0.22222222  0.11111111  0.58383419  1
  O  O37  1  0.22222222  0.44444444  0.58383419  1
  O  O38  1  0.22222222  0.77777778  0.58383419  1
  O  O39  1  0.55555556  0.11111111  0.58383419  1
  O  O40  1  0.55555556  0.44444444  0.58383419  1
  O  O41  1  0.55555556  0.77777778  0.58383419  1
  O  O42  1  0.88888889  0.11111111  0.58383419  1
  O  O43  1  0.88888889  0.44444444  0.58383419  1
  O  O44  1  0.88888889  0.77777778  0.58383419  1
  O  O45  1  0.22222222  0.11111111  0.91616581  1
  O  O46  1  0.22222222  0.44444444  0.91616581  1
  O  O47  1  0.22222222  0.77777778  0.91616581  1
  O  O48  1  0.55555556  0.11111111  0.91616581  1
  O  O49  1  0.55555556  0.44444444  0.91616581  1
  O  O50  1  0.55555556  0.77777778  0.91616581  1
  O  O51  1  0.88888889  0.11111111  0.91616581  1
  O  O52  1  0.88888889  0.44444444  0.91616581  1
  O  O53  1  0.88888889  0.77777778  0.91616581  1
  O  O54  1  0.11111111  0.22222222  0.08383419  1
  O  O55  1  0.11111111  0.55555556  0.08383419  1
  O  O56  1  0.11111111  0.88888889  0.08383419  1
  O  O57  1  0.44444444  0.22222222  0.08383419  1
  O  O58  1  0.44444444  0.55555556  0.08383419  1
  O  O59  1  0.44444444  0.88888889  0.08383419  1
  O  O60  1  0.77777778  0.22222222  0.08383419  1
  O  O61  1  0.77777778  0.55555556  0.08383419  1
  O  O62  1  0.77777778  0.88888889  0.08383419  1
  O  O63  1  0.11111111  0.22222222  0.41616581  1
  O  O64  1  0.11111111  0.55555556  0.41616581  1
  O  O65  1  0.11111111  0.88888889  0.41616581  1
  O  O66  1  0.44444444  0.22222222  0.41616581  1
  O  O67  1  0.44444444  0.55555556  0.41616581  1
  O  O68  1  0.44444444  0.88888889  0.41616581  1
  O  O69  1  0.77777778  0.22222222  0.41616581  1
  O  O70  1  0.77777778  0.55555556  0.41616581  1
  O  O71  1  0.77777778  0.88888889  0.41616581  1
