# generated using pymatgen
data_Rb2SnO3
_symmetry_space_group_name_H-M   'P 1'
_cell_length_a   21.35769053
_cell_length_b   22.16829933
_cell_length_c   17.36041618
_cell_angle_alpha   90.00000000
_cell_angle_beta   90.00000000
_cell_angle_gamma   90.00000000
_symmetry_Int_Tables_number   1
_chemical_formula_structural   Rb2SnO3
_chemical_formula_sum   'Rb144 Sn72 O216'
_cell_volume   8219.52647577
_cell_formula_units_Z   72
loop_
 _symmetry_equiv_pos_site_id
 _symmetry_equiv_pos_as_xyz
  1  'x, y, z'
loop_
 _atom_site_type_symbol
 _atom_site_label
 _atom_site_symmetry_multiplicity
 _atom_site_fract_x
 _atom_site_fract_y
 _atom_site_fract_z
 _atom_site_occupancy
  Rb  Rb0  1  0.33036259  -0.04719917  0.24777137  1
  Rb  Rb1  1  0.33036259  -0.04719917  0.58110471  1
  Rb  Rb2  1  0.33036259  -0.04719917  0.91443804  1
  Rb  Rb3  1  0.33036259  0.28613417  0.24777137  1
  Rb  Rb4  1  0.33036259  0.28613417  0.58110471  1
  Rb  Rb5  1  0.33036259  0.28613417  0.91443804  1
  Rb  Rb6  1  0.33036259  0.61946750  0.24777137  1
  Rb  Rb7  1  0.33036259  0.61946750  0.58110471  1
  Rb  Rb8  1  0.33036259  0.61946750  0.91443804  1
  Rb  Rb9  1  0.83036259  -0.04719917  0.24777137  1
  Rb  Rb10  1  0.83036259  -0.04719917  0.58110471  1
  Rb  Rb11  1  0.83036259  -0.04719917  0.91443804  1
  Rb  Rb12  1  0.83036259  0.28613417  0.24777137  1
  Rb  Rb13  1  0.83036259  0.28613417  0.58110471  1
  Rb  Rb14  1  0.83036259  0.28613417  0.91443804  1
  Rb  Rb15  1  0.83036259  0.61946750  0.24777137  1
  Rb  Rb16  1  0.83036259  0.61946750  0.58110471  1
  Rb  Rb17  1  0.83036259  0.61946750  0.91443804  1
  Rb  Rb18  1  0.58036259  0.11946750  0.24777137  1
  Rb  Rb19  1  0.58036259  0.11946750  0.58110471  1
  Rb  Rb20  1  0.58036259  0.11946750  0.91443804  1
  Rb  Rb21  1  0.58036259  0.45280083  0.24777137  1
  Rb  Rb22  1  0.58036259  0.45280083  0.58110471  1
  Rb  Rb23  1  0.58036259  0.45280083  0.91443804  1
  Rb  Rb24  1  0.58036259  0.78613417  0.24777137  1
  Rb  Rb25  1  0.58036259  0.78613417  0.58110471  1
  Rb  Rb26  1  0.58036259  0.78613417  0.91443804  1
  Rb  Rb27  1  1.08036259  0.11946750  0.24777137  1
  Rb  Rb28  1  1.08036259  0.11946750  0.58110471  1
  Rb  Rb29  1  1.08036259  0.11946750  0.91443804  1
  Rb  Rb30  1  1.08036259  0.45280083  0.24777137  1
  Rb  Rb31  1  1.08036259  0.45280083  0.58110471  1
  Rb  Rb32  1  1.08036259  0.45280083  0.91443804  1
  Rb  Rb33  1  1.08036259  0.78613417  0.24777137  1
  Rb  Rb34  1  1.08036259  0.78613417  0.58110471  1
  Rb  Rb35  1  1.08036259  0.78613417  0.91443804  1
  Rb  Rb36  1  0.33036259  0.04719917  0.08110471  1
  Rb  Rb37  1  0.33036259  0.04719917  0.41443804  1
  Rb  Rb38  1  0.33036259  0.04719917  0.74777137  1
  Rb  Rb39  1  0.33036259  0.38053250  0.08110471  1
  Rb  Rb40  1  0.33036259  0.38053250  0.41443804  1
  Rb  Rb41  1  0.33036259  0.38053250  0.74777137  1
  Rb  Rb42  1  0.33036259  0.71386583  0.08110471  1
  Rb  Rb43  1  0.33036259  0.71386583  0.41443804  1
  Rb  Rb44  1  0.33036259  0.71386583  0.74777137  1
  Rb  Rb45  1  0.83036259  0.04719917  0.08110471  1
  Rb  Rb46  1  0.83036259  0.04719917  0.41443804  1
  Rb  Rb47  1  0.83036259  0.04719917  0.74777137  1
  Rb  Rb48  1  0.83036259  0.38053250  0.08110471  1
  Rb  Rb49  1  0.83036259  0.38053250  0.41443804  1
  Rb  Rb50  1  0.83036259  0.38053250  0.74777137  1
  Rb  Rb51  1  0.83036259  0.71386583  0.08110471  1
  Rb  Rb52  1  0.83036259  0.71386583  0.41443804  1
  Rb  Rb53  1  0.83036259  0.71386583  0.74777137  1
  Rb  Rb54  1  0.58036259  0.21386583  0.08110471  1
  Rb  Rb55  1  0.58036259  0.21386583  0.41443804  1
  Rb  Rb56  1  0.58036259  0.21386583  0.74777137  1
  Rb  Rb57  1  0.58036259  0.54719917  0.08110471  1
  Rb  Rb58  1  0.58036259  0.54719917  0.41443804  1
  Rb  Rb59  1  0.58036259  0.54719917  0.74777137  1
  Rb  Rb60  1  0.58036259  0.88053250  0.08110471  1
  Rb  Rb61  1  0.58036259  0.88053250  0.41443804  1
  Rb  Rb62  1  0.58036259  0.88053250  0.74777137  1
  Rb  Rb63  1  1.08036259  0.21386583  0.08110471  1
  Rb  Rb64  1  1.08036259  0.21386583  0.41443804  1
  Rb  Rb65  1  1.08036259  0.21386583  0.74777137  1
  Rb  Rb66  1  1.08036259  0.54719917  0.08110471  1
  Rb  Rb67  1  1.08036259  0.54719917  0.41443804  1
  Rb  Rb68  1  1.08036259  0.54719917  0.74777137  1
  Rb  Rb69  1  1.08036259  0.88053250  0.08110471  1
  Rb  Rb70  1  1.08036259  0.88053250  0.41443804  1
  Rb  Rb71  1  1.08036259  0.88053250  0.74777137  1
  Rb  Rb72  1  0.16963741  0.04719917  0.08110471  1
  Rb  Rb73  1  0.16963741  0.04719917  0.41443804  1
  Rb  Rb74  1  0.16963741  0.04719917  0.74777137  1
  Rb  Rb75  1  0.16963741  0.38053250  0.08110471  1
  Rb  Rb76  1  0.16963741  0.38053250  0.41443804  1
  Rb  Rb77  1  0.16963741  0.38053250  0.74777137  1
  Rb  Rb78  1  0.16963741  0.71386583  0.08110471  1
  Rb  Rb79  1  0.16963741  0.71386583  0.41443804  1
  Rb  Rb80  1  0.16963741  0.71386583  0.74777137  1
  Rb  Rb81  1  0.66963741  0.04719917  0.08110471  1
  Rb  Rb82  1  0.66963741  0.04719917  0.41443804  1
  Rb  Rb83  1  0.66963741  0.04719917  0.74777137  1
  Rb  Rb84  1  0.66963741  0.38053250  0.08110471  1
  Rb  Rb85  1  0.66963741  0.38053250  0.41443804  1
  Rb  Rb86  1  0.66963741  0.38053250  0.74777137  1
  Rb  Rb87  1  0.66963741  0.71386583  0.08110471  1
  Rb  Rb88  1  0.66963741  0.71386583  0.41443804  1
  Rb  Rb89  1  0.66963741  0.71386583  0.74777137  1
  Rb  Rb90  1  0.41963741  0.21386583  0.08110471  1
  Rb  Rb91  1  0.41963741  0.21386583  0.41443804  1
  Rb  Rb92  1  0.41963741  0.21386583  0.74777137  1
  Rb  Rb93  1  0.41963741  0.54719917  0.08110471  1
  Rb  Rb94  1  0.41963741  0.54719917  0.41443804  1
  Rb  Rb95  1  0.41963741  0.54719917  0.74777137  1
  Rb  Rb96  1  0.41963741  0.88053250  0.08110471  1
  Rb  Rb97  1  0.41963741  0.88053250  0.41443804  1
  Rb  Rb98  1  0.41963741  0.88053250  0.74777137  1
  Rb  Rb99  1  0.91963741  0.21386583  0.08110471  1
  Rb  Rb100  1  0.91963741  0.21386583  0.41443804  1
  Rb  Rb101  1  0.91963741  0.21386583  0.74777137  1
  Rb  Rb102  1  0.91963741  0.54719917  0.08110471  1
  Rb  Rb103  1  0.91963741  0.54719917  0.41443804  1
  Rb  Rb104  1  0.91963741  0.54719917  0.74777137  1
  Rb  Rb105  1  0.91963741  0.88053250  0.08110471  1
  Rb  Rb106  1  0.91963741  0.88053250  0.41443804  1
  Rb  Rb107  1  0.91963741  0.88053250  0.74777137  1
  Rb  Rb108  1  0.16963741  -0.04719917  0.24777137  1
  Rb  Rb109  1  0.16963741  -0.04719917  0.58110471  1
  Rb  Rb110  1  0.16963741  -0.04719917  0.91443804  1
  Rb  Rb111  1  0.16963741  0.28613417  0.24777137  1
  Rb  Rb112  1  0.16963741  0.28613417  0.58110471  1
  Rb  Rb113  1  0.16963741  0.28613417  0.91443804  1
  Rb  Rb114  1  0.16963741  0.61946750  0.24777137  1
  Rb  Rb115  1  0.16963741  0.61946750  0.58110471  1
  Rb  Rb116  1  0.16963741  0.61946750  0.91443804  1
  Rb  Rb117  1  0.66963741  -0.04719917  0.24777137  1
  Rb  Rb118  1  0.66963741  -0.04719917  0.58110471  1
  Rb  Rb119  1  0.66963741  -0.04719917  0.91443804  1
  Rb  Rb120  1  0.66963741  0.28613417  0.24777137  1
  Rb  Rb121  1  0.66963741  0.28613417  0.58110471  1
  Rb  Rb122  1  0.66963741  0.28613417  0.91443804  1
  Rb  Rb123  1  0.66963741  0.61946750  0.24777137  1
  Rb  Rb124  1  0.66963741  0.61946750  0.58110471  1
  Rb  Rb125  1  0.66963741  0.61946750  0.91443804  1
  Rb  Rb126  1  0.41963741  0.11946750  0.24777137  1
  Rb  Rb127  1  0.41963741  0.11946750  0.58110471  1
  Rb  Rb128  1  0.41963741  0.11946750  0.91443804  1
  Rb  Rb129  1  0.41963741  0.45280083  0.24777137  1
  Rb  Rb130  1  0.41963741  0.45280083  0.58110471  1
  Rb  Rb131  1  0.41963741  0.45280083  0.91443804  1
  Rb  Rb132  1  0.41963741  0.78613417  0.24777137  1
  Rb  Rb133  1  0.41963741  0.78613417  0.58110471  1
  Rb  Rb134  1  0.41963741  0.78613417  0.91443804  1
  Rb  Rb135  1  0.91963741  0.11946750  0.24777137  1
  Rb  Rb136  1  0.91963741  0.11946750  0.58110471  1
  Rb  Rb137  1  0.91963741  0.11946750  0.91443804  1
  Rb  Rb138  1  0.91963741  0.45280083  0.24777137  1
  Rb  Rb139  1  0.91963741  0.45280083  0.58110471  1
  Rb  Rb140  1  0.91963741  0.45280083  0.91443804  1
  Rb  Rb141  1  0.91963741  0.78613417  0.24777137  1
  Rb  Rb142  1  0.91963741  0.78613417  0.58110471  1
  Rb  Rb143  1  0.91963741  0.78613417  0.91443804  1
  Sn  Sn144  1  0.25000000  -0.13746128  0.08729491  1
  Sn  Sn145  1  0.25000000  -0.13746128  0.42062825  1
  Sn  Sn146  1  0.25000000  -0.13746128  0.75396158  1
  Sn  Sn147  1  0.25000000  0.19587206  0.08729491  1
  Sn  Sn148  1  0.25000000  0.19587206  0.42062825  1
  Sn  Sn149  1  0.25000000  0.19587206  0.75396158  1
  Sn  Sn150  1  0.25000000  0.52920539  0.08729491  1
  Sn  Sn151  1  0.25000000  0.52920539  0.42062825  1
  Sn  Sn152  1  0.25000000  0.52920539  0.75396158  1
  Sn  Sn153  1  0.75000000  -0.13746128  0.08729491  1
  Sn  Sn154  1  0.75000000  -0.13746128  0.42062825  1
  Sn  Sn155  1  0.75000000  -0.13746128  0.75396158  1
  Sn  Sn156  1  0.75000000  0.19587206  0.08729491  1
  Sn  Sn157  1  0.75000000  0.19587206  0.42062825  1
  Sn  Sn158  1  0.75000000  0.19587206  0.75396158  1
  Sn  Sn159  1  0.75000000  0.52920539  0.08729491  1
  Sn  Sn160  1  0.75000000  0.52920539  0.42062825  1
  Sn  Sn161  1  0.75000000  0.52920539  0.75396158  1
  Sn  Sn162  1  0.50000000  0.02920539  0.08729491  1
  Sn  Sn163  1  0.50000000  0.02920539  0.42062825  1
  Sn  Sn164  1  0.50000000  0.02920539  0.75396158  1
  Sn  Sn165  1  0.50000000  0.36253872  0.08729491  1
  Sn  Sn166  1  0.50000000  0.36253872  0.42062825  1
  Sn  Sn167  1  0.50000000  0.36253872  0.75396158  1
  Sn  Sn168  1  0.50000000  0.69587206  0.08729491  1
  Sn  Sn169  1  0.50000000  0.69587206  0.42062825  1
  Sn  Sn170  1  0.50000000  0.69587206  0.75396158  1
  Sn  Sn171  1  1.00000000  0.02920539  0.08729491  1
  Sn  Sn172  1  1.00000000  0.02920539  0.42062825  1
  Sn  Sn173  1  1.00000000  0.02920539  0.75396158  1
  Sn  Sn174  1  1.00000000  0.36253872  0.08729491  1
  Sn  Sn175  1  1.00000000  0.36253872  0.42062825  1
  Sn  Sn176  1  1.00000000  0.36253872  0.75396158  1
  Sn  Sn177  1  1.00000000  0.69587206  0.08729491  1
  Sn  Sn178  1  1.00000000  0.69587206  0.42062825  1
  Sn  Sn179  1  1.00000000  0.69587206  0.75396158  1
  Sn  Sn180  1  0.25000000  0.13746128  0.25396158  1
  Sn  Sn181  1  0.25000000  0.13746128  0.58729491  1
  Sn  Sn182  1  0.25000000  0.13746128  0.92062825  1
  Sn  Sn183  1  0.25000000  0.47079461  0.25396158  1
  Sn  Sn184  1  0.25000000  0.47079461  0.58729491  1
  Sn  Sn185  1  0.25000000  0.47079461  0.92062825  1
  Sn  Sn186  1  0.25000000  0.80412794  0.25396158  1
  Sn  Sn187  1  0.25000000  0.80412794  0.58729491  1
  Sn  Sn188  1  0.25000000  0.80412794  0.92062825  1
  Sn  Sn189  1  0.75000000  0.13746128  0.25396158  1
  Sn  Sn190  1  0.75000000  0.13746128  0.58729491  1
  Sn  Sn191  1  0.75000000  0.13746128  0.92062825  1
  Sn  Sn192  1  0.75000000  0.47079461  0.25396158  1
  Sn  Sn193  1  0.75000000  0.47079461  0.58729491  1
  Sn  Sn194  1  0.75000000  0.47079461  0.92062825  1
  Sn  Sn195  1  0.75000000  0.80412794  0.25396158  1
  Sn  Sn196  1  0.75000000  0.80412794  0.58729491  1
  Sn  Sn197  1  0.75000000  0.80412794  0.92062825  1
  Sn  Sn198  1  0.50000000  0.30412794  0.25396158  1
  Sn  Sn199  1  0.50000000  0.30412794  0.58729491  1
  Sn  Sn200  1  0.50000000  0.30412794  0.92062825  1
  Sn  Sn201  1  0.50000000  0.63746128  0.25396158  1
  Sn  Sn202  1  0.50000000  0.63746128  0.58729491  1
  Sn  Sn203  1  0.50000000  0.63746128  0.92062825  1
  Sn  Sn204  1  0.50000000  0.97079461  0.25396158  1
  Sn  Sn205  1  0.50000000  0.97079461  0.58729491  1
  Sn  Sn206  1  0.50000000  0.97079461  0.92062825  1
  Sn  Sn207  1  1.00000000  0.30412794  0.25396158  1
  Sn  Sn208  1  1.00000000  0.30412794  0.58729491  1
  Sn  Sn209  1  1.00000000  0.30412794  0.92062825  1
  Sn  Sn210  1  1.00000000  0.63746128  0.25396158  1
  Sn  Sn211  1  1.00000000  0.63746128  0.58729491  1
  Sn  Sn212  1  1.00000000  0.63746128  0.92062825  1
  Sn  Sn213  1  1.00000000  0.97079461  0.25396158  1
  Sn  Sn214  1  1.00000000  0.97079461  0.58729491  1
  Sn  Sn215  1  1.00000000  0.97079461  0.92062825  1
  O  O216  1  0.43682938  -0.00426332  0.16841369  1
  O  O217  1  0.43682938  -0.00426332  0.50174702  1
  O  O218  1  0.43682938  -0.00426332  0.83508036  1
  O  O219  1  0.43682938  0.32907002  0.16841369  1
  O  O220  1  0.43682938  0.32907002  0.50174702  1
  O  O221  1  0.43682938  0.32907002  0.83508036  1
  O  O222  1  0.43682938  0.66240335  0.16841369  1
  O  O223  1  0.43682938  0.66240335  0.50174702  1
  O  O224  1  0.43682938  0.66240335  0.83508036  1
  O  O225  1  0.93682938  -0.00426332  0.16841369  1
  O  O226  1  0.93682938  -0.00426332  0.50174702  1
  O  O227  1  0.93682938  -0.00426332  0.83508036  1
  O  O228  1  0.93682938  0.32907002  0.16841369  1
  O  O229  1  0.93682938  0.32907002  0.50174702  1
  O  O230  1  0.93682938  0.32907002  0.83508036  1
  O  O231  1  0.93682938  0.66240335  0.16841369  1
  O  O232  1  0.93682938  0.66240335  0.50174702  1
  O  O233  1  0.93682938  0.66240335  0.83508036  1
  O  O234  1  0.68682938  0.16240335  0.16841369  1
  O  O235  1  0.68682938  0.16240335  0.50174702  1
  O  O236  1  0.68682938  0.16240335  0.83508036  1
  O  O237  1  0.68682938  0.49573668  0.16841369  1
  O  O238  1  0.68682938  0.49573668  0.50174702  1
  O  O239  1  0.68682938  0.49573668  0.83508036  1
  O  O240  1  0.68682938  0.82907002  0.16841369  1
  O  O241  1  0.68682938  0.82907002  0.50174702  1
  O  O242  1  0.68682938  0.82907002  0.83508036  1
  O  O243  1  1.18682938  0.16240335  0.16841369  1
  O  O244  1  1.18682938  0.16240335  0.50174702  1
  O  O245  1  1.18682938  0.16240335  0.83508036  1
  O  O246  1  1.18682938  0.49573668  0.16841369  1
  O  O247  1  1.18682938  0.49573668  0.50174702  1
  O  O248  1  1.18682938  0.49573668  0.83508036  1
  O  O249  1  1.18682938  0.82907002  0.16841369  1
  O  O250  1  1.18682938  0.82907002  0.50174702  1
  O  O251  1  1.18682938  0.82907002  0.83508036  1
  O  O252  1  0.43682938  0.00426332  0.00174702  1
  O  O253  1  0.43682938  0.00426332  0.33508036  1
  O  O254  1  0.43682938  0.00426332  0.66841369  1
  O  O255  1  0.43682938  0.33759665  0.00174702  1
  O  O256  1  0.43682938  0.33759665  0.33508036  1
  O  O257  1  0.43682938  0.33759665  0.66841369  1
  O  O258  1  0.43682938  0.67092998  0.00174702  1
  O  O259  1  0.43682938  0.67092998  0.33508036  1
  O  O260  1  0.43682938  0.67092998  0.66841369  1
  O  O261  1  0.93682938  0.00426332  0.00174702  1
  O  O262  1  0.93682938  0.00426332  0.33508036  1
  O  O263  1  0.93682938  0.00426332  0.66841369  1
  O  O264  1  0.93682938  0.33759665  0.00174702  1
  O  O265  1  0.93682938  0.33759665  0.33508036  1
  O  O266  1  0.93682938  0.33759665  0.66841369  1
  O  O267  1  0.93682938  0.67092998  0.00174702  1
  O  O268  1  0.93682938  0.67092998  0.33508036  1
  O  O269  1  0.93682938  0.67092998  0.66841369  1
  O  O270  1  0.68682938  0.17092998  0.00174702  1
  O  O271  1  0.68682938  0.17092998  0.33508036  1
  O  O272  1  0.68682938  0.17092998  0.66841369  1
  O  O273  1  0.68682938  0.50426332  0.00174702  1
  O  O274  1  0.68682938  0.50426332  0.33508036  1
  O  O275  1  0.68682938  0.50426332  0.66841369  1
  O  O276  1  0.68682938  0.83759665  0.00174702  1
  O  O277  1  0.68682938  0.83759665  0.33508036  1
  O  O278  1  0.68682938  0.83759665  0.66841369  1
  O  O279  1  1.18682938  0.17092998  0.00174702  1
  O  O280  1  1.18682938  0.17092998  0.33508036  1
  O  O281  1  1.18682938  0.17092998  0.66841369  1
  O  O282  1  1.18682938  0.50426332  0.00174702  1
  O  O283  1  1.18682938  0.50426332  0.33508036  1
  O  O284  1  1.18682938  0.50426332  0.66841369  1
  O  O285  1  1.18682938  0.83759665  0.00174702  1
  O  O286  1  1.18682938  0.83759665  0.33508036  1
  O  O287  1  1.18682938  0.83759665  0.66841369  1
  O  O288  1  0.25000000  -0.05029989  0.10033596  1
  O  O289  1  0.25000000  -0.05029989  0.43366930  1
  O  O290  1  0.25000000  -0.05029989  0.76700263  1
  O  O291  1  0.25000000  0.28303344  0.10033596  1
  O  O292  1  0.25000000  0.28303344  0.43366930  1
  O  O293  1  0.25000000  0.28303344  0.76700263  1
  O  O294  1  0.25000000  0.61636678  0.10033596  1
  O  O295  1  0.25000000  0.61636678  0.43366930  1
  O  O296  1  0.25000000  0.61636678  0.76700263  1
  O  O297  1  0.75000000  -0.05029989  0.10033596  1
  O  O298  1  0.75000000  -0.05029989  0.43366930  1
  O  O299  1  0.75000000  -0.05029989  0.76700263  1
  O  O300  1  0.75000000  0.28303344  0.10033596  1
  O  O301  1  0.75000000  0.28303344  0.43366930  1
  O  O302  1  0.75000000  0.28303344  0.76700263  1
  O  O303  1  0.75000000  0.61636678  0.10033596  1
  O  O304  1  0.75000000  0.61636678  0.43366930  1
  O  O305  1  0.75000000  0.61636678  0.76700263  1
  O  O306  1  0.50000000  0.11636678  0.10033596  1
  O  O307  1  0.50000000  0.11636678  0.43366930  1
  O  O308  1  0.50000000  0.11636678  0.76700263  1
  O  O309  1  0.50000000  0.44970011  0.10033596  1
  O  O310  1  0.50000000  0.44970011  0.43366930  1
  O  O311  1  0.50000000  0.44970011  0.76700263  1
  O  O312  1  0.50000000  0.78303344  0.10033596  1
  O  O313  1  0.50000000  0.78303344  0.43366930  1
  O  O314  1  0.50000000  0.78303344  0.76700263  1
  O  O315  1  1.00000000  0.11636678  0.10033596  1
  O  O316  1  1.00000000  0.11636678  0.43366930  1
  O  O317  1  1.00000000  0.11636678  0.76700263  1
  O  O318  1  1.00000000  0.44970011  0.10033596  1
  O  O319  1  1.00000000  0.44970011  0.43366930  1
  O  O320  1  1.00000000  0.44970011  0.76700263  1
  O  O321  1  1.00000000  0.78303344  0.10033596  1
  O  O322  1  1.00000000  0.78303344  0.43366930  1
  O  O323  1  1.00000000  0.78303344  0.76700263  1
  O  O324  1  0.25000000  0.05029989  0.26700263  1
  O  O325  1  0.25000000  0.05029989  0.60033596  1
  O  O326  1  0.25000000  0.05029989  0.93366930  1
  O  O327  1  0.25000000  0.38363322  0.26700263  1
  O  O328  1  0.25000000  0.38363322  0.60033596  1
  O  O329  1  0.25000000  0.38363322  0.93366930  1
  O  O330  1  0.25000000  0.71696656  0.26700263  1
  O  O331  1  0.25000000  0.71696656  0.60033596  1
  O  O332  1  0.25000000  0.71696656  0.93366930  1
  O  O333  1  0.75000000  0.05029989  0.26700263  1
  O  O334  1  0.75000000  0.05029989  0.60033596  1
  O  O335  1  0.75000000  0.05029989  0.93366930  1
  O  O336  1  0.75000000  0.38363322  0.26700263  1
  O  O337  1  0.75000000  0.38363322  0.60033596  1
  O  O338  1  0.75000000  0.38363322  0.93366930  1
  O  O339  1  0.75000000  0.71696656  0.26700263  1
  O  O340  1  0.75000000  0.71696656  0.60033596  1
  O  O341  1  0.75000000  0.71696656  0.93366930  1
  O  O342  1  0.50000000  0.21696656  0.26700263  1
  O  O343  1  0.50000000  0.21696656  0.60033596  1
  O  O344  1  0.50000000  0.21696656  0.93366930  1
  O  O345  1  0.50000000  0.55029989  0.26700263  1
  O  O346  1  0.50000000  0.55029989  0.60033596  1
  O  O347  1  0.50000000  0.55029989  0.93366930  1
  O  O348  1  0.50000000  0.88363322  0.26700263  1
  O  O349  1  0.50000000  0.88363322  0.60033596  1
  O  O350  1  0.50000000  0.88363322  0.93366930  1
  O  O351  1  1.00000000  0.21696656  0.26700263  1
  O  O352  1  1.00000000  0.21696656  0.60033596  1
  O  O353  1  1.00000000  0.21696656  0.93366930  1
  O  O354  1  1.00000000  0.55029989  0.26700263  1
  O  O355  1  1.00000000  0.55029989  0.60033596  1
  O  O356  1  1.00000000  0.55029989  0.93366930  1
  O  O357  1  1.00000000  0.88363322  0.26700263  1
  O  O358  1  1.00000000  0.88363322  0.60033596  1
  O  O359  1  1.00000000  0.88363322  0.93366930  1
  O  O360  1  0.06317062  0.00426332  0.00174702  1
  O  O361  1  0.06317062  0.00426332  0.33508036  1
  O  O362  1  0.06317062  0.00426332  0.66841369  1
  O  O363  1  0.06317062  0.33759665  0.00174702  1
  O  O364  1  0.06317062  0.33759665  0.33508036  1
  O  O365  1  0.06317062  0.33759665  0.66841369  1
  O  O366  1  0.06317062  0.67092998  0.00174702  1
  O  O367  1  0.06317062  0.67092998  0.33508036  1
  O  O368  1  0.06317062  0.67092998  0.66841369  1
  O  O369  1  0.56317062  0.00426332  0.00174702  1
  O  O370  1  0.56317062  0.00426332  0.33508036  1
  O  O371  1  0.56317062  0.00426332  0.66841369  1
  O  O372  1  0.56317062  0.33759665  0.00174702  1
  O  O373  1  0.56317062  0.33759665  0.33508036  1
  O  O374  1  0.56317062  0.33759665  0.66841369  1
  O  O375  1  0.56317062  0.67092998  0.00174702  1
  O  O376  1  0.56317062  0.67092998  0.33508036  1
  O  O377  1  0.56317062  0.67092998  0.66841369  1
  O  O378  1  0.31317062  0.17092998  0.00174702  1
  O  O379  1  0.31317062  0.17092998  0.33508036  1
  O  O380  1  0.31317062  0.17092998  0.66841369  1
  O  O381  1  0.31317062  0.50426332  0.00174702  1
  O  O382  1  0.31317062  0.50426332  0.33508036  1
  O  O383  1  0.31317062  0.50426332  0.66841369  1
  O  O384  1  0.31317062  0.83759665  0.00174702  1
  O  O385  1  0.31317062  0.83759665  0.33508036  1
  O  O386  1  0.31317062  0.83759665  0.66841369  1
  O  O387  1  0.81317062  0.17092998  0.00174702  1
  O  O388  1  0.81317062  0.17092998  0.33508036  1
  O  O389  1  0.81317062  0.17092998  0.66841369  1
  O  O390  1  0.81317062  0.50426332  0.00174702  1
  O  O391  1  0.81317062  0.50426332  0.33508036  1
  O  O392  1  0.81317062  0.50426332  0.66841369  1
  O  O393  1  0.81317062  0.83759665  0.00174702  1
  O  O394  1  0.81317062  0.83759665  0.33508036  1
  O  O395  1  0.81317062  0.83759665  0.66841369  1
  O  O396  1  0.06317062  -0.00426332  0.16841369  1
  O  O397  1  0.06317062  -0.00426332  0.50174702  1
  O  O398  1  0.06317062  -0.00426332  0.83508036  1
  O  O399  1  0.06317062  0.32907002  0.16841369  1
  O  O400  1  0.06317062  0.32907002  0.50174702  1
  O  O401  1  0.06317062  0.32907002  0.83508036  1
  O  O402  1  0.06317062  0.66240335  0.16841369  1
  O  O403  1  0.06317062  0.66240335  0.50174702  1
  O  O404  1  0.06317062  0.66240335  0.83508036  1
  O  O405  1  0.56317062  -0.00426332  0.16841369  1
  O  O406  1  0.56317062  -0.00426332  0.50174702  1
  O  O407  1  0.56317062  -0.00426332  0.83508036  1
  O  O408  1  0.56317062  0.32907002  0.16841369  1
  O  O409  1  0.56317062  0.32907002  0.50174702  1
  O  O410  1  0.56317062  0.32907002  0.83508036  1
  O  O411  1  0.56317062  0.66240335  0.16841369  1
  O  O412  1  0.56317062  0.66240335  0.50174702  1
  O  O413  1  0.56317062  0.66240335  0.83508036  1
  O  O414  1  0.31317062  0.16240335  0.16841369  1
  O  O415  1  0.31317062  0.16240335  0.50174702  1
  O  O416  1  0.31317062  0.16240335  0.83508036  1
  O  O417  1  0.31317062  0.49573668  0.16841369  1
  O  O418  1  0.31317062  0.49573668  0.50174702  1
  O  O419  1  0.31317062  0.49573668  0.83508036  1
  O  O420  1  0.31317062  0.82907002  0.16841369  1
  O  O421  1  0.31317062  0.82907002  0.50174702  1
  O  O422  1  0.31317062  0.82907002  0.83508036  1
  O  O423  1  0.81317062  0.16240335  0.16841369  1
  O  O424  1  0.81317062  0.16240335  0.50174702  1
  O  O425  1  0.81317062  0.16240335  0.83508036  1
  O  O426  1  0.81317062  0.49573668  0.16841369  1
  O  O427  1  0.81317062  0.49573668  0.50174702  1
  O  O428  1  0.81317062  0.49573668  0.83508036  1
  O  O429  1  0.81317062  0.82907002  0.16841369  1
  O  O430  1  0.81317062  0.82907002  0.50174702  1
  O  O431  1  0.81317062  0.82907002  0.83508036  1
