# generated using pymatgen
data_ZnWO4
_symmetry_space_group_name_H-M   'P 1'
_cell_length_a   13.86164195
_cell_length_b   17.01606191
_cell_length_c   14.67768882
_cell_angle_alpha   90.00000000
_cell_angle_beta   90.38775213
_cell_angle_gamma   90.00000000
_symmetry_Int_Tables_number   1
_chemical_formula_structural   ZnWO4
_chemical_formula_sum   'Zn54 W54 O216'
_cell_volume   3461.95536710
_cell_formula_units_Z   54
loop_
 _symmetry_equiv_pos_site_id
 _symmetry_equiv_pos_as_xyz
  1  'x, y, z'
loop_
 _atom_site_type_symbol
 _atom_site_label
 _atom_site_symmetry_multiplicity
 _atom_site_fract_x
 _atom_site_fract_y
 _atom_site_fract_z
 _atom_site_occupancy
  Zn  Zn0  1  0.16666667  0.22428888  0.25000000  1
  Zn  Zn1  1  0.16666667  0.22428888  0.58333333  1
  Zn  Zn2  1  0.16666667  0.22428888  0.91666667  1
  Zn  Zn3  1  0.16666667  0.55762221  0.25000000  1
  Zn  Zn4  1  0.16666667  0.55762221  0.58333333  1
  Zn  Zn5  1  0.16666667  0.55762221  0.91666667  1
  Zn  Zn6  1  0.16666667  0.89095554  0.25000000  1
  Zn  Zn7  1  0.16666667  0.89095554  0.58333333  1
  Zn  Zn8  1  0.16666667  0.89095554  0.91666667  1
  Zn  Zn9  1  0.50000000  0.22428888  0.25000000  1
  Zn  Zn10  1  0.50000000  0.22428888  0.58333333  1
  Zn  Zn11  1  0.50000000  0.22428888  0.91666667  1
  Zn  Zn12  1  0.50000000  0.55762221  0.25000000  1
  Zn  Zn13  1  0.50000000  0.55762221  0.58333333  1
  Zn  Zn14  1  0.50000000  0.55762221  0.91666667  1
  Zn  Zn15  1  0.50000000  0.89095554  0.25000000  1
  Zn  Zn16  1  0.50000000  0.89095554  0.58333333  1
  Zn  Zn17  1  0.50000000  0.89095554  0.91666667  1
  Zn  Zn18  1  0.83333333  0.22428888  0.25000000  1
  Zn  Zn19  1  0.83333333  0.22428888  0.58333333  1
  Zn  Zn20  1  0.83333333  0.22428888  0.91666667  1
  Zn  Zn21  1  0.83333333  0.55762221  0.25000000  1
  Zn  Zn22  1  0.83333333  0.55762221  0.58333333  1
  Zn  Zn23  1  0.83333333  0.55762221  0.91666667  1
  Zn  Zn24  1  0.83333333  0.89095554  0.25000000  1
  Zn  Zn25  1  0.83333333  0.89095554  0.58333333  1
  Zn  Zn26  1  0.83333333  0.89095554  0.91666667  1
  Zn  Zn27  1  0.16666667  0.10904446  0.08333333  1
  Zn  Zn28  1  0.16666667  0.10904446  0.41666667  1
  Zn  Zn29  1  0.16666667  0.10904446  0.75000000  1
  Zn  Zn30  1  0.16666667  0.44237779  0.08333333  1
  Zn  Zn31  1  0.16666667  0.44237779  0.41666667  1
  Zn  Zn32  1  0.16666667  0.44237779  0.75000000  1
  Zn  Zn33  1  0.16666667  0.77571112  0.08333333  1
  Zn  Zn34  1  0.16666667  0.77571112  0.41666667  1
  Zn  Zn35  1  0.16666667  0.77571112  0.75000000  1
  Zn  Zn36  1  0.50000000  0.10904446  0.08333333  1
  Zn  Zn37  1  0.50000000  0.10904446  0.41666667  1
  Zn  Zn38  1  0.50000000  0.10904446  0.75000000  1
  Zn  Zn39  1  0.50000000  0.44237779  0.08333333  1
  Zn  Zn40  1  0.50000000  0.44237779  0.41666667  1
  Zn  Zn41  1  0.50000000  0.44237779  0.75000000  1
  Zn  Zn42  1  0.50000000  0.77571112  0.08333333  1
  Zn  Zn43  1  0.50000000  0.77571112  0.41666667  1
  Zn  Zn44  1  0.50000000  0.77571112  0.75000000  1
  Zn  Zn45  1  0.83333333  0.10904446  0.08333333  1
  Zn  Zn46  1  0.83333333  0.10904446  0.41666667  1
  Zn  Zn47  1  0.83333333  0.10904446  0.75000000  1
  Zn  Zn48  1  0.83333333  0.44237779  0.08333333  1
  Zn  Zn49  1  0.83333333  0.44237779  0.41666667  1
  Zn  Zn50  1  0.83333333  0.44237779  0.75000000  1
  Zn  Zn51  1  0.83333333  0.77571112  0.08333333  1
  Zn  Zn52  1  0.83333333  0.77571112  0.41666667  1
  Zn  Zn53  1  0.83333333  0.77571112  0.75000000  1
  W  W54  1  -0.00000000  0.06035110  0.25000000  1
  W  W55  1  0.00000000  0.06035110  0.58333333  1
  W  W56  1  0.00000000  0.06035110  0.91666667  1
  W  W57  1  -0.00000000  0.39368443  0.25000000  1
  W  W58  1  0.00000000  0.39368443  0.58333333  1
  W  W59  1  0.00000000  0.39368443  0.91666667  1
  W  W60  1  -0.00000000  0.72701776  0.25000000  1
  W  W61  1  0.00000000  0.72701776  0.58333333  1
  W  W62  1  0.00000000  0.72701776  0.91666667  1
  W  W63  1  0.33333333  0.06035110  0.25000000  1
  W  W64  1  0.33333333  0.06035110  0.58333333  1
  W  W65  1  0.33333333  0.06035110  0.91666667  1
  W  W66  1  0.33333333  0.39368443  0.25000000  1
  W  W67  1  0.33333333  0.39368443  0.58333333  1
  W  W68  1  0.33333333  0.39368443  0.91666667  1
  W  W69  1  0.33333333  0.72701776  0.25000000  1
  W  W70  1  0.33333333  0.72701776  0.58333333  1
  W  W71  1  0.33333333  0.72701776  0.91666667  1
  W  W72  1  0.66666667  0.06035110  0.25000000  1
  W  W73  1  0.66666667  0.06035110  0.58333333  1
  W  W74  1  0.66666667  0.06035110  0.91666667  1
  W  W75  1  0.66666667  0.39368443  0.25000000  1
  W  W76  1  0.66666667  0.39368443  0.58333333  1
  W  W77  1  0.66666667  0.39368443  0.91666667  1
  W  W78  1  0.66666667  0.72701776  0.25000000  1
  W  W79  1  0.66666667  0.72701776  0.58333333  1
  W  W80  1  0.66666667  0.72701776  0.91666667  1
  W  W81  1  0.00000000  0.27298224  0.08333333  1
  W  W82  1  -0.00000000  0.27298224  0.41666667  1
  W  W83  1  -0.00000000  0.27298224  0.75000000  1
  W  W84  1  0.00000000  0.60631557  0.08333333  1
  W  W85  1  -0.00000000  0.60631557  0.41666667  1
  W  W86  1  -0.00000000  0.60631557  0.75000000  1
  W  W87  1  0.00000000  0.93964890  0.08333333  1
  W  W88  1  -0.00000000  0.93964890  0.41666667  1
  W  W89  1  -0.00000000  0.93964890  0.75000000  1
  W  W90  1  0.33333333  0.27298224  0.08333333  1
  W  W91  1  0.33333333  0.27298224  0.41666667  1
  W  W92  1  0.33333333  0.27298224  0.75000000  1
  W  W93  1  0.33333333  0.60631557  0.08333333  1
  W  W94  1  0.33333333  0.60631557  0.41666667  1
  W  W95  1  0.33333333  0.60631557  0.75000000  1
  W  W96  1  0.33333333  0.93964890  0.08333333  1
  W  W97  1  0.33333333  0.93964890  0.41666667  1
  W  W98  1  0.33333333  0.93964890  0.75000000  1
  W  W99  1  0.66666667  0.27298224  0.08333333  1
  W  W100  1  0.66666667  0.27298224  0.41666667  1
  W  W101  1  0.66666667  0.27298224  0.75000000  1
  W  W102  1  0.66666667  0.60631557  0.08333333  1
  W  W103  1  0.66666667  0.60631557  0.41666667  1
  W  W104  1  0.66666667  0.60631557  0.75000000  1
  W  W105  1  0.66666667  0.93964890  0.08333333  1
  W  W106  1  0.66666667  0.93964890  0.41666667  1
  W  W107  1  0.66666667  0.93964890  0.75000000  1
  O  O108  1  0.26002731  0.03588563  0.02305223  1
  O  O109  1  0.26002731  0.03588563  0.35638556  1
  O  O110  1  0.26002731  0.03588563  0.68971890  1
  O  O111  1  0.26002731  0.36921897  0.02305223  1
  O  O112  1  0.26002731  0.36921897  0.35638556  1
  O  O113  1  0.26002731  0.36921897  0.68971890  1
  O  O114  1  0.26002731  0.70255230  0.02305223  1
  O  O115  1  0.26002731  0.70255230  0.35638556  1
  O  O116  1  0.26002731  0.70255230  0.68971890  1
  O  O117  1  0.59336065  0.03588563  0.02305223  1
  O  O118  1  0.59336065  0.03588563  0.35638556  1
  O  O119  1  0.59336065  0.03588563  0.68971890  1
  O  O120  1  0.59336065  0.36921897  0.02305223  1
  O  O121  1  0.59336065  0.36921897  0.35638556  1
  O  O122  1  0.59336065  0.36921897  0.68971890  1
  O  O123  1  0.59336065  0.70255230  0.02305223  1
  O  O124  1  0.59336065  0.70255230  0.35638556  1
  O  O125  1  0.59336065  0.70255230  0.68971890  1
  O  O126  1  0.92669398  0.03588563  0.02305223  1
  O  O127  1  0.92669398  0.03588563  0.35638556  1
  O  O128  1  0.92669398  0.03588563  0.68971890  1
  O  O129  1  0.92669398  0.36921897  0.02305223  1
  O  O130  1  0.92669398  0.36921897  0.35638556  1
  O  O131  1  0.92669398  0.36921897  0.68971890  1
  O  O132  1  0.92669398  0.70255230  0.02305223  1
  O  O133  1  0.92669398  0.70255230  0.35638556  1
  O  O134  1  0.92669398  0.70255230  0.68971890  1
  O  O135  1  0.07330602  0.03588563  0.14361444  1
  O  O136  1  0.07330602  0.03588563  0.47694777  1
  O  O137  1  0.07330602  0.03588563  0.81028110  1
  O  O138  1  0.07330602  0.36921897  0.14361444  1
  O  O139  1  0.07330602  0.36921897  0.47694777  1
  O  O140  1  0.07330602  0.36921897  0.81028110  1
  O  O141  1  0.07330602  0.70255230  0.14361444  1
  O  O142  1  0.07330602  0.70255230  0.47694777  1
  O  O143  1  0.07330602  0.70255230  0.81028110  1
  O  O144  1  0.40663935  0.03588563  0.14361444  1
  O  O145  1  0.40663935  0.03588563  0.47694777  1
  O  O146  1  0.40663935  0.03588563  0.81028110  1
  O  O147  1  0.40663935  0.36921897  0.14361444  1
  O  O148  1  0.40663935  0.36921897  0.47694777  1
  O  O149  1  0.40663935  0.36921897  0.81028110  1
  O  O150  1  0.40663935  0.70255230  0.14361444  1
  O  O151  1  0.40663935  0.70255230  0.47694777  1
  O  O152  1  0.40663935  0.70255230  0.81028110  1
  O  O153  1  0.73997269  0.03588563  0.14361444  1
  O  O154  1  0.73997269  0.03588563  0.47694777  1
  O  O155  1  0.73997269  0.03588563  0.81028110  1
  O  O156  1  0.73997269  0.36921897  0.14361444  1
  O  O157  1  0.73997269  0.36921897  0.47694777  1
  O  O158  1  0.73997269  0.36921897  0.81028110  1
  O  O159  1  0.73997269  0.70255230  0.14361444  1
  O  O160  1  0.73997269  0.70255230  0.47694777  1
  O  O161  1  0.73997269  0.70255230  0.81028110  1
  O  O162  1  0.07330602  0.29744770  0.31028110  1
  O  O163  1  0.07330602  0.29744770  0.64361444  1
  O  O164  1  0.07330602  0.29744770  0.97694777  1
  O  O165  1  0.07330602  0.63078103  0.31028110  1
  O  O166  1  0.07330602  0.63078103  0.64361444  1
  O  O167  1  0.07330602  0.63078103  0.97694777  1
  O  O168  1  0.07330602  0.96411437  0.31028110  1
  O  O169  1  0.07330602  0.96411437  0.64361444  1
  O  O170  1  0.07330602  0.96411437  0.97694777  1
  O  O171  1  0.40663935  0.29744770  0.31028110  1
  O  O172  1  0.40663935  0.29744770  0.64361444  1
  O  O173  1  0.40663935  0.29744770  0.97694777  1
  O  O174  1  0.40663935  0.63078103  0.31028110  1
  O  O175  1  0.40663935  0.63078103  0.64361444  1
  O  O176  1  0.40663935  0.63078103  0.97694777  1
  O  O177  1  0.40663935  0.96411437  0.31028110  1
  O  O178  1  0.40663935  0.96411437  0.64361444  1
  O  O179  1  0.40663935  0.96411437  0.97694777  1
  O  O180  1  0.73997269  0.29744770  0.31028110  1
  O  O181  1  0.73997269  0.29744770  0.64361444  1
  O  O182  1  0.73997269  0.29744770  0.97694777  1
  O  O183  1  0.73997269  0.63078103  0.31028110  1
  O  O184  1  0.73997269  0.63078103  0.64361444  1
  O  O185  1  0.73997269  0.63078103  0.97694777  1
  O  O186  1  0.73997269  0.96411437  0.31028110  1
  O  O187  1  0.73997269  0.96411437  0.64361444  1
  O  O188  1  0.73997269  0.96411437  0.97694777  1
  O  O189  1  0.26002731  0.29744770  0.18971890  1
  O  O190  1  0.26002731  0.29744770  0.52305223  1
  O  O191  1  0.26002731  0.29744770  0.85638556  1
  O  O192  1  0.26002731  0.63078103  0.18971890  1
  O  O193  1  0.26002731  0.63078103  0.52305223  1
  O  O194  1  0.26002731  0.63078103  0.85638556  1
  O  O195  1  0.26002731  0.96411437  0.18971890  1
  O  O196  1  0.26002731  0.96411437  0.52305223  1
  O  O197  1  0.26002731  0.96411437  0.85638556  1
  O  O198  1  0.59336065  0.29744770  0.18971890  1
  O  O199  1  0.59336065  0.29744770  0.52305223  1
  O  O200  1  0.59336065  0.29744770  0.85638556  1
  O  O201  1  0.59336065  0.63078103  0.18971890  1
  O  O202  1  0.59336065  0.63078103  0.52305223  1
  O  O203  1  0.59336065  0.63078103  0.85638556  1
  O  O204  1  0.59336065  0.96411437  0.18971890  1
  O  O205  1  0.59336065  0.96411437  0.52305223  1
  O  O206  1  0.59336065  0.96411437  0.85638556  1
  O  O207  1  0.92669398  0.29744770  0.18971890  1
  O  O208  1  0.92669398  0.29744770  0.52305223  1
  O  O209  1  0.92669398  0.29744770  0.85638556  1
  O  O210  1  0.92669398  0.63078103  0.18971890  1
  O  O211  1  0.92669398  0.63078103  0.52305223  1
  O  O212  1  0.92669398  0.63078103  0.85638556  1
  O  O213  1  0.92669398  0.96411437  0.18971890  1
  O  O214  1  0.92669398  0.96411437  0.52305223  1
  O  O215  1  0.92669398  0.96411437  0.85638556  1
  O  O216  1  0.24652163  0.12600240  0.19831299  1
  O  O217  1  0.24652163  0.12600240  0.53164632  1
  O  O218  1  0.24652163  0.12600240  0.86497966  1
  O  O219  1  0.24652163  0.45933573  0.19831299  1
  O  O220  1  0.24652163  0.45933573  0.53164632  1
  O  O221  1  0.24652163  0.45933573  0.86497966  1
  O  O222  1  0.24652163  0.79266906  0.19831299  1
  O  O223  1  0.24652163  0.79266906  0.53164632  1
  O  O224  1  0.24652163  0.79266906  0.86497966  1
  O  O225  1  0.57985496  0.12600240  0.19831299  1
  O  O226  1  0.57985496  0.12600240  0.53164632  1
  O  O227  1  0.57985496  0.12600240  0.86497966  1
  O  O228  1  0.57985496  0.45933573  0.19831299  1
  O  O229  1  0.57985496  0.45933573  0.53164632  1
  O  O230  1  0.57985496  0.45933573  0.86497966  1
  O  O231  1  0.57985496  0.79266906  0.19831299  1
  O  O232  1  0.57985496  0.79266906  0.53164632  1
  O  O233  1  0.57985496  0.79266906  0.86497966  1
  O  O234  1  0.91318829  0.12600240  0.19831299  1
  O  O235  1  0.91318829  0.12600240  0.53164632  1
  O  O236  1  0.91318829  0.12600240  0.86497966  1
  O  O237  1  0.91318829  0.45933573  0.19831299  1
  O  O238  1  0.91318829  0.45933573  0.53164632  1
  O  O239  1  0.91318829  0.45933573  0.86497966  1
  O  O240  1  0.91318829  0.79266906  0.19831299  1
  O  O241  1  0.91318829  0.79266906  0.53164632  1
  O  O242  1  0.91318829  0.79266906  0.86497966  1
  O  O243  1  0.08681171  0.12600240  0.30168701  1
  O  O244  1  0.08681171  0.12600240  0.63502034  1
  O  O245  1  0.08681171  0.12600240  0.96835368  1
  O  O246  1  0.08681171  0.45933573  0.30168701  1
  O  O247  1  0.08681171  0.45933573  0.63502034  1
  O  O248  1  0.08681171  0.45933573  0.96835368  1
  O  O249  1  0.08681171  0.79266906  0.30168701  1
  O  O250  1  0.08681171  0.79266906  0.63502034  1
  O  O251  1  0.08681171  0.79266906  0.96835368  1
  O  O252  1  0.42014504  0.12600240  0.30168701  1
  O  O253  1  0.42014504  0.12600240  0.63502034  1
  O  O254  1  0.42014504  0.12600240  0.96835368  1
  O  O255  1  0.42014504  0.45933573  0.30168701  1
  O  O256  1  0.42014504  0.45933573  0.63502034  1
  O  O257  1  0.42014504  0.45933573  0.96835368  1
  O  O258  1  0.42014504  0.79266906  0.30168701  1
  O  O259  1  0.42014504  0.79266906  0.63502034  1
  O  O260  1  0.42014504  0.79266906  0.96835368  1
  O  O261  1  0.75347837  0.12600240  0.30168701  1
  O  O262  1  0.75347837  0.12600240  0.63502034  1
  O  O263  1  0.75347837  0.12600240  0.96835368  1
  O  O264  1  0.75347837  0.45933573  0.30168701  1
  O  O265  1  0.75347837  0.45933573  0.63502034  1
  O  O266  1  0.75347837  0.45933573  0.96835368  1
  O  O267  1  0.75347837  0.79266906  0.30168701  1
  O  O268  1  0.75347837  0.79266906  0.63502034  1
  O  O269  1  0.75347837  0.79266906  0.96835368  1
  O  O270  1  0.08681171  0.20733094  0.13502034  1
  O  O271  1  0.08681171  0.20733094  0.46835368  1
  O  O272  1  0.08681171  0.20733094  0.80168701  1
  O  O273  1  0.08681171  0.54066427  0.13502034  1
  O  O274  1  0.08681171  0.54066427  0.46835368  1
  O  O275  1  0.08681171  0.54066427  0.80168701  1
  O  O276  1  0.08681171  0.87399760  0.13502034  1
  O  O277  1  0.08681171  0.87399760  0.46835368  1
  O  O278  1  0.08681171  0.87399760  0.80168701  1
  O  O279  1  0.42014504  0.20733094  0.13502034  1
  O  O280  1  0.42014504  0.20733094  0.46835368  1
  O  O281  1  0.42014504  0.20733094  0.80168701  1
  O  O282  1  0.42014504  0.54066427  0.13502034  1
  O  O283  1  0.42014504  0.54066427  0.46835368  1
  O  O284  1  0.42014504  0.54066427  0.80168701  1
  O  O285  1  0.42014504  0.87399760  0.13502034  1
  O  O286  1  0.42014504  0.87399760  0.46835368  1
  O  O287  1  0.42014504  0.87399760  0.80168701  1
  O  O288  1  0.75347837  0.20733094  0.13502034  1
  O  O289  1  0.75347837  0.20733094  0.46835368  1
  O  O290  1  0.75347837  0.20733094  0.80168701  1
  O  O291  1  0.75347837  0.54066427  0.13502034  1
  O  O292  1  0.75347837  0.54066427  0.46835368  1
  O  O293  1  0.75347837  0.54066427  0.80168701  1
  O  O294  1  0.75347837  0.87399760  0.13502034  1
  O  O295  1  0.75347837  0.87399760  0.46835368  1
  O  O296  1  0.75347837  0.87399760  0.80168701  1
  O  O297  1  0.24652163  0.20733094  0.03164632  1
  O  O298  1  0.24652163  0.20733094  0.36497966  1
  O  O299  1  0.24652163  0.20733094  0.69831299  1
  O  O300  1  0.24652163  0.54066427  0.03164632  1
  O  O301  1  0.24652163  0.54066427  0.36497966  1
  O  O302  1  0.24652163  0.54066427  0.69831299  1
  O  O303  1  0.24652163  0.87399760  0.03164632  1
  O  O304  1  0.24652163  0.87399760  0.36497966  1
  O  O305  1  0.24652163  0.87399760  0.69831299  1
  O  O306  1  0.57985496  0.20733094  0.03164632  1
  O  O307  1  0.57985496  0.20733094  0.36497966  1
  O  O308  1  0.57985496  0.20733094  0.69831299  1
  O  O309  1  0.57985496  0.54066427  0.03164632  1
  O  O310  1  0.57985496  0.54066427  0.36497966  1
  O  O311  1  0.57985496  0.54066427  0.69831299  1
  O  O312  1  0.57985496  0.87399760  0.03164632  1
  O  O313  1  0.57985496  0.87399760  0.36497966  1
  O  O314  1  0.57985496  0.87399760  0.69831299  1
  O  O315  1  0.91318829  0.20733094  0.03164632  1
  O  O316  1  0.91318829  0.20733094  0.36497966  1
  O  O317  1  0.91318829  0.20733094  0.69831299  1
  O  O318  1  0.91318829  0.54066427  0.03164632  1
  O  O319  1  0.91318829  0.54066427  0.36497966  1
  O  O320  1  0.91318829  0.54066427  0.69831299  1
  O  O321  1  0.91318829  0.87399760  0.03164632  1
  O  O322  1  0.91318829  0.87399760  0.36497966  1
  O  O323  1  0.91318829  0.87399760  0.69831299  1
