# generated using pymatgen
data_CsNaTiO3
_symmetry_space_group_name_H-M   'P 1'
_cell_length_a   11.92294900
_cell_length_b   11.12320262
_cell_length_c   11.22315506
_cell_angle_alpha   90.00000000
_cell_angle_beta   90.00000000
_cell_angle_gamma   90.00000000
_symmetry_Int_Tables_number   1
_chemical_formula_structural   CsNaTiO3
_chemical_formula_sum   'Cs16 Na16 Ti16 O48'
_cell_volume   1488.43028503
_cell_formula_units_Z   16
loop_
 _symmetry_equiv_pos_site_id
 _symmetry_equiv_pos_as_xyz
  1  'x, y, z'
loop_
 _atom_site_type_symbol
 _atom_site_label
 _atom_site_symmetry_multiplicity
 _atom_site_fract_x
 _atom_site_fract_y
 _atom_site_fract_z
 _atom_site_occupancy
  Cs  Cs0  1  0.25000000  -0.23284964  0.37500000  1
  Cs  Cs1  1  0.25000000  -0.23284964  0.87500000  1
  Cs  Cs2  1  0.75000000  -0.23284964  0.37500000  1
  Cs  Cs3  1  0.75000000  -0.23284964  0.87500000  1
  Cs  Cs4  1  0.50000000  0.26715036  0.37500000  1
  Cs  Cs5  1  0.50000000  0.26715036  0.87500000  1
  Cs  Cs6  1  1.00000000  0.26715036  0.37500000  1
  Cs  Cs7  1  1.00000000  0.26715036  0.87500000  1
  Cs  Cs8  1  0.25000000  0.23284964  0.12500000  1
  Cs  Cs9  1  0.25000000  0.23284964  0.62500000  1
  Cs  Cs10  1  0.75000000  0.23284964  0.12500000  1
  Cs  Cs11  1  0.75000000  0.23284964  0.62500000  1
  Cs  Cs12  1  0.50000000  0.73284964  0.12500000  1
  Cs  Cs13  1  0.50000000  0.73284964  0.62500000  1
  Cs  Cs14  1  1.00000000  0.73284964  0.12500000  1
  Cs  Cs15  1  1.00000000  0.73284964  0.62500000  1
  Na  Na16  1  0.25000000  -0.07361014  0.12500000  1
  Na  Na17  1  0.25000000  -0.07361014  0.62500000  1
  Na  Na18  1  0.75000000  -0.07361014  0.12500000  1
  Na  Na19  1  0.75000000  -0.07361014  0.62500000  1
  Na  Na20  1  0.50000000  0.42638986  0.12500000  1
  Na  Na21  1  0.50000000  0.42638986  0.62500000  1
  Na  Na22  1  1.00000000  0.42638986  0.12500000  1
  Na  Na23  1  1.00000000  0.42638986  0.62500000  1
  Na  Na24  1  0.25000000  0.07361014  0.37500000  1
  Na  Na25  1  0.25000000  0.07361014  0.87500000  1
  Na  Na26  1  0.75000000  0.07361014  0.37500000  1
  Na  Na27  1  0.75000000  0.07361014  0.87500000  1
  Na  Na28  1  0.50000000  0.57361014  0.37500000  1
  Na  Na29  1  0.50000000  0.57361014  0.87500000  1
  Na  Na30  1  1.00000000  0.57361014  0.37500000  1
  Na  Na31  1  1.00000000  0.57361014  0.87500000  1
  Ti  Ti32  1  0.25000000  -0.45127712  0.12500000  1
  Ti  Ti33  1  0.25000000  -0.45127712  0.62500000  1
  Ti  Ti34  1  0.75000000  -0.45127712  0.12500000  1
  Ti  Ti35  1  0.75000000  -0.45127712  0.62500000  1
  Ti  Ti36  1  0.50000000  0.04872288  0.12500000  1
  Ti  Ti37  1  0.50000000  0.04872288  0.62500000  1
  Ti  Ti38  1  1.00000000  0.04872288  0.12500000  1
  Ti  Ti39  1  1.00000000  0.04872288  0.62500000  1
  Ti  Ti40  1  0.25000000  0.45127712  0.37500000  1
  Ti  Ti41  1  0.25000000  0.45127712  0.87500000  1
  Ti  Ti42  1  0.75000000  0.45127712  0.37500000  1
  Ti  Ti43  1  0.75000000  0.45127712  0.87500000  1
  Ti  Ti44  1  0.50000000  0.95127712  0.37500000  1
  Ti  Ti45  1  0.50000000  0.95127712  0.87500000  1
  Ti  Ti46  1  1.00000000  0.95127712  0.37500000  1
  Ti  Ti47  1  1.00000000  0.95127712  0.87500000  1
  O  O48  1  0.25000000  -0.29102140  0.12500000  1
  O  O49  1  0.25000000  -0.29102140  0.62500000  1
  O  O50  1  0.75000000  -0.29102140  0.12500000  1
  O  O51  1  0.75000000  -0.29102140  0.62500000  1
  O  O52  1  0.50000000  0.20897860  0.12500000  1
  O  O53  1  0.50000000  0.20897860  0.62500000  1
  O  O54  1  1.00000000  0.20897860  0.12500000  1
  O  O55  1  1.00000000  0.20897860  0.62500000  1
  O  O56  1  0.10723876  0.00000000  0.00000000  1
  O  O57  1  0.10723876  0.00000000  0.50000000  1
  O  O58  1  0.60723876  0.00000000  0.00000000  1
  O  O59  1  0.60723876  0.00000000  0.50000000  1
  O  O60  1  0.35723876  0.50000000  0.00000000  1
  O  O61  1  0.35723876  0.50000000  0.50000000  1
  O  O62  1  0.85723876  0.50000000  0.00000000  1
  O  O63  1  0.85723876  0.50000000  0.50000000  1
  O  O64  1  0.39276124  0.00000000  0.25000000  1
  O  O65  1  0.39276124  0.00000000  0.75000000  1
  O  O66  1  0.89276124  0.00000000  0.25000000  1
  O  O67  1  0.89276124  0.00000000  0.75000000  1
  O  O68  1  0.64276124  0.50000000  0.25000000  1
  O  O69  1  0.64276124  0.50000000  0.75000000  1
  O  O70  1  1.14276124  0.50000000  0.25000000  1
  O  O71  1  1.14276124  0.50000000  0.75000000  1
  O  O72  1  0.10723876  0.00000000  0.25000000  1
  O  O73  1  0.10723876  0.00000000  0.75000000  1
  O  O74  1  0.60723876  0.00000000  0.25000000  1
  O  O75  1  0.60723876  0.00000000  0.75000000  1
  O  O76  1  0.35723876  0.50000000  0.25000000  1
  O  O77  1  0.35723876  0.50000000  0.75000000  1
  O  O78  1  0.85723876  0.50000000  0.25000000  1
  O  O79  1  0.85723876  0.50000000  0.75000000  1
  O  O80  1  0.39276124  0.00000000  0.00000000  1
  O  O81  1  0.39276124  0.00000000  0.50000000  1
  O  O82  1  0.89276124  0.00000000  0.00000000  1
  O  O83  1  0.89276124  0.00000000  0.50000000  1
  O  O84  1  0.64276124  0.50000000  0.00000000  1
  O  O85  1  0.64276124  0.50000000  0.50000000  1
  O  O86  1  1.14276124  0.50000000  0.00000000  1
  O  O87  1  1.14276124  0.50000000  0.50000000  1
  O  O88  1  0.25000000  0.29102140  0.37500000  1
  O  O89  1  0.25000000  0.29102140  0.87500000  1
  O  O90  1  0.75000000  0.29102140  0.37500000  1
  O  O91  1  0.75000000  0.29102140  0.87500000  1
  O  O92  1  0.50000000  0.79102140  0.37500000  1
  O  O93  1  0.50000000  0.79102140  0.87500000  1
  O  O94  1  1.00000000  0.79102140  0.37500000  1
  O  O95  1  1.00000000  0.79102140  0.87500000  1
