# generated using pymatgen
data_Rb3SbO3
_symmetry_space_group_name_H-M   'P 1'
_cell_length_a   17.41235489
_cell_length_b   17.41235489
_cell_length_c   17.41235489
_cell_angle_alpha   90.00000000
_cell_angle_beta   90.00000000
_cell_angle_gamma   90.00000000
_symmetry_Int_Tables_number   1
_chemical_formula_structural   Rb3SbO3
_chemical_formula_sum   'Rb96 Sb32 O96'
_cell_volume   5279.25366597
_cell_formula_units_Z   32
loop_
 _symmetry_equiv_pos_site_id
 _symmetry_equiv_pos_as_xyz
  1  'x, y, z'
loop_
 _atom_site_type_symbol
 _atom_site_label
 _atom_site_symmetry_multiplicity
 _atom_site_fract_x
 _atom_site_fract_y
 _atom_site_fract_z
 _atom_site_occupancy
  Rb  Rb0  1  0.01049704  0.01049704  0.01049704  1
  Rb  Rb1  1  0.01049704  0.01049704  0.51049704  1
  Rb  Rb2  1  0.01049704  0.51049704  0.01049704  1
  Rb  Rb3  1  0.01049704  0.51049704  0.51049704  1
  Rb  Rb4  1  0.51049704  0.01049704  0.01049704  1
  Rb  Rb5  1  0.51049704  0.01049704  0.51049704  1
  Rb  Rb6  1  0.51049704  0.51049704  0.01049704  1
  Rb  Rb7  1  0.51049704  0.51049704  0.51049704  1
  Rb  Rb8  1  0.10770016  0.14229984  0.35770016  1
  Rb  Rb9  1  0.10770016  0.14229984  0.85770016  1
  Rb  Rb10  1  0.10770016  0.64229984  0.35770016  1
  Rb  Rb11  1  0.10770016  0.64229984  0.85770016  1
  Rb  Rb12  1  0.60770016  0.14229984  0.35770016  1
  Rb  Rb13  1  0.60770016  0.14229984  0.85770016  1
  Rb  Rb14  1  0.60770016  0.64229984  0.35770016  1
  Rb  Rb15  1  0.60770016  0.64229984  0.85770016  1
  Rb  Rb16  1  0.10999525  0.35999525  0.39000475  1
  Rb  Rb17  1  0.10999525  0.35999525  0.89000475  1
  Rb  Rb18  1  0.10999525  0.85999525  0.39000475  1
  Rb  Rb19  1  0.10999525  0.85999525  0.89000475  1
  Rb  Rb20  1  0.60999525  0.35999525  0.39000475  1
  Rb  Rb21  1  0.60999525  0.35999525  0.89000475  1
  Rb  Rb22  1  0.60999525  0.85999525  0.39000475  1
  Rb  Rb23  1  0.60999525  0.85999525  0.89000475  1
  Rb  Rb24  1  0.14000475  0.14000475  0.14000475  1
  Rb  Rb25  1  0.14000475  0.14000475  0.64000475  1
  Rb  Rb26  1  0.14000475  0.64000475  0.14000475  1
  Rb  Rb27  1  0.14000475  0.64000475  0.64000475  1
  Rb  Rb28  1  0.64000475  0.14000475  0.14000475  1
  Rb  Rb29  1  0.64000475  0.14000475  0.64000475  1
  Rb  Rb30  1  0.64000475  0.64000475  0.14000475  1
  Rb  Rb31  1  0.64000475  0.64000475  0.64000475  1
  Rb  Rb32  1  0.14229984  0.35770016  0.10770016  1
  Rb  Rb33  1  0.14229984  0.35770016  0.60770016  1
  Rb  Rb34  1  0.14229984  0.85770016  0.10770016  1
  Rb  Rb35  1  0.14229984  0.85770016  0.60770016  1
  Rb  Rb36  1  0.64229984  0.35770016  0.10770016  1
  Rb  Rb37  1  0.64229984  0.35770016  0.60770016  1
  Rb  Rb38  1  0.64229984  0.85770016  0.10770016  1
  Rb  Rb39  1  0.64229984  0.85770016  0.60770016  1
  Rb  Rb40  1  0.23950296  0.48950296  0.26049704  1
  Rb  Rb41  1  0.23950296  0.48950296  0.76049704  1
  Rb  Rb42  1  0.23950296  0.98950296  0.26049704  1
  Rb  Rb43  1  0.23950296  0.98950296  0.76049704  1
  Rb  Rb44  1  0.73950296  0.48950296  0.26049704  1
  Rb  Rb45  1  0.73950296  0.48950296  0.76049704  1
  Rb  Rb46  1  0.73950296  0.98950296  0.26049704  1
  Rb  Rb47  1  0.73950296  0.98950296  0.76049704  1
  Rb  Rb48  1  0.26049704  0.23950296  0.48950296  1
  Rb  Rb49  1  0.26049704  0.23950296  0.98950296  1
  Rb  Rb50  1  0.26049704  0.73950296  0.48950296  1
  Rb  Rb51  1  0.26049704  0.73950296  0.98950296  1
  Rb  Rb52  1  0.76049704  0.23950296  0.48950296  1
  Rb  Rb53  1  0.76049704  0.23950296  0.98950296  1
  Rb  Rb54  1  0.76049704  0.73950296  0.48950296  1
  Rb  Rb55  1  0.76049704  0.73950296  0.98950296  1
  Rb  Rb56  1  0.35770016  0.10770016  0.14229984  1
  Rb  Rb57  1  0.35770016  0.10770016  0.64229984  1
  Rb  Rb58  1  0.35770016  0.60770016  0.14229984  1
  Rb  Rb59  1  0.35770016  0.60770016  0.64229984  1
  Rb  Rb60  1  0.85770016  0.10770016  0.14229984  1
  Rb  Rb61  1  0.85770016  0.10770016  0.64229984  1
  Rb  Rb62  1  0.85770016  0.60770016  0.14229984  1
  Rb  Rb63  1  0.85770016  0.60770016  0.64229984  1
  Rb  Rb64  1  0.35999525  0.39000475  0.10999525  1
  Rb  Rb65  1  0.35999525  0.39000475  0.60999525  1
  Rb  Rb66  1  0.35999525  0.89000475  0.10999525  1
  Rb  Rb67  1  0.35999525  0.89000475  0.60999525  1
  Rb  Rb68  1  0.85999525  0.39000475  0.10999525  1
  Rb  Rb69  1  0.85999525  0.39000475  0.60999525  1
  Rb  Rb70  1  0.85999525  0.89000475  0.10999525  1
  Rb  Rb71  1  0.85999525  0.89000475  0.60999525  1
  Rb  Rb72  1  0.39000475  0.10999525  0.35999525  1
  Rb  Rb73  1  0.39000475  0.10999525  0.85999525  1
  Rb  Rb74  1  0.39000475  0.60999525  0.35999525  1
  Rb  Rb75  1  0.39000475  0.60999525  0.85999525  1
  Rb  Rb76  1  0.89000475  0.10999525  0.35999525  1
  Rb  Rb77  1  0.89000475  0.10999525  0.85999525  1
  Rb  Rb78  1  0.89000475  0.60999525  0.35999525  1
  Rb  Rb79  1  0.89000475  0.60999525  0.85999525  1
  Rb  Rb80  1  0.39229984  0.39229984  0.39229984  1
  Rb  Rb81  1  0.39229984  0.39229984  0.89229984  1
  Rb  Rb82  1  0.39229984  0.89229984  0.39229984  1
  Rb  Rb83  1  0.39229984  0.89229984  0.89229984  1
  Rb  Rb84  1  0.89229984  0.39229984  0.39229984  1
  Rb  Rb85  1  0.89229984  0.39229984  0.89229984  1
  Rb  Rb86  1  0.89229984  0.89229984  0.39229984  1
  Rb  Rb87  1  0.89229984  0.89229984  0.89229984  1
  Rb  Rb88  1  0.48950296  0.26049704  0.23950296  1
  Rb  Rb89  1  0.48950296  0.26049704  0.73950296  1
  Rb  Rb90  1  0.48950296  0.76049704  0.23950296  1
  Rb  Rb91  1  0.48950296  0.76049704  0.73950296  1
  Rb  Rb92  1  0.98950296  0.26049704  0.23950296  1
  Rb  Rb93  1  0.98950296  0.26049704  0.73950296  1
  Rb  Rb94  1  0.98950296  0.76049704  0.23950296  1
  Rb  Rb95  1  0.98950296  0.76049704  0.73950296  1
  Sb  Sb96  1  0.00474104  0.49525896  0.24525896  1
  Sb  Sb97  1  0.00474104  0.49525896  0.74525896  1
  Sb  Sb98  1  0.00474104  0.99525896  0.24525896  1
  Sb  Sb99  1  0.00474104  0.99525896  0.74525896  1
  Sb  Sb100  1  0.50474104  0.49525896  0.24525896  1
  Sb  Sb101  1  0.50474104  0.49525896  0.74525896  1
  Sb  Sb102  1  0.50474104  0.99525896  0.24525896  1
  Sb  Sb103  1  0.50474104  0.99525896  0.74525896  1
  Sb  Sb104  1  0.24525896  0.00474104  0.49525896  1
  Sb  Sb105  1  0.24525896  0.00474104  0.99525896  1
  Sb  Sb106  1  0.24525896  0.50474104  0.49525896  1
  Sb  Sb107  1  0.24525896  0.50474104  0.99525896  1
  Sb  Sb108  1  0.74525896  0.00474104  0.49525896  1
  Sb  Sb109  1  0.74525896  0.00474104  0.99525896  1
  Sb  Sb110  1  0.74525896  0.50474104  0.49525896  1
  Sb  Sb111  1  0.74525896  0.50474104  0.99525896  1
  Sb  Sb112  1  0.25474104  0.25474104  0.25474104  1
  Sb  Sb113  1  0.25474104  0.25474104  0.75474104  1
  Sb  Sb114  1  0.25474104  0.75474104  0.25474104  1
  Sb  Sb115  1  0.25474104  0.75474104  0.75474104  1
  Sb  Sb116  1  0.75474104  0.25474104  0.25474104  1
  Sb  Sb117  1  0.75474104  0.25474104  0.75474104  1
  Sb  Sb118  1  0.75474104  0.75474104  0.25474104  1
  Sb  Sb119  1  0.75474104  0.75474104  0.75474104  1
  Sb  Sb120  1  0.49525896  0.24525896  0.00474104  1
  Sb  Sb121  1  0.49525896  0.24525896  0.50474104  1
  Sb  Sb122  1  0.49525896  0.74525896  0.00474104  1
  Sb  Sb123  1  0.49525896  0.74525896  0.50474104  1
  Sb  Sb124  1  0.99525896  0.24525896  0.00474104  1
  Sb  Sb125  1  0.99525896  0.24525896  0.50474104  1
  Sb  Sb126  1  0.99525896  0.74525896  0.00474104  1
  Sb  Sb127  1  0.99525896  0.74525896  0.50474104  1
  O  O128  1  0.00269031  0.10562457  0.22413960  1
  O  O129  1  0.00269031  0.10562457  0.72413960  1
  O  O130  1  0.00269031  0.60562457  0.22413960  1
  O  O131  1  0.00269031  0.60562457  0.72413960  1
  O  O132  1  0.50269031  0.10562457  0.22413960  1
  O  O133  1  0.50269031  0.10562457  0.72413960  1
  O  O134  1  0.50269031  0.60562457  0.22413960  1
  O  O135  1  0.50269031  0.60562457  0.72413960  1
  O  O136  1  0.02586040  0.49730969  0.35562457  1
  O  O137  1  0.02586040  0.49730969  0.85562457  1
  O  O138  1  0.02586040  0.99730969  0.35562457  1
  O  O139  1  0.02586040  0.99730969  0.85562457  1
  O  O140  1  0.52586040  0.49730969  0.35562457  1
  O  O141  1  0.52586040  0.49730969  0.85562457  1
  O  O142  1  0.52586040  0.99730969  0.35562457  1
  O  O143  1  0.52586040  0.99730969  0.85562457  1
  O  O144  1  0.10562457  0.22413960  0.00269031  1
  O  O145  1  0.10562457  0.22413960  0.50269031  1
  O  O146  1  0.10562457  0.72413960  0.00269031  1
  O  O147  1  0.10562457  0.72413960  0.50269031  1
  O  O148  1  0.60562457  0.22413960  0.00269031  1
  O  O149  1  0.60562457  0.22413960  0.50269031  1
  O  O150  1  0.60562457  0.72413960  0.00269031  1
  O  O151  1  0.60562457  0.72413960  0.50269031  1
  O  O152  1  0.14437543  0.27586040  0.25269031  1
  O  O153  1  0.14437543  0.27586040  0.75269031  1
  O  O154  1  0.14437543  0.77586040  0.25269031  1
  O  O155  1  0.14437543  0.77586040  0.75269031  1
  O  O156  1  0.64437543  0.27586040  0.25269031  1
  O  O157  1  0.64437543  0.27586040  0.75269031  1
  O  O158  1  0.64437543  0.77586040  0.25269031  1
  O  O159  1  0.64437543  0.77586040  0.75269031  1
  O  O160  1  0.22413960  0.00269031  0.10562457  1
  O  O161  1  0.22413960  0.00269031  0.60562457  1
  O  O162  1  0.22413960  0.50269031  0.10562457  1
  O  O163  1  0.22413960  0.50269031  0.60562457  1
  O  O164  1  0.72413960  0.00269031  0.10562457  1
  O  O165  1  0.72413960  0.00269031  0.60562457  1
  O  O166  1  0.72413960  0.50269031  0.10562457  1
  O  O167  1  0.72413960  0.50269031  0.60562457  1
  O  O168  1  0.24730969  0.39437543  0.47413960  1
  O  O169  1  0.24730969  0.39437543  0.97413960  1
  O  O170  1  0.24730969  0.89437543  0.47413960  1
  O  O171  1  0.24730969  0.89437543  0.97413960  1
  O  O172  1  0.74730969  0.39437543  0.47413960  1
  O  O173  1  0.74730969  0.39437543  0.97413960  1
  O  O174  1  0.74730969  0.89437543  0.47413960  1
  O  O175  1  0.74730969  0.89437543  0.97413960  1
  O  O176  1  0.25269031  0.14437543  0.27586040  1
  O  O177  1  0.25269031  0.14437543  0.77586040  1
  O  O178  1  0.25269031  0.64437543  0.27586040  1
  O  O179  1  0.25269031  0.64437543  0.77586040  1
  O  O180  1  0.75269031  0.14437543  0.27586040  1
  O  O181  1  0.75269031  0.14437543  0.77586040  1
  O  O182  1  0.75269031  0.64437543  0.27586040  1
  O  O183  1  0.75269031  0.64437543  0.77586040  1
  O  O184  1  0.27586040  0.25269031  0.14437543  1
  O  O185  1  0.27586040  0.25269031  0.64437543  1
  O  O186  1  0.27586040  0.75269031  0.14437543  1
  O  O187  1  0.27586040  0.75269031  0.64437543  1
  O  O188  1  0.77586040  0.25269031  0.14437543  1
  O  O189  1  0.77586040  0.25269031  0.64437543  1
  O  O190  1  0.77586040  0.75269031  0.14437543  1
  O  O191  1  0.77586040  0.75269031  0.64437543  1
  O  O192  1  0.35562457  0.02586040  0.49730969  1
  O  O193  1  0.35562457  0.02586040  0.99730969  1
  O  O194  1  0.35562457  0.52586040  0.49730969  1
  O  O195  1  0.35562457  0.52586040  0.99730969  1
  O  O196  1  0.85562457  0.02586040  0.49730969  1
  O  O197  1  0.85562457  0.02586040  0.99730969  1
  O  O198  1  0.85562457  0.52586040  0.49730969  1
  O  O199  1  0.85562457  0.52586040  0.99730969  1
  O  O200  1  0.39437543  0.47413960  0.24730969  1
  O  O201  1  0.39437543  0.47413960  0.74730969  1
  O  O202  1  0.39437543  0.97413960  0.24730969  1
  O  O203  1  0.39437543  0.97413960  0.74730969  1
  O  O204  1  0.89437543  0.47413960  0.24730969  1
  O  O205  1  0.89437543  0.47413960  0.74730969  1
  O  O206  1  0.89437543  0.97413960  0.24730969  1
  O  O207  1  0.89437543  0.97413960  0.74730969  1
  O  O208  1  0.47413960  0.24730969  0.39437543  1
  O  O209  1  0.47413960  0.24730969  0.89437543  1
  O  O210  1  0.47413960  0.74730969  0.39437543  1
  O  O211  1  0.47413960  0.74730969  0.89437543  1
  O  O212  1  0.97413960  0.24730969  0.39437543  1
  O  O213  1  0.97413960  0.24730969  0.89437543  1
  O  O214  1  0.97413960  0.74730969  0.39437543  1
  O  O215  1  0.97413960  0.74730969  0.89437543  1
  O  O216  1  0.49730969  0.35562457  0.02586040  1
  O  O217  1  0.49730969  0.35562457  0.52586040  1
  O  O218  1  0.49730969  0.85562457  0.02586040  1
  O  O219  1  0.49730969  0.85562457  0.52586040  1
  O  O220  1  0.99730969  0.35562457  0.02586040  1
  O  O221  1  0.99730969  0.35562457  0.52586040  1
  O  O222  1  0.99730969  0.85562457  0.02586040  1
  O  O223  1  0.99730969  0.85562457  0.52586040  1
