# generated using pymatgen
data_Na6ZnO4
_symmetry_space_group_name_H-M   'P 1'
_cell_length_a   14.91048794
_cell_length_b   14.91048794
_cell_length_c   17.32316139
_cell_angle_alpha   90.00000000
_cell_angle_beta   90.00000000
_cell_angle_gamma   120.00000000
_symmetry_Int_Tables_number   1
_chemical_formula_structural   Na6ZnO4
_chemical_formula_sum   'Na144 Zn24 O96'
_cell_volume   3335.35061958
_cell_formula_units_Z   24
loop_
 _symmetry_equiv_pos_site_id
 _symmetry_equiv_pos_as_xyz
  1  'x, y, z'
loop_
 _atom_site_type_symbol
 _atom_site_label
 _atom_site_symmetry_multiplicity
 _atom_site_fract_x
 _atom_site_fract_y
 _atom_site_fract_z
 _atom_site_occupancy
  Na  Na0  1  0.23166798  0.26833202  0.21175218  1
  Na  Na1  1  0.23166798  0.26833202  0.54508551  1
  Na  Na2  1  0.23166798  0.26833202  0.87841885  1
  Na  Na3  1  0.23166798  0.76833202  0.21175218  1
  Na  Na4  1  0.23166798  0.76833202  0.54508551  1
  Na  Na5  1  0.23166798  0.76833202  0.87841885  1
  Na  Na6  1  0.73166798  0.26833202  0.21175218  1
  Na  Na7  1  0.73166798  0.26833202  0.54508551  1
  Na  Na8  1  0.73166798  0.26833202  0.87841885  1
  Na  Na9  1  0.73166798  0.76833202  0.21175218  1
  Na  Na10  1  0.73166798  0.76833202  0.54508551  1
  Na  Na11  1  0.73166798  0.76833202  0.87841885  1
  Na  Na12  1  0.26833202  0.03666404  0.04508551  1
  Na  Na13  1  0.26833202  0.03666404  0.37841885  1
  Na  Na14  1  0.26833202  0.03666404  0.71175218  1
  Na  Na15  1  0.26833202  0.53666404  0.04508551  1
  Na  Na16  1  0.26833202  0.53666404  0.37841885  1
  Na  Na17  1  0.26833202  0.53666404  0.71175218  1
  Na  Na18  1  0.76833202  0.03666404  0.04508551  1
  Na  Na19  1  0.76833202  0.03666404  0.37841885  1
  Na  Na20  1  0.76833202  0.03666404  0.71175218  1
  Na  Na21  1  0.76833202  0.53666404  0.04508551  1
  Na  Na22  1  0.76833202  0.53666404  0.37841885  1
  Na  Na23  1  0.76833202  0.53666404  0.71175218  1
  Na  Na24  1  0.42879523  0.35759046  0.15554622  1
  Na  Na25  1  0.42879523  0.35759046  0.48887955  1
  Na  Na26  1  0.42879523  0.35759046  0.82221289  1
  Na  Na27  1  0.42879523  0.85759046  0.15554622  1
  Na  Na28  1  0.42879523  0.85759046  0.48887955  1
  Na  Na29  1  0.42879523  0.85759046  0.82221289  1
  Na  Na30  1  0.92879523  0.35759046  0.15554622  1
  Na  Na31  1  0.92879523  0.35759046  0.48887955  1
  Na  Na32  1  0.92879523  0.35759046  0.82221289  1
  Na  Na33  1  0.92879523  0.85759046  0.15554622  1
  Na  Na34  1  0.92879523  0.85759046  0.48887955  1
  Na  Na35  1  0.92879523  0.85759046  0.82221289  1
  Na  Na36  1  0.07120477  0.42879523  0.32221289  1
  Na  Na37  1  0.07120477  0.42879523  0.65554622  1
  Na  Na38  1  0.07120477  0.42879523  0.98887955  1
  Na  Na39  1  0.07120477  0.92879523  0.32221289  1
  Na  Na40  1  0.07120477  0.92879523  0.65554622  1
  Na  Na41  1  0.07120477  0.92879523  0.98887955  1
  Na  Na42  1  0.57120477  0.42879523  0.32221289  1
  Na  Na43  1  0.57120477  0.42879523  0.65554622  1
  Na  Na44  1  0.57120477  0.42879523  0.98887955  1
  Na  Na45  1  0.57120477  0.92879523  0.32221289  1
  Na  Na46  1  0.57120477  0.92879523  0.65554622  1
  Na  Na47  1  0.57120477  0.92879523  0.98887955  1
  Na  Na48  1  0.35759046  0.42879523  0.32221289  1
  Na  Na49  1  0.35759046  0.42879523  0.65554622  1
  Na  Na50  1  0.35759046  0.42879523  0.98887955  1
  Na  Na51  1  0.35759046  0.92879523  0.32221289  1
  Na  Na52  1  0.35759046  0.92879523  0.65554622  1
  Na  Na53  1  0.35759046  0.92879523  0.98887955  1
  Na  Na54  1  0.85759046  0.42879523  0.32221289  1
  Na  Na55  1  0.85759046  0.42879523  0.65554622  1
  Na  Na56  1  0.85759046  0.42879523  0.98887955  1
  Na  Na57  1  0.85759046  0.92879523  0.32221289  1
  Na  Na58  1  0.85759046  0.92879523  0.65554622  1
  Na  Na59  1  0.85759046  0.92879523  0.98887955  1
  Na  Na60  1  0.14240954  0.07120477  0.15554622  1
  Na  Na61  1  0.14240954  0.07120477  0.48887955  1
  Na  Na62  1  0.14240954  0.07120477  0.82221289  1
  Na  Na63  1  0.14240954  0.57120477  0.15554622  1
  Na  Na64  1  0.14240954  0.57120477  0.48887955  1
  Na  Na65  1  0.14240954  0.57120477  0.82221289  1
  Na  Na66  1  0.64240954  0.07120477  0.15554622  1
  Na  Na67  1  0.64240954  0.07120477  0.48887955  1
  Na  Na68  1  0.64240954  0.07120477  0.82221289  1
  Na  Na69  1  0.64240954  0.57120477  0.15554622  1
  Na  Na70  1  0.64240954  0.57120477  0.48887955  1
  Na  Na71  1  0.64240954  0.57120477  0.82221289  1
  Na  Na72  1  0.42879523  0.07120477  0.15554622  1
  Na  Na73  1  0.42879523  0.07120477  0.48887955  1
  Na  Na74  1  0.42879523  0.07120477  0.82221289  1
  Na  Na75  1  0.42879523  0.57120477  0.15554622  1
  Na  Na76  1  0.42879523  0.57120477  0.48887955  1
  Na  Na77  1  0.42879523  0.57120477  0.82221289  1
  Na  Na78  1  0.92879523  0.07120477  0.15554622  1
  Na  Na79  1  0.92879523  0.07120477  0.48887955  1
  Na  Na80  1  0.92879523  0.07120477  0.82221289  1
  Na  Na81  1  0.92879523  0.57120477  0.15554622  1
  Na  Na82  1  0.92879523  0.57120477  0.48887955  1
  Na  Na83  1  0.92879523  0.57120477  0.82221289  1
  Na  Na84  1  0.07120477  0.14240954  0.32221289  1
  Na  Na85  1  0.07120477  0.14240954  0.65554622  1
  Na  Na86  1  0.07120477  0.14240954  0.98887955  1
  Na  Na87  1  0.07120477  0.64240954  0.32221289  1
  Na  Na88  1  0.07120477  0.64240954  0.65554622  1
  Na  Na89  1  0.07120477  0.64240954  0.98887955  1
  Na  Na90  1  0.57120477  0.14240954  0.32221289  1
  Na  Na91  1  0.57120477  0.14240954  0.65554622  1
  Na  Na92  1  0.57120477  0.14240954  0.98887955  1
  Na  Na93  1  0.57120477  0.64240954  0.32221289  1
  Na  Na94  1  0.57120477  0.64240954  0.65554622  1
  Na  Na95  1  0.57120477  0.64240954  0.98887955  1
  Na  Na96  1  0.23166798  0.46333596  0.21175218  1
  Na  Na97  1  0.23166798  0.46333596  0.54508551  1
  Na  Na98  1  0.23166798  0.46333596  0.87841885  1
  Na  Na99  1  0.23166798  0.96333596  0.21175218  1
  Na  Na100  1  0.23166798  0.96333596  0.54508551  1
  Na  Na101  1  0.23166798  0.96333596  0.87841885  1
  Na  Na102  1  0.73166798  0.46333596  0.21175218  1
  Na  Na103  1  0.73166798  0.46333596  0.54508551  1
  Na  Na104  1  0.73166798  0.46333596  0.87841885  1
  Na  Na105  1  0.73166798  0.96333596  0.21175218  1
  Na  Na106  1  0.73166798  0.96333596  0.54508551  1
  Na  Na107  1  0.73166798  0.96333596  0.87841885  1
  Na  Na108  1  0.26833202  0.23166798  0.04508551  1
  Na  Na109  1  0.26833202  0.23166798  0.37841885  1
  Na  Na110  1  0.26833202  0.23166798  0.71175218  1
  Na  Na111  1  0.26833202  0.73166798  0.04508551  1
  Na  Na112  1  0.26833202  0.73166798  0.37841885  1
  Na  Na113  1  0.26833202  0.73166798  0.71175218  1
  Na  Na114  1  0.76833202  0.23166798  0.04508551  1
  Na  Na115  1  0.76833202  0.23166798  0.37841885  1
  Na  Na116  1  0.76833202  0.23166798  0.71175218  1
  Na  Na117  1  0.76833202  0.73166798  0.04508551  1
  Na  Na118  1  0.76833202  0.73166798  0.37841885  1
  Na  Na119  1  0.76833202  0.73166798  0.71175218  1
  Na  Na120  1  0.46333596  0.23166798  0.04508551  1
  Na  Na121  1  0.46333596  0.23166798  0.37841885  1
  Na  Na122  1  0.46333596  0.23166798  0.71175218  1
  Na  Na123  1  0.46333596  0.73166798  0.04508551  1
  Na  Na124  1  0.46333596  0.73166798  0.37841885  1
  Na  Na125  1  0.46333596  0.73166798  0.71175218  1
  Na  Na126  1  0.96333596  0.23166798  0.04508551  1
  Na  Na127  1  0.96333596  0.23166798  0.37841885  1
  Na  Na128  1  0.96333596  0.23166798  0.71175218  1
  Na  Na129  1  0.96333596  0.73166798  0.04508551  1
  Na  Na130  1  0.96333596  0.73166798  0.37841885  1
  Na  Na131  1  0.96333596  0.73166798  0.71175218  1
  Na  Na132  1  0.03666404  0.26833202  0.21175218  1
  Na  Na133  1  0.03666404  0.26833202  0.54508551  1
  Na  Na134  1  0.03666404  0.26833202  0.87841885  1
  Na  Na135  1  0.03666404  0.76833202  0.21175218  1
  Na  Na136  1  0.03666404  0.76833202  0.54508551  1
  Na  Na137  1  0.03666404  0.76833202  0.87841885  1
  Na  Na138  1  0.53666404  0.26833202  0.21175218  1
  Na  Na139  1  0.53666404  0.26833202  0.54508551  1
  Na  Na140  1  0.53666404  0.26833202  0.87841885  1
  Na  Na141  1  0.53666404  0.76833202  0.21175218  1
  Na  Na142  1  0.53666404  0.76833202  0.54508551  1
  Na  Na143  1  0.53666404  0.76833202  0.87841885  1
  Zn  Zn144  1  0.16666667  0.33333333  0.08134459  1
  Zn  Zn145  1  0.16666667  0.33333333  0.41467793  1
  Zn  Zn146  1  0.16666667  0.33333333  0.74801126  1
  Zn  Zn147  1  0.16666667  0.83333333  0.08134459  1
  Zn  Zn148  1  0.16666667  0.83333333  0.41467793  1
  Zn  Zn149  1  0.16666667  0.83333333  0.74801126  1
  Zn  Zn150  1  0.66666667  0.33333333  0.08134459  1
  Zn  Zn151  1  0.66666667  0.33333333  0.41467793  1
  Zn  Zn152  1  0.66666667  0.33333333  0.74801126  1
  Zn  Zn153  1  0.66666667  0.83333333  0.08134459  1
  Zn  Zn154  1  0.66666667  0.83333333  0.41467793  1
  Zn  Zn155  1  0.66666667  0.83333333  0.74801126  1
  Zn  Zn156  1  0.33333333  0.16666667  0.24801126  1
  Zn  Zn157  1  0.33333333  0.16666667  0.58134459  1
  Zn  Zn158  1  0.33333333  0.16666667  0.91467793  1
  Zn  Zn159  1  0.33333333  0.66666667  0.24801126  1
  Zn  Zn160  1  0.33333333  0.66666667  0.58134459  1
  Zn  Zn161  1  0.33333333  0.66666667  0.91467793  1
  Zn  Zn162  1  0.83333333  0.16666667  0.24801126  1
  Zn  Zn163  1  0.83333333  0.16666667  0.58134459  1
  Zn  Zn164  1  0.83333333  0.16666667  0.91467793  1
  Zn  Zn165  1  0.83333333  0.66666667  0.24801126  1
  Zn  Zn166  1  0.83333333  0.66666667  0.58134459  1
  Zn  Zn167  1  0.83333333  0.66666667  0.91467793  1
  O  O168  1  0.40519637  0.31039274  0.28524660  1
  O  O169  1  0.40519637  0.31039274  0.61857994  1
  O  O170  1  0.40519637  0.31039274  0.95191327  1
  O  O171  1  0.40519637  0.81039274  0.28524660  1
  O  O172  1  0.40519637  0.81039274  0.61857994  1
  O  O173  1  0.40519637  0.81039274  0.95191327  1
  O  O174  1  0.90519637  0.31039274  0.28524660  1
  O  O175  1  0.90519637  0.31039274  0.61857994  1
  O  O176  1  0.90519637  0.31039274  0.95191327  1
  O  O177  1  0.90519637  0.81039274  0.28524660  1
  O  O178  1  0.90519637  0.81039274  0.61857994  1
  O  O179  1  0.90519637  0.81039274  0.95191327  1
  O  O180  1  0.09480363  0.40519637  0.11857994  1
  O  O181  1  0.09480363  0.40519637  0.45191327  1
  O  O182  1  0.09480363  0.40519637  0.78524660  1
  O  O183  1  0.09480363  0.90519637  0.11857994  1
  O  O184  1  0.09480363  0.90519637  0.45191327  1
  O  O185  1  0.09480363  0.90519637  0.78524660  1
  O  O186  1  0.59480363  0.40519637  0.11857994  1
  O  O187  1  0.59480363  0.40519637  0.45191327  1
  O  O188  1  0.59480363  0.40519637  0.78524660  1
  O  O189  1  0.59480363  0.90519637  0.11857994  1
  O  O190  1  0.59480363  0.90519637  0.45191327  1
  O  O191  1  0.59480363  0.90519637  0.78524660  1
  O  O192  1  0.33333333  0.16666667  0.13635407  1
  O  O193  1  0.33333333  0.16666667  0.46968740  1
  O  O194  1  0.33333333  0.16666667  0.80302073  1
  O  O195  1  0.33333333  0.66666667  0.13635407  1
  O  O196  1  0.33333333  0.66666667  0.46968740  1
  O  O197  1  0.33333333  0.66666667  0.80302073  1
  O  O198  1  0.83333333  0.16666667  0.13635407  1
  O  O199  1  0.83333333  0.16666667  0.46968740  1
  O  O200  1  0.83333333  0.16666667  0.80302073  1
  O  O201  1  0.83333333  0.66666667  0.13635407  1
  O  O202  1  0.83333333  0.66666667  0.46968740  1
  O  O203  1  0.83333333  0.66666667  0.80302073  1
  O  O204  1  0.16666667  0.33333333  0.30302073  1
  O  O205  1  0.16666667  0.33333333  0.63635407  1
  O  O206  1  0.16666667  0.33333333  0.96968740  1
  O  O207  1  0.16666667  0.83333333  0.30302073  1
  O  O208  1  0.16666667  0.83333333  0.63635407  1
  O  O209  1  0.16666667  0.83333333  0.96968740  1
  O  O210  1  0.66666667  0.33333333  0.30302073  1
  O  O211  1  0.66666667  0.33333333  0.63635407  1
  O  O212  1  0.66666667  0.33333333  0.96968740  1
  O  O213  1  0.66666667  0.83333333  0.30302073  1
  O  O214  1  0.66666667  0.83333333  0.63635407  1
  O  O215  1  0.66666667  0.83333333  0.96968740  1
  O  O216  1  0.09480363  0.18960726  0.11857994  1
  O  O217  1  0.09480363  0.18960726  0.45191327  1
  O  O218  1  0.09480363  0.18960726  0.78524660  1
  O  O219  1  0.09480363  0.68960726  0.11857994  1
  O  O220  1  0.09480363  0.68960726  0.45191327  1
  O  O221  1  0.09480363  0.68960726  0.78524660  1
  O  O222  1  0.59480363  0.18960726  0.11857994  1
  O  O223  1  0.59480363  0.18960726  0.45191327  1
  O  O224  1  0.59480363  0.18960726  0.78524660  1
  O  O225  1  0.59480363  0.68960726  0.11857994  1
  O  O226  1  0.59480363  0.68960726  0.45191327  1
  O  O227  1  0.59480363  0.68960726  0.78524660  1
  O  O228  1  0.40519637  0.09480363  0.28524660  1
  O  O229  1  0.40519637  0.09480363  0.61857994  1
  O  O230  1  0.40519637  0.09480363  0.95191327  1
  O  O231  1  0.40519637  0.59480363  0.28524660  1
  O  O232  1  0.40519637  0.59480363  0.61857994  1
  O  O233  1  0.40519637  0.59480363  0.95191327  1
  O  O234  1  0.90519637  0.09480363  0.28524660  1
  O  O235  1  0.90519637  0.09480363  0.61857994  1
  O  O236  1  0.90519637  0.09480363  0.95191327  1
  O  O237  1  0.90519637  0.59480363  0.28524660  1
  O  O238  1  0.90519637  0.59480363  0.61857994  1
  O  O239  1  0.90519637  0.59480363  0.95191327  1
  O  O240  1  0.18960726  0.09480363  0.28524660  1
  O  O241  1  0.18960726  0.09480363  0.61857994  1
  O  O242  1  0.18960726  0.09480363  0.95191327  1
  O  O243  1  0.18960726  0.59480363  0.28524660  1
  O  O244  1  0.18960726  0.59480363  0.61857994  1
  O  O245  1  0.18960726  0.59480363  0.95191327  1
  O  O246  1  0.68960726  0.09480363  0.28524660  1
  O  O247  1  0.68960726  0.09480363  0.61857994  1
  O  O248  1  0.68960726  0.09480363  0.95191327  1
  O  O249  1  0.68960726  0.59480363  0.28524660  1
  O  O250  1  0.68960726  0.59480363  0.61857994  1
  O  O251  1  0.68960726  0.59480363  0.95191327  1
  O  O252  1  0.31039274  0.40519637  0.11857994  1
  O  O253  1  0.31039274  0.40519637  0.45191327  1
  O  O254  1  0.31039274  0.40519637  0.78524660  1
  O  O255  1  0.31039274  0.90519637  0.11857994  1
  O  O256  1  0.31039274  0.90519637  0.45191327  1
  O  O257  1  0.31039274  0.90519637  0.78524660  1
  O  O258  1  0.81039274  0.40519637  0.11857994  1
  O  O259  1  0.81039274  0.40519637  0.45191327  1
  O  O260  1  0.81039274  0.40519637  0.78524660  1
  O  O261  1  0.81039274  0.90519637  0.11857994  1
  O  O262  1  0.81039274  0.90519637  0.45191327  1
  O  O263  1  0.81039274  0.90519637  0.78524660  1
