# generated using pymatgen
data_NaCuO
_symmetry_space_group_name_H-M   'P 1'
_cell_length_a   17.39141718
_cell_length_b   17.39141718
_cell_length_c   18.43871460
_cell_angle_alpha   90.00000000
_cell_angle_beta   90.00000000
_cell_angle_gamma   90.00000000
_symmetry_Int_Tables_number   1
_chemical_formula_structural   NaCuO
_chemical_formula_sum   'Na128 Cu128 O128'
_cell_volume   5576.99927664
_cell_formula_units_Z   128
loop_
 _symmetry_equiv_pos_site_id
 _symmetry_equiv_pos_as_xyz
  1  'x, y, z'
loop_
 _atom_site_type_symbol
 _atom_site_label
 _atom_site_symmetry_multiplicity
 _atom_site_fract_x
 _atom_site_fract_y
 _atom_site_fract_z
 _atom_site_occupancy
  Na  Na0  1  0.08603357  0.25000000  -0.00000000  1
  Na  Na1  1  0.08603357  0.25000000  0.25000000  1
  Na  Na2  1  0.08603357  0.25000000  0.50000000  1
  Na  Na3  1  0.08603357  0.25000000  0.75000000  1
  Na  Na4  1  0.58603357  0.25000000  -0.00000000  1
  Na  Na5  1  0.58603357  0.25000000  0.25000000  1
  Na  Na6  1  0.58603357  0.25000000  0.50000000  1
  Na  Na7  1  0.58603357  0.25000000  0.75000000  1
  Na  Na8  1  0.08603357  -0.25000000  -0.00000000  1
  Na  Na9  1  0.08603357  -0.25000000  0.25000000  1
  Na  Na10  1  0.08603357  -0.25000000  0.50000000  1
  Na  Na11  1  0.08603357  -0.25000000  0.75000000  1
  Na  Na12  1  0.58603357  -0.25000000  -0.00000000  1
  Na  Na13  1  0.58603357  -0.25000000  0.25000000  1
  Na  Na14  1  0.58603357  -0.25000000  0.50000000  1
  Na  Na15  1  0.58603357  -0.25000000  0.75000000  1
  Na  Na16  1  0.33603357  0.00000000  0.12500000  1
  Na  Na17  1  0.33603357  0.00000000  0.37500000  1
  Na  Na18  1  0.33603357  0.00000000  0.62500000  1
  Na  Na19  1  0.33603357  0.00000000  0.87500000  1
  Na  Na20  1  0.83603357  0.00000000  0.12500000  1
  Na  Na21  1  0.83603357  0.00000000  0.37500000  1
  Na  Na22  1  0.83603357  0.00000000  0.62500000  1
  Na  Na23  1  0.83603357  0.00000000  0.87500000  1
  Na  Na24  1  0.33603357  -0.50000000  0.12500000  1
  Na  Na25  1  0.33603357  -0.50000000  0.37500000  1
  Na  Na26  1  0.33603357  -0.50000000  0.62500000  1
  Na  Na27  1  0.33603357  -0.50000000  0.87500000  1
  Na  Na28  1  0.83603357  -0.50000000  0.12500000  1
  Na  Na29  1  0.83603357  -0.50000000  0.37500000  1
  Na  Na30  1  0.83603357  -0.50000000  0.62500000  1
  Na  Na31  1  0.83603357  -0.50000000  0.87500000  1
  Na  Na32  1  0.00000000  0.33603357  0.12500000  1
  Na  Na33  1  0.00000000  0.33603357  0.37500000  1
  Na  Na34  1  0.00000000  0.33603357  0.62500000  1
  Na  Na35  1  0.00000000  0.33603357  0.87500000  1
  Na  Na36  1  0.50000000  0.33603357  0.12500000  1
  Na  Na37  1  0.50000000  0.33603357  0.37500000  1
  Na  Na38  1  0.50000000  0.33603357  0.62500000  1
  Na  Na39  1  0.50000000  0.33603357  0.87500000  1
  Na  Na40  1  0.00000000  -0.16396643  0.12500000  1
  Na  Na41  1  0.00000000  -0.16396643  0.37500000  1
  Na  Na42  1  0.00000000  -0.16396643  0.62500000  1
  Na  Na43  1  0.00000000  -0.16396643  0.87500000  1
  Na  Na44  1  0.50000000  -0.16396643  0.12500000  1
  Na  Na45  1  0.50000000  -0.16396643  0.37500000  1
  Na  Na46  1  0.50000000  -0.16396643  0.62500000  1
  Na  Na47  1  0.50000000  -0.16396643  0.87500000  1
  Na  Na48  1  0.25000000  0.08603357  0.25000000  1
  Na  Na49  1  0.25000000  0.08603357  0.50000000  1
  Na  Na50  1  0.25000000  0.08603357  0.75000000  1
  Na  Na51  1  0.25000000  0.08603357  1.00000000  1
  Na  Na52  1  0.75000000  0.08603357  0.25000000  1
  Na  Na53  1  0.75000000  0.08603357  0.50000000  1
  Na  Na54  1  0.75000000  0.08603357  0.75000000  1
  Na  Na55  1  0.75000000  0.08603357  1.00000000  1
  Na  Na56  1  0.25000000  -0.41396643  0.25000000  1
  Na  Na57  1  0.25000000  -0.41396643  0.50000000  1
  Na  Na58  1  0.25000000  -0.41396643  0.75000000  1
  Na  Na59  1  0.25000000  -0.41396643  1.00000000  1
  Na  Na60  1  0.75000000  -0.41396643  0.25000000  1
  Na  Na61  1  0.75000000  -0.41396643  0.50000000  1
  Na  Na62  1  0.75000000  -0.41396643  0.75000000  1
  Na  Na63  1  0.75000000  -0.41396643  1.00000000  1
  Na  Na64  1  0.25000000  0.41396643  -0.00000000  1
  Na  Na65  1  0.25000000  0.41396643  0.25000000  1
  Na  Na66  1  0.25000000  0.41396643  0.50000000  1
  Na  Na67  1  0.25000000  0.41396643  0.75000000  1
  Na  Na68  1  0.75000000  0.41396643  -0.00000000  1
  Na  Na69  1  0.75000000  0.41396643  0.25000000  1
  Na  Na70  1  0.75000000  0.41396643  0.50000000  1
  Na  Na71  1  0.75000000  0.41396643  0.75000000  1
  Na  Na72  1  0.25000000  -0.08603357  -0.00000000  1
  Na  Na73  1  0.25000000  -0.08603357  0.25000000  1
  Na  Na74  1  0.25000000  -0.08603357  0.50000000  1
  Na  Na75  1  0.25000000  -0.08603357  0.75000000  1
  Na  Na76  1  0.75000000  -0.08603357  -0.00000000  1
  Na  Na77  1  0.75000000  -0.08603357  0.25000000  1
  Na  Na78  1  0.75000000  -0.08603357  0.50000000  1
  Na  Na79  1  0.75000000  -0.08603357  0.75000000  1
  Na  Na80  1  0.50000000  0.16396643  0.12500000  1
  Na  Na81  1  0.50000000  0.16396643  0.37500000  1
  Na  Na82  1  0.50000000  0.16396643  0.62500000  1
  Na  Na83  1  0.50000000  0.16396643  0.87500000  1
  Na  Na84  1  1.00000000  0.16396643  0.12500000  1
  Na  Na85  1  1.00000000  0.16396643  0.37500000  1
  Na  Na86  1  1.00000000  0.16396643  0.62500000  1
  Na  Na87  1  1.00000000  0.16396643  0.87500000  1
  Na  Na88  1  0.50000000  -0.33603357  0.12500000  1
  Na  Na89  1  0.50000000  -0.33603357  0.37500000  1
  Na  Na90  1  0.50000000  -0.33603357  0.62500000  1
  Na  Na91  1  0.50000000  -0.33603357  0.87500000  1
  Na  Na92  1  1.00000000  -0.33603357  0.12500000  1
  Na  Na93  1  1.00000000  -0.33603357  0.37500000  1
  Na  Na94  1  1.00000000  -0.33603357  0.62500000  1
  Na  Na95  1  1.00000000  -0.33603357  0.87500000  1
  Na  Na96  1  0.16396643  0.50000000  0.12500000  1
  Na  Na97  1  0.16396643  0.50000000  0.37500000  1
  Na  Na98  1  0.16396643  0.50000000  0.62500000  1
  Na  Na99  1  0.16396643  0.50000000  0.87500000  1
  Na  Na100  1  0.66396643  0.50000000  0.12500000  1
  Na  Na101  1  0.66396643  0.50000000  0.37500000  1
  Na  Na102  1  0.66396643  0.50000000  0.62500000  1
  Na  Na103  1  0.66396643  0.50000000  0.87500000  1
  Na  Na104  1  0.16396643  0.00000000  0.12500000  1
  Na  Na105  1  0.16396643  0.00000000  0.37500000  1
  Na  Na106  1  0.16396643  0.00000000  0.62500000  1
  Na  Na107  1  0.16396643  0.00000000  0.87500000  1
  Na  Na108  1  0.66396643  0.00000000  0.12500000  1
  Na  Na109  1  0.66396643  0.00000000  0.37500000  1
  Na  Na110  1  0.66396643  0.00000000  0.62500000  1
  Na  Na111  1  0.66396643  0.00000000  0.87500000  1
  Na  Na112  1  0.41396643  0.25000000  0.25000000  1
  Na  Na113  1  0.41396643  0.25000000  0.50000000  1
  Na  Na114  1  0.41396643  0.25000000  0.75000000  1
  Na  Na115  1  0.41396643  0.25000000  1.00000000  1
  Na  Na116  1  0.91396643  0.25000000  0.25000000  1
  Na  Na117  1  0.91396643  0.25000000  0.50000000  1
  Na  Na118  1  0.91396643  0.25000000  0.75000000  1
  Na  Na119  1  0.91396643  0.25000000  1.00000000  1
  Na  Na120  1  0.41396643  -0.25000000  0.25000000  1
  Na  Na121  1  0.41396643  -0.25000000  0.50000000  1
  Na  Na122  1  0.41396643  -0.25000000  0.75000000  1
  Na  Na123  1  0.41396643  -0.25000000  1.00000000  1
  Na  Na124  1  0.91396643  -0.25000000  0.25000000  1
  Na  Na125  1  0.91396643  -0.25000000  0.50000000  1
  Na  Na126  1  0.91396643  -0.25000000  0.75000000  1
  Na  Na127  1  0.91396643  -0.25000000  1.00000000  1
  Cu  Cu128  1  0.07385815  0.42614185  -0.00000000  1
  Cu  Cu129  1  0.07385815  0.42614185  0.25000000  1
  Cu  Cu130  1  0.07385815  0.42614185  0.50000000  1
  Cu  Cu131  1  0.07385815  0.42614185  0.75000000  1
  Cu  Cu132  1  0.57385815  0.42614185  -0.00000000  1
  Cu  Cu133  1  0.57385815  0.42614185  0.25000000  1
  Cu  Cu134  1  0.57385815  0.42614185  0.50000000  1
  Cu  Cu135  1  0.57385815  0.42614185  0.75000000  1
  Cu  Cu136  1  0.07385815  -0.07385815  -0.00000000  1
  Cu  Cu137  1  0.07385815  -0.07385815  0.25000000  1
  Cu  Cu138  1  0.07385815  -0.07385815  0.50000000  1
  Cu  Cu139  1  0.07385815  -0.07385815  0.75000000  1
  Cu  Cu140  1  0.57385815  -0.07385815  -0.00000000  1
  Cu  Cu141  1  0.57385815  -0.07385815  0.25000000  1
  Cu  Cu142  1  0.57385815  -0.07385815  0.50000000  1
  Cu  Cu143  1  0.57385815  -0.07385815  0.75000000  1
  Cu  Cu144  1  0.32385815  0.17614185  0.12500000  1
  Cu  Cu145  1  0.32385815  0.17614185  0.37500000  1
  Cu  Cu146  1  0.32385815  0.17614185  0.62500000  1
  Cu  Cu147  1  0.32385815  0.17614185  0.87500000  1
  Cu  Cu148  1  0.82385815  0.17614185  0.12500000  1
  Cu  Cu149  1  0.82385815  0.17614185  0.37500000  1
  Cu  Cu150  1  0.82385815  0.17614185  0.62500000  1
  Cu  Cu151  1  0.82385815  0.17614185  0.87500000  1
  Cu  Cu152  1  0.32385815  -0.32385815  0.12500000  1
  Cu  Cu153  1  0.32385815  -0.32385815  0.37500000  1
  Cu  Cu154  1  0.32385815  -0.32385815  0.62500000  1
  Cu  Cu155  1  0.32385815  -0.32385815  0.87500000  1
  Cu  Cu156  1  0.82385815  -0.32385815  0.12500000  1
  Cu  Cu157  1  0.82385815  -0.32385815  0.37500000  1
  Cu  Cu158  1  0.82385815  -0.32385815  0.62500000  1
  Cu  Cu159  1  0.82385815  -0.32385815  0.87500000  1
  Cu  Cu160  1  -0.17614185  0.32385815  0.12500000  1
  Cu  Cu161  1  -0.17614185  0.32385815  0.37500000  1
  Cu  Cu162  1  -0.17614185  0.32385815  0.62500000  1
  Cu  Cu163  1  -0.17614185  0.32385815  0.87500000  1
  Cu  Cu164  1  0.32385815  0.32385815  0.12500000  1
  Cu  Cu165  1  0.32385815  0.32385815  0.37500000  1
  Cu  Cu166  1  0.32385815  0.32385815  0.62500000  1
  Cu  Cu167  1  0.32385815  0.32385815  0.87500000  1
  Cu  Cu168  1  -0.17614185  -0.17614185  0.12500000  1
  Cu  Cu169  1  -0.17614185  -0.17614185  0.37500000  1
  Cu  Cu170  1  -0.17614185  -0.17614185  0.62500000  1
  Cu  Cu171  1  -0.17614185  -0.17614185  0.87500000  1
  Cu  Cu172  1  0.32385815  -0.17614185  0.12500000  1
  Cu  Cu173  1  0.32385815  -0.17614185  0.37500000  1
  Cu  Cu174  1  0.32385815  -0.17614185  0.62500000  1
  Cu  Cu175  1  0.32385815  -0.17614185  0.87500000  1
  Cu  Cu176  1  0.07385815  0.07385815  0.25000000  1
  Cu  Cu177  1  0.07385815  0.07385815  0.50000000  1
  Cu  Cu178  1  0.07385815  0.07385815  0.75000000  1
  Cu  Cu179  1  0.07385815  0.07385815  1.00000000  1
  Cu  Cu180  1  0.57385815  0.07385815  0.25000000  1
  Cu  Cu181  1  0.57385815  0.07385815  0.50000000  1
  Cu  Cu182  1  0.57385815  0.07385815  0.75000000  1
  Cu  Cu183  1  0.57385815  0.07385815  1.00000000  1
  Cu  Cu184  1  0.07385815  -0.42614185  0.25000000  1
  Cu  Cu185  1  0.07385815  -0.42614185  0.50000000  1
  Cu  Cu186  1  0.07385815  -0.42614185  0.75000000  1
  Cu  Cu187  1  0.07385815  -0.42614185  1.00000000  1
  Cu  Cu188  1  0.57385815  -0.42614185  0.25000000  1
  Cu  Cu189  1  0.57385815  -0.42614185  0.50000000  1
  Cu  Cu190  1  0.57385815  -0.42614185  0.75000000  1
  Cu  Cu191  1  0.57385815  -0.42614185  1.00000000  1
  Cu  Cu192  1  0.17614185  0.67614185  0.12500000  1
  Cu  Cu193  1  0.17614185  0.67614185  0.37500000  1
  Cu  Cu194  1  0.17614185  0.67614185  0.62500000  1
  Cu  Cu195  1  0.17614185  0.67614185  0.87500000  1
  Cu  Cu196  1  0.67614185  0.67614185  0.12500000  1
  Cu  Cu197  1  0.67614185  0.67614185  0.37500000  1
  Cu  Cu198  1  0.67614185  0.67614185  0.62500000  1
  Cu  Cu199  1  0.67614185  0.67614185  0.87500000  1
  Cu  Cu200  1  0.17614185  0.17614185  0.12500000  1
  Cu  Cu201  1  0.17614185  0.17614185  0.37500000  1
  Cu  Cu202  1  0.17614185  0.17614185  0.62500000  1
  Cu  Cu203  1  0.17614185  0.17614185  0.87500000  1
  Cu  Cu204  1  0.67614185  0.17614185  0.12500000  1
  Cu  Cu205  1  0.67614185  0.17614185  0.37500000  1
  Cu  Cu206  1  0.67614185  0.17614185  0.62500000  1
  Cu  Cu207  1  0.67614185  0.17614185  0.87500000  1
  Cu  Cu208  1  0.42614185  0.42614185  0.25000000  1
  Cu  Cu209  1  0.42614185  0.42614185  0.50000000  1
  Cu  Cu210  1  0.42614185  0.42614185  0.75000000  1
  Cu  Cu211  1  0.42614185  0.42614185  1.00000000  1
  Cu  Cu212  1  0.92614185  0.42614185  0.25000000  1
  Cu  Cu213  1  0.92614185  0.42614185  0.50000000  1
  Cu  Cu214  1  0.92614185  0.42614185  0.75000000  1
  Cu  Cu215  1  0.92614185  0.42614185  1.00000000  1
  Cu  Cu216  1  0.42614185  -0.07385815  0.25000000  1
  Cu  Cu217  1  0.42614185  -0.07385815  0.50000000  1
  Cu  Cu218  1  0.42614185  -0.07385815  0.75000000  1
  Cu  Cu219  1  0.42614185  -0.07385815  1.00000000  1
  Cu  Cu220  1  0.92614185  -0.07385815  0.25000000  1
  Cu  Cu221  1  0.92614185  -0.07385815  0.50000000  1
  Cu  Cu222  1  0.92614185  -0.07385815  0.75000000  1
  Cu  Cu223  1  0.92614185  -0.07385815  1.00000000  1
  Cu  Cu224  1  0.17614185  0.32385815  0.12500000  1
  Cu  Cu225  1  0.17614185  0.32385815  0.37500000  1
  Cu  Cu226  1  0.17614185  0.32385815  0.62500000  1
  Cu  Cu227  1  0.17614185  0.32385815  0.87500000  1
  Cu  Cu228  1  0.67614185  0.32385815  0.12500000  1
  Cu  Cu229  1  0.67614185  0.32385815  0.37500000  1
  Cu  Cu230  1  0.67614185  0.32385815  0.62500000  1
  Cu  Cu231  1  0.67614185  0.32385815  0.87500000  1
  Cu  Cu232  1  0.17614185  -0.17614185  0.12500000  1
  Cu  Cu233  1  0.17614185  -0.17614185  0.37500000  1
  Cu  Cu234  1  0.17614185  -0.17614185  0.62500000  1
  Cu  Cu235  1  0.17614185  -0.17614185  0.87500000  1
  Cu  Cu236  1  0.67614185  -0.17614185  0.12500000  1
  Cu  Cu237  1  0.67614185  -0.17614185  0.37500000  1
  Cu  Cu238  1  0.67614185  -0.17614185  0.62500000  1
  Cu  Cu239  1  0.67614185  -0.17614185  0.87500000  1
  Cu  Cu240  1  0.42614185  0.07385815  0.25000000  1
  Cu  Cu241  1  0.42614185  0.07385815  0.50000000  1
  Cu  Cu242  1  0.42614185  0.07385815  0.75000000  1
  Cu  Cu243  1  0.42614185  0.07385815  1.00000000  1
  Cu  Cu244  1  0.92614185  0.07385815  0.25000000  1
  Cu  Cu245  1  0.92614185  0.07385815  0.50000000  1
  Cu  Cu246  1  0.92614185  0.07385815  0.75000000  1
  Cu  Cu247  1  0.92614185  0.07385815  1.00000000  1
  Cu  Cu248  1  0.42614185  -0.42614185  0.25000000  1
  Cu  Cu249  1  0.42614185  -0.42614185  0.50000000  1
  Cu  Cu250  1  0.42614185  -0.42614185  0.75000000  1
  Cu  Cu251  1  0.42614185  -0.42614185  1.00000000  1
  Cu  Cu252  1  0.92614185  -0.42614185  0.25000000  1
  Cu  Cu253  1  0.92614185  -0.42614185  0.50000000  1
  Cu  Cu254  1  0.92614185  -0.42614185  0.75000000  1
  Cu  Cu255  1  0.92614185  -0.42614185  1.00000000  1
  O  O256  1  0.35263006  0.50000000  -0.00000000  1
  O  O257  1  0.35263006  0.50000000  0.25000000  1
  O  O258  1  0.35263006  0.50000000  0.50000000  1
  O  O259  1  0.35263006  0.50000000  0.75000000  1
  O  O260  1  0.85263006  0.50000000  -0.00000000  1
  O  O261  1  0.85263006  0.50000000  0.25000000  1
  O  O262  1  0.85263006  0.50000000  0.50000000  1
  O  O263  1  0.85263006  0.50000000  0.75000000  1
  O  O264  1  0.35263006  0.00000000  -0.00000000  1
  O  O265  1  0.35263006  0.00000000  0.25000000  1
  O  O266  1  0.35263006  0.00000000  0.50000000  1
  O  O267  1  0.35263006  0.00000000  0.75000000  1
  O  O268  1  0.85263006  0.00000000  -0.00000000  1
  O  O269  1  0.85263006  0.00000000  0.25000000  1
  O  O270  1  0.85263006  0.00000000  0.50000000  1
  O  O271  1  0.85263006  0.00000000  0.75000000  1
  O  O272  1  0.60263006  0.25000000  0.12500000  1
  O  O273  1  0.60263006  0.25000000  0.37500000  1
  O  O274  1  0.60263006  0.25000000  0.62500000  1
  O  O275  1  0.60263006  0.25000000  0.87500000  1
  O  O276  1  1.10263006  0.25000000  0.12500000  1
  O  O277  1  1.10263006  0.25000000  0.37500000  1
  O  O278  1  1.10263006  0.25000000  0.62500000  1
  O  O279  1  1.10263006  0.25000000  0.87500000  1
  O  O280  1  0.60263006  -0.25000000  0.12500000  1
  O  O281  1  0.60263006  -0.25000000  0.37500000  1
  O  O282  1  0.60263006  -0.25000000  0.62500000  1
  O  O283  1  0.60263006  -0.25000000  0.87500000  1
  O  O284  1  1.10263006  -0.25000000  0.12500000  1
  O  O285  1  1.10263006  -0.25000000  0.37500000  1
  O  O286  1  1.10263006  -0.25000000  0.62500000  1
  O  O287  1  1.10263006  -0.25000000  0.87500000  1
  O  O288  1  -0.00000000  0.35263006  0.00000000  1
  O  O289  1  -0.00000000  0.35263006  0.25000000  1
  O  O290  1  -0.00000000  0.35263006  0.50000000  1
  O  O291  1  -0.00000000  0.35263006  0.75000000  1
  O  O292  1  0.50000000  0.35263006  0.00000000  1
  O  O293  1  0.50000000  0.35263006  0.25000000  1
  O  O294  1  0.50000000  0.35263006  0.50000000  1
  O  O295  1  0.50000000  0.35263006  0.75000000  1
  O  O296  1  -0.00000000  -0.14736994  0.00000000  1
  O  O297  1  -0.00000000  -0.14736994  0.25000000  1
  O  O298  1  -0.00000000  -0.14736994  0.50000000  1
  O  O299  1  -0.00000000  -0.14736994  0.75000000  1
  O  O300  1  0.50000000  -0.14736994  0.00000000  1
  O  O301  1  0.50000000  -0.14736994  0.25000000  1
  O  O302  1  0.50000000  -0.14736994  0.50000000  1
  O  O303  1  0.50000000  -0.14736994  0.75000000  1
  O  O304  1  0.25000000  0.10263006  0.12500000  1
  O  O305  1  0.25000000  0.10263006  0.37500000  1
  O  O306  1  0.25000000  0.10263006  0.62500000  1
  O  O307  1  0.25000000  0.10263006  0.87500000  1
  O  O308  1  0.75000000  0.10263006  0.12500000  1
  O  O309  1  0.75000000  0.10263006  0.37500000  1
  O  O310  1  0.75000000  0.10263006  0.62500000  1
  O  O311  1  0.75000000  0.10263006  0.87500000  1
  O  O312  1  0.25000000  -0.39736994  0.12500000  1
  O  O313  1  0.25000000  -0.39736994  0.37500000  1
  O  O314  1  0.25000000  -0.39736994  0.62500000  1
  O  O315  1  0.25000000  -0.39736994  0.87500000  1
  O  O316  1  0.75000000  -0.39736994  0.12500000  1
  O  O317  1  0.75000000  -0.39736994  0.37500000  1
  O  O318  1  0.75000000  -0.39736994  0.62500000  1
  O  O319  1  0.75000000  -0.39736994  0.87500000  1
  O  O320  1  -0.00000000  0.14736994  -0.00000000  1
  O  O321  1  -0.00000000  0.14736994  0.25000000  1
  O  O322  1  -0.00000000  0.14736994  0.50000000  1
  O  O323  1  -0.00000000  0.14736994  0.75000000  1
  O  O324  1  0.50000000  0.14736994  -0.00000000  1
  O  O325  1  0.50000000  0.14736994  0.25000000  1
  O  O326  1  0.50000000  0.14736994  0.50000000  1
  O  O327  1  0.50000000  0.14736994  0.75000000  1
  O  O328  1  -0.00000000  -0.35263006  -0.00000000  1
  O  O329  1  -0.00000000  -0.35263006  0.25000000  1
  O  O330  1  -0.00000000  -0.35263006  0.50000000  1
  O  O331  1  -0.00000000  -0.35263006  0.75000000  1
  O  O332  1  0.50000000  -0.35263006  -0.00000000  1
  O  O333  1  0.50000000  -0.35263006  0.25000000  1
  O  O334  1  0.50000000  -0.35263006  0.50000000  1
  O  O335  1  0.50000000  -0.35263006  0.75000000  1
  O  O336  1  0.25000000  -0.10263006  0.12500000  1
  O  O337  1  0.25000000  -0.10263006  0.37500000  1
  O  O338  1  0.25000000  -0.10263006  0.62500000  1
  O  O339  1  0.25000000  -0.10263006  0.87500000  1
  O  O340  1  0.75000000  -0.10263006  0.12500000  1
  O  O341  1  0.75000000  -0.10263006  0.37500000  1
  O  O342  1  0.75000000  -0.10263006  0.62500000  1
  O  O343  1  0.75000000  -0.10263006  0.87500000  1
  O  O344  1  0.25000000  -0.60263006  0.12500000  1
  O  O345  1  0.25000000  -0.60263006  0.37500000  1
  O  O346  1  0.25000000  -0.60263006  0.62500000  1
  O  O347  1  0.25000000  -0.60263006  0.87500000  1
  O  O348  1  0.75000000  -0.60263006  0.12500000  1
  O  O349  1  0.75000000  -0.60263006  0.37500000  1
  O  O350  1  0.75000000  -0.60263006  0.62500000  1
  O  O351  1  0.75000000  -0.60263006  0.87500000  1
  O  O352  1  0.14736994  0.50000000  0.00000000  1
  O  O353  1  0.14736994  0.50000000  0.25000000  1
  O  O354  1  0.14736994  0.50000000  0.50000000  1
  O  O355  1  0.14736994  0.50000000  0.75000000  1
  O  O356  1  0.64736994  0.50000000  0.00000000  1
  O  O357  1  0.64736994  0.50000000  0.25000000  1
  O  O358  1  0.64736994  0.50000000  0.50000000  1
  O  O359  1  0.64736994  0.50000000  0.75000000  1
  O  O360  1  0.14736994  0.00000000  0.00000000  1
  O  O361  1  0.14736994  0.00000000  0.25000000  1
  O  O362  1  0.14736994  0.00000000  0.50000000  1
  O  O363  1  0.14736994  0.00000000  0.75000000  1
  O  O364  1  0.64736994  0.00000000  0.00000000  1
  O  O365  1  0.64736994  0.00000000  0.25000000  1
  O  O366  1  0.64736994  0.00000000  0.50000000  1
  O  O367  1  0.64736994  0.00000000  0.75000000  1
  O  O368  1  0.39736994  0.25000000  0.12500000  1
  O  O369  1  0.39736994  0.25000000  0.37500000  1
  O  O370  1  0.39736994  0.25000000  0.62500000  1
  O  O371  1  0.39736994  0.25000000  0.87500000  1
  O  O372  1  0.89736994  0.25000000  0.12500000  1
  O  O373  1  0.89736994  0.25000000  0.37500000  1
  O  O374  1  0.89736994  0.25000000  0.62500000  1
  O  O375  1  0.89736994  0.25000000  0.87500000  1
  O  O376  1  0.39736994  -0.25000000  0.12500000  1
  O  O377  1  0.39736994  -0.25000000  0.37500000  1
  O  O378  1  0.39736994  -0.25000000  0.62500000  1
  O  O379  1  0.39736994  -0.25000000  0.87500000  1
  O  O380  1  0.89736994  -0.25000000  0.12500000  1
  O  O381  1  0.89736994  -0.25000000  0.37500000  1
  O  O382  1  0.89736994  -0.25000000  0.62500000  1
  O  O383  1  0.89736994  -0.25000000  0.87500000  1
