# generated using pymatgen
data_Li4GeO4
_symmetry_space_group_name_H-M   'P 1'
_cell_length_a   15.65484058
_cell_length_b   14.69012463
_cell_length_c   18.23782534
_cell_angle_alpha   90.00000000
_cell_angle_beta   90.00000000
_cell_angle_gamma   90.00000000
_symmetry_Int_Tables_number   1
_chemical_formula_structural   Li4GeO4
_chemical_formula_sum   'Li192 Ge48 O192'
_cell_volume   4194.18112869
_cell_formula_units_Z   48
loop_
 _symmetry_equiv_pos_site_id
 _symmetry_equiv_pos_as_xyz
  1  'x, y, z'
loop_
 _atom_site_type_symbol
 _atom_site_label
 _atom_site_symmetry_multiplicity
 _atom_site_fract_x
 _atom_site_fract_y
 _atom_site_fract_z
 _atom_site_occupancy
  Li  Li0  1  0.32388562  -0.11369951  0.25000000  1
  Li  Li1  1  0.32388562  -0.11369951  0.58333333  1
  Li  Li2  1  0.32388562  -0.11369951  0.91666667  1
  Li  Li3  1  0.32388562  0.38630049  0.25000000  1
  Li  Li4  1  0.32388562  0.38630049  0.58333333  1
  Li  Li5  1  0.32388562  0.38630049  0.91666667  1
  Li  Li6  1  0.82388562  -0.11369951  0.25000000  1
  Li  Li7  1  0.82388562  -0.11369951  0.58333333  1
  Li  Li8  1  0.82388562  -0.11369951  0.91666667  1
  Li  Li9  1  0.82388562  0.38630049  0.25000000  1
  Li  Li10  1  0.82388562  0.38630049  0.58333333  1
  Li  Li11  1  0.82388562  0.38630049  0.91666667  1
  Li  Li12  1  0.57388562  0.13630049  0.25000000  1
  Li  Li13  1  0.57388562  0.13630049  0.58333333  1
  Li  Li14  1  0.57388562  0.13630049  0.91666667  1
  Li  Li15  1  0.57388562  0.63630049  0.25000000  1
  Li  Li16  1  0.57388562  0.63630049  0.58333333  1
  Li  Li17  1  0.57388562  0.63630049  0.91666667  1
  Li  Li18  1  1.07388562  0.13630049  0.25000000  1
  Li  Li19  1  1.07388562  0.13630049  0.58333333  1
  Li  Li20  1  1.07388562  0.13630049  0.91666667  1
  Li  Li21  1  1.07388562  0.63630049  0.25000000  1
  Li  Li22  1  1.07388562  0.63630049  0.58333333  1
  Li  Li23  1  1.07388562  0.63630049  0.91666667  1
  Li  Li24  1  0.17611438  0.11369951  0.08333333  1
  Li  Li25  1  0.17611438  0.11369951  0.41666667  1
  Li  Li26  1  0.17611438  0.11369951  0.75000000  1
  Li  Li27  1  0.17611438  0.61369951  0.08333333  1
  Li  Li28  1  0.17611438  0.61369951  0.41666667  1
  Li  Li29  1  0.17611438  0.61369951  0.75000000  1
  Li  Li30  1  0.67611438  0.11369951  0.08333333  1
  Li  Li31  1  0.67611438  0.11369951  0.41666667  1
  Li  Li32  1  0.67611438  0.11369951  0.75000000  1
  Li  Li33  1  0.67611438  0.61369951  0.08333333  1
  Li  Li34  1  0.67611438  0.61369951  0.41666667  1
  Li  Li35  1  0.67611438  0.61369951  0.75000000  1
  Li  Li36  1  0.42611438  0.36369951  0.08333333  1
  Li  Li37  1  0.42611438  0.36369951  0.41666667  1
  Li  Li38  1  0.42611438  0.36369951  0.75000000  1
  Li  Li39  1  0.42611438  0.86369951  0.08333333  1
  Li  Li40  1  0.42611438  0.86369951  0.41666667  1
  Li  Li41  1  0.42611438  0.86369951  0.75000000  1
  Li  Li42  1  0.92611438  0.36369951  0.08333333  1
  Li  Li43  1  0.92611438  0.36369951  0.41666667  1
  Li  Li44  1  0.92611438  0.36369951  0.75000000  1
  Li  Li45  1  0.92611438  0.86369951  0.08333333  1
  Li  Li46  1  0.92611438  0.86369951  0.41666667  1
  Li  Li47  1  0.92611438  0.86369951  0.75000000  1
  Li  Li48  1  0.41956252  0.00000000  0.00000000  1
  Li  Li49  1  0.41956252  0.00000000  0.33333333  1
  Li  Li50  1  0.41956252  0.00000000  0.66666667  1
  Li  Li51  1  0.41956252  0.50000000  0.00000000  1
  Li  Li52  1  0.41956252  0.50000000  0.33333333  1
  Li  Li53  1  0.41956252  0.50000000  0.66666667  1
  Li  Li54  1  0.91956252  0.00000000  0.00000000  1
  Li  Li55  1  0.91956252  0.00000000  0.33333333  1
  Li  Li56  1  0.91956252  0.00000000  0.66666667  1
  Li  Li57  1  0.91956252  0.50000000  0.00000000  1
  Li  Li58  1  0.91956252  0.50000000  0.33333333  1
  Li  Li59  1  0.91956252  0.50000000  0.66666667  1
  Li  Li60  1  0.66956252  0.25000000  0.00000000  1
  Li  Li61  1  0.66956252  0.25000000  0.33333333  1
  Li  Li62  1  0.66956252  0.25000000  0.66666667  1
  Li  Li63  1  0.66956252  0.75000000  0.00000000  1
  Li  Li64  1  0.66956252  0.75000000  0.33333333  1
  Li  Li65  1  0.66956252  0.75000000  0.66666667  1
  Li  Li66  1  1.16956252  0.25000000  0.00000000  1
  Li  Li67  1  1.16956252  0.25000000  0.33333333  1
  Li  Li68  1  1.16956252  0.25000000  0.66666667  1
  Li  Li69  1  1.16956252  0.75000000  0.00000000  1
  Li  Li70  1  1.16956252  0.75000000  0.33333333  1
  Li  Li71  1  1.16956252  0.75000000  0.66666667  1
  Li  Li72  1  0.08043748  0.00000000  0.16666667  1
  Li  Li73  1  0.08043748  0.00000000  0.50000000  1
  Li  Li74  1  0.08043748  0.00000000  0.83333333  1
  Li  Li75  1  0.08043748  0.50000000  0.16666667  1
  Li  Li76  1  0.08043748  0.50000000  0.50000000  1
  Li  Li77  1  0.08043748  0.50000000  0.83333333  1
  Li  Li78  1  0.58043748  0.00000000  0.16666667  1
  Li  Li79  1  0.58043748  0.00000000  0.50000000  1
  Li  Li80  1  0.58043748  0.00000000  0.83333333  1
  Li  Li81  1  0.58043748  0.50000000  0.16666667  1
  Li  Li82  1  0.58043748  0.50000000  0.50000000  1
  Li  Li83  1  0.58043748  0.50000000  0.83333333  1
  Li  Li84  1  0.33043748  0.25000000  0.16666667  1
  Li  Li85  1  0.33043748  0.25000000  0.50000000  1
  Li  Li86  1  0.33043748  0.25000000  0.83333333  1
  Li  Li87  1  0.33043748  0.75000000  0.16666667  1
  Li  Li88  1  0.33043748  0.75000000  0.50000000  1
  Li  Li89  1  0.33043748  0.75000000  0.83333333  1
  Li  Li90  1  0.83043748  0.25000000  0.16666667  1
  Li  Li91  1  0.83043748  0.25000000  0.50000000  1
  Li  Li92  1  0.83043748  0.25000000  0.83333333  1
  Li  Li93  1  0.83043748  0.75000000  0.16666667  1
  Li  Li94  1  0.83043748  0.75000000  0.50000000  1
  Li  Li95  1  0.83043748  0.75000000  0.83333333  1
  Li  Li96  1  0.08043748  0.00000000  0.00000000  1
  Li  Li97  1  0.08043748  0.00000000  0.33333333  1
  Li  Li98  1  0.08043748  0.00000000  0.66666667  1
  Li  Li99  1  0.08043748  0.50000000  0.00000000  1
  Li  Li100  1  0.08043748  0.50000000  0.33333333  1
  Li  Li101  1  0.08043748  0.50000000  0.66666667  1
  Li  Li102  1  0.58043748  0.00000000  0.00000000  1
  Li  Li103  1  0.58043748  0.00000000  0.33333333  1
  Li  Li104  1  0.58043748  0.00000000  0.66666667  1
  Li  Li105  1  0.58043748  0.50000000  0.00000000  1
  Li  Li106  1  0.58043748  0.50000000  0.33333333  1
  Li  Li107  1  0.58043748  0.50000000  0.66666667  1
  Li  Li108  1  0.33043748  0.25000000  0.00000000  1
  Li  Li109  1  0.33043748  0.25000000  0.33333333  1
  Li  Li110  1  0.33043748  0.25000000  0.66666667  1
  Li  Li111  1  0.33043748  0.75000000  0.00000000  1
  Li  Li112  1  0.33043748  0.75000000  0.33333333  1
  Li  Li113  1  0.33043748  0.75000000  0.66666667  1
  Li  Li114  1  0.83043748  0.25000000  0.00000000  1
  Li  Li115  1  0.83043748  0.25000000  0.33333333  1
  Li  Li116  1  0.83043748  0.25000000  0.66666667  1
  Li  Li117  1  0.83043748  0.75000000  0.00000000  1
  Li  Li118  1  0.83043748  0.75000000  0.33333333  1
  Li  Li119  1  0.83043748  0.75000000  0.66666667  1
  Li  Li120  1  0.41956252  0.00000000  0.16666667  1
  Li  Li121  1  0.41956252  0.00000000  0.50000000  1
  Li  Li122  1  0.41956252  0.00000000  0.83333333  1
  Li  Li123  1  0.41956252  0.50000000  0.16666667  1
  Li  Li124  1  0.41956252  0.50000000  0.50000000  1
  Li  Li125  1  0.41956252  0.50000000  0.83333333  1
  Li  Li126  1  0.91956252  0.00000000  0.16666667  1
  Li  Li127  1  0.91956252  0.00000000  0.50000000  1
  Li  Li128  1  0.91956252  0.00000000  0.83333333  1
  Li  Li129  1  0.91956252  0.50000000  0.16666667  1
  Li  Li130  1  0.91956252  0.50000000  0.50000000  1
  Li  Li131  1  0.91956252  0.50000000  0.83333333  1
  Li  Li132  1  0.66956252  0.25000000  0.16666667  1
  Li  Li133  1  0.66956252  0.25000000  0.50000000  1
  Li  Li134  1  0.66956252  0.25000000  0.83333333  1
  Li  Li135  1  0.66956252  0.75000000  0.16666667  1
  Li  Li136  1  0.66956252  0.75000000  0.50000000  1
  Li  Li137  1  0.66956252  0.75000000  0.83333333  1
  Li  Li138  1  1.16956252  0.25000000  0.16666667  1
  Li  Li139  1  1.16956252  0.25000000  0.50000000  1
  Li  Li140  1  1.16956252  0.25000000  0.83333333  1
  Li  Li141  1  1.16956252  0.75000000  0.16666667  1
  Li  Li142  1  1.16956252  0.75000000  0.50000000  1
  Li  Li143  1  1.16956252  0.75000000  0.83333333  1
  Li  Li144  1  0.32388562  0.11369951  0.08333333  1
  Li  Li145  1  0.32388562  0.11369951  0.41666667  1
  Li  Li146  1  0.32388562  0.11369951  0.75000000  1
  Li  Li147  1  0.32388562  0.61369951  0.08333333  1
  Li  Li148  1  0.32388562  0.61369951  0.41666667  1
  Li  Li149  1  0.32388562  0.61369951  0.75000000  1
  Li  Li150  1  0.82388562  0.11369951  0.08333333  1
  Li  Li151  1  0.82388562  0.11369951  0.41666667  1
  Li  Li152  1  0.82388562  0.11369951  0.75000000  1
  Li  Li153  1  0.82388562  0.61369951  0.08333333  1
  Li  Li154  1  0.82388562  0.61369951  0.41666667  1
  Li  Li155  1  0.82388562  0.61369951  0.75000000  1
  Li  Li156  1  0.57388562  0.36369951  0.08333333  1
  Li  Li157  1  0.57388562  0.36369951  0.41666667  1
  Li  Li158  1  0.57388562  0.36369951  0.75000000  1
  Li  Li159  1  0.57388562  0.86369951  0.08333333  1
  Li  Li160  1  0.57388562  0.86369951  0.41666667  1
  Li  Li161  1  0.57388562  0.86369951  0.75000000  1
  Li  Li162  1  1.07388562  0.36369951  0.08333333  1
  Li  Li163  1  1.07388562  0.36369951  0.41666667  1
  Li  Li164  1  1.07388562  0.36369951  0.75000000  1
  Li  Li165  1  1.07388562  0.86369951  0.08333333  1
  Li  Li166  1  1.07388562  0.86369951  0.41666667  1
  Li  Li167  1  1.07388562  0.86369951  0.75000000  1
  Li  Li168  1  0.17611438  -0.11369951  0.25000000  1
  Li  Li169  1  0.17611438  -0.11369951  0.58333333  1
  Li  Li170  1  0.17611438  -0.11369951  0.91666667  1
  Li  Li171  1  0.17611438  0.38630049  0.25000000  1
  Li  Li172  1  0.17611438  0.38630049  0.58333333  1
  Li  Li173  1  0.17611438  0.38630049  0.91666667  1
  Li  Li174  1  0.67611438  -0.11369951  0.25000000  1
  Li  Li175  1  0.67611438  -0.11369951  0.58333333  1
  Li  Li176  1  0.67611438  -0.11369951  0.91666667  1
  Li  Li177  1  0.67611438  0.38630049  0.25000000  1
  Li  Li178  1  0.67611438  0.38630049  0.58333333  1
  Li  Li179  1  0.67611438  0.38630049  0.91666667  1
  Li  Li180  1  0.42611438  0.13630049  0.25000000  1
  Li  Li181  1  0.42611438  0.13630049  0.58333333  1
  Li  Li182  1  0.42611438  0.13630049  0.91666667  1
  Li  Li183  1  0.42611438  0.63630049  0.25000000  1
  Li  Li184  1  0.42611438  0.63630049  0.58333333  1
  Li  Li185  1  0.42611438  0.63630049  0.91666667  1
  Li  Li186  1  0.92611438  0.13630049  0.25000000  1
  Li  Li187  1  0.92611438  0.13630049  0.58333333  1
  Li  Li188  1  0.92611438  0.13630049  0.91666667  1
  Li  Li189  1  0.92611438  0.63630049  0.25000000  1
  Li  Li190  1  0.92611438  0.63630049  0.58333333  1
  Li  Li191  1  0.92611438  0.63630049  0.91666667  1
  Ge  Ge192  1  0.25000000  0.07982046  0.25000000  1
  Ge  Ge193  1  0.25000000  0.07982046  0.58333333  1
  Ge  Ge194  1  0.25000000  0.07982046  0.91666667  1
  Ge  Ge195  1  0.25000000  0.57982046  0.25000000  1
  Ge  Ge196  1  0.25000000  0.57982046  0.58333333  1
  Ge  Ge197  1  0.25000000  0.57982046  0.91666667  1
  Ge  Ge198  1  0.75000000  0.07982046  0.25000000  1
  Ge  Ge199  1  0.75000000  0.07982046  0.58333333  1
  Ge  Ge200  1  0.75000000  0.07982046  0.91666667  1
  Ge  Ge201  1  0.75000000  0.57982046  0.25000000  1
  Ge  Ge202  1  0.75000000  0.57982046  0.58333333  1
  Ge  Ge203  1  0.75000000  0.57982046  0.91666667  1
  Ge  Ge204  1  0.50000000  0.32982046  0.25000000  1
  Ge  Ge205  1  0.50000000  0.32982046  0.58333333  1
  Ge  Ge206  1  0.50000000  0.32982046  0.91666667  1
  Ge  Ge207  1  0.50000000  0.82982046  0.25000000  1
  Ge  Ge208  1  0.50000000  0.82982046  0.58333333  1
  Ge  Ge209  1  0.50000000  0.82982046  0.91666667  1
  Ge  Ge210  1  1.00000000  0.32982046  0.25000000  1
  Ge  Ge211  1  1.00000000  0.32982046  0.58333333  1
  Ge  Ge212  1  1.00000000  0.32982046  0.91666667  1
  Ge  Ge213  1  1.00000000  0.82982046  0.25000000  1
  Ge  Ge214  1  1.00000000  0.82982046  0.58333333  1
  Ge  Ge215  1  1.00000000  0.82982046  0.91666667  1
  Ge  Ge216  1  0.25000000  -0.07982046  0.08333333  1
  Ge  Ge217  1  0.25000000  -0.07982046  0.41666667  1
  Ge  Ge218  1  0.25000000  -0.07982046  0.75000000  1
  Ge  Ge219  1  0.25000000  0.42017954  0.08333333  1
  Ge  Ge220  1  0.25000000  0.42017954  0.41666667  1
  Ge  Ge221  1  0.25000000  0.42017954  0.75000000  1
  Ge  Ge222  1  0.75000000  -0.07982046  0.08333333  1
  Ge  Ge223  1  0.75000000  -0.07982046  0.41666667  1
  Ge  Ge224  1  0.75000000  -0.07982046  0.75000000  1
  Ge  Ge225  1  0.75000000  0.42017954  0.08333333  1
  Ge  Ge226  1  0.75000000  0.42017954  0.41666667  1
  Ge  Ge227  1  0.75000000  0.42017954  0.75000000  1
  Ge  Ge228  1  0.50000000  0.17017954  0.08333333  1
  Ge  Ge229  1  0.50000000  0.17017954  0.41666667  1
  Ge  Ge230  1  0.50000000  0.17017954  0.75000000  1
  Ge  Ge231  1  0.50000000  0.67017954  0.08333333  1
  Ge  Ge232  1  0.50000000  0.67017954  0.41666667  1
  Ge  Ge233  1  0.50000000  0.67017954  0.75000000  1
  Ge  Ge234  1  1.00000000  0.17017954  0.08333333  1
  Ge  Ge235  1  1.00000000  0.17017954  0.41666667  1
  Ge  Ge236  1  1.00000000  0.17017954  0.75000000  1
  Ge  Ge237  1  1.00000000  0.67017954  0.08333333  1
  Ge  Ge238  1  1.00000000  0.67017954  0.41666667  1
  Ge  Ge239  1  1.00000000  0.67017954  0.75000000  1
  O  O240  1  0.34860471  -0.01792238  0.08333333  1
  O  O241  1  0.34860471  -0.01792238  0.41666667  1
  O  O242  1  0.34860471  -0.01792238  0.75000000  1
  O  O243  1  0.34860471  0.48207762  0.08333333  1
  O  O244  1  0.34860471  0.48207762  0.41666667  1
  O  O245  1  0.34860471  0.48207762  0.75000000  1
  O  O246  1  0.84860471  -0.01792238  0.08333333  1
  O  O247  1  0.84860471  -0.01792238  0.41666667  1
  O  O248  1  0.84860471  -0.01792238  0.75000000  1
  O  O249  1  0.84860471  0.48207762  0.08333333  1
  O  O250  1  0.84860471  0.48207762  0.41666667  1
  O  O251  1  0.84860471  0.48207762  0.75000000  1
  O  O252  1  0.59860471  0.23207762  0.08333333  1
  O  O253  1  0.59860471  0.23207762  0.41666667  1
  O  O254  1  0.59860471  0.23207762  0.75000000  1
  O  O255  1  0.59860471  0.73207762  0.08333333  1
  O  O256  1  0.59860471  0.73207762  0.41666667  1
  O  O257  1  0.59860471  0.73207762  0.75000000  1
  O  O258  1  1.09860471  0.23207762  0.08333333  1
  O  O259  1  1.09860471  0.23207762  0.41666667  1
  O  O260  1  1.09860471  0.23207762  0.75000000  1
  O  O261  1  1.09860471  0.73207762  0.08333333  1
  O  O262  1  1.09860471  0.73207762  0.41666667  1
  O  O263  1  1.09860471  0.73207762  0.75000000  1
  O  O264  1  0.15139529  0.01792238  0.25000000  1
  O  O265  1  0.15139529  0.01792238  0.58333333  1
  O  O266  1  0.15139529  0.01792238  0.91666667  1
  O  O267  1  0.15139529  0.51792238  0.25000000  1
  O  O268  1  0.15139529  0.51792238  0.58333333  1
  O  O269  1  0.15139529  0.51792238  0.91666667  1
  O  O270  1  0.65139529  0.01792238  0.25000000  1
  O  O271  1  0.65139529  0.01792238  0.58333333  1
  O  O272  1  0.65139529  0.01792238  0.91666667  1
  O  O273  1  0.65139529  0.51792238  0.25000000  1
  O  O274  1  0.65139529  0.51792238  0.58333333  1
  O  O275  1  0.65139529  0.51792238  0.91666667  1
  O  O276  1  0.40139529  0.26792238  0.25000000  1
  O  O277  1  0.40139529  0.26792238  0.58333333  1
  O  O278  1  0.40139529  0.26792238  0.91666667  1
  O  O279  1  0.40139529  0.76792238  0.25000000  1
  O  O280  1  0.40139529  0.76792238  0.58333333  1
  O  O281  1  0.40139529  0.76792238  0.91666667  1
  O  O282  1  0.90139529  0.26792238  0.25000000  1
  O  O283  1  0.90139529  0.26792238  0.58333333  1
  O  O284  1  0.90139529  0.26792238  0.91666667  1
  O  O285  1  0.90139529  0.76792238  0.25000000  1
  O  O286  1  0.90139529  0.76792238  0.58333333  1
  O  O287  1  0.90139529  0.76792238  0.91666667  1
  O  O288  1  0.25000000  -0.14824288  0.00133423  1
  O  O289  1  0.25000000  -0.14824288  0.33466756  1
  O  O290  1  0.25000000  -0.14824288  0.66800089  1
  O  O291  1  0.25000000  0.35175712  0.00133423  1
  O  O292  1  0.25000000  0.35175712  0.33466756  1
  O  O293  1  0.25000000  0.35175712  0.66800089  1
  O  O294  1  0.75000000  -0.14824288  0.00133423  1
  O  O295  1  0.75000000  -0.14824288  0.33466756  1
  O  O296  1  0.75000000  -0.14824288  0.66800089  1
  O  O297  1  0.75000000  0.35175712  0.00133423  1
  O  O298  1  0.75000000  0.35175712  0.33466756  1
  O  O299  1  0.75000000  0.35175712  0.66800089  1
  O  O300  1  0.50000000  0.10175712  0.00133423  1
  O  O301  1  0.50000000  0.10175712  0.33466756  1
  O  O302  1  0.50000000  0.10175712  0.66800089  1
  O  O303  1  0.50000000  0.60175712  0.00133423  1
  O  O304  1  0.50000000  0.60175712  0.33466756  1
  O  O305  1  0.50000000  0.60175712  0.66800089  1
  O  O306  1  1.00000000  0.10175712  0.00133423  1
  O  O307  1  1.00000000  0.10175712  0.33466756  1
  O  O308  1  1.00000000  0.10175712  0.66800089  1
  O  O309  1  1.00000000  0.60175712  0.00133423  1
  O  O310  1  1.00000000  0.60175712  0.33466756  1
  O  O311  1  1.00000000  0.60175712  0.66800089  1
  O  O312  1  0.25000000  0.14824288  0.16800089  1
  O  O313  1  0.25000000  0.14824288  0.50133423  1
  O  O314  1  0.25000000  0.14824288  0.83466756  1
  O  O315  1  0.25000000  0.64824288  0.16800089  1
  O  O316  1  0.25000000  0.64824288  0.50133423  1
  O  O317  1  0.25000000  0.64824288  0.83466756  1
  O  O318  1  0.75000000  0.14824288  0.16800089  1
  O  O319  1  0.75000000  0.14824288  0.50133423  1
  O  O320  1  0.75000000  0.14824288  0.83466756  1
  O  O321  1  0.75000000  0.64824288  0.16800089  1
  O  O322  1  0.75000000  0.64824288  0.50133423  1
  O  O323  1  0.75000000  0.64824288  0.83466756  1
  O  O324  1  0.50000000  0.39824288  0.16800089  1
  O  O325  1  0.50000000  0.39824288  0.50133423  1
  O  O326  1  0.50000000  0.39824288  0.83466756  1
  O  O327  1  0.50000000  0.89824288  0.16800089  1
  O  O328  1  0.50000000  0.89824288  0.50133423  1
  O  O329  1  0.50000000  0.89824288  0.83466756  1
  O  O330  1  1.00000000  0.39824288  0.16800089  1
  O  O331  1  1.00000000  0.39824288  0.50133423  1
  O  O332  1  1.00000000  0.39824288  0.83466756  1
  O  O333  1  1.00000000  0.89824288  0.16800089  1
  O  O334  1  1.00000000  0.89824288  0.50133423  1
  O  O335  1  1.00000000  0.89824288  0.83466756  1
  O  O336  1  0.25000000  -0.14824288  0.16533244  1
  O  O337  1  0.25000000  -0.14824288  0.49866577  1
  O  O338  1  0.25000000  -0.14824288  0.83199911  1
  O  O339  1  0.25000000  0.35175712  0.16533244  1
  O  O340  1  0.25000000  0.35175712  0.49866577  1
  O  O341  1  0.25000000  0.35175712  0.83199911  1
  O  O342  1  0.75000000  -0.14824288  0.16533244  1
  O  O343  1  0.75000000  -0.14824288  0.49866577  1
  O  O344  1  0.75000000  -0.14824288  0.83199911  1
  O  O345  1  0.75000000  0.35175712  0.16533244  1
  O  O346  1  0.75000000  0.35175712  0.49866577  1
  O  O347  1  0.75000000  0.35175712  0.83199911  1
  O  O348  1  0.50000000  0.10175712  0.16533244  1
  O  O349  1  0.50000000  0.10175712  0.49866577  1
  O  O350  1  0.50000000  0.10175712  0.83199911  1
  O  O351  1  0.50000000  0.60175712  0.16533244  1
  O  O352  1  0.50000000  0.60175712  0.49866577  1
  O  O353  1  0.50000000  0.60175712  0.83199911  1
  O  O354  1  1.00000000  0.10175712  0.16533244  1
  O  O355  1  1.00000000  0.10175712  0.49866577  1
  O  O356  1  1.00000000  0.10175712  0.83199911  1
  O  O357  1  1.00000000  0.60175712  0.16533244  1
  O  O358  1  1.00000000  0.60175712  0.49866577  1
  O  O359  1  1.00000000  0.60175712  0.83199911  1
  O  O360  1  0.25000000  0.14824288  0.33199911  1
  O  O361  1  0.25000000  0.14824288  0.66533244  1
  O  O362  1  0.25000000  0.14824288  0.99866577  1
  O  O363  1  0.25000000  0.64824288  0.33199911  1
  O  O364  1  0.25000000  0.64824288  0.66533244  1
  O  O365  1  0.25000000  0.64824288  0.99866577  1
  O  O366  1  0.75000000  0.14824288  0.33199911  1
  O  O367  1  0.75000000  0.14824288  0.66533244  1
  O  O368  1  0.75000000  0.14824288  0.99866577  1
  O  O369  1  0.75000000  0.64824288  0.33199911  1
  O  O370  1  0.75000000  0.64824288  0.66533244  1
  O  O371  1  0.75000000  0.64824288  0.99866577  1
  O  O372  1  0.50000000  0.39824288  0.33199911  1
  O  O373  1  0.50000000  0.39824288  0.66533244  1
  O  O374  1  0.50000000  0.39824288  0.99866577  1
  O  O375  1  0.50000000  0.89824288  0.33199911  1
  O  O376  1  0.50000000  0.89824288  0.66533244  1
  O  O377  1  0.50000000  0.89824288  0.99866577  1
  O  O378  1  1.00000000  0.39824288  0.33199911  1
  O  O379  1  1.00000000  0.39824288  0.66533244  1
  O  O380  1  1.00000000  0.39824288  0.99866577  1
  O  O381  1  1.00000000  0.89824288  0.33199911  1
  O  O382  1  1.00000000  0.89824288  0.66533244  1
  O  O383  1  1.00000000  0.89824288  0.99866577  1
  O  O384  1  0.15139529  -0.01792238  0.08333333  1
  O  O385  1  0.15139529  -0.01792238  0.41666667  1
  O  O386  1  0.15139529  -0.01792238  0.75000000  1
  O  O387  1  0.15139529  0.48207762  0.08333333  1
  O  O388  1  0.15139529  0.48207762  0.41666667  1
  O  O389  1  0.15139529  0.48207762  0.75000000  1
  O  O390  1  0.65139529  -0.01792238  0.08333333  1
  O  O391  1  0.65139529  -0.01792238  0.41666667  1
  O  O392  1  0.65139529  -0.01792238  0.75000000  1
  O  O393  1  0.65139529  0.48207762  0.08333333  1
  O  O394  1  0.65139529  0.48207762  0.41666667  1
  O  O395  1  0.65139529  0.48207762  0.75000000  1
  O  O396  1  0.40139529  0.23207762  0.08333333  1
  O  O397  1  0.40139529  0.23207762  0.41666667  1
  O  O398  1  0.40139529  0.23207762  0.75000000  1
  O  O399  1  0.40139529  0.73207762  0.08333333  1
  O  O400  1  0.40139529  0.73207762  0.41666667  1
  O  O401  1  0.40139529  0.73207762  0.75000000  1
  O  O402  1  0.90139529  0.23207762  0.08333333  1
  O  O403  1  0.90139529  0.23207762  0.41666667  1
  O  O404  1  0.90139529  0.23207762  0.75000000  1
  O  O405  1  0.90139529  0.73207762  0.08333333  1
  O  O406  1  0.90139529  0.73207762  0.41666667  1
  O  O407  1  0.90139529  0.73207762  0.75000000  1
  O  O408  1  0.34860471  0.01792238  0.25000000  1
  O  O409  1  0.34860471  0.01792238  0.58333333  1
  O  O410  1  0.34860471  0.01792238  0.91666667  1
  O  O411  1  0.34860471  0.51792238  0.25000000  1
  O  O412  1  0.34860471  0.51792238  0.58333333  1
  O  O413  1  0.34860471  0.51792238  0.91666667  1
  O  O414  1  0.84860471  0.01792238  0.25000000  1
  O  O415  1  0.84860471  0.01792238  0.58333333  1
  O  O416  1  0.84860471  0.01792238  0.91666667  1
  O  O417  1  0.84860471  0.51792238  0.25000000  1
  O  O418  1  0.84860471  0.51792238  0.58333333  1
  O  O419  1  0.84860471  0.51792238  0.91666667  1
  O  O420  1  0.59860471  0.26792238  0.25000000  1
  O  O421  1  0.59860471  0.26792238  0.58333333  1
  O  O422  1  0.59860471  0.26792238  0.91666667  1
  O  O423  1  0.59860471  0.76792238  0.25000000  1
  O  O424  1  0.59860471  0.76792238  0.58333333  1
  O  O425  1  0.59860471  0.76792238  0.91666667  1
  O  O426  1  1.09860471  0.26792238  0.25000000  1
  O  O427  1  1.09860471  0.26792238  0.58333333  1
  O  O428  1  1.09860471  0.26792238  0.91666667  1
  O  O429  1  1.09860471  0.76792238  0.25000000  1
  O  O430  1  1.09860471  0.76792238  0.58333333  1
  O  O431  1  1.09860471  0.76792238  0.91666667  1
