# generated using pymatgen
data_Sr2Mg(BO3)2
_symmetry_space_group_name_H-M   'P 1'
_cell_length_a   18.05253018
_cell_length_b   15.42619038
_cell_length_c   18.20603167
_cell_angle_alpha   90.00000000
_cell_angle_beta   118.84590470
_cell_angle_gamma   90.00000000
_symmetry_Int_Tables_number   1
_chemical_formula_structural   Sr2Mg(BO3)2
_chemical_formula_sum   'Sr72 Mg36 B72 O216'
_cell_volume   4440.95848331
_cell_formula_units_Z   36
loop_
 _symmetry_equiv_pos_site_id
 _symmetry_equiv_pos_as_xyz
  1  'x, y, z'
loop_
 _atom_site_type_symbol
 _atom_site_label
 _atom_site_symmetry_multiplicity
 _atom_site_fract_x
 _atom_site_fract_y
 _atom_site_fract_z
 _atom_site_occupancy
  Sr  Sr0  1  0.35476056  -0.00000000  0.06132224  1
  Sr  Sr1  1  0.35476056  -0.00000000  0.39465557  1
  Sr  Sr2  1  0.35476056  -0.00000000  0.72798890  1
  Sr  Sr3  1  0.35476056  0.33333333  0.06132224  1
  Sr  Sr4  1  0.35476056  0.33333333  0.39465557  1
  Sr  Sr5  1  0.35476056  0.33333333  0.72798890  1
  Sr  Sr6  1  0.35476056  0.66666667  0.06132224  1
  Sr  Sr7  1  0.35476056  0.66666667  0.39465557  1
  Sr  Sr8  1  0.35476056  0.66666667  0.72798890  1
  Sr  Sr9  1  0.85476056  -0.00000000  0.06132224  1
  Sr  Sr10  1  0.85476056  -0.00000000  0.39465557  1
  Sr  Sr11  1  0.85476056  -0.00000000  0.72798890  1
  Sr  Sr12  1  0.85476056  0.33333333  0.06132224  1
  Sr  Sr13  1  0.85476056  0.33333333  0.39465557  1
  Sr  Sr14  1  0.85476056  0.33333333  0.72798890  1
  Sr  Sr15  1  0.85476056  0.66666667  0.06132224  1
  Sr  Sr16  1  0.85476056  0.66666667  0.39465557  1
  Sr  Sr17  1  0.85476056  0.66666667  0.72798890  1
  Sr  Sr18  1  0.60476056  0.16666667  0.06132224  1
  Sr  Sr19  1  0.60476056  0.16666667  0.39465557  1
  Sr  Sr20  1  0.60476056  0.16666667  0.72798890  1
  Sr  Sr21  1  0.60476056  0.50000000  0.06132224  1
  Sr  Sr22  1  0.60476056  0.50000000  0.39465557  1
  Sr  Sr23  1  0.60476056  0.50000000  0.72798890  1
  Sr  Sr24  1  0.60476056  0.83333333  0.06132224  1
  Sr  Sr25  1  0.60476056  0.83333333  0.39465557  1
  Sr  Sr26  1  0.60476056  0.83333333  0.72798890  1
  Sr  Sr27  1  1.10476056  0.16666667  0.06132224  1
  Sr  Sr28  1  1.10476056  0.16666667  0.39465557  1
  Sr  Sr29  1  1.10476056  0.16666667  0.72798890  1
  Sr  Sr30  1  1.10476056  0.50000000  0.06132224  1
  Sr  Sr31  1  1.10476056  0.50000000  0.39465557  1
  Sr  Sr32  1  1.10476056  0.50000000  0.72798890  1
  Sr  Sr33  1  1.10476056  0.83333333  0.06132224  1
  Sr  Sr34  1  1.10476056  0.83333333  0.39465557  1
  Sr  Sr35  1  1.10476056  0.83333333  0.72798890  1
  Sr  Sr36  1  0.14523944  0.00000000  0.27201110  1
  Sr  Sr37  1  0.14523944  0.00000000  0.60534443  1
  Sr  Sr38  1  0.14523944  0.00000000  0.93867776  1
  Sr  Sr39  1  0.14523944  0.33333333  0.27201110  1
  Sr  Sr40  1  0.14523944  0.33333333  0.60534443  1
  Sr  Sr41  1  0.14523944  0.33333333  0.93867776  1
  Sr  Sr42  1  0.14523944  0.66666667  0.27201110  1
  Sr  Sr43  1  0.14523944  0.66666667  0.60534443  1
  Sr  Sr44  1  0.14523944  0.66666667  0.93867776  1
  Sr  Sr45  1  0.64523944  0.00000000  0.27201110  1
  Sr  Sr46  1  0.64523944  0.00000000  0.60534443  1
  Sr  Sr47  1  0.64523944  0.00000000  0.93867776  1
  Sr  Sr48  1  0.64523944  0.33333333  0.27201110  1
  Sr  Sr49  1  0.64523944  0.33333333  0.60534443  1
  Sr  Sr50  1  0.64523944  0.33333333  0.93867776  1
  Sr  Sr51  1  0.64523944  0.66666667  0.27201110  1
  Sr  Sr52  1  0.64523944  0.66666667  0.60534443  1
  Sr  Sr53  1  0.64523944  0.66666667  0.93867776  1
  Sr  Sr54  1  0.39523944  0.16666667  0.27201110  1
  Sr  Sr55  1  0.39523944  0.16666667  0.60534443  1
  Sr  Sr56  1  0.39523944  0.16666667  0.93867776  1
  Sr  Sr57  1  0.39523944  0.50000000  0.27201110  1
  Sr  Sr58  1  0.39523944  0.50000000  0.60534443  1
  Sr  Sr59  1  0.39523944  0.50000000  0.93867776  1
  Sr  Sr60  1  0.39523944  0.83333333  0.27201110  1
  Sr  Sr61  1  0.39523944  0.83333333  0.60534443  1
  Sr  Sr62  1  0.39523944  0.83333333  0.93867776  1
  Sr  Sr63  1  0.89523944  0.16666667  0.27201110  1
  Sr  Sr64  1  0.89523944  0.16666667  0.60534443  1
  Sr  Sr65  1  0.89523944  0.16666667  0.93867776  1
  Sr  Sr66  1  0.89523944  0.50000000  0.27201110  1
  Sr  Sr67  1  0.89523944  0.50000000  0.60534443  1
  Sr  Sr68  1  0.89523944  0.50000000  0.93867776  1
  Sr  Sr69  1  0.89523944  0.83333333  0.27201110  1
  Sr  Sr70  1  0.89523944  0.83333333  0.60534443  1
  Sr  Sr71  1  0.89523944  0.83333333  0.93867776  1
  Mg  Mg72  1  0.25000000  0.00000000  0.16666667  1
  Mg  Mg73  1  0.25000000  0.00000000  0.50000000  1
  Mg  Mg74  1  0.25000000  0.00000000  0.83333333  1
  Mg  Mg75  1  0.25000000  0.33333333  0.16666667  1
  Mg  Mg76  1  0.25000000  0.33333333  0.50000000  1
  Mg  Mg77  1  0.25000000  0.33333333  0.83333333  1
  Mg  Mg78  1  0.25000000  0.66666667  0.16666667  1
  Mg  Mg79  1  0.25000000  0.66666667  0.50000000  1
  Mg  Mg80  1  0.25000000  0.66666667  0.83333333  1
  Mg  Mg81  1  0.75000000  0.00000000  0.16666667  1
  Mg  Mg82  1  0.75000000  0.00000000  0.50000000  1
  Mg  Mg83  1  0.75000000  0.00000000  0.83333333  1
  Mg  Mg84  1  0.75000000  0.33333333  0.16666667  1
  Mg  Mg85  1  0.75000000  0.33333333  0.50000000  1
  Mg  Mg86  1  0.75000000  0.33333333  0.83333333  1
  Mg  Mg87  1  0.75000000  0.66666667  0.16666667  1
  Mg  Mg88  1  0.75000000  0.66666667  0.50000000  1
  Mg  Mg89  1  0.75000000  0.66666667  0.83333333  1
  Mg  Mg90  1  0.50000000  0.16666667  0.16666667  1
  Mg  Mg91  1  0.50000000  0.16666667  0.50000000  1
  Mg  Mg92  1  0.50000000  0.16666667  0.83333333  1
  Mg  Mg93  1  0.50000000  0.50000000  0.16666667  1
  Mg  Mg94  1  0.50000000  0.50000000  0.50000000  1
  Mg  Mg95  1  0.50000000  0.50000000  0.83333333  1
  Mg  Mg96  1  0.50000000  0.83333333  0.16666667  1
  Mg  Mg97  1  0.50000000  0.83333333  0.50000000  1
  Mg  Mg98  1  0.50000000  0.83333333  0.83333333  1
  Mg  Mg99  1  1.00000000  0.16666667  0.16666667  1
  Mg  Mg100  1  1.00000000  0.16666667  0.50000000  1
  Mg  Mg101  1  1.00000000  0.16666667  0.83333333  1
  Mg  Mg102  1  1.00000000  0.50000000  0.16666667  1
  Mg  Mg103  1  1.00000000  0.50000000  0.50000000  1
  Mg  Mg104  1  1.00000000  0.50000000  0.83333333  1
  Mg  Mg105  1  1.00000000  0.83333333  0.16666667  1
  Mg  Mg106  1  1.00000000  0.83333333  0.50000000  1
  Mg  Mg107  1  1.00000000  0.83333333  0.83333333  1
  B  B108  1  0.46878714  0.00000000  0.24604951  1
  B  B109  1  0.46878714  0.00000000  0.57938284  1
  B  B110  1  0.46878714  0.00000000  0.91271617  1
  B  B111  1  0.46878714  0.33333333  0.24604951  1
  B  B112  1  0.46878714  0.33333333  0.57938284  1
  B  B113  1  0.46878714  0.33333333  0.91271617  1
  B  B114  1  0.46878714  0.66666667  0.24604951  1
  B  B115  1  0.46878714  0.66666667  0.57938284  1
  B  B116  1  0.46878714  0.66666667  0.91271617  1
  B  B117  1  0.96878714  0.00000000  0.24604951  1
  B  B118  1  0.96878714  0.00000000  0.57938284  1
  B  B119  1  0.96878714  0.00000000  0.91271617  1
  B  B120  1  0.96878714  0.33333333  0.24604951  1
  B  B121  1  0.96878714  0.33333333  0.57938284  1
  B  B122  1  0.96878714  0.33333333  0.91271617  1
  B  B123  1  0.96878714  0.66666667  0.24604951  1
  B  B124  1  0.96878714  0.66666667  0.57938284  1
  B  B125  1  0.96878714  0.66666667  0.91271617  1
  B  B126  1  0.71878714  0.16666667  0.24604951  1
  B  B127  1  0.71878714  0.16666667  0.57938284  1
  B  B128  1  0.71878714  0.16666667  0.91271617  1
  B  B129  1  0.71878714  0.50000000  0.24604951  1
  B  B130  1  0.71878714  0.50000000  0.57938284  1
  B  B131  1  0.71878714  0.50000000  0.91271617  1
  B  B132  1  0.71878714  0.83333333  0.24604951  1
  B  B133  1  0.71878714  0.83333333  0.57938284  1
  B  B134  1  0.71878714  0.83333333  0.91271617  1
  B  B135  1  1.21878714  0.16666667  0.24604951  1
  B  B136  1  1.21878714  0.16666667  0.57938284  1
  B  B137  1  1.21878714  0.16666667  0.91271617  1
  B  B138  1  1.21878714  0.50000000  0.24604951  1
  B  B139  1  1.21878714  0.50000000  0.57938284  1
  B  B140  1  1.21878714  0.50000000  0.91271617  1
  B  B141  1  1.21878714  0.83333333  0.24604951  1
  B  B142  1  1.21878714  0.83333333  0.57938284  1
  B  B143  1  1.21878714  0.83333333  0.91271617  1
  B  B144  1  0.03121286  0.00000000  0.08728383  1
  B  B145  1  0.03121286  0.00000000  0.42061716  1
  B  B146  1  0.03121286  0.00000000  0.75395049  1
  B  B147  1  0.03121286  0.33333333  0.08728383  1
  B  B148  1  0.03121286  0.33333333  0.42061716  1
  B  B149  1  0.03121286  0.33333333  0.75395049  1
  B  B150  1  0.03121286  0.66666667  0.08728383  1
  B  B151  1  0.03121286  0.66666667  0.42061716  1
  B  B152  1  0.03121286  0.66666667  0.75395049  1
  B  B153  1  0.53121286  0.00000000  0.08728383  1
  B  B154  1  0.53121286  0.00000000  0.42061716  1
  B  B155  1  0.53121286  0.00000000  0.75395049  1
  B  B156  1  0.53121286  0.33333333  0.08728383  1
  B  B157  1  0.53121286  0.33333333  0.42061716  1
  B  B158  1  0.53121286  0.33333333  0.75395049  1
  B  B159  1  0.53121286  0.66666667  0.08728383  1
  B  B160  1  0.53121286  0.66666667  0.42061716  1
  B  B161  1  0.53121286  0.66666667  0.75395049  1
  B  B162  1  0.28121286  0.16666667  0.08728383  1
  B  B163  1  0.28121286  0.16666667  0.42061716  1
  B  B164  1  0.28121286  0.16666667  0.75395049  1
  B  B165  1  0.28121286  0.50000000  0.08728383  1
  B  B166  1  0.28121286  0.50000000  0.42061716  1
  B  B167  1  0.28121286  0.50000000  0.75395049  1
  B  B168  1  0.28121286  0.83333333  0.08728383  1
  B  B169  1  0.28121286  0.83333333  0.42061716  1
  B  B170  1  0.28121286  0.83333333  0.75395049  1
  B  B171  1  0.78121286  0.16666667  0.08728383  1
  B  B172  1  0.78121286  0.16666667  0.42061716  1
  B  B173  1  0.78121286  0.16666667  0.75395049  1
  B  B174  1  0.78121286  0.50000000  0.08728383  1
  B  B175  1  0.78121286  0.50000000  0.42061716  1
  B  B176  1  0.78121286  0.50000000  0.75395049  1
  B  B177  1  0.78121286  0.83333333  0.08728383  1
  B  B178  1  0.78121286  0.83333333  0.42061716  1
  B  B179  1  0.78121286  0.83333333  0.75395049  1
  O  O180  1  0.38351515  -0.00000000  0.22080414  1
  O  O181  1  0.38351515  -0.00000000  0.55413747  1
  O  O182  1  0.38351515  -0.00000000  0.88747081  1
  O  O183  1  0.38351515  0.33333333  0.22080414  1
  O  O184  1  0.38351515  0.33333333  0.55413747  1
  O  O185  1  0.38351515  0.33333333  0.88747081  1
  O  O186  1  0.38351515  0.66666667  0.22080414  1
  O  O187  1  0.38351515  0.66666667  0.55413747  1
  O  O188  1  0.38351515  0.66666667  0.88747081  1
  O  O189  1  0.88351515  -0.00000000  0.22080414  1
  O  O190  1  0.88351515  -0.00000000  0.55413747  1
  O  O191  1  0.88351515  -0.00000000  0.88747081  1
  O  O192  1  0.88351515  0.33333333  0.22080414  1
  O  O193  1  0.88351515  0.33333333  0.55413747  1
  O  O194  1  0.88351515  0.33333333  0.88747081  1
  O  O195  1  0.88351515  0.66666667  0.22080414  1
  O  O196  1  0.88351515  0.66666667  0.55413747  1
  O  O197  1  0.88351515  0.66666667  0.88747081  1
  O  O198  1  0.63351515  0.16666667  0.22080414  1
  O  O199  1  0.63351515  0.16666667  0.55413747  1
  O  O200  1  0.63351515  0.16666667  0.88747081  1
  O  O201  1  0.63351515  0.50000000  0.22080414  1
  O  O202  1  0.63351515  0.50000000  0.55413747  1
  O  O203  1  0.63351515  0.50000000  0.88747081  1
  O  O204  1  0.63351515  0.83333333  0.22080414  1
  O  O205  1  0.63351515  0.83333333  0.55413747  1
  O  O206  1  0.63351515  0.83333333  0.88747081  1
  O  O207  1  1.13351515  0.16666667  0.22080414  1
  O  O208  1  1.13351515  0.16666667  0.55413747  1
  O  O209  1  1.13351515  0.16666667  0.88747081  1
  O  O210  1  1.13351515  0.50000000  0.22080414  1
  O  O211  1  1.13351515  0.50000000  0.55413747  1
  O  O212  1  1.13351515  0.50000000  0.88747081  1
  O  O213  1  1.13351515  0.83333333  0.22080414  1
  O  O214  1  1.13351515  0.83333333  0.55413747  1
  O  O215  1  1.13351515  0.83333333  0.88747081  1
  O  O216  1  0.23752934  -0.08922400  0.07641272  1
  O  O217  1  0.23752934  -0.08922400  0.40974605  1
  O  O218  1  0.23752934  -0.08922400  0.74307939  1
  O  O219  1  0.23752934  0.24410934  0.07641272  1
  O  O220  1  0.23752934  0.24410934  0.40974605  1
  O  O221  1  0.23752934  0.24410934  0.74307939  1
  O  O222  1  0.23752934  0.57744267  0.07641272  1
  O  O223  1  0.23752934  0.57744267  0.40974605  1
  O  O224  1  0.23752934  0.57744267  0.74307939  1
  O  O225  1  0.73752934  -0.08922400  0.07641272  1
  O  O226  1  0.73752934  -0.08922400  0.40974605  1
  O  O227  1  0.73752934  -0.08922400  0.74307939  1
  O  O228  1  0.73752934  0.24410934  0.07641272  1
  O  O229  1  0.73752934  0.24410934  0.40974605  1
  O  O230  1  0.73752934  0.24410934  0.74307939  1
  O  O231  1  0.73752934  0.57744267  0.07641272  1
  O  O232  1  0.73752934  0.57744267  0.40974605  1
  O  O233  1  0.73752934  0.57744267  0.74307939  1
  O  O234  1  0.48752934  0.07744267  0.07641272  1
  O  O235  1  0.48752934  0.07744267  0.40974605  1
  O  O236  1  0.48752934  0.07744267  0.74307939  1
  O  O237  1  0.48752934  0.41077600  0.07641272  1
  O  O238  1  0.48752934  0.41077600  0.40974605  1
  O  O239  1  0.48752934  0.41077600  0.74307939  1
  O  O240  1  0.48752934  0.74410934  0.07641272  1
  O  O241  1  0.48752934  0.74410934  0.40974605  1
  O  O242  1  0.48752934  0.74410934  0.74307939  1
  O  O243  1  0.98752934  0.07744267  0.07641272  1
  O  O244  1  0.98752934  0.07744267  0.40974605  1
  O  O245  1  0.98752934  0.07744267  0.74307939  1
  O  O246  1  0.98752934  0.41077600  0.07641272  1
  O  O247  1  0.98752934  0.41077600  0.40974605  1
  O  O248  1  0.98752934  0.41077600  0.74307939  1
  O  O249  1  0.98752934  0.74410934  0.07641272  1
  O  O250  1  0.98752934  0.74410934  0.40974605  1
  O  O251  1  0.98752934  0.74410934  0.74307939  1
  O  O252  1  0.26247066  -0.08922400  0.25692061  1
  O  O253  1  0.26247066  -0.08922400  0.59025395  1
  O  O254  1  0.26247066  -0.08922400  0.92358728  1
  O  O255  1  0.26247066  0.24410934  0.25692061  1
  O  O256  1  0.26247066  0.24410934  0.59025395  1
  O  O257  1  0.26247066  0.24410934  0.92358728  1
  O  O258  1  0.26247066  0.57744267  0.25692061  1
  O  O259  1  0.26247066  0.57744267  0.59025395  1
  O  O260  1  0.26247066  0.57744267  0.92358728  1
  O  O261  1  0.76247066  -0.08922400  0.25692061  1
  O  O262  1  0.76247066  -0.08922400  0.59025395  1
  O  O263  1  0.76247066  -0.08922400  0.92358728  1
  O  O264  1  0.76247066  0.24410934  0.25692061  1
  O  O265  1  0.76247066  0.24410934  0.59025395  1
  O  O266  1  0.76247066  0.24410934  0.92358728  1
  O  O267  1  0.76247066  0.57744267  0.25692061  1
  O  O268  1  0.76247066  0.57744267  0.59025395  1
  O  O269  1  0.76247066  0.57744267  0.92358728  1
  O  O270  1  0.51247066  0.07744267  0.25692061  1
  O  O271  1  0.51247066  0.07744267  0.59025395  1
  O  O272  1  0.51247066  0.07744267  0.92358728  1
  O  O273  1  0.51247066  0.41077600  0.25692061  1
  O  O274  1  0.51247066  0.41077600  0.59025395  1
  O  O275  1  0.51247066  0.41077600  0.92358728  1
  O  O276  1  0.51247066  0.74410934  0.25692061  1
  O  O277  1  0.51247066  0.74410934  0.59025395  1
  O  O278  1  0.51247066  0.74410934  0.92358728  1
  O  O279  1  1.01247066  0.07744267  0.25692061  1
  O  O280  1  1.01247066  0.07744267  0.59025395  1
  O  O281  1  1.01247066  0.07744267  0.92358728  1
  O  O282  1  1.01247066  0.41077600  0.25692061  1
  O  O283  1  1.01247066  0.41077600  0.59025395  1
  O  O284  1  1.01247066  0.41077600  0.92358728  1
  O  O285  1  1.01247066  0.74410934  0.25692061  1
  O  O286  1  1.01247066  0.74410934  0.59025395  1
  O  O287  1  1.01247066  0.74410934  0.92358728  1
  O  O288  1  0.26247066  0.08922400  0.25692061  1
  O  O289  1  0.26247066  0.08922400  0.59025395  1
  O  O290  1  0.26247066  0.08922400  0.92358728  1
  O  O291  1  0.26247066  0.42255733  0.25692061  1
  O  O292  1  0.26247066  0.42255733  0.59025395  1
  O  O293  1  0.26247066  0.42255733  0.92358728  1
  O  O294  1  0.26247066  0.75589066  0.25692061  1
  O  O295  1  0.26247066  0.75589066  0.59025395  1
  O  O296  1  0.26247066  0.75589066  0.92358728  1
  O  O297  1  0.76247066  0.08922400  0.25692061  1
  O  O298  1  0.76247066  0.08922400  0.59025395  1
  O  O299  1  0.76247066  0.08922400  0.92358728  1
  O  O300  1  0.76247066  0.42255733  0.25692061  1
  O  O301  1  0.76247066  0.42255733  0.59025395  1
  O  O302  1  0.76247066  0.42255733  0.92358728  1
  O  O303  1  0.76247066  0.75589066  0.25692061  1
  O  O304  1  0.76247066  0.75589066  0.59025395  1
  O  O305  1  0.76247066  0.75589066  0.92358728  1
  O  O306  1  0.51247066  0.25589066  0.25692061  1
  O  O307  1  0.51247066  0.25589066  0.59025395  1
  O  O308  1  0.51247066  0.25589066  0.92358728  1
  O  O309  1  0.51247066  0.58922400  0.25692061  1
  O  O310  1  0.51247066  0.58922400  0.59025395  1
  O  O311  1  0.51247066  0.58922400  0.92358728  1
  O  O312  1  0.51247066  0.92255733  0.25692061  1
  O  O313  1  0.51247066  0.92255733  0.59025395  1
  O  O314  1  0.51247066  0.92255733  0.92358728  1
  O  O315  1  1.01247066  0.25589066  0.25692061  1
  O  O316  1  1.01247066  0.25589066  0.59025395  1
  O  O317  1  1.01247066  0.25589066  0.92358728  1
  O  O318  1  1.01247066  0.58922400  0.25692061  1
  O  O319  1  1.01247066  0.58922400  0.59025395  1
  O  O320  1  1.01247066  0.58922400  0.92358728  1
  O  O321  1  1.01247066  0.92255733  0.25692061  1
  O  O322  1  1.01247066  0.92255733  0.59025395  1
  O  O323  1  1.01247066  0.92255733  0.92358728  1
  O  O324  1  0.23752934  0.08922400  0.07641272  1
  O  O325  1  0.23752934  0.08922400  0.40974605  1
  O  O326  1  0.23752934  0.08922400  0.74307939  1
  O  O327  1  0.23752934  0.42255733  0.07641272  1
  O  O328  1  0.23752934  0.42255733  0.40974605  1
  O  O329  1  0.23752934  0.42255733  0.74307939  1
  O  O330  1  0.23752934  0.75589066  0.07641272  1
  O  O331  1  0.23752934  0.75589066  0.40974605  1
  O  O332  1  0.23752934  0.75589066  0.74307939  1
  O  O333  1  0.73752934  0.08922400  0.07641272  1
  O  O334  1  0.73752934  0.08922400  0.40974605  1
  O  O335  1  0.73752934  0.08922400  0.74307939  1
  O  O336  1  0.73752934  0.42255733  0.07641272  1
  O  O337  1  0.73752934  0.42255733  0.40974605  1
  O  O338  1  0.73752934  0.42255733  0.74307939  1
  O  O339  1  0.73752934  0.75589066  0.07641272  1
  O  O340  1  0.73752934  0.75589066  0.40974605  1
  O  O341  1  0.73752934  0.75589066  0.74307939  1
  O  O342  1  0.48752934  0.25589066  0.07641272  1
  O  O343  1  0.48752934  0.25589066  0.40974605  1
  O  O344  1  0.48752934  0.25589066  0.74307939  1
  O  O345  1  0.48752934  0.58922400  0.07641272  1
  O  O346  1  0.48752934  0.58922400  0.40974605  1
  O  O347  1  0.48752934  0.58922400  0.74307939  1
  O  O348  1  0.48752934  0.92255733  0.07641272  1
  O  O349  1  0.48752934  0.92255733  0.40974605  1
  O  O350  1  0.48752934  0.92255733  0.74307939  1
  O  O351  1  0.98752934  0.25589066  0.07641272  1
  O  O352  1  0.98752934  0.25589066  0.40974605  1
  O  O353  1  0.98752934  0.25589066  0.74307939  1
  O  O354  1  0.98752934  0.58922400  0.07641272  1
  O  O355  1  0.98752934  0.58922400  0.40974605  1
  O  O356  1  0.98752934  0.58922400  0.74307939  1
  O  O357  1  0.98752934  0.92255733  0.07641272  1
  O  O358  1  0.98752934  0.92255733  0.40974605  1
  O  O359  1  0.98752934  0.92255733  0.74307939  1
  O  O360  1  0.11648485  0.00000000  0.11252919  1
  O  O361  1  0.11648485  0.00000000  0.44586253  1
  O  O362  1  0.11648485  0.00000000  0.77919586  1
  O  O363  1  0.11648485  0.33333333  0.11252919  1
  O  O364  1  0.11648485  0.33333333  0.44586253  1
  O  O365  1  0.11648485  0.33333333  0.77919586  1
  O  O366  1  0.11648485  0.66666667  0.11252919  1
  O  O367  1  0.11648485  0.66666667  0.44586253  1
  O  O368  1  0.11648485  0.66666667  0.77919586  1
  O  O369  1  0.61648485  0.00000000  0.11252919  1
  O  O370  1  0.61648485  0.00000000  0.44586253  1
  O  O371  1  0.61648485  0.00000000  0.77919586  1
  O  O372  1  0.61648485  0.33333333  0.11252919  1
  O  O373  1  0.61648485  0.33333333  0.44586253  1
  O  O374  1  0.61648485  0.33333333  0.77919586  1
  O  O375  1  0.61648485  0.66666667  0.11252919  1
  O  O376  1  0.61648485  0.66666667  0.44586253  1
  O  O377  1  0.61648485  0.66666667  0.77919586  1
  O  O378  1  0.36648485  0.16666667  0.11252919  1
  O  O379  1  0.36648485  0.16666667  0.44586253  1
  O  O380  1  0.36648485  0.16666667  0.77919586  1
  O  O381  1  0.36648485  0.50000000  0.11252919  1
  O  O382  1  0.36648485  0.50000000  0.44586253  1
  O  O383  1  0.36648485  0.50000000  0.77919586  1
  O  O384  1  0.36648485  0.83333333  0.11252919  1
  O  O385  1  0.36648485  0.83333333  0.44586253  1
  O  O386  1  0.36648485  0.83333333  0.77919586  1
  O  O387  1  0.86648485  0.16666667  0.11252919  1
  O  O388  1  0.86648485  0.16666667  0.44586253  1
  O  O389  1  0.86648485  0.16666667  0.77919586  1
  O  O390  1  0.86648485  0.50000000  0.11252919  1
  O  O391  1  0.86648485  0.50000000  0.44586253  1
  O  O392  1  0.86648485  0.50000000  0.77919586  1
  O  O393  1  0.86648485  0.83333333  0.11252919  1
  O  O394  1  0.86648485  0.83333333  0.44586253  1
  O  O395  1  0.86648485  0.83333333  0.77919586  1
