# generated using pymatgen
data_SrSc2O4
_symmetry_space_group_name_H-M   'P 1'
_cell_length_a   9.61619485
_cell_length_b   9.49302380
_cell_length_c   11.21252492
_cell_angle_alpha   90.00000000
_cell_angle_beta   90.00000000
_cell_angle_gamma   90.00000000
_symmetry_Int_Tables_number   1
_chemical_formula_structural   SrSc2O4
_chemical_formula_sum   'Sr12 Sc24 O48'
_cell_volume   1023.55514490
_cell_formula_units_Z   12
loop_
 _symmetry_equiv_pos_site_id
 _symmetry_equiv_pos_as_xyz
  1  'x, y, z'
loop_
 _atom_site_type_symbol
 _atom_site_label
 _atom_site_symmetry_multiplicity
 _atom_site_fract_x
 _atom_site_fract_y
 _atom_site_fract_z
 _atom_site_occupancy
  Sr  Sr0  1  0.74496860  0.25000000  0.15412783  1
  Sr  Sr1  1  0.74496860  0.58333333  0.15412783  1
  Sr  Sr2  1  0.74496860  0.91666667  0.15412783  1
  Sr  Sr3  1  0.75503140  0.08333333  0.65412783  1
  Sr  Sr4  1  0.75503140  0.41666667  0.65412783  1
  Sr  Sr5  1  0.75503140  0.75000000  0.65412783  1
  Sr  Sr6  1  0.24496860  0.25000000  0.34587217  1
  Sr  Sr7  1  0.24496860  0.58333333  0.34587217  1
  Sr  Sr8  1  0.24496860  0.91666667  0.34587217  1
  Sr  Sr9  1  0.25503140  0.08333333  0.84587217  1
  Sr  Sr10  1  0.25503140  0.41666667  0.84587217  1
  Sr  Sr11  1  0.25503140  0.75000000  0.84587217  1
  Sc  Sc12  1  0.57051983  0.25000000  0.39038590  1
  Sc  Sc13  1  0.57051983  0.58333333  0.39038590  1
  Sc  Sc14  1  0.57051983  0.91666667  0.39038590  1
  Sc  Sc15  1  0.57832367  0.25000000  0.89400916  1
  Sc  Sc16  1  0.57832367  0.58333333  0.89400916  1
  Sc  Sc17  1  0.57832367  0.91666667  0.89400916  1
  Sc  Sc18  1  0.92167633  0.08333333  0.39400916  1
  Sc  Sc19  1  0.92167633  0.41666667  0.39400916  1
  Sc  Sc20  1  0.92167633  0.75000000  0.39400916  1
  Sc  Sc21  1  0.92948017  0.08333333  0.89038590  1
  Sc  Sc22  1  0.92948017  0.41666667  0.89038590  1
  Sc  Sc23  1  0.92948017  0.75000000  0.89038590  1
  Sc  Sc24  1  0.07051983  0.25000000  0.10961410  1
  Sc  Sc25  1  0.07051983  0.58333333  0.10961410  1
  Sc  Sc26  1  0.07051983  0.91666667  0.10961410  1
  Sc  Sc27  1  0.07832367  0.25000000  0.60599084  1
  Sc  Sc28  1  0.07832367  0.58333333  0.60599084  1
  Sc  Sc29  1  0.07832367  0.91666667  0.60599084  1
  Sc  Sc30  1  0.42167633  0.08333333  0.10599084  1
  Sc  Sc31  1  0.42167633  0.41666667  0.10599084  1
  Sc  Sc32  1  0.42167633  0.75000000  0.10599084  1
  Sc  Sc33  1  0.42948017  0.08333333  0.60961410  1
  Sc  Sc34  1  0.42948017  0.41666667  0.60961410  1
  Sc  Sc35  1  0.42948017  0.75000000  0.60961410  1
  O  O36  1  0.52123400  0.08333333  0.78320339  1
  O  O37  1  0.52123400  0.41666667  0.78320339  1
  O  O38  1  0.52123400  0.75000000  0.78320339  1
  O  O39  1  0.57386473  0.25000000  0.57439017  1
  O  O40  1  0.57386473  0.58333333  0.57439017  1
  O  O41  1  0.57386473  0.91666667  0.57439017  1
  O  O42  1  0.61696214  0.08333333  0.02020905  1
  O  O43  1  0.61696214  0.41666667  0.02020905  1
  O  O44  1  0.61696214  0.75000000  0.02020905  1
  O  O45  1  0.70787873  0.08333333  0.34027097  1
  O  O46  1  0.70787873  0.41666667  0.34027097  1
  O  O47  1  0.70787873  0.75000000  0.34027097  1
  O  O48  1  0.79212127  0.25000000  0.84027097  1
  O  O49  1  0.79212127  0.58333333  0.84027097  1
  O  O50  1  0.79212127  0.91666667  0.84027097  1
  O  O51  1  0.88303786  0.25000000  0.52020905  1
  O  O52  1  0.88303786  0.58333333  0.52020905  1
  O  O53  1  0.88303786  0.91666667  0.52020905  1
  O  O54  1  0.92613527  0.08333333  0.07439017  1
  O  O55  1  0.92613527  0.41666667  0.07439017  1
  O  O56  1  0.92613527  0.75000000  0.07439017  1
  O  O57  1  0.97876600  0.25000000  0.28320339  1
  O  O58  1  0.97876600  0.58333333  0.28320339  1
  O  O59  1  0.97876600  0.91666667  0.28320339  1
  O  O60  1  0.02123400  0.08333333  0.71679661  1
  O  O61  1  0.02123400  0.41666667  0.71679661  1
  O  O62  1  0.02123400  0.75000000  0.71679661  1
  O  O63  1  0.07386473  0.25000000  0.92560983  1
  O  O64  1  0.07386473  0.58333333  0.92560983  1
  O  O65  1  0.07386473  0.91666667  0.92560983  1
  O  O66  1  0.11696214  0.08333333  0.47979095  1
  O  O67  1  0.11696214  0.41666667  0.47979095  1
  O  O68  1  0.11696214  0.75000000  0.47979095  1
  O  O69  1  0.20787873  0.08333333  0.15972903  1
  O  O70  1  0.20787873  0.41666667  0.15972903  1
  O  O71  1  0.20787873  0.75000000  0.15972903  1
  O  O72  1  0.29212127  0.25000000  0.65972903  1
  O  O73  1  0.29212127  0.58333333  0.65972903  1
  O  O74  1  0.29212127  0.91666667  0.65972903  1
  O  O75  1  0.38303786  0.25000000  0.97979095  1
  O  O76  1  0.38303786  0.58333333  0.97979095  1
  O  O77  1  0.38303786  0.91666667  0.97979095  1
  O  O78  1  0.42613527  0.08333333  0.42560983  1
  O  O79  1  0.42613527  0.41666667  0.42560983  1
  O  O80  1  0.42613527  0.75000000  0.42560983  1
  O  O81  1  0.47876600  0.25000000  0.21679661  1
  O  O82  1  0.47876600  0.58333333  0.21679661  1
  O  O83  1  0.47876600  0.91666667  0.21679661  1
