# generated using pymatgen
data_HgMoO4
_symmetry_space_group_name_H-M   'P 1'
_cell_length_a   11.34324779
_cell_length_b   12.16454859
_cell_length_c   10.29070284
_cell_angle_alpha   90.00000000
_cell_angle_beta   112.81044980
_cell_angle_gamma   90.00000000
_symmetry_Int_Tables_number   1
_chemical_formula_structural   HgMoO4
_chemical_formula_sum   'Hg16 Mo16 O64'
_cell_volume   1308.91548400
_cell_formula_units_Z   16
loop_
 _symmetry_equiv_pos_site_id
 _symmetry_equiv_pos_as_xyz
  1  'x, y, z'
loop_
 _atom_site_type_symbol
 _atom_site_label
 _atom_site_symmetry_multiplicity
 _atom_site_fract_x
 _atom_site_fract_y
 _atom_site_fract_z
 _atom_site_occupancy
  Hg  Hg0  1  0.25000000  0.12500000  0.25000000  1
  Hg  Hg1  1  0.25000000  0.12500000  0.75000000  1
  Hg  Hg2  1  0.25000000  0.62500000  0.25000000  1
  Hg  Hg3  1  0.25000000  0.62500000  0.75000000  1
  Hg  Hg4  1  0.75000000  0.37500000  0.25000000  1
  Hg  Hg5  1  0.75000000  0.37500000  0.75000000  1
  Hg  Hg6  1  0.75000000  0.87500000  0.25000000  1
  Hg  Hg7  1  0.75000000  0.87500000  0.75000000  1
  Hg  Hg8  1  0.25000000  -0.12500000  0.00000000  1
  Hg  Hg9  1  0.25000000  -0.12500000  0.50000000  1
  Hg  Hg10  1  0.25000000  0.37500000  0.00000000  1
  Hg  Hg11  1  0.25000000  0.37500000  0.50000000  1
  Hg  Hg12  1  0.75000000  0.12500000  0.00000000  1
  Hg  Hg13  1  0.75000000  0.12500000  0.50000000  1
  Hg  Hg14  1  0.75000000  0.62500000  0.00000000  1
  Hg  Hg15  1  0.75000000  0.62500000  0.50000000  1
  Mo  Mo16  1  0.50000000  -0.15510432  0.37500000  1
  Mo  Mo17  1  0.50000000  -0.15510432  0.87500000  1
  Mo  Mo18  1  0.50000000  0.34489568  0.37500000  1
  Mo  Mo19  1  0.50000000  0.34489568  0.87500000  1
  Mo  Mo20  1  1.00000000  0.09489568  0.37500000  1
  Mo  Mo21  1  1.00000000  0.09489568  0.87500000  1
  Mo  Mo22  1  1.00000000  0.59489568  0.37500000  1
  Mo  Mo23  1  1.00000000  0.59489568  0.87500000  1
  Mo  Mo24  1  0.50000000  0.15510432  0.12500000  1
  Mo  Mo25  1  0.50000000  0.15510432  0.62500000  1
  Mo  Mo26  1  0.50000000  0.65510432  0.12500000  1
  Mo  Mo27  1  0.50000000  0.65510432  0.62500000  1
  Mo  Mo28  1  1.00000000  0.40510432  0.12500000  1
  Mo  Mo29  1  1.00000000  0.40510432  0.62500000  1
  Mo  Mo30  1  1.00000000  0.90510432  0.12500000  1
  Mo  Mo31  1  1.00000000  0.90510432  0.62500000  1
  O  O32  1  0.61658550  -0.06648561  0.48749154  1
  O  O33  1  0.61658550  -0.06648561  0.98749154  1
  O  O34  1  0.61658550  0.43351439  0.48749154  1
  O  O35  1  0.61658550  0.43351439  0.98749154  1
  O  O36  1  1.11658550  0.18351439  0.48749154  1
  O  O37  1  1.11658550  0.18351439  0.98749154  1
  O  O38  1  1.11658550  0.68351439  0.48749154  1
  O  O39  1  1.11658550  0.68351439  0.98749154  1
  O  O40  1  0.38341450  -0.06648561  0.26250846  1
  O  O41  1  0.38341450  -0.06648561  0.76250846  1
  O  O42  1  0.38341450  0.43351439  0.26250846  1
  O  O43  1  0.38341450  0.43351439  0.76250846  1
  O  O44  1  0.88341450  0.18351439  0.26250846  1
  O  O45  1  0.88341450  0.18351439  0.76250846  1
  O  O46  1  0.88341450  0.68351439  0.26250846  1
  O  O47  1  0.88341450  0.68351439  0.76250846  1
  O  O48  1  0.38341450  0.06648561  0.01250846  1
  O  O49  1  0.38341450  0.06648561  0.51250846  1
  O  O50  1  0.38341450  0.56648561  0.01250846  1
  O  O51  1  0.38341450  0.56648561  0.51250846  1
  O  O52  1  0.88341450  0.31648561  0.01250846  1
  O  O53  1  0.88341450  0.31648561  0.51250846  1
  O  O54  1  0.88341450  0.81648561  0.01250846  1
  O  O55  1  0.88341450  0.81648561  0.51250846  1
  O  O56  1  0.61658550  0.06648561  0.23749154  1
  O  O57  1  0.61658550  0.06648561  0.73749154  1
  O  O58  1  0.61658550  0.56648561  0.23749154  1
  O  O59  1  0.61658550  0.56648561  0.73749154  1
  O  O60  1  1.11658550  0.31648561  0.23749154  1
  O  O61  1  1.11658550  0.31648561  0.73749154  1
  O  O62  1  1.11658550  0.81648561  0.23749154  1
  O  O63  1  1.11658550  0.81648561  0.73749154  1
  O  O64  1  0.09735057  -0.04454101  0.01623751  1
  O  O65  1  0.09735057  -0.04454101  0.51623751  1
  O  O66  1  0.09735057  0.45545899  0.01623751  1
  O  O67  1  0.09735057  0.45545899  0.51623751  1
  O  O68  1  0.59735057  0.20545899  0.01623751  1
  O  O69  1  0.59735057  0.20545899  0.51623751  1
  O  O70  1  0.59735057  0.70545899  0.01623751  1
  O  O71  1  0.59735057  0.70545899  0.51623751  1
  O  O72  1  0.90264943  -0.04454101  0.23376249  1
  O  O73  1  0.90264943  -0.04454101  0.73376249  1
  O  O74  1  0.90264943  0.45545899  0.23376249  1
  O  O75  1  0.90264943  0.45545899  0.73376249  1
  O  O76  1  1.40264943  0.20545899  0.23376249  1
  O  O77  1  1.40264943  0.20545899  0.73376249  1
  O  O78  1  1.40264943  0.70545899  0.23376249  1
  O  O79  1  1.40264943  0.70545899  0.73376249  1
  O  O80  1  0.90264943  0.04454101  0.48376249  1
  O  O81  1  0.90264943  0.04454101  0.98376249  1
  O  O82  1  0.90264943  0.54454101  0.48376249  1
  O  O83  1  0.90264943  0.54454101  0.98376249  1
  O  O84  1  1.40264943  0.29454101  0.48376249  1
  O  O85  1  1.40264943  0.29454101  0.98376249  1
  O  O86  1  1.40264943  0.79454101  0.48376249  1
  O  O87  1  1.40264943  0.79454101  0.98376249  1
  O  O88  1  0.09735057  0.04454101  0.26623751  1
  O  O89  1  0.09735057  0.04454101  0.76623751  1
  O  O90  1  0.09735057  0.54454101  0.26623751  1
  O  O91  1  0.09735057  0.54454101  0.76623751  1
  O  O92  1  0.59735057  0.29454101  0.26623751  1
  O  O93  1  0.59735057  0.29454101  0.76623751  1
  O  O94  1  0.59735057  0.79454101  0.26623751  1
  O  O95  1  0.59735057  0.79454101  0.76623751  1
