# generated using pymatgen
data_Ba3NaSbO6
_symmetry_space_group_name_H-M   'P 1'
_cell_length_a   10.25332470
_cell_length_b   10.25332470
_cell_length_c   11.94390364
_cell_angle_alpha   90.00000000
_cell_angle_beta   90.00000000
_cell_angle_gamma   120.00000000
_symmetry_Int_Tables_number   1
_chemical_formula_structural   Ba3NaSbO6
_chemical_formula_sum   'Ba18 Na6 Sb6 O36'
_cell_volume   1087.44260550
_cell_formula_units_Z   6
loop_
 _symmetry_equiv_pos_site_id
 _symmetry_equiv_pos_as_xyz
  1  'x, y, z'
loop_
 _atom_site_type_symbol
 _atom_site_label
 _atom_site_symmetry_multiplicity
 _atom_site_fract_x
 _atom_site_fract_y
 _atom_site_fract_z
 _atom_site_occupancy
  Ba  Ba0  1  0.01773527  0.33333333  0.58333333  1
  Ba  Ba1  1  0.68440194  0.66666667  0.91666667  1
  Ba  Ba2  1  0.35106860  1.00000000  1.25000000  1
  Ba  Ba3  1  -0.33333333  -0.31559806  0.58333333  1
  Ba  Ba4  1  0.33333333  0.01773527  0.91666667  1
  Ba  Ba5  1  0.00000000  0.35106860  1.25000000  1
  Ba  Ba6  1  0.31559806  -0.01773527  0.58333333  1
  Ba  Ba7  1  0.98226473  0.31559806  0.91666667  1
  Ba  Ba8  1  0.64893140  0.64893140  1.25000000  1
  Ba  Ba9  1  -0.31559806  0.01773527  0.41666667  1
  Ba  Ba10  1  0.35106860  0.35106860  0.75000000  1
  Ba  Ba11  1  0.01773527  0.68440194  1.08333333  1
  Ba  Ba12  1  -0.01773527  -0.33333333  0.41666667  1
  Ba  Ba13  1  0.64893140  -0.00000000  0.75000000  1
  Ba  Ba14  1  0.31559806  0.33333333  1.08333333  1
  Ba  Ba15  1  0.33333333  0.31559806  0.41666667  1
  Ba  Ba16  1  1.00000000  0.64893140  0.75000000  1
  Ba  Ba17  1  0.66666667  0.98226473  1.08333333  1
  Na  Na18  1  -0.00000000  -0.00000000  0.25000000  1
  Na  Na19  1  0.66666667  0.33333333  0.58333333  1
  Na  Na20  1  0.33333333  0.66666667  0.91666667  1
  Na  Na21  1  -0.00000000  -0.00000000  0.75000000  1
  Na  Na22  1  0.66666667  0.33333333  1.08333333  1
  Na  Na23  1  0.33333333  0.66666667  1.41666667  1
  Sb  Sb24  1  -0.00000000  -0.00000000  -0.00000000  1
  Sb  Sb25  1  0.66666667  0.33333333  0.33333333  1
  Sb  Sb26  1  0.33333333  0.66666667  0.66666667  1
  Sb  Sb27  1  0.00000000  0.00000000  0.50000000  1
  Sb  Sb28  1  0.66666667  0.33333333  0.83333333  1
  Sb  Sb29  1  0.33333333  0.66666667  1.16666667  1
  O  O30  1  -0.35054556  -0.51548291  0.43314160  1
  O  O31  1  0.31612111  -0.18214958  0.76647493  1
  O  O32  1  -0.01721222  0.15118376  1.09980827  1
  O  O33  1  0.51548291  0.16493735  0.43314160  1
  O  O34  1  1.18214958  0.49827069  0.76647493  1
  O  O35  1  0.84881624  0.83160402  1.09980827  1
  O  O36  1  -0.16493735  0.35054556  0.43314160  1
  O  O37  1  0.50172931  0.68387889  0.76647493  1
  O  O38  1  0.16839598  1.01721222  1.09980827  1
  O  O39  1  -0.01721222  -0.16839598  0.59980827  1
  O  O40  1  0.64945444  0.16493735  0.93314160  1
  O  O41  1  0.31612111  0.49827069  1.26647493  1
  O  O42  1  0.16839598  0.15118376  0.59980827  1
  O  O43  1  0.83506265  0.48451709  0.93314160  1
  O  O44  1  0.50172931  0.81785042  1.26647493  1
  O  O45  1  -0.15118376  0.01721222  0.59980827  1
  O  O46  1  0.51548291  0.35054556  0.93314160  1
  O  O47  1  0.18214958  0.68387889  1.26647493  1
  O  O48  1  0.35054556  0.51548291  0.56685840  1
  O  O49  1  1.01721222  0.84881624  0.90019173  1
  O  O50  1  0.68387889  1.18214958  1.23352507  1
  O  O51  1  -0.51548291  -0.16493735  0.56685840  1
  O  O52  1  0.15118376  0.16839598  0.90019173  1
  O  O53  1  -0.18214958  0.50172931  1.23352507  1
  O  O54  1  0.16493735  -0.35054556  0.56685840  1
  O  O55  1  0.83160402  -0.01721222  0.90019173  1
  O  O56  1  0.49827069  0.31612111  1.23352507  1
  O  O57  1  0.01721222  0.16839598  0.40019173  1
  O  O58  1  0.68387889  0.50172931  0.73352507  1
  O  O59  1  0.35054556  0.83506265  1.06685840  1
  O  O60  1  -0.16839598  -0.15118376  0.40019173  1
  O  O61  1  0.49827069  0.18214958  0.73352507  1
  O  O62  1  0.16493735  0.51548291  1.06685840  1
  O  O63  1  0.15118376  -0.01721222  0.40019173  1
  O  O64  1  0.81785042  0.31612111  0.73352507  1
  O  O65  1  0.48451709  0.64945444  1.06685840  1
