# generated using pymatgen
data_Ba(AgO)2
_symmetry_space_group_name_H-M   'P 1'
_cell_length_a   11.63771188
_cell_length_b   11.63771188
_cell_length_c   10.76805415
_cell_angle_alpha   90.00000000
_cell_angle_beta   90.00000000
_cell_angle_gamma   90.00000000
_symmetry_Int_Tables_number   1
_chemical_formula_structural   Ba(AgO)2
_chemical_formula_sum   'Ba16 Ag32 O32'
_cell_volume   1458.38581816
_cell_formula_units_Z   16
loop_
 _symmetry_equiv_pos_site_id
 _symmetry_equiv_pos_as_xyz
  1  'x, y, z'
loop_
 _atom_site_type_symbol
 _atom_site_label
 _atom_site_symmetry_multiplicity
 _atom_site_fract_x
 _atom_site_fract_y
 _atom_site_fract_z
 _atom_site_occupancy
  Ba  Ba0  1  0.00000000  0.50000000  0.50000000  1
  Ba  Ba1  1  0.50000000  0.50000000  0.50000000  1
  Ba  Ba2  1  0.00000000  -0.00000000  0.50000000  1
  Ba  Ba3  1  0.50000000  -0.00000000  0.50000000  1
  Ba  Ba4  1  0.25000000  0.25000000  1.00000000  1
  Ba  Ba5  1  0.75000000  0.25000000  1.00000000  1
  Ba  Ba6  1  0.25000000  -0.25000000  1.00000000  1
  Ba  Ba7  1  0.75000000  -0.25000000  1.00000000  1
  Ba  Ba8  1  0.00000000  0.25000000  0.25000000  1
  Ba  Ba9  1  0.50000000  0.25000000  0.25000000  1
  Ba  Ba10  1  0.00000000  -0.25000000  0.25000000  1
  Ba  Ba11  1  0.50000000  -0.25000000  0.25000000  1
  Ba  Ba12  1  0.25000000  0.00000000  0.75000000  1
  Ba  Ba13  1  0.75000000  0.00000000  0.75000000  1
  Ba  Ba14  1  0.25000000  -0.50000000  0.75000000  1
  Ba  Ba15  1  0.75000000  -0.50000000  0.75000000  1
  Ag  Ag16  1  0.12500000  0.50000000  0.12500000  1
  Ag  Ag17  1  0.62500000  0.50000000  0.12500000  1
  Ag  Ag18  1  0.12500000  -0.00000000  0.12500000  1
  Ag  Ag19  1  0.62500000  -0.00000000  0.12500000  1
  Ag  Ag20  1  0.37500000  0.25000000  0.62500000  1
  Ag  Ag21  1  0.87500000  0.25000000  0.62500000  1
  Ag  Ag22  1  0.37500000  -0.25000000  0.62500000  1
  Ag  Ag23  1  0.87500000  -0.25000000  0.62500000  1
  Ag  Ag24  1  0.25000000  0.62500000  0.37500000  1
  Ag  Ag25  1  0.75000000  0.62500000  0.37500000  1
  Ag  Ag26  1  0.25000000  0.12500000  0.37500000  1
  Ag  Ag27  1  0.75000000  0.12500000  0.37500000  1
  Ag  Ag28  1  0.50000000  0.37500000  0.87500000  1
  Ag  Ag29  1  1.00000000  0.37500000  0.87500000  1
  Ag  Ag30  1  0.50000000  -0.12500000  0.87500000  1
  Ag  Ag31  1  1.00000000  -0.12500000  0.87500000  1
  Ag  Ag32  1  0.25000000  0.37500000  0.37500000  1
  Ag  Ag33  1  0.75000000  0.37500000  0.37500000  1
  Ag  Ag34  1  0.25000000  -0.12500000  0.37500000  1
  Ag  Ag35  1  0.75000000  -0.12500000  0.37500000  1
  Ag  Ag36  1  0.50000000  0.12500000  0.87500000  1
  Ag  Ag37  1  1.00000000  0.12500000  0.87500000  1
  Ag  Ag38  1  0.50000000  -0.37500000  0.87500000  1
  Ag  Ag39  1  1.00000000  -0.37500000  0.87500000  1
  Ag  Ag40  1  0.37500000  0.50000000  0.12500000  1
  Ag  Ag41  1  0.87500000  0.50000000  0.12500000  1
  Ag  Ag42  1  0.37500000  -0.00000000  0.12500000  1
  Ag  Ag43  1  0.87500000  -0.00000000  0.12500000  1
  Ag  Ag44  1  0.62500000  0.25000000  0.62500000  1
  Ag  Ag45  1  1.12500000  0.25000000  0.62500000  1
  Ag  Ag46  1  0.62500000  -0.25000000  0.62500000  1
  Ag  Ag47  1  1.12500000  -0.25000000  0.62500000  1
  O  O48  1  0.00000000  0.25000000  0.00972517  1
  O  O49  1  0.50000000  0.25000000  0.00972517  1
  O  O50  1  0.00000000  -0.25000000  0.00972517  1
  O  O51  1  0.50000000  -0.25000000  0.00972517  1
  O  O52  1  0.25000000  0.00000000  0.50972517  1
  O  O53  1  0.75000000  0.00000000  0.50972517  1
  O  O54  1  0.25000000  -0.50000000  0.50972517  1
  O  O55  1  0.75000000  -0.50000000  0.50972517  1
  O  O56  1  0.00000000  0.50000000  0.25972517  1
  O  O57  1  0.50000000  0.50000000  0.25972517  1
  O  O58  1  0.00000000  -0.00000000  0.25972517  1
  O  O59  1  0.50000000  -0.00000000  0.25972517  1
  O  O60  1  0.25000000  0.25000000  0.75972517  1
  O  O61  1  0.75000000  0.25000000  0.75972517  1
  O  O62  1  0.25000000  -0.25000000  0.75972517  1
  O  O63  1  0.75000000  -0.25000000  0.75972517  1
  O  O64  1  0.00000000  0.50000000  0.74027483  1
  O  O65  1  0.50000000  0.50000000  0.74027483  1
  O  O66  1  0.00000000  0.00000000  0.74027483  1
  O  O67  1  0.50000000  0.00000000  0.74027483  1
  O  O68  1  0.25000000  0.25000000  1.24027483  1
  O  O69  1  0.75000000  0.25000000  1.24027483  1
  O  O70  1  0.25000000  -0.25000000  1.24027483  1
  O  O71  1  0.75000000  -0.25000000  1.24027483  1
  O  O72  1  0.00000000  0.25000000  0.49027483  1
  O  O73  1  0.50000000  0.25000000  0.49027483  1
  O  O74  1  0.00000000  -0.25000000  0.49027483  1
  O  O75  1  0.50000000  -0.25000000  0.49027483  1
  O  O76  1  0.25000000  0.00000000  0.99027483  1
  O  O77  1  0.75000000  0.00000000  0.99027483  1
  O  O78  1  0.25000000  -0.50000000  0.99027483  1
  O  O79  1  0.75000000  -0.50000000  0.99027483  1
