# generated using pymatgen
data_BaLa2PtO5
_symmetry_space_group_name_H-M   'P 1'
_cell_length_a   19.37295729
_cell_length_b   19.37295729
_cell_length_c   17.71168414
_cell_angle_alpha   90.00000000
_cell_angle_beta   90.00000000
_cell_angle_gamma   90.00000000
_symmetry_Int_Tables_number   1
_chemical_formula_structural   BaLa2PtO5
_chemical_formula_sum   'Ba48 La96 Pt48 O240'
_cell_volume   6647.39828190
_cell_formula_units_Z   48
loop_
 _symmetry_equiv_pos_site_id
 _symmetry_equiv_pos_as_xyz
  1  'x, y, z'
loop_
 _atom_site_type_symbol
 _atom_site_label
 _atom_site_symmetry_multiplicity
 _atom_site_fract_x
 _atom_site_fract_y
 _atom_site_fract_z
 _atom_site_occupancy
  Ba  Ba0  1  0.75000000  0.75000000  0.00000000  1
  Ba  Ba1  1  0.75000000  0.75000000  0.33333333  1
  Ba  Ba2  1  0.75000000  0.75000000  0.66666667  1
  Ba  Ba3  1  0.25000000  0.75000000  0.00000000  1
  Ba  Ba4  1  0.25000000  0.75000000  0.33333333  1
  Ba  Ba5  1  0.25000000  0.75000000  0.66666667  1
  Ba  Ba6  1  0.50000000  0.50000000  0.00000000  1
  Ba  Ba7  1  0.50000000  0.50000000  0.33333333  1
  Ba  Ba8  1  0.50000000  0.50000000  0.66666667  1
  Ba  Ba9  1  0.75000000  0.25000000  0.00000000  1
  Ba  Ba10  1  0.75000000  0.25000000  0.33333333  1
  Ba  Ba11  1  0.75000000  0.25000000  0.66666667  1
  Ba  Ba12  1  0.00000000  0.50000000  0.00000000  1
  Ba  Ba13  1  0.00000000  0.50000000  0.33333333  1
  Ba  Ba14  1  0.00000000  0.50000000  0.66666667  1
  Ba  Ba15  1  0.25000000  0.25000000  0.00000000  1
  Ba  Ba16  1  0.25000000  0.25000000  0.33333333  1
  Ba  Ba17  1  0.25000000  0.25000000  0.66666667  1
  Ba  Ba18  1  0.50000000  0.00000000  0.00000000  1
  Ba  Ba19  1  0.50000000  0.00000000  0.33333333  1
  Ba  Ba20  1  0.50000000  0.00000000  0.66666667  1
  Ba  Ba21  1  0.00000000  0.00000000  0.00000000  1
  Ba  Ba22  1  0.00000000  0.00000000  0.33333333  1
  Ba  Ba23  1  0.00000000  0.00000000  0.66666667  1
  Ba  Ba24  1  0.75000000  0.50000000  0.00000000  1
  Ba  Ba25  1  0.75000000  0.50000000  0.33333333  1
  Ba  Ba26  1  0.75000000  0.50000000  0.66666667  1
  Ba  Ba27  1  0.25000000  0.50000000  0.00000000  1
  Ba  Ba28  1  0.25000000  0.50000000  0.33333333  1
  Ba  Ba29  1  0.25000000  0.50000000  0.66666667  1
  Ba  Ba30  1  0.50000000  0.25000000  0.00000000  1
  Ba  Ba31  1  0.50000000  0.25000000  0.33333333  1
  Ba  Ba32  1  0.50000000  0.25000000  0.66666667  1
  Ba  Ba33  1  0.75000000  0.00000000  0.00000000  1
  Ba  Ba34  1  0.75000000  0.00000000  0.33333333  1
  Ba  Ba35  1  0.75000000  0.00000000  0.66666667  1
  Ba  Ba36  1  0.00000000  0.25000000  0.00000000  1
  Ba  Ba37  1  0.00000000  0.25000000  0.33333333  1
  Ba  Ba38  1  0.00000000  0.25000000  0.66666667  1
  Ba  Ba39  1  0.25000000  0.00000000  0.00000000  1
  Ba  Ba40  1  0.25000000  0.00000000  0.33333333  1
  Ba  Ba41  1  0.25000000  0.00000000  0.66666667  1
  Ba  Ba42  1  0.50000000  -0.25000000  0.00000000  1
  Ba  Ba43  1  0.50000000  -0.25000000  0.33333333  1
  Ba  Ba44  1  0.50000000  -0.25000000  0.66666667  1
  Ba  Ba45  1  -0.00000000  -0.25000000  0.00000000  1
  Ba  Ba46  1  -0.00000000  -0.25000000  0.33333333  1
  Ba  Ba47  1  -0.00000000  -0.25000000  0.66666667  1
  La  La48  1  0.71259976  0.37500000  0.16666667  1
  La  La49  1  0.71259976  0.37500000  0.50000000  1
  La  La50  1  0.71259976  0.37500000  0.83333333  1
  La  La51  1  0.21259976  0.37500000  0.16666667  1
  La  La52  1  0.21259976  0.37500000  0.50000000  1
  La  La53  1  0.21259976  0.37500000  0.83333333  1
  La  La54  1  0.46259976  0.12500000  0.16666667  1
  La  La55  1  0.46259976  0.12500000  0.50000000  1
  La  La56  1  0.46259976  0.12500000  0.83333333  1
  La  La57  1  0.71259976  -0.12500000  0.16666667  1
  La  La58  1  0.71259976  -0.12500000  0.50000000  1
  La  La59  1  0.71259976  -0.12500000  0.83333333  1
  La  La60  1  -0.03740024  0.12500000  0.16666667  1
  La  La61  1  -0.03740024  0.12500000  0.50000000  1
  La  La62  1  -0.03740024  0.12500000  0.83333333  1
  La  La63  1  0.21259976  -0.12500000  0.16666667  1
  La  La64  1  0.21259976  -0.12500000  0.50000000  1
  La  La65  1  0.21259976  -0.12500000  0.83333333  1
  La  La66  1  0.46259976  -0.37500000  0.16666667  1
  La  La67  1  0.46259976  -0.37500000  0.50000000  1
  La  La68  1  0.46259976  -0.37500000  0.83333333  1
  La  La69  1  -0.03740024  -0.37500000  0.16666667  1
  La  La70  1  -0.03740024  -0.37500000  0.50000000  1
  La  La71  1  -0.03740024  -0.37500000  0.83333333  1
  La  La72  1  0.62500000  0.53740024  0.16666667  1
  La  La73  1  0.62500000  0.53740024  0.50000000  1
  La  La74  1  0.62500000  0.53740024  0.83333333  1
  La  La75  1  0.12500000  0.53740024  0.16666667  1
  La  La76  1  0.12500000  0.53740024  0.50000000  1
  La  La77  1  0.12500000  0.53740024  0.83333333  1
  La  La78  1  0.37500000  0.28740024  0.16666667  1
  La  La79  1  0.37500000  0.28740024  0.50000000  1
  La  La80  1  0.37500000  0.28740024  0.83333333  1
  La  La81  1  0.62500000  0.03740024  0.16666667  1
  La  La82  1  0.62500000  0.03740024  0.50000000  1
  La  La83  1  0.62500000  0.03740024  0.83333333  1
  La  La84  1  -0.12500000  0.28740024  0.16666667  1
  La  La85  1  -0.12500000  0.28740024  0.50000000  1
  La  La86  1  -0.12500000  0.28740024  0.83333333  1
  La  La87  1  0.12500000  0.03740024  0.16666667  1
  La  La88  1  0.12500000  0.03740024  0.50000000  1
  La  La89  1  0.12500000  0.03740024  0.83333333  1
  La  La90  1  0.37500000  -0.21259976  0.16666667  1
  La  La91  1  0.37500000  -0.21259976  0.50000000  1
  La  La92  1  0.37500000  -0.21259976  0.83333333  1
  La  La93  1  -0.12500000  -0.21259976  0.16666667  1
  La  La94  1  -0.12500000  -0.21259976  0.50000000  1
  La  La95  1  -0.12500000  -0.21259976  0.83333333  1
  La  La96  1  0.87500000  0.46259976  0.16666667  1
  La  La97  1  0.87500000  0.46259976  0.50000000  1
  La  La98  1  0.87500000  0.46259976  0.83333333  1
  La  La99  1  0.37500000  0.46259976  0.16666667  1
  La  La100  1  0.37500000  0.46259976  0.50000000  1
  La  La101  1  0.37500000  0.46259976  0.83333333  1
  La  La102  1  0.62500000  0.21259976  0.16666667  1
  La  La103  1  0.62500000  0.21259976  0.50000000  1
  La  La104  1  0.62500000  0.21259976  0.83333333  1
  La  La105  1  0.87500000  -0.03740024  0.16666667  1
  La  La106  1  0.87500000  -0.03740024  0.50000000  1
  La  La107  1  0.87500000  -0.03740024  0.83333333  1
  La  La108  1  0.12500000  0.21259976  0.16666667  1
  La  La109  1  0.12500000  0.21259976  0.50000000  1
  La  La110  1  0.12500000  0.21259976  0.83333333  1
  La  La111  1  0.37500000  -0.03740024  0.16666667  1
  La  La112  1  0.37500000  -0.03740024  0.50000000  1
  La  La113  1  0.37500000  -0.03740024  0.83333333  1
  La  La114  1  0.62500000  -0.28740024  0.16666667  1
  La  La115  1  0.62500000  -0.28740024  0.50000000  1
  La  La116  1  0.62500000  -0.28740024  0.83333333  1
  La  La117  1  0.12500000  -0.28740024  0.16666667  1
  La  La118  1  0.12500000  -0.28740024  0.50000000  1
  La  La119  1  0.12500000  -0.28740024  0.83333333  1
  La  La120  1  0.78740024  0.62500000  0.16666667  1
  La  La121  1  0.78740024  0.62500000  0.50000000  1
  La  La122  1  0.78740024  0.62500000  0.83333333  1
  La  La123  1  0.28740024  0.62500000  0.16666667  1
  La  La124  1  0.28740024  0.62500000  0.50000000  1
  La  La125  1  0.28740024  0.62500000  0.83333333  1
  La  La126  1  0.53740024  0.37500000  0.16666667  1
  La  La127  1  0.53740024  0.37500000  0.50000000  1
  La  La128  1  0.53740024  0.37500000  0.83333333  1
  La  La129  1  0.78740024  0.12500000  0.16666667  1
  La  La130  1  0.78740024  0.12500000  0.50000000  1
  La  La131  1  0.78740024  0.12500000  0.83333333  1
  La  La132  1  0.03740024  0.37500000  0.16666667  1
  La  La133  1  0.03740024  0.37500000  0.50000000  1
  La  La134  1  0.03740024  0.37500000  0.83333333  1
  La  La135  1  0.28740024  0.12500000  0.16666667  1
  La  La136  1  0.28740024  0.12500000  0.50000000  1
  La  La137  1  0.28740024  0.12500000  0.83333333  1
  La  La138  1  0.53740024  -0.12500000  0.16666667  1
  La  La139  1  0.53740024  -0.12500000  0.50000000  1
  La  La140  1  0.53740024  -0.12500000  0.83333333  1
  La  La141  1  0.03740024  -0.12500000  0.16666667  1
  La  La142  1  0.03740024  -0.12500000  0.50000000  1
  La  La143  1  0.03740024  -0.12500000  0.83333333  1
  Pt  Pt144  1  0.62500000  0.62500000  0.00000000  1
  Pt  Pt145  1  0.62500000  0.62500000  0.33333333  1
  Pt  Pt146  1  0.62500000  0.62500000  0.66666667  1
  Pt  Pt147  1  0.12500000  0.62500000  0.00000000  1
  Pt  Pt148  1  0.12500000  0.62500000  0.33333333  1
  Pt  Pt149  1  0.12500000  0.62500000  0.66666667  1
  Pt  Pt150  1  0.37500000  0.37500000  0.00000000  1
  Pt  Pt151  1  0.37500000  0.37500000  0.33333333  1
  Pt  Pt152  1  0.37500000  0.37500000  0.66666667  1
  Pt  Pt153  1  0.62500000  0.12500000  0.00000000  1
  Pt  Pt154  1  0.62500000  0.12500000  0.33333333  1
  Pt  Pt155  1  0.62500000  0.12500000  0.66666667  1
  Pt  Pt156  1  -0.12500000  0.37500000  0.00000000  1
  Pt  Pt157  1  -0.12500000  0.37500000  0.33333333  1
  Pt  Pt158  1  -0.12500000  0.37500000  0.66666667  1
  Pt  Pt159  1  0.12500000  0.12500000  0.00000000  1
  Pt  Pt160  1  0.12500000  0.12500000  0.33333333  1
  Pt  Pt161  1  0.12500000  0.12500000  0.66666667  1
  Pt  Pt162  1  0.37500000  -0.12500000  0.00000000  1
  Pt  Pt163  1  0.37500000  -0.12500000  0.33333333  1
  Pt  Pt164  1  0.37500000  -0.12500000  0.66666667  1
  Pt  Pt165  1  -0.12500000  -0.12500000  0.00000000  1
  Pt  Pt166  1  -0.12500000  -0.12500000  0.33333333  1
  Pt  Pt167  1  -0.12500000  -0.12500000  0.66666667  1
  Pt  Pt168  1  0.87500000  0.62500000  0.00000000  1
  Pt  Pt169  1  0.87500000  0.62500000  0.33333333  1
  Pt  Pt170  1  0.87500000  0.62500000  0.66666667  1
  Pt  Pt171  1  0.37500000  0.62500000  0.00000000  1
  Pt  Pt172  1  0.37500000  0.62500000  0.33333333  1
  Pt  Pt173  1  0.37500000  0.62500000  0.66666667  1
  Pt  Pt174  1  0.62500000  0.37500000  0.00000000  1
  Pt  Pt175  1  0.62500000  0.37500000  0.33333333  1
  Pt  Pt176  1  0.62500000  0.37500000  0.66666667  1
  Pt  Pt177  1  0.87500000  0.12500000  0.00000000  1
  Pt  Pt178  1  0.87500000  0.12500000  0.33333333  1
  Pt  Pt179  1  0.87500000  0.12500000  0.66666667  1
  Pt  Pt180  1  0.12500000  0.37500000  0.00000000  1
  Pt  Pt181  1  0.12500000  0.37500000  0.33333333  1
  Pt  Pt182  1  0.12500000  0.37500000  0.66666667  1
  Pt  Pt183  1  0.37500000  0.12500000  0.00000000  1
  Pt  Pt184  1  0.37500000  0.12500000  0.33333333  1
  Pt  Pt185  1  0.37500000  0.12500000  0.66666667  1
  Pt  Pt186  1  0.62500000  -0.12500000  0.00000000  1
  Pt  Pt187  1  0.62500000  -0.12500000  0.33333333  1
  Pt  Pt188  1  0.62500000  -0.12500000  0.66666667  1
  Pt  Pt189  1  0.12500000  -0.12500000  0.00000000  1
  Pt  Pt190  1  0.12500000  -0.12500000  0.33333333  1
  Pt  Pt191  1  0.12500000  -0.12500000  0.66666667  1
  O  O192  1  0.75000000  0.50000000  0.16666667  1
  O  O193  1  0.75000000  0.50000000  0.50000000  1
  O  O194  1  0.75000000  0.50000000  0.83333333  1
  O  O195  1  0.25000000  0.50000000  0.16666667  1
  O  O196  1  0.25000000  0.50000000  0.50000000  1
  O  O197  1  0.25000000  0.50000000  0.83333333  1
  O  O198  1  0.50000000  0.25000000  0.16666667  1
  O  O199  1  0.50000000  0.25000000  0.50000000  1
  O  O200  1  0.50000000  0.25000000  0.83333333  1
  O  O201  1  0.75000000  0.00000000  0.16666667  1
  O  O202  1  0.75000000  0.00000000  0.50000000  1
  O  O203  1  0.75000000  0.00000000  0.83333333  1
  O  O204  1  0.00000000  0.25000000  0.16666667  1
  O  O205  1  0.00000000  0.25000000  0.50000000  1
  O  O206  1  0.00000000  0.25000000  0.83333333  1
  O  O207  1  0.25000000  0.00000000  0.16666667  1
  O  O208  1  0.25000000  0.00000000  0.50000000  1
  O  O209  1  0.25000000  0.00000000  0.83333333  1
  O  O210  1  0.50000000  -0.25000000  0.16666667  1
  O  O211  1  0.50000000  -0.25000000  0.50000000  1
  O  O212  1  0.50000000  -0.25000000  0.83333333  1
  O  O213  1  -0.00000000  -0.25000000  0.16666667  1
  O  O214  1  -0.00000000  -0.25000000  0.50000000  1
  O  O215  1  -0.00000000  -0.25000000  0.83333333  1
  O  O216  1  0.75000000  0.75000000  0.16666667  1
  O  O217  1  0.75000000  0.75000000  0.50000000  1
  O  O218  1  0.75000000  0.75000000  0.83333333  1
  O  O219  1  0.25000000  0.75000000  0.16666667  1
  O  O220  1  0.25000000  0.75000000  0.50000000  1
  O  O221  1  0.25000000  0.75000000  0.83333333  1
  O  O222  1  0.50000000  0.50000000  0.16666667  1
  O  O223  1  0.50000000  0.50000000  0.50000000  1
  O  O224  1  0.50000000  0.50000000  0.83333333  1
  O  O225  1  0.75000000  0.25000000  0.16666667  1
  O  O226  1  0.75000000  0.25000000  0.50000000  1
  O  O227  1  0.75000000  0.25000000  0.83333333  1
  O  O228  1  0.00000000  0.50000000  0.16666667  1
  O  O229  1  0.00000000  0.50000000  0.50000000  1
  O  O230  1  0.00000000  0.50000000  0.83333333  1
  O  O231  1  0.25000000  0.25000000  0.16666667  1
  O  O232  1  0.25000000  0.25000000  0.50000000  1
  O  O233  1  0.25000000  0.25000000  0.83333333  1
  O  O234  1  0.50000000  0.00000000  0.16666667  1
  O  O235  1  0.50000000  0.00000000  0.50000000  1
  O  O236  1  0.50000000  0.00000000  0.83333333  1
  O  O237  1  0.00000000  0.00000000  0.16666667  1
  O  O238  1  0.00000000  0.00000000  0.50000000  1
  O  O239  1  0.00000000  0.00000000  0.83333333  1
  O  O240  1  0.87500000  0.55402127  0.08228280  1
  O  O241  1  0.87500000  0.55402127  0.41561614  1
  O  O242  1  0.87500000  0.55402127  0.74894947  1
  O  O243  1  0.37500000  0.55402127  0.08228280  1
  O  O244  1  0.37500000  0.55402127  0.41561614  1
  O  O245  1  0.37500000  0.55402127  0.74894947  1
  O  O246  1  0.62500000  0.30402127  0.08228280  1
  O  O247  1  0.62500000  0.30402127  0.41561614  1
  O  O248  1  0.62500000  0.30402127  0.74894947  1
  O  O249  1  0.87500000  0.05402127  0.08228280  1
  O  O250  1  0.87500000  0.05402127  0.41561614  1
  O  O251  1  0.87500000  0.05402127  0.74894947  1
  O  O252  1  0.12500000  0.30402127  0.08228280  1
  O  O253  1  0.12500000  0.30402127  0.41561614  1
  O  O254  1  0.12500000  0.30402127  0.74894947  1
  O  O255  1  0.37500000  0.05402127  0.08228280  1
  O  O256  1  0.37500000  0.05402127  0.41561614  1
  O  O257  1  0.37500000  0.05402127  0.74894947  1
  O  O258  1  0.62500000  -0.19597873  0.08228280  1
  O  O259  1  0.62500000  -0.19597873  0.41561614  1
  O  O260  1  0.62500000  -0.19597873  0.74894947  1
  O  O261  1  0.12500000  -0.19597873  0.08228280  1
  O  O262  1  0.12500000  -0.19597873  0.41561614  1
  O  O263  1  0.12500000  -0.19597873  0.74894947  1
  O  O264  1  0.62500000  0.44597873  0.08228280  1
  O  O265  1  0.62500000  0.44597873  0.41561614  1
  O  O266  1  0.62500000  0.44597873  0.74894947  1
  O  O267  1  0.12500000  0.44597873  0.08228280  1
  O  O268  1  0.12500000  0.44597873  0.41561614  1
  O  O269  1  0.12500000  0.44597873  0.74894947  1
  O  O270  1  0.37500000  0.19597873  0.08228280  1
  O  O271  1  0.37500000  0.19597873  0.41561614  1
  O  O272  1  0.37500000  0.19597873  0.74894947  1
  O  O273  1  0.62500000  -0.05402127  0.08228280  1
  O  O274  1  0.62500000  -0.05402127  0.41561614  1
  O  O275  1  0.62500000  -0.05402127  0.74894947  1
  O  O276  1  -0.12500000  0.19597873  0.08228280  1
  O  O277  1  -0.12500000  0.19597873  0.41561614  1
  O  O278  1  -0.12500000  0.19597873  0.74894947  1
  O  O279  1  0.12500000  -0.05402127  0.08228280  1
  O  O280  1  0.12500000  -0.05402127  0.41561614  1
  O  O281  1  0.12500000  -0.05402127  0.74894947  1
  O  O282  1  0.37500000  -0.30402127  0.08228280  1
  O  O283  1  0.37500000  -0.30402127  0.41561614  1
  O  O284  1  0.37500000  -0.30402127  0.74894947  1
  O  O285  1  -0.12500000  -0.30402127  0.08228280  1
  O  O286  1  -0.12500000  -0.30402127  0.41561614  1
  O  O287  1  -0.12500000  -0.30402127  0.74894947  1
  O  O288  1  0.69597873  0.62500000  0.08228280  1
  O  O289  1  0.69597873  0.62500000  0.41561614  1
  O  O290  1  0.69597873  0.62500000  0.74894947  1
  O  O291  1  0.19597873  0.62500000  0.08228280  1
  O  O292  1  0.19597873  0.62500000  0.41561614  1
  O  O293  1  0.19597873  0.62500000  0.74894947  1
  O  O294  1  0.44597873  0.37500000  0.08228280  1
  O  O295  1  0.44597873  0.37500000  0.41561614  1
  O  O296  1  0.44597873  0.37500000  0.74894947  1
  O  O297  1  0.69597873  0.12500000  0.08228280  1
  O  O298  1  0.69597873  0.12500000  0.41561614  1
  O  O299  1  0.69597873  0.12500000  0.74894947  1
  O  O300  1  -0.05402127  0.37500000  0.08228280  1
  O  O301  1  -0.05402127  0.37500000  0.41561614  1
  O  O302  1  -0.05402127  0.37500000  0.74894947  1
  O  O303  1  0.19597873  0.12500000  0.08228280  1
  O  O304  1  0.19597873  0.12500000  0.41561614  1
  O  O305  1  0.19597873  0.12500000  0.74894947  1
  O  O306  1  0.44597873  -0.12500000  0.08228280  1
  O  O307  1  0.44597873  -0.12500000  0.41561614  1
  O  O308  1  0.44597873  -0.12500000  0.74894947  1
  O  O309  1  -0.05402127  -0.12500000  0.08228280  1
  O  O310  1  -0.05402127  -0.12500000  0.41561614  1
  O  O311  1  -0.05402127  -0.12500000  0.74894947  1
  O  O312  1  0.80402127  0.37500000  0.08228280  1
  O  O313  1  0.80402127  0.37500000  0.41561614  1
  O  O314  1  0.80402127  0.37500000  0.74894947  1
  O  O315  1  0.30402127  0.37500000  0.08228280  1
  O  O316  1  0.30402127  0.37500000  0.41561614  1
  O  O317  1  0.30402127  0.37500000  0.74894947  1
  O  O318  1  0.55402127  0.12500000  0.08228280  1
  O  O319  1  0.55402127  0.12500000  0.41561614  1
  O  O320  1  0.55402127  0.12500000  0.74894947  1
  O  O321  1  0.80402127  -0.12500000  0.08228280  1
  O  O322  1  0.80402127  -0.12500000  0.41561614  1
  O  O323  1  0.80402127  -0.12500000  0.74894947  1
  O  O324  1  0.05402127  0.12500000  0.08228280  1
  O  O325  1  0.05402127  0.12500000  0.41561614  1
  O  O326  1  0.05402127  0.12500000  0.74894947  1
  O  O327  1  0.30402127  -0.12500000  0.08228280  1
  O  O328  1  0.30402127  -0.12500000  0.41561614  1
  O  O329  1  0.30402127  -0.12500000  0.74894947  1
  O  O330  1  0.55402127  -0.37500000  0.08228280  1
  O  O331  1  0.55402127  -0.37500000  0.41561614  1
  O  O332  1  0.55402127  -0.37500000  0.74894947  1
  O  O333  1  0.05402127  -0.37500000  0.08228280  1
  O  O334  1  0.05402127  -0.37500000  0.41561614  1
  O  O335  1  0.05402127  -0.37500000  0.74894947  1
  O  O336  1  0.87500000  0.55402127  0.25105053  1
  O  O337  1  0.87500000  0.55402127  0.58438386  1
  O  O338  1  0.87500000  0.55402127  0.91771720  1
  O  O339  1  0.37500000  0.55402127  0.25105053  1
  O  O340  1  0.37500000  0.55402127  0.58438386  1
  O  O341  1  0.37500000  0.55402127  0.91771720  1
  O  O342  1  0.62500000  0.30402127  0.25105053  1
  O  O343  1  0.62500000  0.30402127  0.58438386  1
  O  O344  1  0.62500000  0.30402127  0.91771720  1
  O  O345  1  0.87500000  0.05402127  0.25105053  1
  O  O346  1  0.87500000  0.05402127  0.58438386  1
  O  O347  1  0.87500000  0.05402127  0.91771720  1
  O  O348  1  0.12500000  0.30402127  0.25105053  1
  O  O349  1  0.12500000  0.30402127  0.58438386  1
  O  O350  1  0.12500000  0.30402127  0.91771720  1
  O  O351  1  0.37500000  0.05402127  0.25105053  1
  O  O352  1  0.37500000  0.05402127  0.58438386  1
  O  O353  1  0.37500000  0.05402127  0.91771720  1
  O  O354  1  0.62500000  -0.19597873  0.25105053  1
  O  O355  1  0.62500000  -0.19597873  0.58438386  1
  O  O356  1  0.62500000  -0.19597873  0.91771720  1
  O  O357  1  0.12500000  -0.19597873  0.25105053  1
  O  O358  1  0.12500000  -0.19597873  0.58438386  1
  O  O359  1  0.12500000  -0.19597873  0.91771720  1
  O  O360  1  0.80402127  0.37500000  0.25105053  1
  O  O361  1  0.80402127  0.37500000  0.58438386  1
  O  O362  1  0.80402127  0.37500000  0.91771720  1
  O  O363  1  0.30402127  0.37500000  0.25105053  1
  O  O364  1  0.30402127  0.37500000  0.58438386  1
  O  O365  1  0.30402127  0.37500000  0.91771720  1
  O  O366  1  0.55402127  0.12500000  0.25105053  1
  O  O367  1  0.55402127  0.12500000  0.58438386  1
  O  O368  1  0.55402127  0.12500000  0.91771720  1
  O  O369  1  0.80402127  -0.12500000  0.25105053  1
  O  O370  1  0.80402127  -0.12500000  0.58438386  1
  O  O371  1  0.80402127  -0.12500000  0.91771720  1
  O  O372  1  0.05402127  0.12500000  0.25105053  1
  O  O373  1  0.05402127  0.12500000  0.58438386  1
  O  O374  1  0.05402127  0.12500000  0.91771720  1
  O  O375  1  0.30402127  -0.12500000  0.25105053  1
  O  O376  1  0.30402127  -0.12500000  0.58438386  1
  O  O377  1  0.30402127  -0.12500000  0.91771720  1
  O  O378  1  0.55402127  -0.37500000  0.25105053  1
  O  O379  1  0.55402127  -0.37500000  0.58438386  1
  O  O380  1  0.55402127  -0.37500000  0.91771720  1
  O  O381  1  0.05402127  -0.37500000  0.25105053  1
  O  O382  1  0.05402127  -0.37500000  0.58438386  1
  O  O383  1  0.05402127  -0.37500000  0.91771720  1
  O  O384  1  0.62500000  0.44597873  0.25105053  1
  O  O385  1  0.62500000  0.44597873  0.58438386  1
  O  O386  1  0.62500000  0.44597873  0.91771720  1
  O  O387  1  0.12500000  0.44597873  0.25105053  1
  O  O388  1  0.12500000  0.44597873  0.58438386  1
  O  O389  1  0.12500000  0.44597873  0.91771720  1
  O  O390  1  0.37500000  0.19597873  0.25105053  1
  O  O391  1  0.37500000  0.19597873  0.58438386  1
  O  O392  1  0.37500000  0.19597873  0.91771720  1
  O  O393  1  0.62500000  -0.05402127  0.25105053  1
  O  O394  1  0.62500000  -0.05402127  0.58438386  1
  O  O395  1  0.62500000  -0.05402127  0.91771720  1
  O  O396  1  -0.12500000  0.19597873  0.25105053  1
  O  O397  1  -0.12500000  0.19597873  0.58438386  1
  O  O398  1  -0.12500000  0.19597873  0.91771720  1
  O  O399  1  0.12500000  -0.05402127  0.25105053  1
  O  O400  1  0.12500000  -0.05402127  0.58438386  1
  O  O401  1  0.12500000  -0.05402127  0.91771720  1
  O  O402  1  0.37500000  -0.30402127  0.25105053  1
  O  O403  1  0.37500000  -0.30402127  0.58438386  1
  O  O404  1  0.37500000  -0.30402127  0.91771720  1
  O  O405  1  -0.12500000  -0.30402127  0.25105053  1
  O  O406  1  -0.12500000  -0.30402127  0.58438386  1
  O  O407  1  -0.12500000  -0.30402127  0.91771720  1
  O  O408  1  0.69597873  0.62500000  0.25105053  1
  O  O409  1  0.69597873  0.62500000  0.58438386  1
  O  O410  1  0.69597873  0.62500000  0.91771720  1
  O  O411  1  0.19597873  0.62500000  0.25105053  1
  O  O412  1  0.19597873  0.62500000  0.58438386  1
  O  O413  1  0.19597873  0.62500000  0.91771720  1
  O  O414  1  0.44597873  0.37500000  0.25105053  1
  O  O415  1  0.44597873  0.37500000  0.58438386  1
  O  O416  1  0.44597873  0.37500000  0.91771720  1
  O  O417  1  0.69597873  0.12500000  0.25105053  1
  O  O418  1  0.69597873  0.12500000  0.58438386  1
  O  O419  1  0.69597873  0.12500000  0.91771720  1
  O  O420  1  -0.05402127  0.37500000  0.25105053  1
  O  O421  1  -0.05402127  0.37500000  0.58438386  1
  O  O422  1  -0.05402127  0.37500000  0.91771720  1
  O  O423  1  0.19597873  0.12500000  0.25105053  1
  O  O424  1  0.19597873  0.12500000  0.58438386  1
  O  O425  1  0.19597873  0.12500000  0.91771720  1
  O  O426  1  0.44597873  -0.12500000  0.25105053  1
  O  O427  1  0.44597873  -0.12500000  0.58438386  1
  O  O428  1  0.44597873  -0.12500000  0.91771720  1
  O  O429  1  -0.05402127  -0.12500000  0.25105053  1
  O  O430  1  -0.05402127  -0.12500000  0.58438386  1
  O  O431  1  -0.05402127  -0.12500000  0.91771720  1
