# generated using pymatgen
data_LaNbO4
_symmetry_space_group_name_H-M   'P 1'
_cell_length_a   10.77194273
_cell_length_b   10.77194273
_cell_length_c   11.50365844
_cell_angle_alpha   90.00000000
_cell_angle_beta   90.00000000
_cell_angle_gamma   90.00000000
_symmetry_Int_Tables_number   1
_chemical_formula_structural   LaNbO4
_chemical_formula_sum   'La16 Nb16 O64'
_cell_volume   1334.82413184
_cell_formula_units_Z   16
loop_
 _symmetry_equiv_pos_site_id
 _symmetry_equiv_pos_as_xyz
  1  'x, y, z'
loop_
 _atom_site_type_symbol
 _atom_site_label
 _atom_site_symmetry_multiplicity
 _atom_site_fract_x
 _atom_site_fract_y
 _atom_site_fract_z
 _atom_site_occupancy
  La  La0  1  0.00000000  0.50000000  0.50000000  1
  La  La1  1  0.50000000  0.50000000  0.50000000  1
  La  La2  1  0.00000000  0.00000000  0.50000000  1
  La  La3  1  0.50000000  0.00000000  0.50000000  1
  La  La4  1  0.25000000  0.25000000  1.00000000  1
  La  La5  1  0.75000000  0.25000000  1.00000000  1
  La  La6  1  0.25000000  -0.25000000  1.00000000  1
  La  La7  1  0.75000000  -0.25000000  1.00000000  1
  La  La8  1  0.00000000  0.25000000  0.25000000  1
  La  La9  1  0.50000000  0.25000000  0.25000000  1
  La  La10  1  0.00000000  -0.25000000  0.25000000  1
  La  La11  1  0.50000000  -0.25000000  0.25000000  1
  La  La12  1  0.25000000  0.00000000  0.75000000  1
  La  La13  1  0.75000000  0.00000000  0.75000000  1
  La  La14  1  0.25000000  -0.50000000  0.75000000  1
  La  La15  1  0.75000000  -0.50000000  0.75000000  1
  Nb  Nb16  1  0.00000000  0.50000000  0.00000000  1
  Nb  Nb17  1  0.50000000  0.50000000  0.00000000  1
  Nb  Nb18  1  0.00000000  0.00000000  0.00000000  1
  Nb  Nb19  1  0.50000000  0.00000000  0.00000000  1
  Nb  Nb20  1  0.25000000  0.25000000  0.50000000  1
  Nb  Nb21  1  0.75000000  0.25000000  0.50000000  1
  Nb  Nb22  1  0.25000000  -0.25000000  0.50000000  1
  Nb  Nb23  1  0.75000000  -0.25000000  0.50000000  1
  Nb  Nb24  1  0.25000000  0.50000000  0.25000000  1
  Nb  Nb25  1  0.75000000  0.50000000  0.25000000  1
  Nb  Nb26  1  0.25000000  0.00000000  0.25000000  1
  Nb  Nb27  1  0.75000000  0.00000000  0.25000000  1
  Nb  Nb28  1  0.50000000  0.25000000  0.75000000  1
  Nb  Nb29  1  1.00000000  0.25000000  0.75000000  1
  Nb  Nb30  1  0.50000000  -0.25000000  0.75000000  1
  Nb  Nb31  1  1.00000000  -0.25000000  0.75000000  1
  O  O32  1  0.12204632  0.41661294  -0.08810652  1
  O  O33  1  0.62204632  0.41661294  -0.08810652  1
  O  O34  1  0.12204632  -0.08338706  -0.08810652  1
  O  O35  1  0.62204632  -0.08338706  -0.08810652  1
  O  O36  1  0.37204632  0.16661294  0.41189348  1
  O  O37  1  0.87204632  0.16661294  0.41189348  1
  O  O38  1  0.37204632  -0.33338706  0.41189348  1
  O  O39  1  0.87204632  -0.33338706  0.41189348  1
  O  O40  1  0.08338706  0.37204632  0.66189348  1
  O  O41  1  0.58338706  0.37204632  0.66189348  1
  O  O42  1  0.08338706  -0.12795368  0.66189348  1
  O  O43  1  0.58338706  -0.12795368  0.66189348  1
  O  O44  1  0.33338706  0.12204632  1.16189348  1
  O  O45  1  0.83338706  0.12204632  1.16189348  1
  O  O46  1  0.33338706  -0.37795368  1.16189348  1
  O  O47  1  0.83338706  -0.37795368  1.16189348  1
  O  O48  1  0.16661294  0.37795368  0.16189348  1
  O  O49  1  0.66661294  0.37795368  0.16189348  1
  O  O50  1  0.16661294  -0.12204632  0.16189348  1
  O  O51  1  0.66661294  -0.12204632  0.16189348  1
  O  O52  1  0.41661294  0.12795368  0.66189348  1
  O  O53  1  0.91661294  0.12795368  0.66189348  1
  O  O54  1  0.41661294  -0.37204632  0.66189348  1
  O  O55  1  0.91661294  -0.37204632  0.66189348  1
  O  O56  1  0.12795368  0.33338706  0.41189348  1
  O  O57  1  0.62795368  0.33338706  0.41189348  1
  O  O58  1  0.12795368  -0.16661294  0.41189348  1
  O  O59  1  0.62795368  -0.16661294  0.41189348  1
  O  O60  1  0.37795368  0.08338706  0.91189348  1
  O  O61  1  0.87795368  0.08338706  0.91189348  1
  O  O62  1  0.37795368  -0.41661294  0.91189348  1
  O  O63  1  0.87795368  -0.41661294  0.91189348  1
  O  O64  1  0.12204632  0.16661294  -0.16189348  1
  O  O65  1  0.62204632  0.16661294  -0.16189348  1
  O  O66  1  0.12204632  -0.33338706  -0.16189348  1
  O  O67  1  0.62204632  -0.33338706  -0.16189348  1
  O  O68  1  0.37204632  -0.08338706  0.33810652  1
  O  O69  1  0.87204632  -0.08338706  0.33810652  1
  O  O70  1  0.37204632  -0.58338706  0.33810652  1
  O  O71  1  0.87204632  -0.58338706  0.33810652  1
  O  O72  1  0.08338706  0.12204632  0.08810652  1
  O  O73  1  0.58338706  0.12204632  0.08810652  1
  O  O74  1  0.08338706  -0.37795368  0.08810652  1
  O  O75  1  0.58338706  -0.37795368  0.08810652  1
  O  O76  1  0.33338706  -0.12795368  0.58810652  1
  O  O77  1  0.83338706  -0.12795368  0.58810652  1
  O  O78  1  0.33338706  -0.62795368  0.58810652  1
  O  O79  1  0.83338706  -0.62795368  0.58810652  1
  O  O80  1  0.16661294  0.62795368  0.58810652  1
  O  O81  1  0.66661294  0.62795368  0.58810652  1
  O  O82  1  0.16661294  0.12795368  0.58810652  1
  O  O83  1  0.66661294  0.12795368  0.58810652  1
  O  O84  1  0.41661294  0.37795368  1.08810652  1
  O  O85  1  0.91661294  0.37795368  1.08810652  1
  O  O86  1  0.41661294  -0.12204632  1.08810652  1
  O  O87  1  0.91661294  -0.12204632  1.08810652  1
  O  O88  1  0.12795368  0.58338706  0.33810652  1
  O  O89  1  0.62795368  0.58338706  0.33810652  1
  O  O90  1  0.12795368  0.08338706  0.33810652  1
  O  O91  1  0.62795368  0.08338706  0.33810652  1
  O  O92  1  0.37795368  0.33338706  0.83810652  1
  O  O93  1  0.87795368  0.33338706  0.83810652  1
  O  O94  1  0.37795368  -0.16661294  0.83810652  1
  O  O95  1  0.87795368  -0.16661294  0.83810652  1
