# generated using pymatgen
data_Ba3SrTa2O9
_symmetry_space_group_name_H-M   'P 1'
_cell_length_a   18.18772052
_cell_length_b   18.18772052
_cell_length_c   15.46283810
_cell_angle_alpha   90.00000000
_cell_angle_beta   90.00000000
_cell_angle_gamma   120.00000000
_symmetry_Int_Tables_number   1
_chemical_formula_structural   Ba3SrTa2O9
_chemical_formula_sum   'Ba54 Sr18 Ta36 O162'
_cell_volume   4429.72111228
_cell_formula_units_Z   18
loop_
 _symmetry_equiv_pos_site_id
 _symmetry_equiv_pos_as_xyz
  1  'x, y, z'
loop_
 _atom_site_type_symbol
 _atom_site_label
 _atom_site_symmetry_multiplicity
 _atom_site_fract_x
 _atom_site_fract_y
 _atom_site_fract_z
 _atom_site_occupancy
  Ba  Ba0  1  0.00000000  0.00000000  0.75000000  1
  Ba  Ba1  1  0.00000000  0.33333333  0.75000000  1
  Ba  Ba2  1  0.00000000  0.66666667  0.75000000  1
  Ba  Ba3  1  0.33333333  0.00000000  0.75000000  1
  Ba  Ba4  1  0.33333333  0.33333333  0.75000000  1
  Ba  Ba5  1  0.33333333  0.66666667  0.75000000  1
  Ba  Ba6  1  0.66666667  0.00000000  0.75000000  1
  Ba  Ba7  1  0.66666667  0.33333333  0.75000000  1
  Ba  Ba8  1  0.66666667  0.66666667  0.75000000  1
  Ba  Ba9  1  0.00000000  0.00000000  0.25000000  1
  Ba  Ba10  1  0.00000000  0.33333333  0.25000000  1
  Ba  Ba11  1  0.00000000  0.66666667  0.25000000  1
  Ba  Ba12  1  0.33333333  0.00000000  0.25000000  1
  Ba  Ba13  1  0.33333333  0.33333333  0.25000000  1
  Ba  Ba14  1  0.33333333  0.66666667  0.25000000  1
  Ba  Ba15  1  0.66666667  0.00000000  0.25000000  1
  Ba  Ba16  1  0.66666667  0.33333333  0.25000000  1
  Ba  Ba17  1  0.66666667  0.66666667  0.25000000  1
  Ba  Ba18  1  0.22222222  0.11111111  0.62045506  1
  Ba  Ba19  1  0.22222222  0.44444444  0.62045506  1
  Ba  Ba20  1  0.22222222  0.77777778  0.62045506  1
  Ba  Ba21  1  0.55555556  0.11111111  0.62045506  1
  Ba  Ba22  1  0.55555556  0.44444444  0.62045506  1
  Ba  Ba23  1  0.55555556  0.77777778  0.62045506  1
  Ba  Ba24  1  0.88888889  0.11111111  0.62045506  1
  Ba  Ba25  1  0.88888889  0.44444444  0.62045506  1
  Ba  Ba26  1  0.88888889  0.77777778  0.62045506  1
  Ba  Ba27  1  0.11111111  0.22222222  0.12045506  1
  Ba  Ba28  1  0.11111111  0.55555556  0.12045506  1
  Ba  Ba29  1  0.11111111  0.88888889  0.12045506  1
  Ba  Ba30  1  0.44444444  0.22222222  0.12045506  1
  Ba  Ba31  1  0.44444444  0.55555556  0.12045506  1
  Ba  Ba32  1  0.44444444  0.88888889  0.12045506  1
  Ba  Ba33  1  0.77777778  0.22222222  0.12045506  1
  Ba  Ba34  1  0.77777778  0.55555556  0.12045506  1
  Ba  Ba35  1  0.77777778  0.88888889  0.12045506  1
  Ba  Ba36  1  0.11111111  0.22222222  0.37954494  1
  Ba  Ba37  1  0.11111111  0.55555556  0.37954494  1
  Ba  Ba38  1  0.11111111  0.88888889  0.37954494  1
  Ba  Ba39  1  0.44444444  0.22222222  0.37954494  1
  Ba  Ba40  1  0.44444444  0.55555556  0.37954494  1
  Ba  Ba41  1  0.44444444  0.88888889  0.37954494  1
  Ba  Ba42  1  0.77777778  0.22222222  0.37954494  1
  Ba  Ba43  1  0.77777778  0.55555556  0.37954494  1
  Ba  Ba44  1  0.77777778  0.88888889  0.37954494  1
  Ba  Ba45  1  0.22222222  0.11111111  0.87954494  1
  Ba  Ba46  1  0.22222222  0.44444444  0.87954494  1
  Ba  Ba47  1  0.22222222  0.77777778  0.87954494  1
  Ba  Ba48  1  0.55555556  0.11111111  0.87954494  1
  Ba  Ba49  1  0.55555556  0.44444444  0.87954494  1
  Ba  Ba50  1  0.55555556  0.77777778  0.87954494  1
  Ba  Ba51  1  0.88888889  0.11111111  0.87954494  1
  Ba  Ba52  1  0.88888889  0.44444444  0.87954494  1
  Ba  Ba53  1  0.88888889  0.77777778  0.87954494  1
  Sr  Sr54  1  0.00000000  0.00000000  0.50000000  1
  Sr  Sr55  1  0.00000000  0.33333333  0.50000000  1
  Sr  Sr56  1  0.00000000  0.66666667  0.50000000  1
  Sr  Sr57  1  0.33333333  0.00000000  0.50000000  1
  Sr  Sr58  1  0.33333333  0.33333333  0.50000000  1
  Sr  Sr59  1  0.33333333  0.66666667  0.50000000  1
  Sr  Sr60  1  0.66666667  0.00000000  0.50000000  1
  Sr  Sr61  1  0.66666667  0.33333333  0.50000000  1
  Sr  Sr62  1  0.66666667  0.66666667  0.50000000  1
  Sr  Sr63  1  0.00000000  0.00000000  0.00000000  1
  Sr  Sr64  1  0.00000000  0.33333333  0.00000000  1
  Sr  Sr65  1  0.00000000  0.66666667  0.00000000  1
  Sr  Sr66  1  0.33333333  0.00000000  0.00000000  1
  Sr  Sr67  1  0.33333333  0.33333333  0.00000000  1
  Sr  Sr68  1  0.33333333  0.66666667  0.00000000  1
  Sr  Sr69  1  0.66666667  0.00000000  0.00000000  1
  Sr  Sr70  1  0.66666667  0.33333333  0.00000000  1
  Sr  Sr71  1  0.66666667  0.66666667  0.00000000  1
  Ta  Ta72  1  0.22222222  0.11111111  0.34507655  1
  Ta  Ta73  1  0.22222222  0.44444444  0.34507655  1
  Ta  Ta74  1  0.22222222  0.77777778  0.34507655  1
  Ta  Ta75  1  0.55555556  0.11111111  0.34507655  1
  Ta  Ta76  1  0.55555556  0.44444444  0.34507655  1
  Ta  Ta77  1  0.55555556  0.77777778  0.34507655  1
  Ta  Ta78  1  0.88888889  0.11111111  0.34507655  1
  Ta  Ta79  1  0.88888889  0.44444444  0.34507655  1
  Ta  Ta80  1  0.88888889  0.77777778  0.34507655  1
  Ta  Ta81  1  0.11111111  0.22222222  0.84507655  1
  Ta  Ta82  1  0.11111111  0.55555556  0.84507655  1
  Ta  Ta83  1  0.11111111  0.88888889  0.84507655  1
  Ta  Ta84  1  0.44444444  0.22222222  0.84507655  1
  Ta  Ta85  1  0.44444444  0.55555556  0.84507655  1
  Ta  Ta86  1  0.44444444  0.88888889  0.84507655  1
  Ta  Ta87  1  0.77777778  0.22222222  0.84507655  1
  Ta  Ta88  1  0.77777778  0.55555556  0.84507655  1
  Ta  Ta89  1  0.77777778  0.88888889  0.84507655  1
  Ta  Ta90  1  0.11111111  0.22222222  0.65492345  1
  Ta  Ta91  1  0.11111111  0.55555556  0.65492345  1
  Ta  Ta92  1  0.11111111  0.88888889  0.65492345  1
  Ta  Ta93  1  0.44444444  0.22222222  0.65492345  1
  Ta  Ta94  1  0.44444444  0.55555556  0.65492345  1
  Ta  Ta95  1  0.44444444  0.88888889  0.65492345  1
  Ta  Ta96  1  0.77777778  0.22222222  0.65492345  1
  Ta  Ta97  1  0.77777778  0.55555556  0.65492345  1
  Ta  Ta98  1  0.77777778  0.88888889  0.65492345  1
  Ta  Ta99  1  0.22222222  0.11111111  0.15492345  1
  Ta  Ta100  1  0.22222222  0.44444444  0.15492345  1
  Ta  Ta101  1  0.22222222  0.77777778  0.15492345  1
  Ta  Ta102  1  0.55555556  0.11111111  0.15492345  1
  Ta  Ta103  1  0.55555556  0.44444444  0.15492345  1
  Ta  Ta104  1  0.55555556  0.77777778  0.15492345  1
  Ta  Ta105  1  0.88888889  0.11111111  0.15492345  1
  Ta  Ta106  1  0.88888889  0.44444444  0.15492345  1
  Ta  Ta107  1  0.88888889  0.77777778  0.15492345  1
  O  O108  1  0.01460961  0.15844606  0.75000000  1
  O  O109  1  0.01460961  0.49177939  0.75000000  1
  O  O110  1  0.01460961  0.82511272  0.75000000  1
  O  O111  1  0.34794295  0.15844606  0.75000000  1
  O  O112  1  0.34794295  0.49177939  0.75000000  1
  O  O113  1  0.34794295  0.82511272  0.75000000  1
  O  O114  1  0.68127628  0.15844606  0.75000000  1
  O  O115  1  0.68127628  0.49177939  0.75000000  1
  O  O116  1  0.68127628  0.82511272  0.75000000  1
  O  O117  1  0.18949689  0.01460961  0.25000000  1
  O  O118  1  0.18949689  0.34794295  0.25000000  1
  O  O119  1  0.18949689  0.68127628  0.25000000  1
  O  O120  1  0.52283022  0.01460961  0.25000000  1
  O  O121  1  0.52283022  0.34794295  0.25000000  1
  O  O122  1  0.52283022  0.68127628  0.25000000  1
  O  O123  1  0.85616356  0.01460961  0.25000000  1
  O  O124  1  0.85616356  0.34794295  0.25000000  1
  O  O125  1  0.85616356  0.68127628  0.25000000  1
  O  O126  1  0.15844606  0.14383644  0.25000000  1
  O  O127  1  0.15844606  0.47716978  0.25000000  1
  O  O128  1  0.15844606  0.81050311  0.25000000  1
  O  O129  1  0.49177939  0.14383644  0.25000000  1
  O  O130  1  0.49177939  0.47716978  0.25000000  1
  O  O131  1  0.49177939  0.81050311  0.25000000  1
  O  O132  1  0.82511272  0.14383644  0.25000000  1
  O  O133  1  0.82511272  0.47716978  0.25000000  1
  O  O134  1  0.82511272  0.81050311  0.25000000  1
  O  O135  1  0.17488728  0.18949689  0.75000000  1
  O  O136  1  0.17488728  0.52283022  0.75000000  1
  O  O137  1  0.17488728  0.85616356  0.75000000  1
  O  O138  1  0.50822061  0.18949689  0.75000000  1
  O  O139  1  0.50822061  0.52283022  0.75000000  1
  O  O140  1  0.50822061  0.85616356  0.75000000  1
  O  O141  1  0.84155394  0.18949689  0.75000000  1
  O  O142  1  0.84155394  0.52283022  0.75000000  1
  O  O143  1  0.84155394  0.85616356  0.75000000  1
  O  O144  1  0.14383644  0.31872372  0.75000000  1
  O  O145  1  0.14383644  0.65205705  0.75000000  1
  O  O146  1  0.14383644  0.98539039  0.75000000  1
  O  O147  1  0.47716978  0.31872372  0.75000000  1
  O  O148  1  0.47716978  0.65205705  0.75000000  1
  O  O149  1  0.47716978  0.98539039  0.75000000  1
  O  O150  1  0.81050311  0.31872372  0.75000000  1
  O  O151  1  0.81050311  0.65205705  0.75000000  1
  O  O152  1  0.81050311  0.98539039  0.75000000  1
  O  O153  1  0.31872372  0.17488728  0.25000000  1
  O  O154  1  0.31872372  0.50822061  0.25000000  1
  O  O155  1  0.31872372  0.84155394  0.25000000  1
  O  O156  1  0.65205705  0.17488728  0.25000000  1
  O  O157  1  0.65205705  0.50822061  0.25000000  1
  O  O158  1  0.65205705  0.84155394  0.25000000  1
  O  O159  1  0.98539039  0.17488728  0.25000000  1
  O  O160  1  0.98539039  0.50822061  0.25000000  1
  O  O161  1  0.98539039  0.84155394  0.25000000  1
  O  O162  1  0.21581299  0.29569646  0.59892926  1
  O  O163  1  0.21581299  0.62902979  0.59892926  1
  O  O164  1  0.21581299  0.96236312  0.59892926  1
  O  O165  1  0.54914632  0.29569646  0.59892926  1
  O  O166  1  0.54914632  0.62902979  0.59892926  1
  O  O167  1  0.54914632  0.96236312  0.59892926  1
  O  O168  1  0.88247965  0.29569646  0.59892926  1
  O  O169  1  0.88247965  0.62902979  0.59892926  1
  O  O170  1  0.88247965  0.96236312  0.59892926  1
  O  O171  1  0.25344986  0.21581299  0.09892926  1
  O  O172  1  0.25344986  0.54914632  0.09892926  1
  O  O173  1  0.25344986  0.88247965  0.09892926  1
  O  O174  1  0.58678320  0.21581299  0.09892926  1
  O  O175  1  0.58678320  0.54914632  0.09892926  1
  O  O176  1  0.58678320  0.88247965  0.09892926  1
  O  O177  1  0.92011653  0.21581299  0.09892926  1
  O  O178  1  0.92011653  0.54914632  0.09892926  1
  O  O179  1  0.92011653  0.88247965  0.09892926  1
  O  O180  1  0.29569646  0.07988347  0.09892926  1
  O  O181  1  0.29569646  0.41321680  0.09892926  1
  O  O182  1  0.29569646  0.74655014  0.09892926  1
  O  O183  1  0.62902979  0.07988347  0.09892926  1
  O  O184  1  0.62902979  0.41321680  0.09892926  1
  O  O185  1  0.62902979  0.74655014  0.09892926  1
  O  O186  1  0.96236312  0.07988347  0.09892926  1
  O  O187  1  0.96236312  0.41321680  0.09892926  1
  O  O188  1  0.96236312  0.74655014  0.09892926  1
  O  O189  1  0.03763688  0.25344986  0.59892926  1
  O  O190  1  0.03763688  0.58678320  0.59892926  1
  O  O191  1  0.03763688  0.92011653  0.59892926  1
  O  O192  1  0.37097021  0.25344986  0.59892926  1
  O  O193  1  0.37097021  0.58678320  0.59892926  1
  O  O194  1  0.37097021  0.92011653  0.59892926  1
  O  O195  1  0.70430354  0.25344986  0.59892926  1
  O  O196  1  0.70430354  0.58678320  0.59892926  1
  O  O197  1  0.70430354  0.92011653  0.59892926  1
  O  O198  1  0.07988347  0.11752035  0.59892926  1
  O  O199  1  0.07988347  0.45085368  0.59892926  1
  O  O200  1  0.07988347  0.78418701  0.59892926  1
  O  O201  1  0.41321680  0.11752035  0.59892926  1
  O  O202  1  0.41321680  0.45085368  0.59892926  1
  O  O203  1  0.41321680  0.78418701  0.59892926  1
  O  O204  1  0.74655014  0.11752035  0.59892926  1
  O  O205  1  0.74655014  0.45085368  0.59892926  1
  O  O206  1  0.74655014  0.78418701  0.59892926  1
  O  O207  1  0.11752035  0.03763688  0.09892926  1
  O  O208  1  0.11752035  0.37097021  0.09892926  1
  O  O209  1  0.11752035  0.70430354  0.09892926  1
  O  O210  1  0.45085368  0.03763688  0.09892926  1
  O  O211  1  0.45085368  0.37097021  0.09892926  1
  O  O212  1  0.45085368  0.70430354  0.09892926  1
  O  O213  1  0.78418701  0.03763688  0.09892926  1
  O  O214  1  0.78418701  0.37097021  0.09892926  1
  O  O215  1  0.78418701  0.70430354  0.09892926  1
  O  O216  1  0.11752035  0.03763688  0.40107074  1
  O  O217  1  0.11752035  0.37097021  0.40107074  1
  O  O218  1  0.11752035  0.70430354  0.40107074  1
  O  O219  1  0.45085368  0.03763688  0.40107074  1
  O  O220  1  0.45085368  0.37097021  0.40107074  1
  O  O221  1  0.45085368  0.70430354  0.40107074  1
  O  O222  1  0.78418701  0.03763688  0.40107074  1
  O  O223  1  0.78418701  0.37097021  0.40107074  1
  O  O224  1  0.78418701  0.70430354  0.40107074  1
  O  O225  1  0.07988347  0.11752035  0.90107074  1
  O  O226  1  0.07988347  0.45085368  0.90107074  1
  O  O227  1  0.07988347  0.78418701  0.90107074  1
  O  O228  1  0.41321680  0.11752035  0.90107074  1
  O  O229  1  0.41321680  0.45085368  0.90107074  1
  O  O230  1  0.41321680  0.78418701  0.90107074  1
  O  O231  1  0.74655014  0.11752035  0.90107074  1
  O  O232  1  0.74655014  0.45085368  0.90107074  1
  O  O233  1  0.74655014  0.78418701  0.90107074  1
  O  O234  1  0.03763688  0.25344986  0.90107074  1
  O  O235  1  0.03763688  0.58678320  0.90107074  1
  O  O236  1  0.03763688  0.92011653  0.90107074  1
  O  O237  1  0.37097021  0.25344986  0.90107074  1
  O  O238  1  0.37097021  0.58678320  0.90107074  1
  O  O239  1  0.37097021  0.92011653  0.90107074  1
  O  O240  1  0.70430354  0.25344986  0.90107074  1
  O  O241  1  0.70430354  0.58678320  0.90107074  1
  O  O242  1  0.70430354  0.92011653  0.90107074  1
  O  O243  1  0.29569646  0.07988347  0.40107074  1
  O  O244  1  0.29569646  0.41321680  0.40107074  1
  O  O245  1  0.29569646  0.74655014  0.40107074  1
  O  O246  1  0.62902979  0.07988347  0.40107074  1
  O  O247  1  0.62902979  0.41321680  0.40107074  1
  O  O248  1  0.62902979  0.74655014  0.40107074  1
  O  O249  1  0.96236312  0.07988347  0.40107074  1
  O  O250  1  0.96236312  0.41321680  0.40107074  1
  O  O251  1  0.96236312  0.74655014  0.40107074  1
  O  O252  1  0.25344986  0.21581299  0.40107074  1
  O  O253  1  0.25344986  0.54914632  0.40107074  1
  O  O254  1  0.25344986  0.88247965  0.40107074  1
  O  O255  1  0.58678320  0.21581299  0.40107074  1
  O  O256  1  0.58678320  0.54914632  0.40107074  1
  O  O257  1  0.58678320  0.88247965  0.40107074  1
  O  O258  1  0.92011653  0.21581299  0.40107074  1
  O  O259  1  0.92011653  0.54914632  0.40107074  1
  O  O260  1  0.92011653  0.88247965  0.40107074  1
  O  O261  1  0.21581299  0.29569646  0.90107074  1
  O  O262  1  0.21581299  0.62902979  0.90107074  1
  O  O263  1  0.21581299  0.96236312  0.90107074  1
  O  O264  1  0.54914632  0.29569646  0.90107074  1
  O  O265  1  0.54914632  0.62902979  0.90107074  1
  O  O266  1  0.54914632  0.96236312  0.90107074  1
  O  O267  1  0.88247965  0.29569646  0.90107074  1
  O  O268  1  0.88247965  0.62902979  0.90107074  1
  O  O269  1  0.88247965  0.96236312  0.90107074  1
