# generated using pymatgen
data_Ga4GeO8
_symmetry_space_group_name_H-M   'P 1'
_cell_length_a   12.23660996
_cell_length_b   12.08064520
_cell_length_c   9.42429968
_cell_angle_alpha   90.00000000
_cell_angle_beta   124.83344215
_cell_angle_gamma   90.00000000
_symmetry_Int_Tables_number   1
_chemical_formula_structural   Ga4GeO8
_chemical_formula_sum   'Ga32 Ge8 O64'
_cell_volume   1143.52621609
_cell_formula_units_Z   8
loop_
 _symmetry_equiv_pos_site_id
 _symmetry_equiv_pos_as_xyz
  1  'x, y, z'
loop_
 _atom_site_type_symbol
 _atom_site_label
 _atom_site_symmetry_multiplicity
 _atom_site_fract_x
 _atom_site_fract_y
 _atom_site_fract_z
 _atom_site_occupancy
  Ga  Ga0  1  0.53639725  0.00000000  0.71549737  1
  Ga  Ga1  1  0.53639725  0.25000000  0.71549737  1
  Ga  Ga2  1  0.53639725  0.50000000  0.71549737  1
  Ga  Ga3  1  0.53639725  0.75000000  0.71549737  1
  Ga  Ga4  1  1.03639725  0.12500000  0.71549737  1
  Ga  Ga5  1  1.03639725  0.37500000  0.71549737  1
  Ga  Ga6  1  1.03639725  0.62500000  0.71549737  1
  Ga  Ga7  1  1.03639725  0.87500000  0.71549737  1
  Ga  Ga8  1  0.46360275  0.00000000  0.28450263  1
  Ga  Ga9  1  0.46360275  0.25000000  0.28450263  1
  Ga  Ga10  1  0.46360275  0.50000000  0.28450263  1
  Ga  Ga11  1  0.46360275  0.75000000  0.28450263  1
  Ga  Ga12  1  0.96360275  0.12500000  0.28450263  1
  Ga  Ga13  1  0.96360275  0.37500000  0.28450263  1
  Ga  Ga14  1  0.96360275  0.62500000  0.28450263  1
  Ga  Ga15  1  0.96360275  0.87500000  0.28450263  1
  Ga  Ga16  1  0.24154918  0.00000000  0.63913965  1
  Ga  Ga17  1  0.24154918  0.25000000  0.63913965  1
  Ga  Ga18  1  0.24154918  0.50000000  0.63913965  1
  Ga  Ga19  1  0.24154918  0.75000000  0.63913965  1
  Ga  Ga20  1  0.74154918  0.12500000  0.63913965  1
  Ga  Ga21  1  0.74154918  0.37500000  0.63913965  1
  Ga  Ga22  1  0.74154918  0.62500000  0.63913965  1
  Ga  Ga23  1  0.74154918  0.87500000  0.63913965  1
  Ga  Ga24  1  0.75845082  0.00000000  0.36086035  1
  Ga  Ga25  1  0.75845082  0.25000000  0.36086035  1
  Ga  Ga26  1  0.75845082  0.50000000  0.36086035  1
  Ga  Ga27  1  0.75845082  0.75000000  0.36086035  1
  Ga  Ga28  1  1.25845082  0.12500000  0.36086035  1
  Ga  Ga29  1  1.25845082  0.37500000  0.36086035  1
  Ga  Ga30  1  1.25845082  0.62500000  0.36086035  1
  Ga  Ga31  1  1.25845082  0.87500000  0.36086035  1
  Ge  Ge32  1  0.00000000  0.00000000  0.00000000  1
  Ge  Ge33  1  0.00000000  0.25000000  0.00000000  1
  Ge  Ge34  1  0.00000000  0.50000000  0.00000000  1
  Ge  Ge35  1  0.00000000  0.75000000  0.00000000  1
  Ge  Ge36  1  0.50000000  0.12500000  0.00000000  1
  Ge  Ge37  1  0.50000000  0.37500000  0.00000000  1
  Ge  Ge38  1  0.50000000  0.62500000  0.00000000  1
  Ge  Ge39  1  0.50000000  0.87500000  0.00000000  1
  O  O40  1  0.10979320  0.00000000  0.69431455  1
  O  O41  1  0.10979320  0.25000000  0.69431455  1
  O  O42  1  0.10979320  0.50000000  0.69431455  1
  O  O43  1  0.10979320  0.75000000  0.69431455  1
  O  O44  1  0.60979320  0.12500000  0.69431455  1
  O  O45  1  0.60979320  0.37500000  0.69431455  1
  O  O46  1  0.60979320  0.62500000  0.69431455  1
  O  O47  1  0.60979320  0.87500000  0.69431455  1
  O  O48  1  0.89020680  0.00000000  0.30568545  1
  O  O49  1  0.89020680  0.25000000  0.30568545  1
  O  O50  1  0.89020680  0.50000000  0.30568545  1
  O  O51  1  0.89020680  0.75000000  0.30568545  1
  O  O52  1  1.39020680  0.12500000  0.30568545  1
  O  O53  1  1.39020680  0.37500000  0.30568545  1
  O  O54  1  1.39020680  0.62500000  0.30568545  1
  O  O55  1  1.39020680  0.87500000  0.30568545  1
  O  O56  1  0.56002072  0.00000000  0.92774067  1
  O  O57  1  0.56002072  0.25000000  0.92774067  1
  O  O58  1  0.56002072  0.50000000  0.92774067  1
  O  O59  1  0.56002072  0.75000000  0.92774067  1
  O  O60  1  1.06002072  0.12500000  0.92774067  1
  O  O61  1  1.06002072  0.37500000  0.92774067  1
  O  O62  1  1.06002072  0.62500000  0.92774067  1
  O  O63  1  1.06002072  0.87500000  0.92774067  1
  O  O64  1  0.43997928  0.00000000  0.07225933  1
  O  O65  1  0.43997928  0.25000000  0.07225933  1
  O  O66  1  0.43997928  0.50000000  0.07225933  1
  O  O67  1  0.43997928  0.75000000  0.07225933  1
  O  O68  1  0.93997928  0.12500000  0.07225933  1
  O  O69  1  0.93997928  0.37500000  0.07225933  1
  O  O70  1  0.93997928  0.62500000  0.07225933  1
  O  O71  1  0.93997928  0.87500000  0.07225933  1
  O  O72  1  0.35381223  -0.00000000  0.53712296  1
  O  O73  1  0.35381223  0.25000000  0.53712296  1
  O  O74  1  0.35381223  0.50000000  0.53712296  1
  O  O75  1  0.35381223  0.75000000  0.53712296  1
  O  O76  1  0.85381223  0.12500000  0.53712296  1
  O  O77  1  0.85381223  0.37500000  0.53712296  1
  O  O78  1  0.85381223  0.62500000  0.53712296  1
  O  O79  1  0.85381223  0.87500000  0.53712296  1
  O  O80  1  0.16126897  0.00000000  0.21707471  1
  O  O81  1  0.16126897  0.25000000  0.21707471  1
  O  O82  1  0.16126897  0.50000000  0.21707471  1
  O  O83  1  0.16126897  0.75000000  0.21707471  1
  O  O84  1  0.66126897  0.12500000  0.21707471  1
  O  O85  1  0.66126897  0.37500000  0.21707471  1
  O  O86  1  0.66126897  0.62500000  0.21707471  1
  O  O87  1  0.66126897  0.87500000  0.21707471  1
  O  O88  1  0.83873103  0.00000000  0.78292529  1
  O  O89  1  0.83873103  0.25000000  0.78292529  1
  O  O90  1  0.83873103  0.50000000  0.78292529  1
  O  O91  1  0.83873103  0.75000000  0.78292529  1
  O  O92  1  1.33873103  0.12500000  0.78292529  1
  O  O93  1  1.33873103  0.37500000  0.78292529  1
  O  O94  1  1.33873103  0.62500000  0.78292529  1
  O  O95  1  1.33873103  0.87500000  0.78292529  1
  O  O96  1  0.64618777  0.00000000  0.46287704  1
  O  O97  1  0.64618777  0.25000000  0.46287704  1
  O  O98  1  0.64618777  0.50000000  0.46287704  1
  O  O99  1  0.64618777  0.75000000  0.46287704  1
  O  O100  1  1.14618777  0.12500000  0.46287704  1
  O  O101  1  1.14618777  0.37500000  0.46287704  1
  O  O102  1  1.14618777  0.62500000  0.46287704  1
  O  O103  1  1.14618777  0.87500000  0.46287704  1
