# generated using pymatgen
data_Cs3As5O9
_symmetry_space_group_name_H-M   'P 1'
_cell_length_a   16.92786545
_cell_length_b   16.92786545
_cell_length_c   18.22748977
_cell_angle_alpha   90.00000000
_cell_angle_beta   90.00000000
_cell_angle_gamma   120.00000000
_symmetry_Int_Tables_number   1
_chemical_formula_structural   Cs3As5O9
_chemical_formula_sum   'Cs36 As60 O108'
_cell_volume   4523.36769164
_cell_formula_units_Z   12
loop_
 _symmetry_equiv_pos_site_id
 _symmetry_equiv_pos_as_xyz
  1  'x, y, z'
loop_
 _atom_site_type_symbol
 _atom_site_label
 _atom_site_symmetry_multiplicity
 _atom_site_fract_x
 _atom_site_fract_y
 _atom_site_fract_z
 _atom_site_occupancy
  Cs  Cs0  1  0.31272835  0.31272835  0.33311346  1
  Cs  Cs1  1  0.31272835  0.31272835  0.66644680  1
  Cs  Cs2  1  0.31272835  0.31272835  0.99978013  1
  Cs  Cs3  1  0.31272835  0.81272835  0.33311346  1
  Cs  Cs4  1  0.31272835  0.81272835  0.66644680  1
  Cs  Cs5  1  0.31272835  0.81272835  0.99978013  1
  Cs  Cs6  1  0.81272835  0.31272835  0.33311346  1
  Cs  Cs7  1  0.81272835  0.31272835  0.66644680  1
  Cs  Cs8  1  0.81272835  0.31272835  0.99978013  1
  Cs  Cs9  1  0.81272835  0.81272835  0.33311346  1
  Cs  Cs10  1  0.81272835  0.81272835  0.66644680  1
  Cs  Cs11  1  0.81272835  0.81272835  0.99978013  1
  Cs  Cs12  1  0.00000000  0.18727165  0.33311346  1
  Cs  Cs13  1  0.00000000  0.18727165  0.66644680  1
  Cs  Cs14  1  0.00000000  0.18727165  0.99978013  1
  Cs  Cs15  1  -0.00000000  0.68727165  0.33311346  1
  Cs  Cs16  1  -0.00000000  0.68727165  0.66644680  1
  Cs  Cs17  1  -0.00000000  0.68727165  0.99978013  1
  Cs  Cs18  1  0.50000000  0.18727165  0.33311346  1
  Cs  Cs19  1  0.50000000  0.18727165  0.66644680  1
  Cs  Cs20  1  0.50000000  0.18727165  0.99978013  1
  Cs  Cs21  1  0.50000000  0.68727165  0.33311346  1
  Cs  Cs22  1  0.50000000  0.68727165  0.66644680  1
  Cs  Cs23  1  0.50000000  0.68727165  0.99978013  1
  Cs  Cs24  1  0.18727165  0.00000000  0.33311346  1
  Cs  Cs25  1  0.18727165  0.00000000  0.66644680  1
  Cs  Cs26  1  0.18727165  0.00000000  0.99978013  1
  Cs  Cs27  1  0.18727165  0.50000000  0.33311346  1
  Cs  Cs28  1  0.18727165  0.50000000  0.66644680  1
  Cs  Cs29  1  0.18727165  0.50000000  0.99978013  1
  Cs  Cs30  1  0.68727165  0.00000000  0.33311346  1
  Cs  Cs31  1  0.68727165  0.00000000  0.66644680  1
  Cs  Cs32  1  0.68727165  0.00000000  0.99978013  1
  Cs  Cs33  1  0.68727165  0.50000000  0.33311346  1
  Cs  Cs34  1  0.68727165  0.50000000  0.66644680  1
  Cs  Cs35  1  0.68727165  0.50000000  0.99978013  1
  As  As36  1  0.33333333  0.16666667  0.15647157  1
  As  As37  1  0.33333333  0.16666667  0.48980491  1
  As  As38  1  0.33333333  0.16666667  0.82313824  1
  As  As39  1  0.33333333  0.66666667  0.15647157  1
  As  As40  1  0.33333333  0.66666667  0.48980491  1
  As  As41  1  0.33333333  0.66666667  0.82313824  1
  As  As42  1  0.83333333  0.16666667  0.15647157  1
  As  As43  1  0.83333333  0.16666667  0.48980491  1
  As  As44  1  0.83333333  0.16666667  0.82313824  1
  As  As45  1  0.83333333  0.66666667  0.15647157  1
  As  As46  1  0.83333333  0.66666667  0.48980491  1
  As  As47  1  0.83333333  0.66666667  0.82313824  1
  As  As48  1  0.16666667  0.33333333  0.15647157  1
  As  As49  1  0.16666667  0.33333333  0.48980491  1
  As  As50  1  0.16666667  0.33333333  0.82313824  1
  As  As51  1  0.16666667  0.83333333  0.15647157  1
  As  As52  1  0.16666667  0.83333333  0.48980491  1
  As  As53  1  0.16666667  0.83333333  0.82313824  1
  As  As54  1  0.66666667  0.33333333  0.15647157  1
  As  As55  1  0.66666667  0.33333333  0.48980491  1
  As  As56  1  0.66666667  0.33333333  0.82313824  1
  As  As57  1  0.66666667  0.83333333  0.15647157  1
  As  As58  1  0.66666667  0.83333333  0.48980491  1
  As  As59  1  0.66666667  0.83333333  0.82313824  1
  As  As60  1  0.12639727  0.12639727  0.16574330  1
  As  As61  1  0.12639727  0.12639727  0.49907664  1
  As  As62  1  0.12639727  0.12639727  0.83240997  1
  As  As63  1  0.12639727  0.62639727  0.16574330  1
  As  As64  1  0.12639727  0.62639727  0.49907664  1
  As  As65  1  0.12639727  0.62639727  0.83240997  1
  As  As66  1  0.62639727  0.12639727  0.16574330  1
  As  As67  1  0.62639727  0.12639727  0.49907664  1
  As  As68  1  0.62639727  0.12639727  0.83240997  1
  As  As69  1  0.62639727  0.62639727  0.16574330  1
  As  As70  1  0.62639727  0.62639727  0.49907664  1
  As  As71  1  0.62639727  0.62639727  0.83240997  1
  As  As72  1  0.00000000  0.37360273  0.16574330  1
  As  As73  1  0.00000000  0.37360273  0.49907664  1
  As  As74  1  0.00000000  0.37360273  0.83240997  1
  As  As75  1  0.00000000  0.87360273  0.16574330  1
  As  As76  1  0.00000000  0.87360273  0.49907664  1
  As  As77  1  0.00000000  0.87360273  0.83240997  1
  As  As78  1  0.50000000  0.37360273  0.16574330  1
  As  As79  1  0.50000000  0.37360273  0.49907664  1
  As  As80  1  0.50000000  0.37360273  0.83240997  1
  As  As81  1  0.50000000  0.87360273  0.16574330  1
  As  As82  1  0.50000000  0.87360273  0.49907664  1
  As  As83  1  0.50000000  0.87360273  0.83240997  1
  As  As84  1  0.37360273  0.00000000  0.16574330  1
  As  As85  1  0.37360273  0.00000000  0.49907664  1
  As  As86  1  0.37360273  0.00000000  0.83240997  1
  As  As87  1  0.37360273  0.50000000  0.16574330  1
  As  As88  1  0.37360273  0.50000000  0.49907664  1
  As  As89  1  0.37360273  0.50000000  0.83240997  1
  As  As90  1  0.87360273  0.00000000  0.16574330  1
  As  As91  1  0.87360273  0.00000000  0.49907664  1
  As  As92  1  0.87360273  0.00000000  0.83240997  1
  As  As93  1  0.87360273  0.50000000  0.16574330  1
  As  As94  1  0.87360273  0.50000000  0.49907664  1
  As  As95  1  0.87360273  0.50000000  0.83240997  1
  O  O96  1  0.36277978  0.09462830  0.20927181  1
  O  O97  1  0.36277978  0.09462830  0.54260514  1
  O  O98  1  0.36277978  0.09462830  0.87593848  1
  O  O99  1  0.36277978  0.59462830  0.20927181  1
  O  O100  1  0.36277978  0.59462830  0.54260514  1
  O  O101  1  0.36277978  0.59462830  0.87593848  1
  O  O102  1  0.86277978  0.09462830  0.20927181  1
  O  O103  1  0.86277978  0.09462830  0.54260514  1
  O  O104  1  0.86277978  0.09462830  0.87593848  1
  O  O105  1  0.86277978  0.59462830  0.20927181  1
  O  O106  1  0.86277978  0.59462830  0.54260514  1
  O  O107  1  0.86277978  0.59462830  0.87593848  1
  O  O108  1  0.40537170  0.26815148  0.20927181  1
  O  O109  1  0.40537170  0.26815148  0.54260514  1
  O  O110  1  0.40537170  0.26815148  0.87593848  1
  O  O111  1  0.40537170  0.76815148  0.20927181  1
  O  O112  1  0.40537170  0.76815148  0.54260514  1
  O  O113  1  0.40537170  0.76815148  0.87593848  1
  O  O114  1  0.90537170  0.26815148  0.20927181  1
  O  O115  1  0.90537170  0.26815148  0.54260514  1
  O  O116  1  0.90537170  0.26815148  0.87593848  1
  O  O117  1  0.90537170  0.76815148  0.20927181  1
  O  O118  1  0.90537170  0.76815148  0.54260514  1
  O  O119  1  0.90537170  0.76815148  0.87593848  1
  O  O120  1  0.23184852  0.13722022  0.20927181  1
  O  O121  1  0.23184852  0.13722022  0.54260514  1
  O  O122  1  0.23184852  0.13722022  0.87593848  1
  O  O123  1  0.23184852  0.63722022  0.20927181  1
  O  O124  1  0.23184852  0.63722022  0.54260514  1
  O  O125  1  0.23184852  0.63722022  0.87593848  1
  O  O126  1  0.73184852  0.13722022  0.20927181  1
  O  O127  1  0.73184852  0.13722022  0.54260514  1
  O  O128  1  0.73184852  0.13722022  0.87593848  1
  O  O129  1  0.73184852  0.63722022  0.20927181  1
  O  O130  1  0.73184852  0.63722022  0.54260514  1
  O  O131  1  0.73184852  0.63722022  0.87593848  1
  O  O132  1  0.09462830  0.36277978  0.20927181  1
  O  O133  1  0.09462830  0.36277978  0.54260514  1
  O  O134  1  0.09462830  0.36277978  0.87593848  1
  O  O135  1  0.09462830  0.86277978  0.20927181  1
  O  O136  1  0.09462830  0.86277978  0.54260514  1
  O  O137  1  0.09462830  0.86277978  0.87593848  1
  O  O138  1  0.59462830  0.36277978  0.20927181  1
  O  O139  1  0.59462830  0.36277978  0.54260514  1
  O  O140  1  0.59462830  0.36277978  0.87593848  1
  O  O141  1  0.59462830  0.86277978  0.20927181  1
  O  O142  1  0.59462830  0.86277978  0.54260514  1
  O  O143  1  0.59462830  0.86277978  0.87593848  1
  O  O144  1  0.26815148  0.40537170  0.20927181  1
  O  O145  1  0.26815148  0.40537170  0.54260514  1
  O  O146  1  0.26815148  0.40537170  0.87593848  1
  O  O147  1  0.26815148  0.90537170  0.20927181  1
  O  O148  1  0.26815148  0.90537170  0.54260514  1
  O  O149  1  0.26815148  0.90537170  0.87593848  1
  O  O150  1  0.76815148  0.40537170  0.20927181  1
  O  O151  1  0.76815148  0.40537170  0.54260514  1
  O  O152  1  0.76815148  0.40537170  0.87593848  1
  O  O153  1  0.76815148  0.90537170  0.20927181  1
  O  O154  1  0.76815148  0.90537170  0.54260514  1
  O  O155  1  0.76815148  0.90537170  0.87593848  1
  O  O156  1  0.13722022  0.23184852  0.20927181  1
  O  O157  1  0.13722022  0.23184852  0.54260514  1
  O  O158  1  0.13722022  0.23184852  0.87593848  1
  O  O159  1  0.13722022  0.73184852  0.20927181  1
  O  O160  1  0.13722022  0.73184852  0.54260514  1
  O  O161  1  0.13722022  0.73184852  0.87593848  1
  O  O162  1  0.63722022  0.23184852  0.20927181  1
  O  O163  1  0.63722022  0.23184852  0.54260514  1
  O  O164  1  0.63722022  0.23184852  0.87593848  1
  O  O165  1  0.63722022  0.73184852  0.20927181  1
  O  O166  1  0.63722022  0.73184852  0.54260514  1
  O  O167  1  0.63722022  0.73184852  0.87593848  1
  O  O168  1  0.15922954  0.15922954  0.07740745  1
  O  O169  1  0.15922954  0.15922954  0.41074079  1
  O  O170  1  0.15922954  0.15922954  0.74407412  1
  O  O171  1  0.15922954  0.65922954  0.07740745  1
  O  O172  1  0.15922954  0.65922954  0.41074079  1
  O  O173  1  0.15922954  0.65922954  0.74407412  1
  O  O174  1  0.65922954  0.15922954  0.07740745  1
  O  O175  1  0.65922954  0.15922954  0.41074079  1
  O  O176  1  0.65922954  0.15922954  0.74407412  1
  O  O177  1  0.65922954  0.65922954  0.07740745  1
  O  O178  1  0.65922954  0.65922954  0.41074079  1
  O  O179  1  0.65922954  0.65922954  0.74407412  1
  O  O180  1  -0.00000000  0.34077046  0.07740745  1
  O  O181  1  -0.00000000  0.34077046  0.41074079  1
  O  O182  1  -0.00000000  0.34077046  0.74407412  1
  O  O183  1  0.00000000  0.84077046  0.07740745  1
  O  O184  1  0.00000000  0.84077046  0.41074079  1
  O  O185  1  0.00000000  0.84077046  0.74407412  1
  O  O186  1  0.50000000  0.34077046  0.07740745  1
  O  O187  1  0.50000000  0.34077046  0.41074079  1
  O  O188  1  0.50000000  0.34077046  0.74407412  1
  O  O189  1  0.50000000  0.84077046  0.07740745  1
  O  O190  1  0.50000000  0.84077046  0.41074079  1
  O  O191  1  0.50000000  0.84077046  0.74407412  1
  O  O192  1  0.34077046  0.00000000  0.07740745  1
  O  O193  1  0.34077046  0.00000000  0.41074079  1
  O  O194  1  0.34077046  0.00000000  0.74407412  1
  O  O195  1  0.34077046  0.50000000  0.07740745  1
  O  O196  1  0.34077046  0.50000000  0.41074079  1
  O  O197  1  0.34077046  0.50000000  0.74407412  1
  O  O198  1  0.84077046  0.00000000  0.07740745  1
  O  O199  1  0.84077046  0.00000000  0.41074079  1
  O  O200  1  0.84077046  0.00000000  0.74407412  1
  O  O201  1  0.84077046  0.50000000  0.07740745  1
  O  O202  1  0.84077046  0.50000000  0.41074079  1
  O  O203  1  0.84077046  0.50000000  0.74407412  1
