# generated using pymatgen
data_Na4Ti5O12
_symmetry_space_group_name_H-M   'P 1'
_cell_length_a   10.61980685
_cell_length_b   10.61980685
_cell_length_c   9.54140940
_cell_angle_alpha   90.00000000
_cell_angle_beta   90.00000000
_cell_angle_gamma   120.00000000
_symmetry_Int_Tables_number   1
_chemical_formula_structural   Na4Ti5O12
_chemical_formula_sum   'Na16 Ti20 O48'
_cell_volume   931.91520661
_cell_formula_units_Z   4
loop_
 _symmetry_equiv_pos_site_id
 _symmetry_equiv_pos_as_xyz
  1  'x, y, z'
loop_
 _atom_site_type_symbol
 _atom_site_label
 _atom_site_symmetry_multiplicity
 _atom_site_fract_x
 _atom_site_fract_y
 _atom_site_fract_z
 _atom_site_occupancy
  Na  Na0  1  0.33333333  0.16666667  0.90396597  1
  Na  Na1  1  0.33333333  0.66666667  0.90396597  1
  Na  Na2  1  0.83333333  0.16666667  0.90396597  1
  Na  Na3  1  0.83333333  0.66666667  0.90396597  1
  Na  Na4  1  0.16666667  0.33333333  0.09603403  1
  Na  Na5  1  0.16666667  0.83333333  0.09603403  1
  Na  Na6  1  0.66666667  0.33333333  0.09603403  1
  Na  Na7  1  0.66666667  0.83333333  0.09603403  1
  Na  Na8  1  0.00000000  0.00000000  0.30889177  1
  Na  Na9  1  -0.00000000  0.50000000  0.30889177  1
  Na  Na10  1  0.50000000  0.00000000  0.30889177  1
  Na  Na11  1  0.50000000  0.50000000  0.30889177  1
  Na  Na12  1  0.00000000  0.00000000  0.69110823  1
  Na  Na13  1  -0.00000000  0.50000000  0.69110823  1
  Na  Na14  1  0.50000000  0.00000000  0.69110823  1
  Na  Na15  1  0.50000000  0.50000000  0.69110823  1
  Ti  Ti16  1  0.16666667  0.33333333  0.47386613  1
  Ti  Ti17  1  0.16666667  0.83333333  0.47386613  1
  Ti  Ti18  1  0.66666667  0.33333333  0.47386613  1
  Ti  Ti19  1  0.66666667  0.83333333  0.47386613  1
  Ti  Ti20  1  0.00000000  0.00000000  0.00000000  1
  Ti  Ti21  1  -0.00000000  0.50000000  0.00000000  1
  Ti  Ti22  1  0.50000000  0.00000000  0.00000000  1
  Ti  Ti23  1  0.50000000  0.50000000  0.00000000  1
  Ti  Ti24  1  0.16666667  0.33333333  0.78017110  1
  Ti  Ti25  1  0.16666667  0.83333333  0.78017110  1
  Ti  Ti26  1  0.66666667  0.33333333  0.78017110  1
  Ti  Ti27  1  0.66666667  0.83333333  0.78017110  1
  Ti  Ti28  1  0.33333333  0.16666667  0.52613387  1
  Ti  Ti29  1  0.33333333  0.66666667  0.52613387  1
  Ti  Ti30  1  0.83333333  0.16666667  0.52613387  1
  Ti  Ti31  1  0.83333333  0.66666667  0.52613387  1
  Ti  Ti32  1  0.33333333  0.16666667  0.21982890  1
  Ti  Ti33  1  0.33333333  0.66666667  0.21982890  1
  Ti  Ti34  1  0.83333333  0.16666667  0.21982890  1
  Ti  Ti35  1  0.83333333  0.66666667  0.21982890  1
  O  O36  1  0.21368940  0.00903353  0.37775269  1
  O  O37  1  0.21368940  0.50903353  0.37775269  1
  O  O38  1  0.71368940  0.00903353  0.37775269  1
  O  O39  1  0.71368940  0.50903353  0.37775269  1
  O  O40  1  0.29534413  0.28631060  0.37775269  1
  O  O41  1  0.29534413  0.78631060  0.37775269  1
  O  O42  1  0.79534413  0.28631060  0.37775269  1
  O  O43  1  0.79534413  0.78631060  0.37775269  1
  O  O44  1  0.49096647  0.20465587  0.37775269  1
  O  O45  1  0.49096647  0.70465587  0.37775269  1
  O  O46  1  0.99096647  0.20465587  0.37775269  1
  O  O47  1  0.99096647  0.70465587  0.37775269  1
  O  O48  1  0.37993552  0.04553295  0.12161284  1
  O  O49  1  0.37993552  0.54553295  0.12161284  1
  O  O50  1  0.87993552  0.04553295  0.12161284  1
  O  O51  1  0.87993552  0.54553295  0.12161284  1
  O  O52  1  0.45446705  0.33440257  0.12161284  1
  O  O53  1  0.45446705  0.83440257  0.12161284  1
  O  O54  1  0.95446705  0.33440257  0.12161284  1
  O  O55  1  0.95446705  0.83440257  0.12161284  1
  O  O56  1  0.00903353  0.29534413  0.62224731  1
  O  O57  1  0.00903353  0.79534413  0.62224731  1
  O  O58  1  0.50903353  0.29534413  0.62224731  1
  O  O59  1  0.50903353  0.79534413  0.62224731  1
  O  O60  1  0.33440257  0.37993552  0.87838716  1
  O  O61  1  0.33440257  0.87993552  0.87838716  1
  O  O62  1  0.83440257  0.37993552  0.87838716  1
  O  O63  1  0.83440257  0.87993552  0.87838716  1
  O  O64  1  0.04553295  0.16559743  0.87838716  1
  O  O65  1  0.04553295  0.66559743  0.87838716  1
  O  O66  1  0.54553295  0.16559743  0.87838716  1
  O  O67  1  0.54553295  0.66559743  0.87838716  1
  O  O68  1  0.28631060  0.49096647  0.62224731  1
  O  O69  1  0.28631060  0.99096647  0.62224731  1
  O  O70  1  0.78631060  0.49096647  0.62224731  1
  O  O71  1  0.78631060  0.99096647  0.62224731  1
  O  O72  1  0.16559743  0.12006448  0.12161284  1
  O  O73  1  0.16559743  0.62006448  0.12161284  1
  O  O74  1  0.66559743  0.12006448  0.12161284  1
  O  O75  1  0.66559743  0.62006448  0.12161284  1
  O  O76  1  0.20465587  0.21368940  0.62224731  1
  O  O77  1  0.20465587  0.71368940  0.62224731  1
  O  O78  1  0.70465587  0.21368940  0.62224731  1
  O  O79  1  0.70465587  0.71368940  0.62224731  1
  O  O80  1  0.12006448  0.45446705  0.87838716  1
  O  O81  1  0.12006448  0.95446705  0.87838716  1
  O  O82  1  0.62006448  0.45446705  0.87838716  1
  O  O83  1  0.62006448  0.95446705  0.87838716  1
