# generated using pymatgen
data_NaTlO
_symmetry_space_group_name_H-M   'P 1'
_cell_length_a   20.73874293
_cell_length_b   20.73874293
_cell_length_c   22.66581684
_cell_angle_alpha   90.00000000
_cell_angle_beta   90.00000000
_cell_angle_gamma   120.00000000
_symmetry_Int_Tables_number   1
_chemical_formula_structural   NaTlO
_chemical_formula_sum   'Na144 Tl144 O144'
_cell_volume   8442.41823139
_cell_formula_units_Z   144
loop_
 _symmetry_equiv_pos_site_id
 _symmetry_equiv_pos_as_xyz
  1  'x, y, z'
loop_
 _atom_site_type_symbol
 _atom_site_label
 _atom_site_symmetry_multiplicity
 _atom_site_fract_x
 _atom_site_fract_y
 _atom_site_fract_z
 _atom_site_occupancy
  Na  Na0  1  0.11111111  0.05555556  0.44714165  1
  Na  Na1  1  0.11111111  0.05555556  0.94714165  1
  Na  Na2  1  0.11111111  0.22222222  0.44714165  1
  Na  Na3  1  0.11111111  0.22222222  0.94714165  1
  Na  Na4  1  0.11111111  0.38888889  0.44714165  1
  Na  Na5  1  0.11111111  0.38888889  0.94714165  1
  Na  Na6  1  0.11111111  0.55555556  0.44714165  1
  Na  Na7  1  0.11111111  0.55555556  0.94714165  1
  Na  Na8  1  0.11111111  0.72222222  0.44714165  1
  Na  Na9  1  0.11111111  0.72222222  0.94714165  1
  Na  Na10  1  0.11111111  0.88888889  0.44714165  1
  Na  Na11  1  0.11111111  0.88888889  0.94714165  1
  Na  Na12  1  0.27777778  0.05555556  0.44714165  1
  Na  Na13  1  0.27777778  0.05555556  0.94714165  1
  Na  Na14  1  0.27777778  0.22222222  0.44714165  1
  Na  Na15  1  0.27777778  0.22222222  0.94714165  1
  Na  Na16  1  0.27777778  0.38888889  0.44714165  1
  Na  Na17  1  0.27777778  0.38888889  0.94714165  1
  Na  Na18  1  0.27777778  0.55555556  0.44714165  1
  Na  Na19  1  0.27777778  0.55555556  0.94714165  1
  Na  Na20  1  0.27777778  0.72222222  0.44714165  1
  Na  Na21  1  0.27777778  0.72222222  0.94714165  1
  Na  Na22  1  0.27777778  0.88888889  0.44714165  1
  Na  Na23  1  0.27777778  0.88888889  0.94714165  1
  Na  Na24  1  0.44444444  0.05555556  0.44714165  1
  Na  Na25  1  0.44444444  0.05555556  0.94714165  1
  Na  Na26  1  0.44444444  0.22222222  0.44714165  1
  Na  Na27  1  0.44444444  0.22222222  0.94714165  1
  Na  Na28  1  0.44444444  0.38888889  0.44714165  1
  Na  Na29  1  0.44444444  0.38888889  0.94714165  1
  Na  Na30  1  0.44444444  0.55555556  0.44714165  1
  Na  Na31  1  0.44444444  0.55555556  0.94714165  1
  Na  Na32  1  0.44444444  0.72222222  0.44714165  1
  Na  Na33  1  0.44444444  0.72222222  0.94714165  1
  Na  Na34  1  0.44444444  0.88888889  0.44714165  1
  Na  Na35  1  0.44444444  0.88888889  0.94714165  1
  Na  Na36  1  0.61111111  0.05555556  0.44714165  1
  Na  Na37  1  0.61111111  0.05555556  0.94714165  1
  Na  Na38  1  0.61111111  0.22222222  0.44714165  1
  Na  Na39  1  0.61111111  0.22222222  0.94714165  1
  Na  Na40  1  0.61111111  0.38888889  0.44714165  1
  Na  Na41  1  0.61111111  0.38888889  0.94714165  1
  Na  Na42  1  0.61111111  0.55555556  0.44714165  1
  Na  Na43  1  0.61111111  0.55555556  0.94714165  1
  Na  Na44  1  0.61111111  0.72222222  0.44714165  1
  Na  Na45  1  0.61111111  0.72222222  0.94714165  1
  Na  Na46  1  0.61111111  0.88888889  0.44714165  1
  Na  Na47  1  0.61111111  0.88888889  0.94714165  1
  Na  Na48  1  0.77777778  0.05555556  0.44714165  1
  Na  Na49  1  0.77777778  0.05555556  0.94714165  1
  Na  Na50  1  0.77777778  0.22222222  0.44714165  1
  Na  Na51  1  0.77777778  0.22222222  0.94714165  1
  Na  Na52  1  0.77777778  0.38888889  0.44714165  1
  Na  Na53  1  0.77777778  0.38888889  0.94714165  1
  Na  Na54  1  0.77777778  0.55555556  0.44714165  1
  Na  Na55  1  0.77777778  0.55555556  0.94714165  1
  Na  Na56  1  0.77777778  0.72222222  0.44714165  1
  Na  Na57  1  0.77777778  0.72222222  0.94714165  1
  Na  Na58  1  0.77777778  0.88888889  0.44714165  1
  Na  Na59  1  0.77777778  0.88888889  0.94714165  1
  Na  Na60  1  0.94444444  0.05555556  0.44714165  1
  Na  Na61  1  0.94444444  0.05555556  0.94714165  1
  Na  Na62  1  0.94444444  0.22222222  0.44714165  1
  Na  Na63  1  0.94444444  0.22222222  0.94714165  1
  Na  Na64  1  0.94444444  0.38888889  0.44714165  1
  Na  Na65  1  0.94444444  0.38888889  0.94714165  1
  Na  Na66  1  0.94444444  0.55555556  0.44714165  1
  Na  Na67  1  0.94444444  0.55555556  0.94714165  1
  Na  Na68  1  0.94444444  0.72222222  0.44714165  1
  Na  Na69  1  0.94444444  0.72222222  0.94714165  1
  Na  Na70  1  0.94444444  0.88888889  0.44714165  1
  Na  Na71  1  0.94444444  0.88888889  0.94714165  1
  Na  Na72  1  0.05555556  0.11111111  0.19714165  1
  Na  Na73  1  0.05555556  0.11111111  0.69714165  1
  Na  Na74  1  0.05555556  0.27777778  0.19714165  1
  Na  Na75  1  0.05555556  0.27777778  0.69714165  1
  Na  Na76  1  0.05555556  0.44444444  0.19714165  1
  Na  Na77  1  0.05555556  0.44444444  0.69714165  1
  Na  Na78  1  0.05555556  0.61111111  0.19714165  1
  Na  Na79  1  0.05555556  0.61111111  0.69714165  1
  Na  Na80  1  0.05555556  0.77777778  0.19714165  1
  Na  Na81  1  0.05555556  0.77777778  0.69714165  1
  Na  Na82  1  0.05555556  0.94444444  0.19714165  1
  Na  Na83  1  0.05555556  0.94444444  0.69714165  1
  Na  Na84  1  0.22222222  0.11111111  0.19714165  1
  Na  Na85  1  0.22222222  0.11111111  0.69714165  1
  Na  Na86  1  0.22222222  0.27777778  0.19714165  1
  Na  Na87  1  0.22222222  0.27777778  0.69714165  1
  Na  Na88  1  0.22222222  0.44444444  0.19714165  1
  Na  Na89  1  0.22222222  0.44444444  0.69714165  1
  Na  Na90  1  0.22222222  0.61111111  0.19714165  1
  Na  Na91  1  0.22222222  0.61111111  0.69714165  1
  Na  Na92  1  0.22222222  0.77777778  0.19714165  1
  Na  Na93  1  0.22222222  0.77777778  0.69714165  1
  Na  Na94  1  0.22222222  0.94444444  0.19714165  1
  Na  Na95  1  0.22222222  0.94444444  0.69714165  1
  Na  Na96  1  0.38888889  0.11111111  0.19714165  1
  Na  Na97  1  0.38888889  0.11111111  0.69714165  1
  Na  Na98  1  0.38888889  0.27777778  0.19714165  1
  Na  Na99  1  0.38888889  0.27777778  0.69714165  1
  Na  Na100  1  0.38888889  0.44444444  0.19714165  1
  Na  Na101  1  0.38888889  0.44444444  0.69714165  1
  Na  Na102  1  0.38888889  0.61111111  0.19714165  1
  Na  Na103  1  0.38888889  0.61111111  0.69714165  1
  Na  Na104  1  0.38888889  0.77777778  0.19714165  1
  Na  Na105  1  0.38888889  0.77777778  0.69714165  1
  Na  Na106  1  0.38888889  0.94444444  0.19714165  1
  Na  Na107  1  0.38888889  0.94444444  0.69714165  1
  Na  Na108  1  0.55555556  0.11111111  0.19714165  1
  Na  Na109  1  0.55555556  0.11111111  0.69714165  1
  Na  Na110  1  0.55555556  0.27777778  0.19714165  1
  Na  Na111  1  0.55555556  0.27777778  0.69714165  1
  Na  Na112  1  0.55555556  0.44444444  0.19714165  1
  Na  Na113  1  0.55555556  0.44444444  0.69714165  1
  Na  Na114  1  0.55555556  0.61111111  0.19714165  1
  Na  Na115  1  0.55555556  0.61111111  0.69714165  1
  Na  Na116  1  0.55555556  0.77777778  0.19714165  1
  Na  Na117  1  0.55555556  0.77777778  0.69714165  1
  Na  Na118  1  0.55555556  0.94444444  0.19714165  1
  Na  Na119  1  0.55555556  0.94444444  0.69714165  1
  Na  Na120  1  0.72222222  0.11111111  0.19714165  1
  Na  Na121  1  0.72222222  0.11111111  0.69714165  1
  Na  Na122  1  0.72222222  0.27777778  0.19714165  1
  Na  Na123  1  0.72222222  0.27777778  0.69714165  1
  Na  Na124  1  0.72222222  0.44444444  0.19714165  1
  Na  Na125  1  0.72222222  0.44444444  0.69714165  1
  Na  Na126  1  0.72222222  0.61111111  0.19714165  1
  Na  Na127  1  0.72222222  0.61111111  0.69714165  1
  Na  Na128  1  0.72222222  0.77777778  0.19714165  1
  Na  Na129  1  0.72222222  0.77777778  0.69714165  1
  Na  Na130  1  0.72222222  0.94444444  0.19714165  1
  Na  Na131  1  0.72222222  0.94444444  0.69714165  1
  Na  Na132  1  0.88888889  0.11111111  0.19714165  1
  Na  Na133  1  0.88888889  0.11111111  0.69714165  1
  Na  Na134  1  0.88888889  0.27777778  0.19714165  1
  Na  Na135  1  0.88888889  0.27777778  0.69714165  1
  Na  Na136  1  0.88888889  0.44444444  0.19714165  1
  Na  Na137  1  0.88888889  0.44444444  0.69714165  1
  Na  Na138  1  0.88888889  0.61111111  0.19714165  1
  Na  Na139  1  0.88888889  0.61111111  0.69714165  1
  Na  Na140  1  0.88888889  0.77777778  0.19714165  1
  Na  Na141  1  0.88888889  0.77777778  0.69714165  1
  Na  Na142  1  0.88888889  0.94444444  0.19714165  1
  Na  Na143  1  0.88888889  0.94444444  0.69714165  1
  Tl  Tl144  1  0.05555556  0.11111111  0.05792419  1
  Tl  Tl145  1  0.05555556  0.11111111  0.55792419  1
  Tl  Tl146  1  0.05555556  0.27777778  0.05792419  1
  Tl  Tl147  1  0.05555556  0.27777778  0.55792419  1
  Tl  Tl148  1  0.05555556  0.44444444  0.05792419  1
  Tl  Tl149  1  0.05555556  0.44444444  0.55792419  1
  Tl  Tl150  1  0.05555556  0.61111111  0.05792419  1
  Tl  Tl151  1  0.05555556  0.61111111  0.55792419  1
  Tl  Tl152  1  0.05555556  0.77777778  0.05792419  1
  Tl  Tl153  1  0.05555556  0.77777778  0.55792419  1
  Tl  Tl154  1  0.05555556  0.94444444  0.05792419  1
  Tl  Tl155  1  0.05555556  0.94444444  0.55792419  1
  Tl  Tl156  1  0.22222222  0.11111111  0.05792419  1
  Tl  Tl157  1  0.22222222  0.11111111  0.55792419  1
  Tl  Tl158  1  0.22222222  0.27777778  0.05792419  1
  Tl  Tl159  1  0.22222222  0.27777778  0.55792419  1
  Tl  Tl160  1  0.22222222  0.44444444  0.05792419  1
  Tl  Tl161  1  0.22222222  0.44444444  0.55792419  1
  Tl  Tl162  1  0.22222222  0.61111111  0.05792419  1
  Tl  Tl163  1  0.22222222  0.61111111  0.55792419  1
  Tl  Tl164  1  0.22222222  0.77777778  0.05792419  1
  Tl  Tl165  1  0.22222222  0.77777778  0.55792419  1
  Tl  Tl166  1  0.22222222  0.94444444  0.05792419  1
  Tl  Tl167  1  0.22222222  0.94444444  0.55792419  1
  Tl  Tl168  1  0.38888889  0.11111111  0.05792419  1
  Tl  Tl169  1  0.38888889  0.11111111  0.55792419  1
  Tl  Tl170  1  0.38888889  0.27777778  0.05792419  1
  Tl  Tl171  1  0.38888889  0.27777778  0.55792419  1
  Tl  Tl172  1  0.38888889  0.44444444  0.05792419  1
  Tl  Tl173  1  0.38888889  0.44444444  0.55792419  1
  Tl  Tl174  1  0.38888889  0.61111111  0.05792419  1
  Tl  Tl175  1  0.38888889  0.61111111  0.55792419  1
  Tl  Tl176  1  0.38888889  0.77777778  0.05792419  1
  Tl  Tl177  1  0.38888889  0.77777778  0.55792419  1
  Tl  Tl178  1  0.38888889  0.94444444  0.05792419  1
  Tl  Tl179  1  0.38888889  0.94444444  0.55792419  1
  Tl  Tl180  1  0.55555556  0.11111111  0.05792419  1
  Tl  Tl181  1  0.55555556  0.11111111  0.55792419  1
  Tl  Tl182  1  0.55555556  0.27777778  0.05792419  1
  Tl  Tl183  1  0.55555556  0.27777778  0.55792419  1
  Tl  Tl184  1  0.55555556  0.44444444  0.05792419  1
  Tl  Tl185  1  0.55555556  0.44444444  0.55792419  1
  Tl  Tl186  1  0.55555556  0.61111111  0.05792419  1
  Tl  Tl187  1  0.55555556  0.61111111  0.55792419  1
  Tl  Tl188  1  0.55555556  0.77777778  0.05792419  1
  Tl  Tl189  1  0.55555556  0.77777778  0.55792419  1
  Tl  Tl190  1  0.55555556  0.94444444  0.05792419  1
  Tl  Tl191  1  0.55555556  0.94444444  0.55792419  1
  Tl  Tl192  1  0.72222222  0.11111111  0.05792419  1
  Tl  Tl193  1  0.72222222  0.11111111  0.55792419  1
  Tl  Tl194  1  0.72222222  0.27777778  0.05792419  1
  Tl  Tl195  1  0.72222222  0.27777778  0.55792419  1
  Tl  Tl196  1  0.72222222  0.44444444  0.05792419  1
  Tl  Tl197  1  0.72222222  0.44444444  0.55792419  1
  Tl  Tl198  1  0.72222222  0.61111111  0.05792419  1
  Tl  Tl199  1  0.72222222  0.61111111  0.55792419  1
  Tl  Tl200  1  0.72222222  0.77777778  0.05792419  1
  Tl  Tl201  1  0.72222222  0.77777778  0.55792419  1
  Tl  Tl202  1  0.72222222  0.94444444  0.05792419  1
  Tl  Tl203  1  0.72222222  0.94444444  0.55792419  1
  Tl  Tl204  1  0.88888889  0.11111111  0.05792419  1
  Tl  Tl205  1  0.88888889  0.11111111  0.55792419  1
  Tl  Tl206  1  0.88888889  0.27777778  0.05792419  1
  Tl  Tl207  1  0.88888889  0.27777778  0.55792419  1
  Tl  Tl208  1  0.88888889  0.44444444  0.05792419  1
  Tl  Tl209  1  0.88888889  0.44444444  0.55792419  1
  Tl  Tl210  1  0.88888889  0.61111111  0.05792419  1
  Tl  Tl211  1  0.88888889  0.61111111  0.55792419  1
  Tl  Tl212  1  0.88888889  0.77777778  0.05792419  1
  Tl  Tl213  1  0.88888889  0.77777778  0.55792419  1
  Tl  Tl214  1  0.88888889  0.94444444  0.05792419  1
  Tl  Tl215  1  0.88888889  0.94444444  0.55792419  1
  Tl  Tl216  1  0.11111111  0.05555556  0.30792419  1
  Tl  Tl217  1  0.11111111  0.05555556  0.80792419  1
  Tl  Tl218  1  0.11111111  0.22222222  0.30792419  1
  Tl  Tl219  1  0.11111111  0.22222222  0.80792419  1
  Tl  Tl220  1  0.11111111  0.38888889  0.30792419  1
  Tl  Tl221  1  0.11111111  0.38888889  0.80792419  1
  Tl  Tl222  1  0.11111111  0.55555556  0.30792419  1
  Tl  Tl223  1  0.11111111  0.55555556  0.80792419  1
  Tl  Tl224  1  0.11111111  0.72222222  0.30792419  1
  Tl  Tl225  1  0.11111111  0.72222222  0.80792419  1
  Tl  Tl226  1  0.11111111  0.88888889  0.30792419  1
  Tl  Tl227  1  0.11111111  0.88888889  0.80792419  1
  Tl  Tl228  1  0.27777778  0.05555556  0.30792419  1
  Tl  Tl229  1  0.27777778  0.05555556  0.80792419  1
  Tl  Tl230  1  0.27777778  0.22222222  0.30792419  1
  Tl  Tl231  1  0.27777778  0.22222222  0.80792419  1
  Tl  Tl232  1  0.27777778  0.38888889  0.30792419  1
  Tl  Tl233  1  0.27777778  0.38888889  0.80792419  1
  Tl  Tl234  1  0.27777778  0.55555556  0.30792419  1
  Tl  Tl235  1  0.27777778  0.55555556  0.80792419  1
  Tl  Tl236  1  0.27777778  0.72222222  0.30792419  1
  Tl  Tl237  1  0.27777778  0.72222222  0.80792419  1
  Tl  Tl238  1  0.27777778  0.88888889  0.30792419  1
  Tl  Tl239  1  0.27777778  0.88888889  0.80792419  1
  Tl  Tl240  1  0.44444444  0.05555556  0.30792419  1
  Tl  Tl241  1  0.44444444  0.05555556  0.80792419  1
  Tl  Tl242  1  0.44444444  0.22222222  0.30792419  1
  Tl  Tl243  1  0.44444444  0.22222222  0.80792419  1
  Tl  Tl244  1  0.44444444  0.38888889  0.30792419  1
  Tl  Tl245  1  0.44444444  0.38888889  0.80792419  1
  Tl  Tl246  1  0.44444444  0.55555556  0.30792419  1
  Tl  Tl247  1  0.44444444  0.55555556  0.80792419  1
  Tl  Tl248  1  0.44444444  0.72222222  0.30792419  1
  Tl  Tl249  1  0.44444444  0.72222222  0.80792419  1
  Tl  Tl250  1  0.44444444  0.88888889  0.30792419  1
  Tl  Tl251  1  0.44444444  0.88888889  0.80792419  1
  Tl  Tl252  1  0.61111111  0.05555556  0.30792419  1
  Tl  Tl253  1  0.61111111  0.05555556  0.80792419  1
  Tl  Tl254  1  0.61111111  0.22222222  0.30792419  1
  Tl  Tl255  1  0.61111111  0.22222222  0.80792419  1
  Tl  Tl256  1  0.61111111  0.38888889  0.30792419  1
  Tl  Tl257  1  0.61111111  0.38888889  0.80792419  1
  Tl  Tl258  1  0.61111111  0.55555556  0.30792419  1
  Tl  Tl259  1  0.61111111  0.55555556  0.80792419  1
  Tl  Tl260  1  0.61111111  0.72222222  0.30792419  1
  Tl  Tl261  1  0.61111111  0.72222222  0.80792419  1
  Tl  Tl262  1  0.61111111  0.88888889  0.30792419  1
  Tl  Tl263  1  0.61111111  0.88888889  0.80792419  1
  Tl  Tl264  1  0.77777778  0.05555556  0.30792419  1
  Tl  Tl265  1  0.77777778  0.05555556  0.80792419  1
  Tl  Tl266  1  0.77777778  0.22222222  0.30792419  1
  Tl  Tl267  1  0.77777778  0.22222222  0.80792419  1
  Tl  Tl268  1  0.77777778  0.38888889  0.30792419  1
  Tl  Tl269  1  0.77777778  0.38888889  0.80792419  1
  Tl  Tl270  1  0.77777778  0.55555556  0.30792419  1
  Tl  Tl271  1  0.77777778  0.55555556  0.80792419  1
  Tl  Tl272  1  0.77777778  0.72222222  0.30792419  1
  Tl  Tl273  1  0.77777778  0.72222222  0.80792419  1
  Tl  Tl274  1  0.77777778  0.88888889  0.30792419  1
  Tl  Tl275  1  0.77777778  0.88888889  0.80792419  1
  Tl  Tl276  1  0.94444444  0.05555556  0.30792419  1
  Tl  Tl277  1  0.94444444  0.05555556  0.80792419  1
  Tl  Tl278  1  0.94444444  0.22222222  0.30792419  1
  Tl  Tl279  1  0.94444444  0.22222222  0.80792419  1
  Tl  Tl280  1  0.94444444  0.38888889  0.30792419  1
  Tl  Tl281  1  0.94444444  0.38888889  0.80792419  1
  Tl  Tl282  1  0.94444444  0.55555556  0.30792419  1
  Tl  Tl283  1  0.94444444  0.55555556  0.80792419  1
  Tl  Tl284  1  0.94444444  0.72222222  0.30792419  1
  Tl  Tl285  1  0.94444444  0.72222222  0.80792419  1
  Tl  Tl286  1  0.94444444  0.88888889  0.30792419  1
  Tl  Tl287  1  0.94444444  0.88888889  0.80792419  1
  O  O288  1  0.00000000  0.00000000  0.49493416  1
  O  O289  1  0.00000000  0.00000000  0.99493416  1
  O  O290  1  -0.00000000  0.16666667  0.49493416  1
  O  O291  1  -0.00000000  0.16666667  0.99493416  1
  O  O292  1  -0.00000000  0.33333333  0.49493416  1
  O  O293  1  -0.00000000  0.33333333  0.99493416  1
  O  O294  1  -0.00000000  0.50000000  0.49493416  1
  O  O295  1  -0.00000000  0.50000000  0.99493416  1
  O  O296  1  -0.00000000  0.66666667  0.49493416  1
  O  O297  1  -0.00000000  0.66666667  0.99493416  1
  O  O298  1  -0.00000000  0.83333333  0.49493416  1
  O  O299  1  -0.00000000  0.83333333  0.99493416  1
  O  O300  1  0.16666667  0.00000000  0.49493416  1
  O  O301  1  0.16666667  0.00000000  0.99493416  1
  O  O302  1  0.16666667  0.16666667  0.49493416  1
  O  O303  1  0.16666667  0.16666667  0.99493416  1
  O  O304  1  0.16666667  0.33333333  0.49493416  1
  O  O305  1  0.16666667  0.33333333  0.99493416  1
  O  O306  1  0.16666667  0.50000000  0.49493416  1
  O  O307  1  0.16666667  0.50000000  0.99493416  1
  O  O308  1  0.16666667  0.66666667  0.49493416  1
  O  O309  1  0.16666667  0.66666667  0.99493416  1
  O  O310  1  0.16666667  0.83333333  0.49493416  1
  O  O311  1  0.16666667  0.83333333  0.99493416  1
  O  O312  1  0.33333333  0.00000000  0.49493416  1
  O  O313  1  0.33333333  0.00000000  0.99493416  1
  O  O314  1  0.33333333  0.16666667  0.49493416  1
  O  O315  1  0.33333333  0.16666667  0.99493416  1
  O  O316  1  0.33333333  0.33333333  0.49493416  1
  O  O317  1  0.33333333  0.33333333  0.99493416  1
  O  O318  1  0.33333333  0.50000000  0.49493416  1
  O  O319  1  0.33333333  0.50000000  0.99493416  1
  O  O320  1  0.33333333  0.66666667  0.49493416  1
  O  O321  1  0.33333333  0.66666667  0.99493416  1
  O  O322  1  0.33333333  0.83333333  0.49493416  1
  O  O323  1  0.33333333  0.83333333  0.99493416  1
  O  O324  1  0.50000000  0.00000000  0.49493416  1
  O  O325  1  0.50000000  0.00000000  0.99493416  1
  O  O326  1  0.50000000  0.16666667  0.49493416  1
  O  O327  1  0.50000000  0.16666667  0.99493416  1
  O  O328  1  0.50000000  0.33333333  0.49493416  1
  O  O329  1  0.50000000  0.33333333  0.99493416  1
  O  O330  1  0.50000000  0.50000000  0.49493416  1
  O  O331  1  0.50000000  0.50000000  0.99493416  1
  O  O332  1  0.50000000  0.66666667  0.49493416  1
  O  O333  1  0.50000000  0.66666667  0.99493416  1
  O  O334  1  0.50000000  0.83333333  0.49493416  1
  O  O335  1  0.50000000  0.83333333  0.99493416  1
  O  O336  1  0.66666667  0.00000000  0.49493416  1
  O  O337  1  0.66666667  0.00000000  0.99493416  1
  O  O338  1  0.66666667  0.16666667  0.49493416  1
  O  O339  1  0.66666667  0.16666667  0.99493416  1
  O  O340  1  0.66666667  0.33333333  0.49493416  1
  O  O341  1  0.66666667  0.33333333  0.99493416  1
  O  O342  1  0.66666667  0.50000000  0.49493416  1
  O  O343  1  0.66666667  0.50000000  0.99493416  1
  O  O344  1  0.66666667  0.66666667  0.49493416  1
  O  O345  1  0.66666667  0.66666667  0.99493416  1
  O  O346  1  0.66666667  0.83333333  0.49493416  1
  O  O347  1  0.66666667  0.83333333  0.99493416  1
  O  O348  1  0.83333333  0.00000000  0.49493416  1
  O  O349  1  0.83333333  0.00000000  0.99493416  1
  O  O350  1  0.83333333  0.16666667  0.49493416  1
  O  O351  1  0.83333333  0.16666667  0.99493416  1
  O  O352  1  0.83333333  0.33333333  0.49493416  1
  O  O353  1  0.83333333  0.33333333  0.99493416  1
  O  O354  1  0.83333333  0.50000000  0.49493416  1
  O  O355  1  0.83333333  0.50000000  0.99493416  1
  O  O356  1  0.83333333  0.66666667  0.49493416  1
  O  O357  1  0.83333333  0.66666667  0.99493416  1
  O  O358  1  0.83333333  0.83333333  0.49493416  1
  O  O359  1  0.83333333  0.83333333  0.99493416  1
  O  O360  1  0.00000000  0.00000000  0.24493416  1
  O  O361  1  0.00000000  0.00000000  0.74493416  1
  O  O362  1  -0.00000000  0.16666667  0.24493416  1
  O  O363  1  -0.00000000  0.16666667  0.74493416  1
  O  O364  1  -0.00000000  0.33333333  0.24493416  1
  O  O365  1  -0.00000000  0.33333333  0.74493416  1
  O  O366  1  -0.00000000  0.50000000  0.24493416  1
  O  O367  1  -0.00000000  0.50000000  0.74493416  1
  O  O368  1  -0.00000000  0.66666667  0.24493416  1
  O  O369  1  -0.00000000  0.66666667  0.74493416  1
  O  O370  1  -0.00000000  0.83333333  0.24493416  1
  O  O371  1  -0.00000000  0.83333333  0.74493416  1
  O  O372  1  0.16666667  0.00000000  0.24493416  1
  O  O373  1  0.16666667  0.00000000  0.74493416  1
  O  O374  1  0.16666667  0.16666667  0.24493416  1
  O  O375  1  0.16666667  0.16666667  0.74493416  1
  O  O376  1  0.16666667  0.33333333  0.24493416  1
  O  O377  1  0.16666667  0.33333333  0.74493416  1
  O  O378  1  0.16666667  0.50000000  0.24493416  1
  O  O379  1  0.16666667  0.50000000  0.74493416  1
  O  O380  1  0.16666667  0.66666667  0.24493416  1
  O  O381  1  0.16666667  0.66666667  0.74493416  1
  O  O382  1  0.16666667  0.83333333  0.24493416  1
  O  O383  1  0.16666667  0.83333333  0.74493416  1
  O  O384  1  0.33333333  0.00000000  0.24493416  1
  O  O385  1  0.33333333  0.00000000  0.74493416  1
  O  O386  1  0.33333333  0.16666667  0.24493416  1
  O  O387  1  0.33333333  0.16666667  0.74493416  1
  O  O388  1  0.33333333  0.33333333  0.24493416  1
  O  O389  1  0.33333333  0.33333333  0.74493416  1
  O  O390  1  0.33333333  0.50000000  0.24493416  1
  O  O391  1  0.33333333  0.50000000  0.74493416  1
  O  O392  1  0.33333333  0.66666667  0.24493416  1
  O  O393  1  0.33333333  0.66666667  0.74493416  1
  O  O394  1  0.33333333  0.83333333  0.24493416  1
  O  O395  1  0.33333333  0.83333333  0.74493416  1
  O  O396  1  0.50000000  0.00000000  0.24493416  1
  O  O397  1  0.50000000  0.00000000  0.74493416  1
  O  O398  1  0.50000000  0.16666667  0.24493416  1
  O  O399  1  0.50000000  0.16666667  0.74493416  1
  O  O400  1  0.50000000  0.33333333  0.24493416  1
  O  O401  1  0.50000000  0.33333333  0.74493416  1
  O  O402  1  0.50000000  0.50000000  0.24493416  1
  O  O403  1  0.50000000  0.50000000  0.74493416  1
  O  O404  1  0.50000000  0.66666667  0.24493416  1
  O  O405  1  0.50000000  0.66666667  0.74493416  1
  O  O406  1  0.50000000  0.83333333  0.24493416  1
  O  O407  1  0.50000000  0.83333333  0.74493416  1
  O  O408  1  0.66666667  0.00000000  0.24493416  1
  O  O409  1  0.66666667  0.00000000  0.74493416  1
  O  O410  1  0.66666667  0.16666667  0.24493416  1
  O  O411  1  0.66666667  0.16666667  0.74493416  1
  O  O412  1  0.66666667  0.33333333  0.24493416  1
  O  O413  1  0.66666667  0.33333333  0.74493416  1
  O  O414  1  0.66666667  0.50000000  0.24493416  1
  O  O415  1  0.66666667  0.50000000  0.74493416  1
  O  O416  1  0.66666667  0.66666667  0.24493416  1
  O  O417  1  0.66666667  0.66666667  0.74493416  1
  O  O418  1  0.66666667  0.83333333  0.24493416  1
  O  O419  1  0.66666667  0.83333333  0.74493416  1
  O  O420  1  0.83333333  0.00000000  0.24493416  1
  O  O421  1  0.83333333  0.00000000  0.74493416  1
  O  O422  1  0.83333333  0.16666667  0.24493416  1
  O  O423  1  0.83333333  0.16666667  0.74493416  1
  O  O424  1  0.83333333  0.33333333  0.24493416  1
  O  O425  1  0.83333333  0.33333333  0.74493416  1
  O  O426  1  0.83333333  0.50000000  0.24493416  1
  O  O427  1  0.83333333  0.50000000  0.74493416  1
  O  O428  1  0.83333333  0.66666667  0.24493416  1
  O  O429  1  0.83333333  0.66666667  0.74493416  1
  O  O430  1  0.83333333  0.83333333  0.24493416  1
  O  O431  1  0.83333333  0.83333333  0.74493416  1
