# generated using pymatgen
data_K2BeO2
_symmetry_space_group_name_H-M   'P 1'
_cell_length_a   21.29913568
_cell_length_b   23.14091680
_cell_length_c   21.14106159
_cell_angle_alpha   90.00000000
_cell_angle_beta   131.56430333
_cell_angle_gamma   90.00000000
_symmetry_Int_Tables_number   1
_chemical_formula_structural   K2BeO2
_chemical_formula_sum   'K192 Be96 O192'
_cell_volume   7796.39370538
_cell_formula_units_Z   96
loop_
 _symmetry_equiv_pos_site_id
 _symmetry_equiv_pos_as_xyz
  1  'x, y, z'
loop_
 _atom_site_type_symbol
 _atom_site_label
 _atom_site_symmetry_multiplicity
 _atom_site_fract_x
 _atom_site_fract_y
 _atom_site_fract_z
 _atom_site_occupancy
  K  K0  1  0.08538635  0.16394541  0.05681762  1
  K  K1  1  0.08538635  0.16394541  0.55681762  1
  K  K2  1  0.08538635  0.41394541  0.05681762  1
  K  K3  1  0.08538635  0.41394541  0.55681762  1
  K  K4  1  0.08538635  0.66394541  0.05681762  1
  K  K5  1  0.08538635  0.66394541  0.55681762  1
  K  K6  1  0.08538635  0.91394541  0.05681762  1
  K  K7  1  0.08538635  0.91394541  0.55681762  1
  K  K8  1  0.41871969  0.16394541  0.05681762  1
  K  K9  1  0.41871969  0.16394541  0.55681762  1
  K  K10  1  0.41871969  0.41394541  0.05681762  1
  K  K11  1  0.41871969  0.41394541  0.55681762  1
  K  K12  1  0.41871969  0.66394541  0.05681762  1
  K  K13  1  0.41871969  0.66394541  0.55681762  1
  K  K14  1  0.41871969  0.91394541  0.05681762  1
  K  K15  1  0.41871969  0.91394541  0.55681762  1
  K  K16  1  0.75205302  0.16394541  0.05681762  1
  K  K17  1  0.75205302  0.16394541  0.55681762  1
  K  K18  1  0.75205302  0.41394541  0.05681762  1
  K  K19  1  0.75205302  0.41394541  0.55681762  1
  K  K20  1  0.75205302  0.66394541  0.05681762  1
  K  K21  1  0.75205302  0.66394541  0.55681762  1
  K  K22  1  0.75205302  0.91394541  0.05681762  1
  K  K23  1  0.75205302  0.91394541  0.55681762  1
  K  K24  1  0.24794698  0.03894541  0.19318238  1
  K  K25  1  0.24794698  0.03894541  0.69318238  1
  K  K26  1  0.24794698  0.28894541  0.19318238  1
  K  K27  1  0.24794698  0.28894541  0.69318238  1
  K  K28  1  0.24794698  0.53894541  0.19318238  1
  K  K29  1  0.24794698  0.53894541  0.69318238  1
  K  K30  1  0.24794698  0.78894541  0.19318238  1
  K  K31  1  0.24794698  0.78894541  0.69318238  1
  K  K32  1  0.58128031  0.03894541  0.19318238  1
  K  K33  1  0.58128031  0.03894541  0.69318238  1
  K  K34  1  0.58128031  0.28894541  0.19318238  1
  K  K35  1  0.58128031  0.28894541  0.69318238  1
  K  K36  1  0.58128031  0.53894541  0.19318238  1
  K  K37  1  0.58128031  0.53894541  0.69318238  1
  K  K38  1  0.58128031  0.78894541  0.19318238  1
  K  K39  1  0.58128031  0.78894541  0.69318238  1
  K  K40  1  0.91461365  0.03894541  0.19318238  1
  K  K41  1  0.91461365  0.03894541  0.69318238  1
  K  K42  1  0.91461365  0.28894541  0.19318238  1
  K  K43  1  0.91461365  0.28894541  0.69318238  1
  K  K44  1  0.91461365  0.53894541  0.19318238  1
  K  K45  1  0.91461365  0.53894541  0.69318238  1
  K  K46  1  0.91461365  0.78894541  0.19318238  1
  K  K47  1  0.91461365  0.78894541  0.69318238  1
  K  K48  1  0.24794698  0.08605459  0.44318238  1
  K  K49  1  0.24794698  0.08605459  0.94318238  1
  K  K50  1  0.24794698  0.33605459  0.44318238  1
  K  K51  1  0.24794698  0.33605459  0.94318238  1
  K  K52  1  0.24794698  0.58605459  0.44318238  1
  K  K53  1  0.24794698  0.58605459  0.94318238  1
  K  K54  1  0.24794698  0.83605459  0.44318238  1
  K  K55  1  0.24794698  0.83605459  0.94318238  1
  K  K56  1  0.58128031  0.08605459  0.44318238  1
  K  K57  1  0.58128031  0.08605459  0.94318238  1
  K  K58  1  0.58128031  0.33605459  0.44318238  1
  K  K59  1  0.58128031  0.33605459  0.94318238  1
  K  K60  1  0.58128031  0.58605459  0.44318238  1
  K  K61  1  0.58128031  0.58605459  0.94318238  1
  K  K62  1  0.58128031  0.83605459  0.44318238  1
  K  K63  1  0.58128031  0.83605459  0.94318238  1
  K  K64  1  0.91461365  0.08605459  0.44318238  1
  K  K65  1  0.91461365  0.08605459  0.94318238  1
  K  K66  1  0.91461365  0.33605459  0.44318238  1
  K  K67  1  0.91461365  0.33605459  0.94318238  1
  K  K68  1  0.91461365  0.58605459  0.44318238  1
  K  K69  1  0.91461365  0.58605459  0.94318238  1
  K  K70  1  0.91461365  0.83605459  0.44318238  1
  K  K71  1  0.91461365  0.83605459  0.94318238  1
  K  K72  1  0.08538635  0.21105459  0.30681762  1
  K  K73  1  0.08538635  0.21105459  0.80681762  1
  K  K74  1  0.08538635  0.46105459  0.30681762  1
  K  K75  1  0.08538635  0.46105459  0.80681762  1
  K  K76  1  0.08538635  0.71105459  0.30681762  1
  K  K77  1  0.08538635  0.71105459  0.80681762  1
  K  K78  1  0.08538635  0.96105459  0.30681762  1
  K  K79  1  0.08538635  0.96105459  0.80681762  1
  K  K80  1  0.41871969  0.21105459  0.30681762  1
  K  K81  1  0.41871969  0.21105459  0.80681762  1
  K  K82  1  0.41871969  0.46105459  0.30681762  1
  K  K83  1  0.41871969  0.46105459  0.80681762  1
  K  K84  1  0.41871969  0.71105459  0.30681762  1
  K  K85  1  0.41871969  0.71105459  0.80681762  1
  K  K86  1  0.41871969  0.96105459  0.30681762  1
  K  K87  1  0.41871969  0.96105459  0.80681762  1
  K  K88  1  0.75205302  0.21105459  0.30681762  1
  K  K89  1  0.75205302  0.21105459  0.80681762  1
  K  K90  1  0.75205302  0.46105459  0.30681762  1
  K  K91  1  0.75205302  0.46105459  0.80681762  1
  K  K92  1  0.75205302  0.71105459  0.30681762  1
  K  K93  1  0.75205302  0.71105459  0.80681762  1
  K  K94  1  0.75205302  0.96105459  0.30681762  1
  K  K95  1  0.75205302  0.96105459  0.80681762  1
  K  K96  1  0.28169040  0.14020500  0.12259016  1
  K  K97  1  0.28169040  0.14020500  0.62259016  1
  K  K98  1  0.28169040  0.39020500  0.12259016  1
  K  K99  1  0.28169040  0.39020500  0.62259016  1
  K  K100  1  0.28169040  0.64020500  0.12259016  1
  K  K101  1  0.28169040  0.64020500  0.62259016  1
  K  K102  1  0.28169040  0.89020500  0.12259016  1
  K  K103  1  0.28169040  0.89020500  0.62259016  1
  K  K104  1  0.61502374  0.14020500  0.12259016  1
  K  K105  1  0.61502374  0.14020500  0.62259016  1
  K  K106  1  0.61502374  0.39020500  0.12259016  1
  K  K107  1  0.61502374  0.39020500  0.62259016  1
  K  K108  1  0.61502374  0.64020500  0.12259016  1
  K  K109  1  0.61502374  0.64020500  0.62259016  1
  K  K110  1  0.61502374  0.89020500  0.12259016  1
  K  K111  1  0.61502374  0.89020500  0.62259016  1
  K  K112  1  0.94835707  0.14020500  0.12259016  1
  K  K113  1  0.94835707  0.14020500  0.62259016  1
  K  K114  1  0.94835707  0.39020500  0.12259016  1
  K  K115  1  0.94835707  0.39020500  0.62259016  1
  K  K116  1  0.94835707  0.64020500  0.12259016  1
  K  K117  1  0.94835707  0.64020500  0.62259016  1
  K  K118  1  0.94835707  0.89020500  0.12259016  1
  K  K119  1  0.94835707  0.89020500  0.62259016  1
  K  K120  1  0.05164293  0.01520500  0.12740984  1
  K  K121  1  0.05164293  0.01520500  0.62740984  1
  K  K122  1  0.05164293  0.26520500  0.12740984  1
  K  K123  1  0.05164293  0.26520500  0.62740984  1
  K  K124  1  0.05164293  0.51520500  0.12740984  1
  K  K125  1  0.05164293  0.51520500  0.62740984  1
  K  K126  1  0.05164293  0.76520500  0.12740984  1
  K  K127  1  0.05164293  0.76520500  0.62740984  1
  K  K128  1  0.38497626  0.01520500  0.12740984  1
  K  K129  1  0.38497626  0.01520500  0.62740984  1
  K  K130  1  0.38497626  0.26520500  0.12740984  1
  K  K131  1  0.38497626  0.26520500  0.62740984  1
  K  K132  1  0.38497626  0.51520500  0.12740984  1
  K  K133  1  0.38497626  0.51520500  0.62740984  1
  K  K134  1  0.38497626  0.76520500  0.12740984  1
  K  K135  1  0.38497626  0.76520500  0.62740984  1
  K  K136  1  0.71830960  0.01520500  0.12740984  1
  K  K137  1  0.71830960  0.01520500  0.62740984  1
  K  K138  1  0.71830960  0.26520500  0.12740984  1
  K  K139  1  0.71830960  0.26520500  0.62740984  1
  K  K140  1  0.71830960  0.51520500  0.12740984  1
  K  K141  1  0.71830960  0.51520500  0.62740984  1
  K  K142  1  0.71830960  0.76520500  0.12740984  1
  K  K143  1  0.71830960  0.76520500  0.62740984  1
  K  K144  1  0.05164293  0.10979500  0.37740984  1
  K  K145  1  0.05164293  0.10979500  0.87740984  1
  K  K146  1  0.05164293  0.35979500  0.37740984  1
  K  K147  1  0.05164293  0.35979500  0.87740984  1
  K  K148  1  0.05164293  0.60979500  0.37740984  1
  K  K149  1  0.05164293  0.60979500  0.87740984  1
  K  K150  1  0.05164293  0.85979500  0.37740984  1
  K  K151  1  0.05164293  0.85979500  0.87740984  1
  K  K152  1  0.38497626  0.10979500  0.37740984  1
  K  K153  1  0.38497626  0.10979500  0.87740984  1
  K  K154  1  0.38497626  0.35979500  0.37740984  1
  K  K155  1  0.38497626  0.35979500  0.87740984  1
  K  K156  1  0.38497626  0.60979500  0.37740984  1
  K  K157  1  0.38497626  0.60979500  0.87740984  1
  K  K158  1  0.38497626  0.85979500  0.37740984  1
  K  K159  1  0.38497626  0.85979500  0.87740984  1
  K  K160  1  0.71830960  0.10979500  0.37740984  1
  K  K161  1  0.71830960  0.10979500  0.87740984  1
  K  K162  1  0.71830960  0.35979500  0.37740984  1
  K  K163  1  0.71830960  0.35979500  0.87740984  1
  K  K164  1  0.71830960  0.60979500  0.37740984  1
  K  K165  1  0.71830960  0.60979500  0.87740984  1
  K  K166  1  0.71830960  0.85979500  0.37740984  1
  K  K167  1  0.71830960  0.85979500  0.87740984  1
  K  K168  1  0.28169040  0.23479500  0.37259016  1
  K  K169  1  0.28169040  0.23479500  0.87259016  1
  K  K170  1  0.28169040  0.48479500  0.37259016  1
  K  K171  1  0.28169040  0.48479500  0.87259016  1
  K  K172  1  0.28169040  0.73479500  0.37259016  1
  K  K173  1  0.28169040  0.73479500  0.87259016  1
  K  K174  1  0.28169040  0.98479500  0.37259016  1
  K  K175  1  0.28169040  0.98479500  0.87259016  1
  K  K176  1  0.61502374  0.23479500  0.37259016  1
  K  K177  1  0.61502374  0.23479500  0.87259016  1
  K  K178  1  0.61502374  0.48479500  0.37259016  1
  K  K179  1  0.61502374  0.48479500  0.87259016  1
  K  K180  1  0.61502374  0.73479500  0.37259016  1
  K  K181  1  0.61502374  0.73479500  0.87259016  1
  K  K182  1  0.61502374  0.98479500  0.37259016  1
  K  K183  1  0.61502374  0.98479500  0.87259016  1
  K  K184  1  0.94835707  0.23479500  0.37259016  1
  K  K185  1  0.94835707  0.23479500  0.87259016  1
  K  K186  1  0.94835707  0.48479500  0.37259016  1
  K  K187  1  0.94835707  0.48479500  0.87259016  1
  K  K188  1  0.94835707  0.73479500  0.37259016  1
  K  K189  1  0.94835707  0.73479500  0.87259016  1
  K  K190  1  0.94835707  0.98479500  0.37259016  1
  K  K191  1  0.94835707  0.98479500  0.87259016  1
  Be  Be192  1  0.13224771  0.02118931  0.01102162  1
  Be  Be193  1  0.13224771  0.02118931  0.51102162  1
  Be  Be194  1  0.13224771  0.27118931  0.01102162  1
  Be  Be195  1  0.13224771  0.27118931  0.51102162  1
  Be  Be196  1  0.13224771  0.52118931  0.01102162  1
  Be  Be197  1  0.13224771  0.52118931  0.51102162  1
  Be  Be198  1  0.13224771  0.77118931  0.01102162  1
  Be  Be199  1  0.13224771  0.77118931  0.51102162  1
  Be  Be200  1  0.46558104  0.02118931  0.01102162  1
  Be  Be201  1  0.46558104  0.02118931  0.51102162  1
  Be  Be202  1  0.46558104  0.27118931  0.01102162  1
  Be  Be203  1  0.46558104  0.27118931  0.51102162  1
  Be  Be204  1  0.46558104  0.52118931  0.01102162  1
  Be  Be205  1  0.46558104  0.52118931  0.51102162  1
  Be  Be206  1  0.46558104  0.77118931  0.01102162  1
  Be  Be207  1  0.46558104  0.77118931  0.51102162  1
  Be  Be208  1  0.79891437  0.02118931  0.01102162  1
  Be  Be209  1  0.79891437  0.02118931  0.51102162  1
  Be  Be210  1  0.79891437  0.27118931  0.01102162  1
  Be  Be211  1  0.79891437  0.27118931  0.51102162  1
  Be  Be212  1  0.79891437  0.52118931  0.01102162  1
  Be  Be213  1  0.79891437  0.52118931  0.51102162  1
  Be  Be214  1  0.79891437  0.77118931  0.01102162  1
  Be  Be215  1  0.79891437  0.77118931  0.51102162  1
  Be  Be216  1  0.13224771  0.10381069  0.26102162  1
  Be  Be217  1  0.13224771  0.10381069  0.76102162  1
  Be  Be218  1  0.13224771  0.35381069  0.26102162  1
  Be  Be219  1  0.13224771  0.35381069  0.76102162  1
  Be  Be220  1  0.13224771  0.60381069  0.26102162  1
  Be  Be221  1  0.13224771  0.60381069  0.76102162  1
  Be  Be222  1  0.13224771  0.85381069  0.26102162  1
  Be  Be223  1  0.13224771  0.85381069  0.76102162  1
  Be  Be224  1  0.46558104  0.10381069  0.26102162  1
  Be  Be225  1  0.46558104  0.10381069  0.76102162  1
  Be  Be226  1  0.46558104  0.35381069  0.26102162  1
  Be  Be227  1  0.46558104  0.35381069  0.76102162  1
  Be  Be228  1  0.46558104  0.60381069  0.26102162  1
  Be  Be229  1  0.46558104  0.60381069  0.76102162  1
  Be  Be230  1  0.46558104  0.85381069  0.26102162  1
  Be  Be231  1  0.46558104  0.85381069  0.76102162  1
  Be  Be232  1  0.79891437  0.10381069  0.26102162  1
  Be  Be233  1  0.79891437  0.10381069  0.76102162  1
  Be  Be234  1  0.79891437  0.35381069  0.26102162  1
  Be  Be235  1  0.79891437  0.35381069  0.76102162  1
  Be  Be236  1  0.79891437  0.60381069  0.26102162  1
  Be  Be237  1  0.79891437  0.60381069  0.76102162  1
  Be  Be238  1  0.79891437  0.85381069  0.26102162  1
  Be  Be239  1  0.79891437  0.85381069  0.76102162  1
  Be  Be240  1  0.20108563  0.22881069  0.48897838  1
  Be  Be241  1  0.20108563  0.22881069  0.98897838  1
  Be  Be242  1  0.20108563  0.47881069  0.48897838  1
  Be  Be243  1  0.20108563  0.47881069  0.98897838  1
  Be  Be244  1  0.20108563  0.72881069  0.48897838  1
  Be  Be245  1  0.20108563  0.72881069  0.98897838  1
  Be  Be246  1  0.20108563  0.97881069  0.48897838  1
  Be  Be247  1  0.20108563  0.97881069  0.98897838  1
  Be  Be248  1  0.53441896  0.22881069  0.48897838  1
  Be  Be249  1  0.53441896  0.22881069  0.98897838  1
  Be  Be250  1  0.53441896  0.47881069  0.48897838  1
  Be  Be251  1  0.53441896  0.47881069  0.98897838  1
  Be  Be252  1  0.53441896  0.72881069  0.48897838  1
  Be  Be253  1  0.53441896  0.72881069  0.98897838  1
  Be  Be254  1  0.53441896  0.97881069  0.48897838  1
  Be  Be255  1  0.53441896  0.97881069  0.98897838  1
  Be  Be256  1  0.86775229  0.22881069  0.48897838  1
  Be  Be257  1  0.86775229  0.22881069  0.98897838  1
  Be  Be258  1  0.86775229  0.47881069  0.48897838  1
  Be  Be259  1  0.86775229  0.47881069  0.98897838  1
  Be  Be260  1  0.86775229  0.72881069  0.48897838  1
  Be  Be261  1  0.86775229  0.72881069  0.98897838  1
  Be  Be262  1  0.86775229  0.97881069  0.48897838  1
  Be  Be263  1  0.86775229  0.97881069  0.98897838  1
  Be  Be264  1  0.20108563  0.14618931  0.23897838  1
  Be  Be265  1  0.20108563  0.14618931  0.73897838  1
  Be  Be266  1  0.20108563  0.39618931  0.23897838  1
  Be  Be267  1  0.20108563  0.39618931  0.73897838  1
  Be  Be268  1  0.20108563  0.64618931  0.23897838  1
  Be  Be269  1  0.20108563  0.64618931  0.73897838  1
  Be  Be270  1  0.20108563  0.89618931  0.23897838  1
  Be  Be271  1  0.20108563  0.89618931  0.73897838  1
  Be  Be272  1  0.53441896  0.14618931  0.23897838  1
  Be  Be273  1  0.53441896  0.14618931  0.73897838  1
  Be  Be274  1  0.53441896  0.39618931  0.23897838  1
  Be  Be275  1  0.53441896  0.39618931  0.73897838  1
  Be  Be276  1  0.53441896  0.64618931  0.23897838  1
  Be  Be277  1  0.53441896  0.64618931  0.73897838  1
  Be  Be278  1  0.53441896  0.89618931  0.23897838  1
  Be  Be279  1  0.53441896  0.89618931  0.73897838  1
  Be  Be280  1  0.86775229  0.14618931  0.23897838  1
  Be  Be281  1  0.86775229  0.14618931  0.73897838  1
  Be  Be282  1  0.86775229  0.39618931  0.23897838  1
  Be  Be283  1  0.86775229  0.39618931  0.73897838  1
  Be  Be284  1  0.86775229  0.64618931  0.23897838  1
  Be  Be285  1  0.86775229  0.64618931  0.73897838  1
  Be  Be286  1  0.86775229  0.89618931  0.23897838  1
  Be  Be287  1  0.86775229  0.89618931  0.73897838  1
  O  O288  1  0.25214658  0.19891591  0.47345864  1
  O  O289  1  0.25214658  0.19891591  0.97345864  1
  O  O290  1  0.25214658  0.44891591  0.47345864  1
  O  O291  1  0.25214658  0.44891591  0.97345864  1
  O  O292  1  0.25214658  0.69891591  0.47345864  1
  O  O293  1  0.25214658  0.69891591  0.97345864  1
  O  O294  1  0.25214658  0.94891591  0.47345864  1
  O  O295  1  0.25214658  0.94891591  0.97345864  1
  O  O296  1  0.58547992  0.19891591  0.47345864  1
  O  O297  1  0.58547992  0.19891591  0.97345864  1
  O  O298  1  0.58547992  0.44891591  0.47345864  1
  O  O299  1  0.58547992  0.44891591  0.97345864  1
  O  O300  1  0.58547992  0.69891591  0.47345864  1
  O  O301  1  0.58547992  0.69891591  0.97345864  1
  O  O302  1  0.58547992  0.94891591  0.47345864  1
  O  O303  1  0.58547992  0.94891591  0.97345864  1
  O  O304  1  0.91881325  0.19891591  0.47345864  1
  O  O305  1  0.91881325  0.19891591  0.97345864  1
  O  O306  1  0.91881325  0.44891591  0.47345864  1
  O  O307  1  0.91881325  0.44891591  0.97345864  1
  O  O308  1  0.91881325  0.69891591  0.47345864  1
  O  O309  1  0.91881325  0.69891591  0.97345864  1
  O  O310  1  0.91881325  0.94891591  0.47345864  1
  O  O311  1  0.91881325  0.94891591  0.97345864  1
  O  O312  1  0.11017727  0.16029678  0.20558140  1
  O  O313  1  0.11017727  0.16029678  0.70558140  1
  O  O314  1  0.11017727  0.41029678  0.20558140  1
  O  O315  1  0.11017727  0.41029678  0.70558140  1
  O  O316  1  0.11017727  0.66029678  0.20558140  1
  O  O317  1  0.11017727  0.66029678  0.70558140  1
  O  O318  1  0.11017727  0.91029678  0.20558140  1
  O  O319  1  0.11017727  0.91029678  0.70558140  1
  O  O320  1  0.44351060  0.16029678  0.20558140  1
  O  O321  1  0.44351060  0.16029678  0.70558140  1
  O  O322  1  0.44351060  0.41029678  0.20558140  1
  O  O323  1  0.44351060  0.41029678  0.70558140  1
  O  O324  1  0.44351060  0.66029678  0.20558140  1
  O  O325  1  0.44351060  0.66029678  0.70558140  1
  O  O326  1  0.44351060  0.91029678  0.20558140  1
  O  O327  1  0.44351060  0.91029678  0.70558140  1
  O  O328  1  0.77684393  0.16029678  0.20558140  1
  O  O329  1  0.77684393  0.16029678  0.70558140  1
  O  O330  1  0.77684393  0.41029678  0.20558140  1
  O  O331  1  0.77684393  0.41029678  0.70558140  1
  O  O332  1  0.77684393  0.66029678  0.20558140  1
  O  O333  1  0.77684393  0.66029678  0.70558140  1
  O  O334  1  0.77684393  0.91029678  0.20558140  1
  O  O335  1  0.77684393  0.91029678  0.70558140  1
  O  O336  1  0.22315607  0.08970322  0.29441860  1
  O  O337  1  0.22315607  0.08970322  0.79441860  1
  O  O338  1  0.22315607  0.33970322  0.29441860  1
  O  O339  1  0.22315607  0.33970322  0.79441860  1
  O  O340  1  0.22315607  0.58970322  0.29441860  1
  O  O341  1  0.22315607  0.58970322  0.79441860  1
  O  O342  1  0.22315607  0.83970322  0.29441860  1
  O  O343  1  0.22315607  0.83970322  0.79441860  1
  O  O344  1  0.55648940  0.08970322  0.29441860  1
  O  O345  1  0.55648940  0.08970322  0.79441860  1
  O  O346  1  0.55648940  0.33970322  0.29441860  1
  O  O347  1  0.55648940  0.33970322  0.79441860  1
  O  O348  1  0.55648940  0.58970322  0.29441860  1
  O  O349  1  0.55648940  0.58970322  0.79441860  1
  O  O350  1  0.55648940  0.83970322  0.29441860  1
  O  O351  1  0.55648940  0.83970322  0.79441860  1
  O  O352  1  0.88982273  0.08970322  0.29441860  1
  O  O353  1  0.88982273  0.08970322  0.79441860  1
  O  O354  1  0.88982273  0.33970322  0.29441860  1
  O  O355  1  0.88982273  0.33970322  0.79441860  1
  O  O356  1  0.88982273  0.58970322  0.29441860  1
  O  O357  1  0.88982273  0.58970322  0.79441860  1
  O  O358  1  0.88982273  0.83970322  0.29441860  1
  O  O359  1  0.88982273  0.83970322  0.79441860  1
  O  O360  1  0.11017727  0.21470322  0.45558140  1
  O  O361  1  0.11017727  0.21470322  0.95558140  1
  O  O362  1  0.11017727  0.46470322  0.45558140  1
  O  O363  1  0.11017727  0.46470322  0.95558140  1
  O  O364  1  0.11017727  0.71470322  0.45558140  1
  O  O365  1  0.11017727  0.71470322  0.95558140  1
  O  O366  1  0.11017727  0.96470322  0.45558140  1
  O  O367  1  0.11017727  0.96470322  0.95558140  1
  O  O368  1  0.44351060  0.21470322  0.45558140  1
  O  O369  1  0.44351060  0.21470322  0.95558140  1
  O  O370  1  0.44351060  0.46470322  0.45558140  1
  O  O371  1  0.44351060  0.46470322  0.95558140  1
  O  O372  1  0.44351060  0.71470322  0.45558140  1
  O  O373  1  0.44351060  0.71470322  0.95558140  1
  O  O374  1  0.44351060  0.96470322  0.45558140  1
  O  O375  1  0.44351060  0.96470322  0.95558140  1
  O  O376  1  0.77684393  0.21470322  0.45558140  1
  O  O377  1  0.77684393  0.21470322  0.95558140  1
  O  O378  1  0.77684393  0.46470322  0.45558140  1
  O  O379  1  0.77684393  0.46470322  0.95558140  1
  O  O380  1  0.77684393  0.71470322  0.45558140  1
  O  O381  1  0.77684393  0.71470322  0.95558140  1
  O  O382  1  0.77684393  0.96470322  0.45558140  1
  O  O383  1  0.77684393  0.96470322  0.95558140  1
  O  O384  1  0.08118675  0.07391591  0.27654136  1
  O  O385  1  0.08118675  0.07391591  0.77654136  1
  O  O386  1  0.08118675  0.32391591  0.27654136  1
  O  O387  1  0.08118675  0.32391591  0.77654136  1
  O  O388  1  0.08118675  0.57391591  0.27654136  1
  O  O389  1  0.08118675  0.57391591  0.77654136  1
  O  O390  1  0.08118675  0.82391591  0.27654136  1
  O  O391  1  0.08118675  0.82391591  0.77654136  1
  O  O392  1  0.41452008  0.07391591  0.27654136  1
  O  O393  1  0.41452008  0.07391591  0.77654136  1
  O  O394  1  0.41452008  0.32391591  0.27654136  1
  O  O395  1  0.41452008  0.32391591  0.77654136  1
  O  O396  1  0.41452008  0.57391591  0.27654136  1
  O  O397  1  0.41452008  0.57391591  0.77654136  1
  O  O398  1  0.41452008  0.82391591  0.27654136  1
  O  O399  1  0.41452008  0.82391591  0.77654136  1
  O  O400  1  0.74785342  0.07391591  0.27654136  1
  O  O401  1  0.74785342  0.07391591  0.77654136  1
  O  O402  1  0.74785342  0.32391591  0.27654136  1
  O  O403  1  0.74785342  0.32391591  0.77654136  1
  O  O404  1  0.74785342  0.57391591  0.27654136  1
  O  O405  1  0.74785342  0.57391591  0.77654136  1
  O  O406  1  0.74785342  0.82391591  0.27654136  1
  O  O407  1  0.74785342  0.82391591  0.77654136  1
  O  O408  1  0.08118675  0.05108409  0.02654136  1
  O  O409  1  0.08118675  0.05108409  0.52654136  1
  O  O410  1  0.08118675  0.30108409  0.02654136  1
  O  O411  1  0.08118675  0.30108409  0.52654136  1
  O  O412  1  0.08118675  0.55108409  0.02654136  1
  O  O413  1  0.08118675  0.55108409  0.52654136  1
  O  O414  1  0.08118675  0.80108409  0.02654136  1
  O  O415  1  0.08118675  0.80108409  0.52654136  1
  O  O416  1  0.41452008  0.05108409  0.02654136  1
  O  O417  1  0.41452008  0.05108409  0.52654136  1
  O  O418  1  0.41452008  0.30108409  0.02654136  1
  O  O419  1  0.41452008  0.30108409  0.52654136  1
  O  O420  1  0.41452008  0.55108409  0.02654136  1
  O  O421  1  0.41452008  0.55108409  0.52654136  1
  O  O422  1  0.41452008  0.80108409  0.02654136  1
  O  O423  1  0.41452008  0.80108409  0.52654136  1
  O  O424  1  0.74785342  0.05108409  0.02654136  1
  O  O425  1  0.74785342  0.05108409  0.52654136  1
  O  O426  1  0.74785342  0.30108409  0.02654136  1
  O  O427  1  0.74785342  0.30108409  0.52654136  1
  O  O428  1  0.74785342  0.55108409  0.02654136  1
  O  O429  1  0.74785342  0.55108409  0.52654136  1
  O  O430  1  0.74785342  0.80108409  0.02654136  1
  O  O431  1  0.74785342  0.80108409  0.52654136  1
  O  O432  1  0.25214658  0.17608409  0.22345864  1
  O  O433  1  0.25214658  0.17608409  0.72345864  1
  O  O434  1  0.25214658  0.42608409  0.22345864  1
  O  O435  1  0.25214658  0.42608409  0.72345864  1
  O  O436  1  0.25214658  0.67608409  0.22345864  1
  O  O437  1  0.25214658  0.67608409  0.72345864  1
  O  O438  1  0.25214658  0.92608409  0.22345864  1
  O  O439  1  0.25214658  0.92608409  0.72345864  1
  O  O440  1  0.58547992  0.17608409  0.22345864  1
  O  O441  1  0.58547992  0.17608409  0.72345864  1
  O  O442  1  0.58547992  0.42608409  0.22345864  1
  O  O443  1  0.58547992  0.42608409  0.72345864  1
  O  O444  1  0.58547992  0.67608409  0.22345864  1
  O  O445  1  0.58547992  0.67608409  0.72345864  1
  O  O446  1  0.58547992  0.92608409  0.22345864  1
  O  O447  1  0.58547992  0.92608409  0.72345864  1
  O  O448  1  0.91881325  0.17608409  0.22345864  1
  O  O449  1  0.91881325  0.17608409  0.72345864  1
  O  O450  1  0.91881325  0.42608409  0.22345864  1
  O  O451  1  0.91881325  0.42608409  0.72345864  1
  O  O452  1  0.91881325  0.67608409  0.22345864  1
  O  O453  1  0.91881325  0.67608409  0.72345864  1
  O  O454  1  0.91881325  0.92608409  0.22345864  1
  O  O455  1  0.91881325  0.92608409  0.72345864  1
  O  O456  1  0.22315607  0.03529678  0.04441860  1
  O  O457  1  0.22315607  0.03529678  0.54441860  1
  O  O458  1  0.22315607  0.28529678  0.04441860  1
  O  O459  1  0.22315607  0.28529678  0.54441860  1
  O  O460  1  0.22315607  0.53529678  0.04441860  1
  O  O461  1  0.22315607  0.53529678  0.54441860  1
  O  O462  1  0.22315607  0.78529678  0.04441860  1
  O  O463  1  0.22315607  0.78529678  0.54441860  1
  O  O464  1  0.55648940  0.03529678  0.04441860  1
  O  O465  1  0.55648940  0.03529678  0.54441860  1
  O  O466  1  0.55648940  0.28529678  0.04441860  1
  O  O467  1  0.55648940  0.28529678  0.54441860  1
  O  O468  1  0.55648940  0.53529678  0.04441860  1
  O  O469  1  0.55648940  0.53529678  0.54441860  1
  O  O470  1  0.55648940  0.78529678  0.04441860  1
  O  O471  1  0.55648940  0.78529678  0.54441860  1
  O  O472  1  0.88982273  0.03529678  0.04441860  1
  O  O473  1  0.88982273  0.03529678  0.54441860  1
  O  O474  1  0.88982273  0.28529678  0.04441860  1
  O  O475  1  0.88982273  0.28529678  0.54441860  1
  O  O476  1  0.88982273  0.53529678  0.04441860  1
  O  O477  1  0.88982273  0.53529678  0.54441860  1
  O  O478  1  0.88982273  0.78529678  0.04441860  1
  O  O479  1  0.88982273  0.78529678  0.54441860  1
