# generated using pymatgen
data_VAgO3
_symmetry_space_group_name_H-M   'P 1'
_cell_length_a   10.66504663
_cell_length_b   9.93690684
_cell_length_c   11.59512723
_cell_angle_alpha   90.00000000
_cell_angle_beta   112.79963951
_cell_angle_gamma   90.00000000
_symmetry_Int_Tables_number   1
_chemical_formula_structural   VAgO3
_chemical_formula_sum   'V16 Ag16 O48'
_cell_volume   1132.81006697
_cell_formula_units_Z   16
loop_
 _symmetry_equiv_pos_site_id
 _symmetry_equiv_pos_as_xyz
  1  'x, y, z'
loop_
 _atom_site_type_symbol
 _atom_site_label
 _atom_site_symmetry_multiplicity
 _atom_site_fract_x
 _atom_site_fract_y
 _atom_site_fract_z
 _atom_site_occupancy
  V  V0  1  0.82048903  -0.08363756  0.38428790  1
  V  V1  1  0.82048903  -0.08363756  0.88428790  1
  V  V2  1  1.32048903  0.41636244  0.38428790  1
  V  V3  1  1.32048903  0.41636244  0.88428790  1
  V  V4  1  0.17951097  -0.08363756  0.36571210  1
  V  V5  1  0.17951097  -0.08363756  0.86571210  1
  V  V6  1  0.67951097  0.41636244  0.36571210  1
  V  V7  1  0.67951097  0.41636244  0.86571210  1
  V  V8  1  0.17951097  0.08363756  0.11571210  1
  V  V9  1  0.17951097  0.08363756  0.61571210  1
  V  V10  1  0.67951097  0.58363756  0.11571210  1
  V  V11  1  0.67951097  0.58363756  0.61571210  1
  V  V12  1  0.82048903  0.08363756  0.13428790  1
  V  V13  1  0.82048903  0.08363756  0.63428790  1
  V  V14  1  1.32048903  0.58363756  0.13428790  1
  V  V15  1  1.32048903  0.58363756  0.63428790  1
  Ag  Ag16  1  0.50000000  -0.23393483  0.37500000  1
  Ag  Ag17  1  0.50000000  -0.23393483  0.87500000  1
  Ag  Ag18  1  1.00000000  0.26606517  0.37500000  1
  Ag  Ag19  1  1.00000000  0.26606517  0.87500000  1
  Ag  Ag20  1  0.50000000  0.23393483  0.12500000  1
  Ag  Ag21  1  0.50000000  0.23393483  0.62500000  1
  Ag  Ag22  1  1.00000000  0.73393483  0.12500000  1
  Ag  Ag23  1  1.00000000  0.73393483  0.62500000  1
  Ag  Ag24  1  0.50000000  0.08413933  0.37500000  1
  Ag  Ag25  1  0.50000000  0.08413933  0.87500000  1
  Ag  Ag26  1  1.00000000  0.58413933  0.37500000  1
  Ag  Ag27  1  1.00000000  0.58413933  0.87500000  1
  Ag  Ag28  1  0.50000000  -0.08413933  0.12500000  1
  Ag  Ag29  1  0.50000000  -0.08413933  0.62500000  1
  Ag  Ag30  1  1.00000000  0.41586067  0.12500000  1
  Ag  Ag31  1  1.00000000  0.41586067  0.62500000  1
  O  O32  1  0.87204332  0.03480145  0.01108020  1
  O  O33  1  0.87204332  0.03480145  0.51108020  1
  O  O34  1  1.37204332  0.53480145  0.01108020  1
  O  O35  1  1.37204332  0.53480145  0.51108020  1
  O  O36  1  0.12795668  0.03480145  0.23891980  1
  O  O37  1  0.12795668  0.03480145  0.73891980  1
  O  O38  1  0.62795668  0.53480145  0.23891980  1
  O  O39  1  0.62795668  0.53480145  0.73891980  1
  O  O40  1  0.12795668  -0.03480145  0.48891980  1
  O  O41  1  0.12795668  -0.03480145  0.98891980  1
  O  O42  1  0.62795668  0.46519855  0.48891980  1
  O  O43  1  0.62795668  0.46519855  0.98891980  1
  O  O44  1  0.87204332  -0.03480145  0.26108020  1
  O  O45  1  0.87204332  -0.03480145  0.76108020  1
  O  O46  1  1.37204332  0.46519855  0.26108020  1
  O  O47  1  1.37204332  0.46519855  0.76108020  1
  O  O48  1  0.37442322  0.25852222  0.43188747  1
  O  O49  1  0.37442322  0.25852222  0.93188747  1
  O  O50  1  0.87442322  0.75852222  0.43188747  1
  O  O51  1  0.87442322  0.75852222  0.93188747  1
  O  O52  1  0.62557678  0.25852222  0.31811253  1
  O  O53  1  0.62557678  0.25852222  0.81811253  1
  O  O54  1  1.12557678  0.75852222  0.31811253  1
  O  O55  1  1.12557678  0.75852222  0.81811253  1
  O  O56  1  0.62557678  -0.25852222  0.06811253  1
  O  O57  1  0.62557678  -0.25852222  0.56811253  1
  O  O58  1  1.12557678  0.24147778  0.06811253  1
  O  O59  1  1.12557678  0.24147778  0.56811253  1
  O  O60  1  0.37442322  -0.25852222  0.18188747  1
  O  O61  1  0.37442322  -0.25852222  0.68188747  1
  O  O62  1  0.87442322  0.24147778  0.18188747  1
  O  O63  1  0.87442322  0.24147778  0.68188747  1
  O  O64  1  0.64884825  0.08060699  0.07356422  1
  O  O65  1  0.64884825  0.08060699  0.57356422  1
  O  O66  1  1.14884825  0.58060699  0.07356422  1
  O  O67  1  1.14884825  0.58060699  0.57356422  1
  O  O68  1  0.35115175  0.08060699  0.17643578  1
  O  O69  1  0.35115175  0.08060699  0.67643578  1
  O  O70  1  0.85115175  0.58060699  0.17643578  1
  O  O71  1  0.85115175  0.58060699  0.67643578  1
  O  O72  1  0.35115175  -0.08060699  0.42643578  1
  O  O73  1  0.35115175  -0.08060699  0.92643578  1
  O  O74  1  0.85115175  0.41939301  0.42643578  1
  O  O75  1  0.85115175  0.41939301  0.92643578  1
  O  O76  1  0.64884825  -0.08060699  0.32356422  1
  O  O77  1  0.64884825  -0.08060699  0.82356422  1
  O  O78  1  1.14884825  0.41939301  0.32356422  1
  O  O79  1  1.14884825  0.41939301  0.82356422  1
