# generated using pymatgen
data_K2SnO3
_symmetry_space_group_name_H-M   'P 1'
_cell_length_a   17.33049143
_cell_length_b   20.87188204
_cell_length_c   21.18023448
_cell_angle_alpha   90.00000000
_cell_angle_beta   90.00000000
_cell_angle_gamma   90.00000000
_symmetry_Int_Tables_number   1
_chemical_formula_structural   K2SnO3
_chemical_formula_sum   'K144 Sn72 O216'
_cell_volume   7661.31384150
_cell_formula_units_Z   72
loop_
 _symmetry_equiv_pos_site_id
 _symmetry_equiv_pos_as_xyz
  1  'x, y, z'
loop_
 _atom_site_type_symbol
 _atom_site_label
 _atom_site_symmetry_multiplicity
 _atom_site_fract_x
 _atom_site_fract_y
 _atom_site_fract_z
 _atom_site_occupancy
  K  K0  1  0.07788861  0.04390746  0.29560929  1
  K  K1  1  0.07788861  0.04390746  0.62894262  1
  K  K2  1  0.07788861  0.04390746  0.96227595  1
  K  K3  1  0.07788861  0.54390746  0.29560929  1
  K  K4  1  0.07788861  0.54390746  0.62894262  1
  K  K5  1  0.07788861  0.54390746  0.96227595  1
  K  K6  1  0.41122194  0.04390746  0.29560929  1
  K  K7  1  0.41122194  0.04390746  0.62894262  1
  K  K8  1  0.41122194  0.04390746  0.96227595  1
  K  K9  1  0.41122194  0.54390746  0.29560929  1
  K  K10  1  0.41122194  0.54390746  0.62894262  1
  K  K11  1  0.41122194  0.54390746  0.96227595  1
  K  K12  1  0.74455527  0.04390746  0.29560929  1
  K  K13  1  0.74455527  0.04390746  0.62894262  1
  K  K14  1  0.74455527  0.04390746  0.96227595  1
  K  K15  1  0.74455527  0.54390746  0.29560929  1
  K  K16  1  0.74455527  0.54390746  0.62894262  1
  K  K17  1  0.74455527  0.54390746  0.96227595  1
  K  K18  1  0.25544473  0.45609254  0.03772405  1
  K  K19  1  0.25544473  0.45609254  0.37105738  1
  K  K20  1  0.25544473  0.45609254  0.70439071  1
  K  K21  1  0.25544473  0.95609254  0.03772405  1
  K  K22  1  0.25544473  0.95609254  0.37105738  1
  K  K23  1  0.25544473  0.95609254  0.70439071  1
  K  K24  1  0.58877806  0.45609254  0.03772405  1
  K  K25  1  0.58877806  0.45609254  0.37105738  1
  K  K26  1  0.58877806  0.45609254  0.70439071  1
  K  K27  1  0.58877806  0.95609254  0.03772405  1
  K  K28  1  0.58877806  0.95609254  0.37105738  1
  K  K29  1  0.58877806  0.95609254  0.70439071  1
  K  K30  1  0.92211139  0.45609254  0.03772405  1
  K  K31  1  0.92211139  0.45609254  0.37105738  1
  K  K32  1  0.92211139  0.45609254  0.70439071  1
  K  K33  1  0.92211139  0.95609254  0.03772405  1
  K  K34  1  0.92211139  0.95609254  0.37105738  1
  K  K35  1  0.92211139  0.95609254  0.70439071  1
  K  K36  1  0.07788861  0.20609254  0.29560929  1
  K  K37  1  0.07788861  0.20609254  0.62894262  1
  K  K38  1  0.07788861  0.20609254  0.96227595  1
  K  K39  1  0.07788861  0.70609254  0.29560929  1
  K  K40  1  0.07788861  0.70609254  0.62894262  1
  K  K41  1  0.07788861  0.70609254  0.96227595  1
  K  K42  1  0.41122194  0.20609254  0.29560929  1
  K  K43  1  0.41122194  0.20609254  0.62894262  1
  K  K44  1  0.41122194  0.20609254  0.96227595  1
  K  K45  1  0.41122194  0.70609254  0.29560929  1
  K  K46  1  0.41122194  0.70609254  0.62894262  1
  K  K47  1  0.41122194  0.70609254  0.96227595  1
  K  K48  1  0.74455527  0.20609254  0.29560929  1
  K  K49  1  0.74455527  0.20609254  0.62894262  1
  K  K50  1  0.74455527  0.20609254  0.96227595  1
  K  K51  1  0.74455527  0.70609254  0.29560929  1
  K  K52  1  0.74455527  0.70609254  0.62894262  1
  K  K53  1  0.74455527  0.70609254  0.96227595  1
  K  K54  1  0.24455527  0.04390746  0.20439071  1
  K  K55  1  0.24455527  0.04390746  0.53772405  1
  K  K56  1  0.24455527  0.04390746  0.87105738  1
  K  K57  1  0.24455527  0.54390746  0.20439071  1
  K  K58  1  0.24455527  0.54390746  0.53772405  1
  K  K59  1  0.24455527  0.54390746  0.87105738  1
  K  K60  1  0.57788861  0.04390746  0.20439071  1
  K  K61  1  0.57788861  0.04390746  0.53772405  1
  K  K62  1  0.57788861  0.04390746  0.87105738  1
  K  K63  1  0.57788861  0.54390746  0.20439071  1
  K  K64  1  0.57788861  0.54390746  0.53772405  1
  K  K65  1  0.57788861  0.54390746  0.87105738  1
  K  K66  1  0.91122194  0.04390746  0.20439071  1
  K  K67  1  0.91122194  0.04390746  0.53772405  1
  K  K68  1  0.91122194  0.04390746  0.87105738  1
  K  K69  1  0.91122194  0.54390746  0.20439071  1
  K  K70  1  0.91122194  0.54390746  0.53772405  1
  K  K71  1  0.91122194  0.54390746  0.87105738  1
  K  K72  1  0.08877806  0.45609254  0.12894262  1
  K  K73  1  0.08877806  0.45609254  0.46227595  1
  K  K74  1  0.08877806  0.45609254  0.79560929  1
  K  K75  1  0.08877806  0.95609254  0.12894262  1
  K  K76  1  0.08877806  0.95609254  0.46227595  1
  K  K77  1  0.08877806  0.95609254  0.79560929  1
  K  K78  1  0.42211139  0.45609254  0.12894262  1
  K  K79  1  0.42211139  0.45609254  0.46227595  1
  K  K80  1  0.42211139  0.45609254  0.79560929  1
  K  K81  1  0.42211139  0.95609254  0.12894262  1
  K  K82  1  0.42211139  0.95609254  0.46227595  1
  K  K83  1  0.42211139  0.95609254  0.79560929  1
  K  K84  1  0.75544473  0.45609254  0.12894262  1
  K  K85  1  0.75544473  0.45609254  0.46227595  1
  K  K86  1  0.75544473  0.45609254  0.79560929  1
  K  K87  1  0.75544473  0.95609254  0.12894262  1
  K  K88  1  0.75544473  0.95609254  0.46227595  1
  K  K89  1  0.75544473  0.95609254  0.79560929  1
  K  K90  1  0.25544473  0.29390746  0.03772405  1
  K  K91  1  0.25544473  0.29390746  0.37105738  1
  K  K92  1  0.25544473  0.29390746  0.70439071  1
  K  K93  1  0.25544473  0.79390746  0.03772405  1
  K  K94  1  0.25544473  0.79390746  0.37105738  1
  K  K95  1  0.25544473  0.79390746  0.70439071  1
  K  K96  1  0.58877806  0.29390746  0.03772405  1
  K  K97  1  0.58877806  0.29390746  0.37105738  1
  K  K98  1  0.58877806  0.29390746  0.70439071  1
  K  K99  1  0.58877806  0.79390746  0.03772405  1
  K  K100  1  0.58877806  0.79390746  0.37105738  1
  K  K101  1  0.58877806  0.79390746  0.70439071  1
  K  K102  1  0.92211139  0.29390746  0.03772405  1
  K  K103  1  0.92211139  0.29390746  0.37105738  1
  K  K104  1  0.92211139  0.29390746  0.70439071  1
  K  K105  1  0.92211139  0.79390746  0.03772405  1
  K  K106  1  0.92211139  0.79390746  0.37105738  1
  K  K107  1  0.92211139  0.79390746  0.70439071  1
  K  K108  1  0.24455527  0.20609254  0.20439071  1
  K  K109  1  0.24455527  0.20609254  0.53772405  1
  K  K110  1  0.24455527  0.20609254  0.87105738  1
  K  K111  1  0.24455527  0.70609254  0.20439071  1
  K  K112  1  0.24455527  0.70609254  0.53772405  1
  K  K113  1  0.24455527  0.70609254  0.87105738  1
  K  K114  1  0.57788861  0.20609254  0.20439071  1
  K  K115  1  0.57788861  0.20609254  0.53772405  1
  K  K116  1  0.57788861  0.20609254  0.87105738  1
  K  K117  1  0.57788861  0.70609254  0.20439071  1
  K  K118  1  0.57788861  0.70609254  0.53772405  1
  K  K119  1  0.57788861  0.70609254  0.87105738  1
  K  K120  1  0.91122194  0.20609254  0.20439071  1
  K  K121  1  0.91122194  0.20609254  0.53772405  1
  K  K122  1  0.91122194  0.20609254  0.87105738  1
  K  K123  1  0.91122194  0.70609254  0.20439071  1
  K  K124  1  0.91122194  0.70609254  0.53772405  1
  K  K125  1  0.91122194  0.70609254  0.87105738  1
  K  K126  1  0.08877806  0.29390746  0.12894262  1
  K  K127  1  0.08877806  0.29390746  0.46227595  1
  K  K128  1  0.08877806  0.29390746  0.79560929  1
  K  K129  1  0.08877806  0.79390746  0.12894262  1
  K  K130  1  0.08877806  0.79390746  0.46227595  1
  K  K131  1  0.08877806  0.79390746  0.79560929  1
  K  K132  1  0.42211139  0.29390746  0.12894262  1
  K  K133  1  0.42211139  0.29390746  0.46227595  1
  K  K134  1  0.42211139  0.29390746  0.79560929  1
  K  K135  1  0.42211139  0.79390746  0.12894262  1
  K  K136  1  0.42211139  0.79390746  0.46227595  1
  K  K137  1  0.42211139  0.79390746  0.79560929  1
  K  K138  1  0.75544473  0.29390746  0.12894262  1
  K  K139  1  0.75544473  0.29390746  0.46227595  1
  K  K140  1  0.75544473  0.29390746  0.79560929  1
  K  K141  1  0.75544473  0.79390746  0.12894262  1
  K  K142  1  0.75544473  0.79390746  0.46227595  1
  K  K143  1  0.75544473  0.79390746  0.79560929  1
  Sn  Sn144  1  0.24350308  0.37500000  0.21989844  1
  Sn  Sn145  1  0.24350308  0.37500000  0.55323177  1
  Sn  Sn146  1  0.24350308  0.37500000  0.88656510  1
  Sn  Sn147  1  0.24350308  0.87500000  0.21989844  1
  Sn  Sn148  1  0.24350308  0.87500000  0.55323177  1
  Sn  Sn149  1  0.24350308  0.87500000  0.88656510  1
  Sn  Sn150  1  0.57683641  0.37500000  0.21989844  1
  Sn  Sn151  1  0.57683641  0.37500000  0.55323177  1
  Sn  Sn152  1  0.57683641  0.37500000  0.88656510  1
  Sn  Sn153  1  0.57683641  0.87500000  0.21989844  1
  Sn  Sn154  1  0.57683641  0.87500000  0.55323177  1
  Sn  Sn155  1  0.57683641  0.87500000  0.88656510  1
  Sn  Sn156  1  0.91016974  0.37500000  0.21989844  1
  Sn  Sn157  1  0.91016974  0.37500000  0.55323177  1
  Sn  Sn158  1  0.91016974  0.37500000  0.88656510  1
  Sn  Sn159  1  0.91016974  0.87500000  0.21989844  1
  Sn  Sn160  1  0.91016974  0.87500000  0.55323177  1
  Sn  Sn161  1  0.91016974  0.87500000  0.88656510  1
  Sn  Sn162  1  0.07683641  0.37500000  0.28010156  1
  Sn  Sn163  1  0.07683641  0.37500000  0.61343490  1
  Sn  Sn164  1  0.07683641  0.37500000  0.94676823  1
  Sn  Sn165  1  0.07683641  0.87500000  0.28010156  1
  Sn  Sn166  1  0.07683641  0.87500000  0.61343490  1
  Sn  Sn167  1  0.07683641  0.87500000  0.94676823  1
  Sn  Sn168  1  0.41016974  0.37500000  0.28010156  1
  Sn  Sn169  1  0.41016974  0.37500000  0.61343490  1
  Sn  Sn170  1  0.41016974  0.37500000  0.94676823  1
  Sn  Sn171  1  0.41016974  0.87500000  0.28010156  1
  Sn  Sn172  1  0.41016974  0.87500000  0.61343490  1
  Sn  Sn173  1  0.41016974  0.87500000  0.94676823  1
  Sn  Sn174  1  0.74350308  0.37500000  0.28010156  1
  Sn  Sn175  1  0.74350308  0.37500000  0.61343490  1
  Sn  Sn176  1  0.74350308  0.37500000  0.94676823  1
  Sn  Sn177  1  0.74350308  0.87500000  0.28010156  1
  Sn  Sn178  1  0.74350308  0.87500000  0.61343490  1
  Sn  Sn179  1  0.74350308  0.87500000  0.94676823  1
  Sn  Sn180  1  0.25649692  0.12500000  0.05323177  1
  Sn  Sn181  1  0.25649692  0.12500000  0.38656510  1
  Sn  Sn182  1  0.25649692  0.12500000  0.71989844  1
  Sn  Sn183  1  0.25649692  0.62500000  0.05323177  1
  Sn  Sn184  1  0.25649692  0.62500000  0.38656510  1
  Sn  Sn185  1  0.25649692  0.62500000  0.71989844  1
  Sn  Sn186  1  0.58983026  0.12500000  0.05323177  1
  Sn  Sn187  1  0.58983026  0.12500000  0.38656510  1
  Sn  Sn188  1  0.58983026  0.12500000  0.71989844  1
  Sn  Sn189  1  0.58983026  0.62500000  0.05323177  1
  Sn  Sn190  1  0.58983026  0.62500000  0.38656510  1
  Sn  Sn191  1  0.58983026  0.62500000  0.71989844  1
  Sn  Sn192  1  0.92316359  0.12500000  0.05323177  1
  Sn  Sn193  1  0.92316359  0.12500000  0.38656510  1
  Sn  Sn194  1  0.92316359  0.12500000  0.71989844  1
  Sn  Sn195  1  0.92316359  0.62500000  0.05323177  1
  Sn  Sn196  1  0.92316359  0.62500000  0.38656510  1
  Sn  Sn197  1  0.92316359  0.62500000  0.71989844  1
  Sn  Sn198  1  0.08983026  0.12500000  0.11343490  1
  Sn  Sn199  1  0.08983026  0.12500000  0.44676823  1
  Sn  Sn200  1  0.08983026  0.12500000  0.78010156  1
  Sn  Sn201  1  0.08983026  0.62500000  0.11343490  1
  Sn  Sn202  1  0.08983026  0.62500000  0.44676823  1
  Sn  Sn203  1  0.08983026  0.62500000  0.78010156  1
  Sn  Sn204  1  0.42316359  0.12500000  0.11343490  1
  Sn  Sn205  1  0.42316359  0.12500000  0.44676823  1
  Sn  Sn206  1  0.42316359  0.12500000  0.78010156  1
  Sn  Sn207  1  0.42316359  0.62500000  0.11343490  1
  Sn  Sn208  1  0.42316359  0.62500000  0.44676823  1
  Sn  Sn209  1  0.42316359  0.62500000  0.78010156  1
  Sn  Sn210  1  0.75649692  0.12500000  0.11343490  1
  Sn  Sn211  1  0.75649692  0.12500000  0.44676823  1
  Sn  Sn212  1  0.75649692  0.12500000  0.78010156  1
  Sn  Sn213  1  0.75649692  0.62500000  0.11343490  1
  Sn  Sn214  1  0.75649692  0.62500000  0.44676823  1
  Sn  Sn215  1  0.75649692  0.62500000  0.78010156  1
  O  O216  1  0.33079414  0.43967368  0.24149467  1
  O  O217  1  0.33079414  0.43967368  0.57482801  1
  O  O218  1  0.33079414  0.43967368  0.90816134  1
  O  O219  1  0.33079414  0.93967368  0.24149467  1
  O  O220  1  0.33079414  0.93967368  0.57482801  1
  O  O221  1  0.33079414  0.93967368  0.90816134  1
  O  O222  1  0.66412747  0.43967368  0.24149467  1
  O  O223  1  0.66412747  0.43967368  0.57482801  1
  O  O224  1  0.66412747  0.43967368  0.90816134  1
  O  O225  1  0.66412747  0.93967368  0.24149467  1
  O  O226  1  0.66412747  0.93967368  0.57482801  1
  O  O227  1  0.66412747  0.93967368  0.90816134  1
  O  O228  1  0.99746080  0.43967368  0.24149467  1
  O  O229  1  0.99746080  0.43967368  0.57482801  1
  O  O230  1  0.99746080  0.43967368  0.90816134  1
  O  O231  1  0.99746080  0.93967368  0.24149467  1
  O  O232  1  0.99746080  0.93967368  0.57482801  1
  O  O233  1  0.99746080  0.93967368  0.90816134  1
  O  O234  1  0.16412747  0.31032632  0.25850533  1
  O  O235  1  0.16412747  0.31032632  0.59183866  1
  O  O236  1  0.16412747  0.31032632  0.92517199  1
  O  O237  1  0.16412747  0.81032632  0.25850533  1
  O  O238  1  0.16412747  0.81032632  0.59183866  1
  O  O239  1  0.16412747  0.81032632  0.92517199  1
  O  O240  1  0.49746080  0.31032632  0.25850533  1
  O  O241  1  0.49746080  0.31032632  0.59183866  1
  O  O242  1  0.49746080  0.31032632  0.92517199  1
  O  O243  1  0.49746080  0.81032632  0.25850533  1
  O  O244  1  0.49746080  0.81032632  0.59183866  1
  O  O245  1  0.49746080  0.81032632  0.92517199  1
  O  O246  1  0.83079414  0.31032632  0.25850533  1
  O  O247  1  0.83079414  0.31032632  0.59183866  1
  O  O248  1  0.83079414  0.31032632  0.92517199  1
  O  O249  1  0.83079414  0.81032632  0.25850533  1
  O  O250  1  0.83079414  0.81032632  0.59183866  1
  O  O251  1  0.83079414  0.81032632  0.92517199  1
  O  O252  1  0.16920586  0.06032632  0.07482801  1
  O  O253  1  0.16920586  0.06032632  0.40816134  1
  O  O254  1  0.16920586  0.06032632  0.74149467  1
  O  O255  1  0.16920586  0.56032632  0.07482801  1
  O  O256  1  0.16920586  0.56032632  0.40816134  1
  O  O257  1  0.16920586  0.56032632  0.74149467  1
  O  O258  1  0.50253920  0.06032632  0.07482801  1
  O  O259  1  0.50253920  0.06032632  0.40816134  1
  O  O260  1  0.50253920  0.06032632  0.74149467  1
  O  O261  1  0.50253920  0.56032632  0.07482801  1
  O  O262  1  0.50253920  0.56032632  0.40816134  1
  O  O263  1  0.50253920  0.56032632  0.74149467  1
  O  O264  1  0.83587253  0.06032632  0.07482801  1
  O  O265  1  0.83587253  0.06032632  0.40816134  1
  O  O266  1  0.83587253  0.06032632  0.74149467  1
  O  O267  1  0.83587253  0.56032632  0.07482801  1
  O  O268  1  0.83587253  0.56032632  0.40816134  1
  O  O269  1  0.83587253  0.56032632  0.74149467  1
  O  O270  1  0.00253920  0.18967368  0.09183866  1
  O  O271  1  0.00253920  0.18967368  0.42517199  1
  O  O272  1  0.00253920  0.18967368  0.75850533  1
  O  O273  1  0.00253920  0.68967368  0.09183866  1
  O  O274  1  0.00253920  0.68967368  0.42517199  1
  O  O275  1  0.00253920  0.68967368  0.75850533  1
  O  O276  1  0.33587253  0.18967368  0.09183866  1
  O  O277  1  0.33587253  0.18967368  0.42517199  1
  O  O278  1  0.33587253  0.18967368  0.75850533  1
  O  O279  1  0.33587253  0.68967368  0.09183866  1
  O  O280  1  0.33587253  0.68967368  0.42517199  1
  O  O281  1  0.33587253  0.68967368  0.75850533  1
  O  O282  1  0.66920586  0.18967368  0.09183866  1
  O  O283  1  0.66920586  0.18967368  0.42517199  1
  O  O284  1  0.66920586  0.18967368  0.75850533  1
  O  O285  1  0.66920586  0.68967368  0.09183866  1
  O  O286  1  0.66920586  0.68967368  0.42517199  1
  O  O287  1  0.66920586  0.68967368  0.75850533  1
  O  O288  1  0.00253920  0.06032632  0.09183866  1
  O  O289  1  0.00253920  0.06032632  0.42517199  1
  O  O290  1  0.00253920  0.06032632  0.75850533  1
  O  O291  1  0.00253920  0.56032632  0.09183866  1
  O  O292  1  0.00253920  0.56032632  0.42517199  1
  O  O293  1  0.00253920  0.56032632  0.75850533  1
  O  O294  1  0.33587253  0.06032632  0.09183866  1
  O  O295  1  0.33587253  0.06032632  0.42517199  1
  O  O296  1  0.33587253  0.06032632  0.75850533  1
  O  O297  1  0.33587253  0.56032632  0.09183866  1
  O  O298  1  0.33587253  0.56032632  0.42517199  1
  O  O299  1  0.33587253  0.56032632  0.75850533  1
  O  O300  1  0.66920586  0.06032632  0.09183866  1
  O  O301  1  0.66920586  0.06032632  0.42517199  1
  O  O302  1  0.66920586  0.06032632  0.75850533  1
  O  O303  1  0.66920586  0.56032632  0.09183866  1
  O  O304  1  0.66920586  0.56032632  0.42517199  1
  O  O305  1  0.66920586  0.56032632  0.75850533  1
  O  O306  1  0.16920586  0.18967368  0.07482801  1
  O  O307  1  0.16920586  0.18967368  0.40816134  1
  O  O308  1  0.16920586  0.18967368  0.74149467  1
  O  O309  1  0.16920586  0.68967368  0.07482801  1
  O  O310  1  0.16920586  0.68967368  0.40816134  1
  O  O311  1  0.16920586  0.68967368  0.74149467  1
  O  O312  1  0.50253920  0.18967368  0.07482801  1
  O  O313  1  0.50253920  0.18967368  0.40816134  1
  O  O314  1  0.50253920  0.18967368  0.74149467  1
  O  O315  1  0.50253920  0.68967368  0.07482801  1
  O  O316  1  0.50253920  0.68967368  0.40816134  1
  O  O317  1  0.50253920  0.68967368  0.74149467  1
  O  O318  1  0.83587253  0.18967368  0.07482801  1
  O  O319  1  0.83587253  0.18967368  0.40816134  1
  O  O320  1  0.83587253  0.18967368  0.74149467  1
  O  O321  1  0.83587253  0.68967368  0.07482801  1
  O  O322  1  0.83587253  0.68967368  0.40816134  1
  O  O323  1  0.83587253  0.68967368  0.74149467  1
  O  O324  1  0.16412747  0.43967368  0.25850533  1
  O  O325  1  0.16412747  0.43967368  0.59183866  1
  O  O326  1  0.16412747  0.43967368  0.92517199  1
  O  O327  1  0.16412747  0.93967368  0.25850533  1
  O  O328  1  0.16412747  0.93967368  0.59183866  1
  O  O329  1  0.16412747  0.93967368  0.92517199  1
  O  O330  1  0.49746080  0.43967368  0.25850533  1
  O  O331  1  0.49746080  0.43967368  0.59183866  1
  O  O332  1  0.49746080  0.43967368  0.92517199  1
  O  O333  1  0.49746080  0.93967368  0.25850533  1
  O  O334  1  0.49746080  0.93967368  0.59183866  1
  O  O335  1  0.49746080  0.93967368  0.92517199  1
  O  O336  1  0.83079414  0.43967368  0.25850533  1
  O  O337  1  0.83079414  0.43967368  0.59183866  1
  O  O338  1  0.83079414  0.43967368  0.92517199  1
  O  O339  1  0.83079414  0.93967368  0.25850533  1
  O  O340  1  0.83079414  0.93967368  0.59183866  1
  O  O341  1  0.83079414  0.93967368  0.92517199  1
  O  O342  1  0.33079414  0.31032632  0.24149467  1
  O  O343  1  0.33079414  0.31032632  0.57482801  1
  O  O344  1  0.33079414  0.31032632  0.90816134  1
  O  O345  1  0.33079414  0.81032632  0.24149467  1
  O  O346  1  0.33079414  0.81032632  0.57482801  1
  O  O347  1  0.33079414  0.81032632  0.90816134  1
  O  O348  1  0.66412747  0.31032632  0.24149467  1
  O  O349  1  0.66412747  0.31032632  0.57482801  1
  O  O350  1  0.66412747  0.31032632  0.90816134  1
  O  O351  1  0.66412747  0.81032632  0.24149467  1
  O  O352  1  0.66412747  0.81032632  0.57482801  1
  O  O353  1  0.66412747  0.81032632  0.90816134  1
  O  O354  1  0.99746080  0.31032632  0.24149467  1
  O  O355  1  0.99746080  0.31032632  0.57482801  1
  O  O356  1  0.99746080  0.31032632  0.90816134  1
  O  O357  1  0.99746080  0.81032632  0.24149467  1
  O  O358  1  0.99746080  0.81032632  0.57482801  1
  O  O359  1  0.99746080  0.81032632  0.90816134  1
  O  O360  1  0.11496437  0.12500000  0.20276771  1
  O  O361  1  0.11496437  0.12500000  0.53610104  1
  O  O362  1  0.11496437  0.12500000  0.86943438  1
  O  O363  1  0.11496437  0.62500000  0.20276771  1
  O  O364  1  0.11496437  0.62500000  0.53610104  1
  O  O365  1  0.11496437  0.62500000  0.86943438  1
  O  O366  1  0.44829770  0.12500000  0.20276771  1
  O  O367  1  0.44829770  0.12500000  0.53610104  1
  O  O368  1  0.44829770  0.12500000  0.86943438  1
  O  O369  1  0.44829770  0.62500000  0.20276771  1
  O  O370  1  0.44829770  0.62500000  0.53610104  1
  O  O371  1  0.44829770  0.62500000  0.86943438  1
  O  O372  1  0.78163103  0.12500000  0.20276771  1
  O  O373  1  0.78163103  0.12500000  0.53610104  1
  O  O374  1  0.78163103  0.12500000  0.86943438  1
  O  O375  1  0.78163103  0.62500000  0.20276771  1
  O  O376  1  0.78163103  0.62500000  0.53610104  1
  O  O377  1  0.78163103  0.62500000  0.86943438  1
  O  O378  1  0.21836897  0.37500000  0.13056562  1
  O  O379  1  0.21836897  0.37500000  0.46389896  1
  O  O380  1  0.21836897  0.37500000  0.79723229  1
  O  O381  1  0.21836897  0.87500000  0.13056562  1
  O  O382  1  0.21836897  0.87500000  0.46389896  1
  O  O383  1  0.21836897  0.87500000  0.79723229  1
  O  O384  1  0.55170230  0.37500000  0.13056562  1
  O  O385  1  0.55170230  0.37500000  0.46389896  1
  O  O386  1  0.55170230  0.37500000  0.79723229  1
  O  O387  1  0.55170230  0.87500000  0.13056562  1
  O  O388  1  0.55170230  0.87500000  0.46389896  1
  O  O389  1  0.55170230  0.87500000  0.79723229  1
  O  O390  1  0.88503563  0.37500000  0.13056562  1
  O  O391  1  0.88503563  0.37500000  0.46389896  1
  O  O392  1  0.88503563  0.37500000  0.79723229  1
  O  O393  1  0.88503563  0.87500000  0.13056562  1
  O  O394  1  0.88503563  0.87500000  0.46389896  1
  O  O395  1  0.88503563  0.87500000  0.79723229  1
  O  O396  1  0.05170230  0.37500000  0.03610104  1
  O  O397  1  0.05170230  0.37500000  0.36943438  1
  O  O398  1  0.05170230  0.37500000  0.70276771  1
  O  O399  1  0.05170230  0.87500000  0.03610104  1
  O  O400  1  0.05170230  0.87500000  0.36943438  1
  O  O401  1  0.05170230  0.87500000  0.70276771  1
  O  O402  1  0.38503563  0.37500000  0.03610104  1
  O  O403  1  0.38503563  0.37500000  0.36943438  1
  O  O404  1  0.38503563  0.37500000  0.70276771  1
  O  O405  1  0.38503563  0.87500000  0.03610104  1
  O  O406  1  0.38503563  0.87500000  0.36943438  1
  O  O407  1  0.38503563  0.87500000  0.70276771  1
  O  O408  1  0.71836897  0.37500000  0.03610104  1
  O  O409  1  0.71836897  0.37500000  0.36943438  1
  O  O410  1  0.71836897  0.37500000  0.70276771  1
  O  O411  1  0.71836897  0.87500000  0.03610104  1
  O  O412  1  0.71836897  0.87500000  0.36943438  1
  O  O413  1  0.71836897  0.87500000  0.70276771  1
  O  O414  1  0.28163103  0.12500000  0.29723229  1
  O  O415  1  0.28163103  0.12500000  0.63056562  1
  O  O416  1  0.28163103  0.12500000  0.96389896  1
  O  O417  1  0.28163103  0.62500000  0.29723229  1
  O  O418  1  0.28163103  0.62500000  0.63056562  1
  O  O419  1  0.28163103  0.62500000  0.96389896  1
  O  O420  1  0.61496437  0.12500000  0.29723229  1
  O  O421  1  0.61496437  0.12500000  0.63056562  1
  O  O422  1  0.61496437  0.12500000  0.96389896  1
  O  O423  1  0.61496437  0.62500000  0.29723229  1
  O  O424  1  0.61496437  0.62500000  0.63056562  1
  O  O425  1  0.61496437  0.62500000  0.96389896  1
  O  O426  1  0.94829770  0.12500000  0.29723229  1
  O  O427  1  0.94829770  0.12500000  0.63056562  1
  O  O428  1  0.94829770  0.12500000  0.96389896  1
  O  O429  1  0.94829770  0.62500000  0.29723229  1
  O  O430  1  0.94829770  0.62500000  0.63056562  1
  O  O431  1  0.94829770  0.62500000  0.96389896  1
