# generated using pymatgen
data_CaYBO4
_symmetry_space_group_name_H-M   'P 1'
_cell_length_a   10.38602616
_cell_length_b   10.67447872
_cell_length_c   9.57741206
_cell_angle_alpha   90.00000000
_cell_angle_beta   90.00000000
_cell_angle_gamma   90.00000000
_symmetry_Int_Tables_number   1
_chemical_formula_structural   CaYBO4
_chemical_formula_sum   'Ca12 Y12 B12 O48'
_cell_volume   1061.80376479
_cell_formula_units_Z   12
loop_
 _symmetry_equiv_pos_site_id
 _symmetry_equiv_pos_as_xyz
  1  'x, y, z'
loop_
 _atom_site_type_symbol
 _atom_site_label
 _atom_site_symmetry_multiplicity
 _atom_site_fract_x
 _atom_site_fract_y
 _atom_site_fract_z
 _atom_site_occupancy
  Ca  Ca0  1  0.08343205  0.08333333  0.67117299  1
  Ca  Ca1  1  0.08343205  0.41666667  0.67117299  1
  Ca  Ca2  1  0.08343205  0.75000000  0.67117299  1
  Ca  Ca3  1  0.91656795  0.25000000  0.32882701  1
  Ca  Ca4  1  0.91656795  0.58333333  0.32882701  1
  Ca  Ca5  1  0.91656795  0.91666667  0.32882701  1
  Ca  Ca6  1  0.41656795  0.25000000  0.17117299  1
  Ca  Ca7  1  0.41656795  0.58333333  0.17117299  1
  Ca  Ca8  1  0.41656795  0.91666667  0.17117299  1
  Ca  Ca9  1  0.58343205  0.08333333  0.82882701  1
  Ca  Ca10  1  0.58343205  0.41666667  0.82882701  1
  Ca  Ca11  1  0.58343205  0.75000000  0.82882701  1
  Y  Y12  1  0.11252958  0.08333333  0.08789037  1
  Y  Y13  1  0.11252958  0.41666667  0.08789037  1
  Y  Y14  1  0.11252958  0.75000000  0.08789037  1
  Y  Y15  1  0.88747042  0.25000000  0.91210963  1
  Y  Y16  1  0.88747042  0.58333333  0.91210963  1
  Y  Y17  1  0.88747042  0.91666667  0.91210963  1
  Y  Y18  1  0.38747042  0.25000000  0.58789037  1
  Y  Y19  1  0.38747042  0.58333333  0.58789037  1
  Y  Y20  1  0.38747042  0.91666667  0.58789037  1
  Y  Y21  1  0.61252958  0.08333333  0.41210963  1
  Y  Y22  1  0.61252958  0.41666667  0.41210963  1
  Y  Y23  1  0.61252958  0.75000000  0.41210963  1
  B  B24  1  0.19999641  0.08333333  0.36803395  1
  B  B25  1  0.19999641  0.41666667  0.36803395  1
  B  B26  1  0.19999641  0.75000000  0.36803395  1
  B  B27  1  0.80000359  0.25000000  0.63196605  1
  B  B28  1  0.80000359  0.58333333  0.63196605  1
  B  B29  1  0.80000359  0.91666667  0.63196605  1
  B  B30  1  0.30000359  0.25000000  0.86803395  1
  B  B31  1  0.30000359  0.58333333  0.86803395  1
  B  B32  1  0.30000359  0.91666667  0.86803395  1
  B  B33  1  0.69999641  0.08333333  0.13196605  1
  B  B34  1  0.69999641  0.41666667  0.13196605  1
  B  B35  1  0.69999641  0.75000000  0.13196605  1
  O  O36  1  0.25094230  0.08333333  0.50148821  1
  O  O37  1  0.25094230  0.41666667  0.50148821  1
  O  O38  1  0.25094230  0.75000000  0.50148821  1
  O  O39  1  0.74905770  0.25000000  0.49851179  1
  O  O40  1  0.74905770  0.58333333  0.49851179  1
  O  O41  1  0.74905770  0.91666667  0.49851179  1
  O  O42  1  0.24905770  0.25000000  0.00148821  1
  O  O43  1  0.24905770  0.58333333  0.00148821  1
  O  O44  1  0.24905770  0.91666667  0.00148821  1
  O  O45  1  0.75094230  0.08333333  0.99851179  1
  O  O46  1  0.75094230  0.41666667  0.99851179  1
  O  O47  1  0.75094230  0.75000000  0.99851179  1
  O  O48  1  0.27748262  0.08333333  0.24932129  1
  O  O49  1  0.27748262  0.41666667  0.24932129  1
  O  O50  1  0.27748262  0.75000000  0.24932129  1
  O  O51  1  0.72251738  0.25000000  0.75067871  1
  O  O52  1  0.72251738  0.58333333  0.75067871  1
  O  O53  1  0.72251738  0.91666667  0.75067871  1
  O  O54  1  0.22251738  0.25000000  0.74932129  1
  O  O55  1  0.22251738  0.58333333  0.74932129  1
  O  O56  1  0.22251738  0.91666667  0.74932129  1
  O  O57  1  0.77748262  0.08333333  0.25067871  1
  O  O58  1  0.77748262  0.41666667  0.25067871  1
  O  O59  1  0.77748262  0.75000000  0.25067871  1
  O  O60  1  0.06673633  0.08333333  0.34897073  1
  O  O61  1  0.06673633  0.41666667  0.34897073  1
  O  O62  1  0.06673633  0.75000000  0.34897073  1
  O  O63  1  0.93326367  0.25000000  0.65102927  1
  O  O64  1  0.93326367  0.58333333  0.65102927  1
  O  O65  1  0.93326367  0.91666667  0.65102927  1
  O  O66  1  0.43326367  0.25000000  0.84897073  1
  O  O67  1  0.43326367  0.58333333  0.84897073  1
  O  O68  1  0.43326367  0.91666667  0.84897073  1
  O  O69  1  0.56673633  0.08333333  0.15102927  1
  O  O70  1  0.56673633  0.41666667  0.15102927  1
  O  O71  1  0.56673633  0.75000000  0.15102927  1
  O  O72  1  0.50704782  0.08333333  0.61377128  1
  O  O73  1  0.50704782  0.41666667  0.61377128  1
  O  O74  1  0.50704782  0.75000000  0.61377128  1
  O  O75  1  0.49295218  0.25000000  0.38622872  1
  O  O76  1  0.49295218  0.58333333  0.38622872  1
  O  O77  1  0.49295218  0.91666667  0.38622872  1
  O  O78  1  0.99295218  0.25000000  0.11377128  1
  O  O79  1  0.99295218  0.58333333  0.11377128  1
  O  O80  1  0.99295218  0.91666667  0.11377128  1
  O  O81  1  0.00704782  0.08333333  0.88622872  1
  O  O82  1  0.00704782  0.41666667  0.88622872  1
  O  O83  1  0.00704782  0.75000000  0.88622872  1
