# generated using pymatgen
data_TlSbWO6
_symmetry_space_group_name_H-M   'P 1'
_cell_length_a   21.73160995
_cell_length_b   20.44851154
_cell_length_c   14.90045817
_cell_angle_alpha   90.00000000
_cell_angle_beta   90.00000000
_cell_angle_gamma   90.00000000
_symmetry_Int_Tables_number   1
_chemical_formula_structural   TlSbWO6
_chemical_formula_sum   'Tl48 Sb48 W48 O288'
_cell_volume   6621.45184628
_cell_formula_units_Z   48
loop_
 _symmetry_equiv_pos_site_id
 _symmetry_equiv_pos_as_xyz
  1  'x, y, z'
loop_
 _atom_site_type_symbol
 _atom_site_label
 _atom_site_symmetry_multiplicity
 _atom_site_fract_x
 _atom_site_fract_y
 _atom_site_fract_z
 _atom_site_occupancy
  Tl  Tl0  1  0.08333333  0.17322953  0.20040718  1
  Tl  Tl1  1  0.08333333  0.17322953  0.70040718  1
  Tl  Tl2  1  0.08333333  0.67322953  0.20040718  1
  Tl  Tl3  1  0.08333333  0.67322953  0.70040718  1
  Tl  Tl4  1  0.41666667  0.17322953  0.20040718  1
  Tl  Tl5  1  0.41666667  0.17322953  0.70040718  1
  Tl  Tl6  1  0.41666667  0.67322953  0.20040718  1
  Tl  Tl7  1  0.41666667  0.67322953  0.70040718  1
  Tl  Tl8  1  0.75000000  0.17322953  0.20040718  1
  Tl  Tl9  1  0.75000000  0.17322953  0.70040718  1
  Tl  Tl10  1  0.75000000  0.67322953  0.20040718  1
  Tl  Tl11  1  0.75000000  0.67322953  0.70040718  1
  Tl  Tl12  1  0.25000000  0.42322953  0.45040718  1
  Tl  Tl13  1  0.25000000  0.42322953  0.95040718  1
  Tl  Tl14  1  0.25000000  0.92322953  0.45040718  1
  Tl  Tl15  1  0.25000000  0.92322953  0.95040718  1
  Tl  Tl16  1  0.58333333  0.42322953  0.45040718  1
  Tl  Tl17  1  0.58333333  0.42322953  0.95040718  1
  Tl  Tl18  1  0.58333333  0.92322953  0.45040718  1
  Tl  Tl19  1  0.58333333  0.92322953  0.95040718  1
  Tl  Tl20  1  0.91666667  0.42322953  0.45040718  1
  Tl  Tl21  1  0.91666667  0.42322953  0.95040718  1
  Tl  Tl22  1  0.91666667  0.92322953  0.45040718  1
  Tl  Tl23  1  0.91666667  0.92322953  0.95040718  1
  Tl  Tl24  1  0.08333333  0.07677047  -0.04959282  1
  Tl  Tl25  1  0.08333333  0.07677047  0.45040718  1
  Tl  Tl26  1  0.08333333  0.57677047  -0.04959282  1
  Tl  Tl27  1  0.08333333  0.57677047  0.45040718  1
  Tl  Tl28  1  0.41666667  0.07677047  -0.04959282  1
  Tl  Tl29  1  0.41666667  0.07677047  0.45040718  1
  Tl  Tl30  1  0.41666667  0.57677047  -0.04959282  1
  Tl  Tl31  1  0.41666667  0.57677047  0.45040718  1
  Tl  Tl32  1  0.75000000  0.07677047  -0.04959282  1
  Tl  Tl33  1  0.75000000  0.07677047  0.45040718  1
  Tl  Tl34  1  0.75000000  0.57677047  -0.04959282  1
  Tl  Tl35  1  0.75000000  0.57677047  0.45040718  1
  Tl  Tl36  1  0.25000000  0.32677047  0.20040718  1
  Tl  Tl37  1  0.25000000  0.32677047  0.70040718  1
  Tl  Tl38  1  0.25000000  0.82677047  0.20040718  1
  Tl  Tl39  1  0.25000000  0.82677047  0.70040718  1
  Tl  Tl40  1  0.58333333  0.32677047  0.20040718  1
  Tl  Tl41  1  0.58333333  0.32677047  0.70040718  1
  Tl  Tl42  1  0.58333333  0.82677047  0.20040718  1
  Tl  Tl43  1  0.58333333  0.82677047  0.70040718  1
  Tl  Tl44  1  0.91666667  0.32677047  0.20040718  1
  Tl  Tl45  1  0.91666667  0.32677047  0.70040718  1
  Tl  Tl46  1  0.91666667  0.82677047  0.20040718  1
  Tl  Tl47  1  0.91666667  0.82677047  0.70040718  1
  Sb  Sb48  1  0.00000000  0.25000000  0.00420216  1
  Sb  Sb49  1  0.00000000  0.25000000  0.50420216  1
  Sb  Sb50  1  0.00000000  0.75000000  0.00420216  1
  Sb  Sb51  1  0.00000000  0.75000000  0.50420216  1
  Sb  Sb52  1  0.33333333  0.25000000  0.00420216  1
  Sb  Sb53  1  0.33333333  0.25000000  0.50420216  1
  Sb  Sb54  1  0.33333333  0.75000000  0.00420216  1
  Sb  Sb55  1  0.33333333  0.75000000  0.50420216  1
  Sb  Sb56  1  0.66666667  0.25000000  0.00420216  1
  Sb  Sb57  1  0.66666667  0.25000000  0.50420216  1
  Sb  Sb58  1  0.66666667  0.75000000  0.00420216  1
  Sb  Sb59  1  0.66666667  0.75000000  0.50420216  1
  Sb  Sb60  1  0.16666667  0.50000000  0.25420216  1
  Sb  Sb61  1  0.16666667  0.50000000  0.75420216  1
  Sb  Sb62  1  0.16666667  1.00000000  0.25420216  1
  Sb  Sb63  1  0.16666667  1.00000000  0.75420216  1
  Sb  Sb64  1  0.50000000  0.50000000  0.25420216  1
  Sb  Sb65  1  0.50000000  0.50000000  0.75420216  1
  Sb  Sb66  1  0.50000000  1.00000000  0.25420216  1
  Sb  Sb67  1  0.50000000  1.00000000  0.75420216  1
  Sb  Sb68  1  0.83333333  0.50000000  0.25420216  1
  Sb  Sb69  1  0.83333333  0.50000000  0.75420216  1
  Sb  Sb70  1  0.83333333  1.00000000  0.25420216  1
  Sb  Sb71  1  0.83333333  1.00000000  0.75420216  1
  Sb  Sb72  1  0.00000000  0.00000000  0.25420216  1
  Sb  Sb73  1  0.00000000  0.00000000  0.75420216  1
  Sb  Sb74  1  0.00000000  0.50000000  0.25420216  1
  Sb  Sb75  1  0.00000000  0.50000000  0.75420216  1
  Sb  Sb76  1  0.33333333  0.00000000  0.25420216  1
  Sb  Sb77  1  0.33333333  0.00000000  0.75420216  1
  Sb  Sb78  1  0.33333333  0.50000000  0.25420216  1
  Sb  Sb79  1  0.33333333  0.50000000  0.75420216  1
  Sb  Sb80  1  0.66666667  0.00000000  0.25420216  1
  Sb  Sb81  1  0.66666667  0.00000000  0.75420216  1
  Sb  Sb82  1  0.66666667  0.50000000  0.25420216  1
  Sb  Sb83  1  0.66666667  0.50000000  0.75420216  1
  Sb  Sb84  1  0.16666667  0.25000000  0.50420216  1
  Sb  Sb85  1  0.16666667  0.25000000  1.00420216  1
  Sb  Sb86  1  0.16666667  0.75000000  0.50420216  1
  Sb  Sb87  1  0.16666667  0.75000000  1.00420216  1
  Sb  Sb88  1  0.50000000  0.25000000  0.50420216  1
  Sb  Sb89  1  0.50000000  0.25000000  1.00420216  1
  Sb  Sb90  1  0.50000000  0.75000000  0.50420216  1
  Sb  Sb91  1  0.50000000  0.75000000  1.00420216  1
  Sb  Sb92  1  0.83333333  0.25000000  0.50420216  1
  Sb  Sb93  1  0.83333333  0.25000000  1.00420216  1
  Sb  Sb94  1  0.83333333  0.75000000  0.50420216  1
  Sb  Sb95  1  0.83333333  0.75000000  1.00420216  1
  W  W96  1  -0.08333333  0.13004774  0.36569338  1
  W  W97  1  -0.08333333  0.13004774  0.86569338  1
  W  W98  1  -0.08333333  0.63004774  0.36569338  1
  W  W99  1  -0.08333333  0.63004774  0.86569338  1
  W  W100  1  0.25000000  0.13004774  0.36569338  1
  W  W101  1  0.25000000  0.13004774  0.86569338  1
  W  W102  1  0.25000000  0.63004774  0.36569338  1
  W  W103  1  0.25000000  0.63004774  0.86569338  1
  W  W104  1  0.58333333  0.13004774  0.36569338  1
  W  W105  1  0.58333333  0.13004774  0.86569338  1
  W  W106  1  0.58333333  0.63004774  0.36569338  1
  W  W107  1  0.58333333  0.63004774  0.86569338  1
  W  W108  1  0.08333333  0.38004774  0.61569338  1
  W  W109  1  0.08333333  0.38004774  1.11569338  1
  W  W110  1  0.08333333  0.88004774  0.61569338  1
  W  W111  1  0.08333333  0.88004774  1.11569338  1
  W  W112  1  0.41666667  0.38004774  0.61569338  1
  W  W113  1  0.41666667  0.38004774  1.11569338  1
  W  W114  1  0.41666667  0.88004774  0.61569338  1
  W  W115  1  0.41666667  0.88004774  1.11569338  1
  W  W116  1  0.75000000  0.38004774  0.61569338  1
  W  W117  1  0.75000000  0.38004774  1.11569338  1
  W  W118  1  0.75000000  0.88004774  0.61569338  1
  W  W119  1  0.75000000  0.88004774  1.11569338  1
  W  W120  1  0.25000000  0.11995226  0.11569338  1
  W  W121  1  0.25000000  0.11995226  0.61569338  1
  W  W122  1  0.25000000  0.61995226  0.11569338  1
  W  W123  1  0.25000000  0.61995226  0.61569338  1
  W  W124  1  0.58333333  0.11995226  0.11569338  1
  W  W125  1  0.58333333  0.11995226  0.61569338  1
  W  W126  1  0.58333333  0.61995226  0.11569338  1
  W  W127  1  0.58333333  0.61995226  0.61569338  1
  W  W128  1  0.91666667  0.11995226  0.11569338  1
  W  W129  1  0.91666667  0.11995226  0.61569338  1
  W  W130  1  0.91666667  0.61995226  0.11569338  1
  W  W131  1  0.91666667  0.61995226  0.61569338  1
  W  W132  1  0.41666667  0.36995226  0.36569338  1
  W  W133  1  0.41666667  0.36995226  0.86569338  1
  W  W134  1  0.41666667  0.86995226  0.36569338  1
  W  W135  1  0.41666667  0.86995226  0.86569338  1
  W  W136  1  0.75000000  0.36995226  0.36569338  1
  W  W137  1  0.75000000  0.36995226  0.86569338  1
  W  W138  1  0.75000000  0.86995226  0.36569338  1
  W  W139  1  0.75000000  0.86995226  0.86569338  1
  W  W140  1  1.08333333  0.36995226  0.36569338  1
  W  W141  1  1.08333333  0.36995226  0.86569338  1
  W  W142  1  1.08333333  0.86995226  0.36569338  1
  W  W143  1  1.08333333  0.86995226  0.86569338  1
  O  O144  1  -0.08333333  0.15541627  0.25061641  1
  O  O145  1  -0.08333333  0.15541627  0.75061641  1
  O  O146  1  -0.08333333  0.65541627  0.25061641  1
  O  O147  1  -0.08333333  0.65541627  0.75061641  1
  O  O148  1  0.25000000  0.15541627  0.25061641  1
  O  O149  1  0.25000000  0.15541627  0.75061641  1
  O  O150  1  0.25000000  0.65541627  0.25061641  1
  O  O151  1  0.25000000  0.65541627  0.75061641  1
  O  O152  1  0.58333333  0.15541627  0.25061641  1
  O  O153  1  0.58333333  0.15541627  0.75061641  1
  O  O154  1  0.58333333  0.65541627  0.25061641  1
  O  O155  1  0.58333333  0.65541627  0.75061641  1
  O  O156  1  0.08333333  0.40541627  0.50061641  1
  O  O157  1  0.08333333  0.40541627  1.00061641  1
  O  O158  1  0.08333333  0.90541627  0.50061641  1
  O  O159  1  0.08333333  0.90541627  1.00061641  1
  O  O160  1  0.41666667  0.40541627  0.50061641  1
  O  O161  1  0.41666667  0.40541627  1.00061641  1
  O  O162  1  0.41666667  0.90541627  0.50061641  1
  O  O163  1  0.41666667  0.90541627  1.00061641  1
  O  O164  1  0.75000000  0.40541627  0.50061641  1
  O  O165  1  0.75000000  0.40541627  1.00061641  1
  O  O166  1  0.75000000  0.90541627  0.50061641  1
  O  O167  1  0.75000000  0.90541627  1.00061641  1
  O  O168  1  0.08333333  0.21082767  0.00883447  1
  O  O169  1  0.08333333  0.21082767  0.50883447  1
  O  O170  1  0.08333333  0.71082767  0.00883447  1
  O  O171  1  0.08333333  0.71082767  0.50883447  1
  O  O172  1  0.41666667  0.21082767  0.00883447  1
  O  O173  1  0.41666667  0.21082767  0.50883447  1
  O  O174  1  0.41666667  0.71082767  0.00883447  1
  O  O175  1  0.41666667  0.71082767  0.50883447  1
  O  O176  1  0.75000000  0.21082767  0.00883447  1
  O  O177  1  0.75000000  0.21082767  0.50883447  1
  O  O178  1  0.75000000  0.71082767  0.00883447  1
  O  O179  1  0.75000000  0.71082767  0.50883447  1
  O  O180  1  0.25000000  0.46082767  0.25883447  1
  O  O181  1  0.25000000  0.46082767  0.75883447  1
  O  O182  1  0.25000000  0.96082767  0.25883447  1
  O  O183  1  0.25000000  0.96082767  0.75883447  1
  O  O184  1  0.58333333  0.46082767  0.25883447  1
  O  O185  1  0.58333333  0.46082767  0.75883447  1
  O  O186  1  0.58333333  0.96082767  0.25883447  1
  O  O187  1  0.58333333  0.96082767  0.75883447  1
  O  O188  1  0.91666667  0.46082767  0.25883447  1
  O  O189  1  0.91666667  0.46082767  0.75883447  1
  O  O190  1  0.91666667  0.96082767  0.25883447  1
  O  O191  1  0.91666667  0.96082767  0.75883447  1
  O  O192  1  -0.02097873  0.06356911  0.15879758  1
  O  O193  1  -0.02097873  0.06356911  0.65879758  1
  O  O194  1  -0.02097873  0.56356911  0.15879758  1
  O  O195  1  -0.02097873  0.56356911  0.65879758  1
  O  O196  1  0.31235461  0.06356911  0.15879758  1
  O  O197  1  0.31235461  0.06356911  0.65879758  1
  O  O198  1  0.31235461  0.56356911  0.15879758  1
  O  O199  1  0.31235461  0.56356911  0.65879758  1
  O  O200  1  0.64568794  0.06356911  0.15879758  1
  O  O201  1  0.64568794  0.06356911  0.65879758  1
  O  O202  1  0.64568794  0.56356911  0.15879758  1
  O  O203  1  0.64568794  0.56356911  0.65879758  1
  O  O204  1  0.14568794  0.31356911  0.40879758  1
  O  O205  1  0.14568794  0.31356911  0.90879758  1
  O  O206  1  0.14568794  0.81356911  0.40879758  1
  O  O207  1  0.14568794  0.81356911  0.90879758  1
  O  O208  1  0.47902127  0.31356911  0.40879758  1
  O  O209  1  0.47902127  0.31356911  0.90879758  1
  O  O210  1  0.47902127  0.81356911  0.40879758  1
  O  O211  1  0.47902127  0.81356911  0.90879758  1
  O  O212  1  0.81235461  0.31356911  0.40879758  1
  O  O213  1  0.81235461  0.31356911  0.90879758  1
  O  O214  1  0.81235461  0.81356911  0.40879758  1
  O  O215  1  0.81235461  0.81356911  0.90879758  1
  O  O216  1  0.02118926  0.31412461  0.09982563  1
  O  O217  1  0.02118926  0.31412461  0.59982563  1
  O  O218  1  0.02118926  0.81412461  0.09982563  1
  O  O219  1  0.02118926  0.81412461  0.59982563  1
  O  O220  1  0.35452259  0.31412461  0.09982563  1
  O  O221  1  0.35452259  0.31412461  0.59982563  1
  O  O222  1  0.35452259  0.81412461  0.09982563  1
  O  O223  1  0.35452259  0.81412461  0.59982563  1
  O  O224  1  0.68785593  0.31412461  0.09982563  1
  O  O225  1  0.68785593  0.31412461  0.59982563  1
  O  O226  1  0.68785593  0.81412461  0.09982563  1
  O  O227  1  0.68785593  0.81412461  0.59982563  1
  O  O228  1  0.18785593  0.56412461  0.34982563  1
  O  O229  1  0.18785593  0.56412461  0.84982563  1
  O  O230  1  0.18785593  1.06412461  0.34982563  1
  O  O231  1  0.18785593  1.06412461  0.84982563  1
  O  O232  1  0.52118926  0.56412461  0.34982563  1
  O  O233  1  0.52118926  0.56412461  0.84982563  1
  O  O234  1  0.52118926  1.06412461  0.34982563  1
  O  O235  1  0.52118926  1.06412461  0.84982563  1
  O  O236  1  0.85452259  0.56412461  0.34982563  1
  O  O237  1  0.85452259  0.56412461  0.84982563  1
  O  O238  1  0.85452259  1.06412461  0.34982563  1
  O  O239  1  0.85452259  1.06412461  0.84982563  1
  O  O240  1  0.18764539  0.06356911  0.15879758  1
  O  O241  1  0.18764539  0.06356911  0.65879758  1
  O  O242  1  0.18764539  0.56356911  0.15879758  1
  O  O243  1  0.18764539  0.56356911  0.65879758  1
  O  O244  1  0.52097873  0.06356911  0.15879758  1
  O  O245  1  0.52097873  0.06356911  0.65879758  1
  O  O246  1  0.52097873  0.56356911  0.15879758  1
  O  O247  1  0.52097873  0.56356911  0.65879758  1
  O  O248  1  0.85431206  0.06356911  0.15879758  1
  O  O249  1  0.85431206  0.06356911  0.65879758  1
  O  O250  1  0.85431206  0.56356911  0.15879758  1
  O  O251  1  0.85431206  0.56356911  0.65879758  1
  O  O252  1  0.35431206  0.31356911  0.40879758  1
  O  O253  1  0.35431206  0.31356911  0.90879758  1
  O  O254  1  0.35431206  0.81356911  0.40879758  1
  O  O255  1  0.35431206  0.81356911  0.90879758  1
  O  O256  1  0.68764539  0.31356911  0.40879758  1
  O  O257  1  0.68764539  0.31356911  0.90879758  1
  O  O258  1  0.68764539  0.81356911  0.40879758  1
  O  O259  1  0.68764539  0.81356911  0.90879758  1
  O  O260  1  1.02097873  0.31356911  0.40879758  1
  O  O261  1  1.02097873  0.31356911  0.90879758  1
  O  O262  1  1.02097873  0.81356911  0.40879758  1
  O  O263  1  1.02097873  0.81356911  0.90879758  1
  O  O264  1  -0.02118926  0.06412461  0.34982563  1
  O  O265  1  -0.02118926  0.06412461  0.84982563  1
  O  O266  1  -0.02118926  0.56412461  0.34982563  1
  O  O267  1  -0.02118926  0.56412461  0.84982563  1
  O  O268  1  0.31214407  0.06412461  0.34982563  1
  O  O269  1  0.31214407  0.06412461  0.84982563  1
  O  O270  1  0.31214407  0.56412461  0.34982563  1
  O  O271  1  0.31214407  0.56412461  0.84982563  1
  O  O272  1  0.64547741  0.06412461  0.34982563  1
  O  O273  1  0.64547741  0.06412461  0.84982563  1
  O  O274  1  0.64547741  0.56412461  0.34982563  1
  O  O275  1  0.64547741  0.56412461  0.84982563  1
  O  O276  1  0.14547741  0.31412461  0.59982563  1
  O  O277  1  0.14547741  0.31412461  1.09982563  1
  O  O278  1  0.14547741  0.81412461  0.59982563  1
  O  O279  1  0.14547741  0.81412461  1.09982563  1
  O  O280  1  0.47881074  0.31412461  0.59982563  1
  O  O281  1  0.47881074  0.31412461  1.09982563  1
  O  O282  1  0.47881074  0.81412461  0.59982563  1
  O  O283  1  0.47881074  0.81412461  1.09982563  1
  O  O284  1  0.81214407  0.31412461  0.59982563  1
  O  O285  1  0.81214407  0.31412461  1.09982563  1
  O  O286  1  0.81214407  0.81412461  0.59982563  1
  O  O287  1  0.81214407  0.81412461  1.09982563  1
  O  O288  1  0.25000000  0.09458373  0.00061641  1
  O  O289  1  0.25000000  0.09458373  0.50061641  1
  O  O290  1  0.25000000  0.59458373  0.00061641  1
  O  O291  1  0.25000000  0.59458373  0.50061641  1
  O  O292  1  0.58333333  0.09458373  0.00061641  1
  O  O293  1  0.58333333  0.09458373  0.50061641  1
  O  O294  1  0.58333333  0.59458373  0.00061641  1
  O  O295  1  0.58333333  0.59458373  0.50061641  1
  O  O296  1  0.91666667  0.09458373  0.00061641  1
  O  O297  1  0.91666667  0.09458373  0.50061641  1
  O  O298  1  0.91666667  0.59458373  0.00061641  1
  O  O299  1  0.91666667  0.59458373  0.50061641  1
  O  O300  1  0.41666667  0.34458373  0.25061641  1
  O  O301  1  0.41666667  0.34458373  0.75061641  1
  O  O302  1  0.41666667  0.84458373  0.25061641  1
  O  O303  1  0.41666667  0.84458373  0.75061641  1
  O  O304  1  0.75000000  0.34458373  0.25061641  1
  O  O305  1  0.75000000  0.34458373  0.75061641  1
  O  O306  1  0.75000000  0.84458373  0.25061641  1
  O  O307  1  0.75000000  0.84458373  0.75061641  1
  O  O308  1  1.08333333  0.34458373  0.25061641  1
  O  O309  1  1.08333333  0.34458373  0.75061641  1
  O  O310  1  1.08333333  0.84458373  0.25061641  1
  O  O311  1  1.08333333  0.84458373  0.75061641  1
  O  O312  1  0.08333333  0.03917233  0.25883447  1
  O  O313  1  0.08333333  0.03917233  0.75883447  1
  O  O314  1  0.08333333  0.53917233  0.25883447  1
  O  O315  1  0.08333333  0.53917233  0.75883447  1
  O  O316  1  0.41666667  0.03917233  0.25883447  1
  O  O317  1  0.41666667  0.03917233  0.75883447  1
  O  O318  1  0.41666667  0.53917233  0.25883447  1
  O  O319  1  0.41666667  0.53917233  0.75883447  1
  O  O320  1  0.75000000  0.03917233  0.25883447  1
  O  O321  1  0.75000000  0.03917233  0.75883447  1
  O  O322  1  0.75000000  0.53917233  0.25883447  1
  O  O323  1  0.75000000  0.53917233  0.75883447  1
  O  O324  1  0.25000000  0.28917233  0.50883447  1
  O  O325  1  0.25000000  0.28917233  1.00883447  1
  O  O326  1  0.25000000  0.78917233  0.50883447  1
  O  O327  1  0.25000000  0.78917233  1.00883447  1
  O  O328  1  0.58333333  0.28917233  0.50883447  1
  O  O329  1  0.58333333  0.28917233  1.00883447  1
  O  O330  1  0.58333333  0.78917233  0.50883447  1
  O  O331  1  0.58333333  0.78917233  1.00883447  1
  O  O332  1  0.91666667  0.28917233  0.50883447  1
  O  O333  1  0.91666667  0.28917233  1.00883447  1
  O  O334  1  0.91666667  0.78917233  0.50883447  1
  O  O335  1  0.91666667  0.78917233  1.00883447  1
  O  O336  1  0.18785593  0.18587539  0.09982563  1
  O  O337  1  0.18785593  0.18587539  0.59982563  1
  O  O338  1  0.18785593  0.68587539  0.09982563  1
  O  O339  1  0.18785593  0.68587539  0.59982563  1
  O  O340  1  0.52118926  0.18587539  0.09982563  1
  O  O341  1  0.52118926  0.18587539  0.59982563  1
  O  O342  1  0.52118926  0.68587539  0.09982563  1
  O  O343  1  0.52118926  0.68587539  0.59982563  1
  O  O344  1  0.85452259  0.18587539  0.09982563  1
  O  O345  1  0.85452259  0.18587539  0.59982563  1
  O  O346  1  0.85452259  0.68587539  0.09982563  1
  O  O347  1  0.85452259  0.68587539  0.59982563  1
  O  O348  1  0.35452259  0.43587539  0.34982563  1
  O  O349  1  0.35452259  0.43587539  0.84982563  1
  O  O350  1  0.35452259  0.93587539  0.34982563  1
  O  O351  1  0.35452259  0.93587539  0.84982563  1
  O  O352  1  0.68785593  0.43587539  0.34982563  1
  O  O353  1  0.68785593  0.43587539  0.84982563  1
  O  O354  1  0.68785593  0.93587539  0.34982563  1
  O  O355  1  0.68785593  0.93587539  0.84982563  1
  O  O356  1  1.02118926  0.43587539  0.34982563  1
  O  O357  1  1.02118926  0.43587539  0.84982563  1
  O  O358  1  1.02118926  0.93587539  0.34982563  1
  O  O359  1  1.02118926  0.93587539  0.84982563  1
  O  O360  1  0.14568794  -0.06356911  0.15879758  1
  O  O361  1  0.14568794  -0.06356911  0.65879758  1
  O  O362  1  0.14568794  0.43643089  0.15879758  1
  O  O363  1  0.14568794  0.43643089  0.65879758  1
  O  O364  1  0.47902127  -0.06356911  0.15879758  1
  O  O365  1  0.47902127  -0.06356911  0.65879758  1
  O  O366  1  0.47902127  0.43643089  0.15879758  1
  O  O367  1  0.47902127  0.43643089  0.65879758  1
  O  O368  1  0.81235461  -0.06356911  0.15879758  1
  O  O369  1  0.81235461  -0.06356911  0.65879758  1
  O  O370  1  0.81235461  0.43643089  0.15879758  1
  O  O371  1  0.81235461  0.43643089  0.65879758  1
  O  O372  1  0.31235461  0.18643089  0.40879758  1
  O  O373  1  0.31235461  0.18643089  0.90879758  1
  O  O374  1  0.31235461  0.68643089  0.40879758  1
  O  O375  1  0.31235461  0.68643089  0.90879758  1
  O  O376  1  0.64568794  0.18643089  0.40879758  1
  O  O377  1  0.64568794  0.18643089  0.90879758  1
  O  O378  1  0.64568794  0.68643089  0.40879758  1
  O  O379  1  0.64568794  0.68643089  0.90879758  1
  O  O380  1  0.97902127  0.18643089  0.40879758  1
  O  O381  1  0.97902127  0.18643089  0.90879758  1
  O  O382  1  0.97902127  0.68643089  0.40879758  1
  O  O383  1  0.97902127  0.68643089  0.90879758  1
  O  O384  1  -0.02118926  0.18587539  0.09982563  1
  O  O385  1  -0.02118926  0.18587539  0.59982563  1
  O  O386  1  -0.02118926  0.68587539  0.09982563  1
  O  O387  1  -0.02118926  0.68587539  0.59982563  1
  O  O388  1  0.31214407  0.18587539  0.09982563  1
  O  O389  1  0.31214407  0.18587539  0.59982563  1
  O  O390  1  0.31214407  0.68587539  0.09982563  1
  O  O391  1  0.31214407  0.68587539  0.59982563  1
  O  O392  1  0.64547741  0.18587539  0.09982563  1
  O  O393  1  0.64547741  0.18587539  0.59982563  1
  O  O394  1  0.64547741  0.68587539  0.09982563  1
  O  O395  1  0.64547741  0.68587539  0.59982563  1
  O  O396  1  0.14547741  0.43587539  0.34982563  1
  O  O397  1  0.14547741  0.43587539  0.84982563  1
  O  O398  1  0.14547741  0.93587539  0.34982563  1
  O  O399  1  0.14547741  0.93587539  0.84982563  1
  O  O400  1  0.47881074  0.43587539  0.34982563  1
  O  O401  1  0.47881074  0.43587539  0.84982563  1
  O  O402  1  0.47881074  0.93587539  0.34982563  1
  O  O403  1  0.47881074  0.93587539  0.84982563  1
  O  O404  1  0.81214407  0.43587539  0.34982563  1
  O  O405  1  0.81214407  0.43587539  0.84982563  1
  O  O406  1  0.81214407  0.93587539  0.34982563  1
  O  O407  1  0.81214407  0.93587539  0.84982563  1
  O  O408  1  0.18764539  0.18643089  -0.09120242  1
  O  O409  1  0.18764539  0.18643089  0.40879758  1
  O  O410  1  0.18764539  0.68643089  -0.09120242  1
  O  O411  1  0.18764539  0.68643089  0.40879758  1
  O  O412  1  0.52097873  0.18643089  -0.09120242  1
  O  O413  1  0.52097873  0.18643089  0.40879758  1
  O  O414  1  0.52097873  0.68643089  -0.09120242  1
  O  O415  1  0.52097873  0.68643089  0.40879758  1
  O  O416  1  0.85431206  0.18643089  -0.09120242  1
  O  O417  1  0.85431206  0.18643089  0.40879758  1
  O  O418  1  0.85431206  0.68643089  -0.09120242  1
  O  O419  1  0.85431206  0.68643089  0.40879758  1
  O  O420  1  0.35431206  0.43643089  0.15879758  1
  O  O421  1  0.35431206  0.43643089  0.65879758  1
  O  O422  1  0.35431206  0.93643089  0.15879758  1
  O  O423  1  0.35431206  0.93643089  0.65879758  1
  O  O424  1  0.68764539  0.43643089  0.15879758  1
  O  O425  1  0.68764539  0.43643089  0.65879758  1
  O  O426  1  0.68764539  0.93643089  0.15879758  1
  O  O427  1  0.68764539  0.93643089  0.65879758  1
  O  O428  1  1.02097873  0.43643089  0.15879758  1
  O  O429  1  1.02097873  0.43643089  0.65879758  1
  O  O430  1  1.02097873  0.93643089  0.15879758  1
  O  O431  1  1.02097873  0.93643089  0.65879758  1
