# generated using pymatgen
data_La6WO12
_symmetry_space_group_name_H-M   'P 1'
_cell_length_a   20.42977721
_cell_length_b   20.42977721
_cell_length_c   19.72414726
_cell_angle_alpha   90.00000000
_cell_angle_beta   90.00000000
_cell_angle_gamma   120.00000000
_symmetry_Int_Tables_number   1
_chemical_formula_structural   La6WO12
_chemical_formula_sum   'La144 W24 O288'
_cell_volume   7129.45166669
_cell_formula_units_Z   24
loop_
 _symmetry_equiv_pos_site_id
 _symmetry_equiv_pos_as_xyz
  1  'x, y, z'
loop_
 _atom_site_type_symbol
 _atom_site_label
 _atom_site_symmetry_multiplicity
 _atom_site_fract_x
 _atom_site_fract_y
 _atom_site_fract_z
 _atom_site_occupancy
  La  La0  1  -0.02395309  0.10434568  0.17587878  1
  La  La1  1  -0.02395309  0.10434568  0.67587878  1
  La  La2  1  -0.02395309  0.60434568  0.17587878  1
  La  La3  1  -0.02395309  0.60434568  0.67587878  1
  La  La4  1  0.47604691  0.10434568  0.17587878  1
  La  La5  1  0.47604691  0.10434568  0.67587878  1
  La  La6  1  0.47604691  0.60434568  0.17587878  1
  La  La7  1  0.47604691  0.60434568  0.67587878  1
  La  La8  1  0.30938025  0.27101235  0.34254544  1
  La  La9  1  0.30938025  0.27101235  0.84254544  1
  La  La10  1  0.30938025  0.77101235  0.34254544  1
  La  La11  1  0.30938025  0.77101235  0.84254544  1
  La  La12  1  0.80938025  0.27101235  0.34254544  1
  La  La13  1  0.80938025  0.27101235  0.84254544  1
  La  La14  1  0.80938025  0.77101235  0.34254544  1
  La  La15  1  0.80938025  0.77101235  0.84254544  1
  La  La16  1  0.14271358  0.43767902  0.50921211  1
  La  La17  1  0.14271358  0.43767902  1.00921211  1
  La  La18  1  0.14271358  0.93767902  0.50921211  1
  La  La19  1  0.14271358  0.93767902  1.00921211  1
  La  La20  1  0.64271358  0.43767902  0.50921211  1
  La  La21  1  0.64271358  0.43767902  1.00921211  1
  La  La22  1  0.64271358  0.93767902  0.50921211  1
  La  La23  1  0.64271358  0.93767902  1.00921211  1
  La  La24  1  0.10434568  0.12829877  0.32412122  1
  La  La25  1  0.10434568  0.12829877  0.82412122  1
  La  La26  1  0.10434568  0.62829877  0.32412122  1
  La  La27  1  0.10434568  0.62829877  0.82412122  1
  La  La28  1  0.60434568  0.12829877  0.32412122  1
  La  La29  1  0.60434568  0.12829877  0.82412122  1
  La  La30  1  0.60434568  0.62829877  0.32412122  1
  La  La31  1  0.60434568  0.62829877  0.82412122  1
  La  La32  1  0.43767902  0.29496544  0.49078789  1
  La  La33  1  0.43767902  0.29496544  0.99078789  1
  La  La34  1  0.43767902  0.79496544  0.49078789  1
  La  La35  1  0.43767902  0.79496544  0.99078789  1
  La  La36  1  0.93767902  0.29496544  0.49078789  1
  La  La37  1  0.93767902  0.29496544  0.99078789  1
  La  La38  1  0.93767902  0.79496544  0.49078789  1
  La  La39  1  0.93767902  0.79496544  0.99078789  1
  La  La40  1  0.27101235  0.46163210  0.65745456  1
  La  La41  1  0.27101235  0.46163210  1.15745456  1
  La  La42  1  0.27101235  0.96163210  0.65745456  1
  La  La43  1  0.27101235  0.96163210  1.15745456  1
  La  La44  1  0.77101235  0.46163210  0.65745456  1
  La  La45  1  0.77101235  0.46163210  1.15745456  1
  La  La46  1  0.77101235  0.96163210  0.65745456  1
  La  La47  1  0.77101235  0.96163210  1.15745456  1
  La  La48  1  -0.12829877  -0.02395309  0.32412122  1
  La  La49  1  -0.12829877  -0.02395309  0.82412122  1
  La  La50  1  -0.12829877  0.47604691  0.32412122  1
  La  La51  1  -0.12829877  0.47604691  0.82412122  1
  La  La52  1  0.37170123  -0.02395309  0.32412122  1
  La  La53  1  0.37170123  -0.02395309  0.82412122  1
  La  La54  1  0.37170123  0.47604691  0.32412122  1
  La  La55  1  0.37170123  0.47604691  0.82412122  1
  La  La56  1  0.20503456  0.14271358  0.49078789  1
  La  La57  1  0.20503456  0.14271358  0.99078789  1
  La  La58  1  0.20503456  0.64271358  0.49078789  1
  La  La59  1  0.20503456  0.64271358  0.99078789  1
  La  La60  1  0.70503456  0.14271358  0.49078789  1
  La  La61  1  0.70503456  0.14271358  0.99078789  1
  La  La62  1  0.70503456  0.64271358  0.49078789  1
  La  La63  1  0.70503456  0.64271358  0.99078789  1
  La  La64  1  0.03836790  0.30938025  0.65745456  1
  La  La65  1  0.03836790  0.30938025  1.15745456  1
  La  La66  1  0.03836790  0.80938025  0.65745456  1
  La  La67  1  0.03836790  0.80938025  1.15745456  1
  La  La68  1  0.53836790  0.30938025  0.65745456  1
  La  La69  1  0.53836790  0.30938025  1.15745456  1
  La  La70  1  0.53836790  0.80938025  0.65745456  1
  La  La71  1  0.53836790  0.80938025  1.15745456  1
  La  La72  1  0.12829877  0.02395309  0.17587878  1
  La  La73  1  0.12829877  0.02395309  0.67587878  1
  La  La74  1  0.12829877  0.52395309  0.17587878  1
  La  La75  1  0.12829877  0.52395309  0.67587878  1
  La  La76  1  0.62829877  0.02395309  0.17587878  1
  La  La77  1  0.62829877  0.02395309  0.67587878  1
  La  La78  1  0.62829877  0.52395309  0.17587878  1
  La  La79  1  0.62829877  0.52395309  0.67587878  1
  La  La80  1  0.46163210  0.19061975  0.34254544  1
  La  La81  1  0.46163210  0.19061975  0.84254544  1
  La  La82  1  0.46163210  0.69061975  0.34254544  1
  La  La83  1  0.46163210  0.69061975  0.84254544  1
  La  La84  1  0.96163210  0.19061975  0.34254544  1
  La  La85  1  0.96163210  0.19061975  0.84254544  1
  La  La86  1  0.96163210  0.69061975  0.34254544  1
  La  La87  1  0.96163210  0.69061975  0.84254544  1
  La  La88  1  0.29496544  0.35728642  0.50921211  1
  La  La89  1  0.29496544  0.35728642  1.00921211  1
  La  La90  1  0.29496544  0.85728642  0.50921211  1
  La  La91  1  0.29496544  0.85728642  1.00921211  1
  La  La92  1  0.79496544  0.35728642  0.50921211  1
  La  La93  1  0.79496544  0.35728642  1.00921211  1
  La  La94  1  0.79496544  0.85728642  0.50921211  1
  La  La95  1  0.79496544  0.85728642  1.00921211  1
  La  La96  1  -0.10434568  -0.12829877  0.17587878  1
  La  La97  1  -0.10434568  -0.12829877  0.67587878  1
  La  La98  1  -0.10434568  0.37170123  0.17587878  1
  La  La99  1  -0.10434568  0.37170123  0.67587878  1
  La  La100  1  0.39565432  -0.12829877  0.17587878  1
  La  La101  1  0.39565432  -0.12829877  0.67587878  1
  La  La102  1  0.39565432  0.37170123  0.17587878  1
  La  La103  1  0.39565432  0.37170123  0.67587878  1
  La  La104  1  0.22898765  0.03836790  0.34254544  1
  La  La105  1  0.22898765  0.03836790  0.84254544  1
  La  La106  1  0.22898765  0.53836790  0.34254544  1
  La  La107  1  0.22898765  0.53836790  0.84254544  1
  La  La108  1  0.72898765  0.03836790  0.34254544  1
  La  La109  1  0.72898765  0.03836790  0.84254544  1
  La  La110  1  0.72898765  0.53836790  0.34254544  1
  La  La111  1  0.72898765  0.53836790  0.84254544  1
  La  La112  1  0.06232098  0.20503456  0.50921211  1
  La  La113  1  0.06232098  0.20503456  1.00921211  1
  La  La114  1  0.06232098  0.70503456  0.50921211  1
  La  La115  1  0.06232098  0.70503456  1.00921211  1
  La  La116  1  0.56232098  0.20503456  0.50921211  1
  La  La117  1  0.56232098  0.20503456  1.00921211  1
  La  La118  1  0.56232098  0.70503456  0.50921211  1
  La  La119  1  0.56232098  0.70503456  1.00921211  1
  La  La120  1  0.02395309  -0.10434568  0.32412122  1
  La  La121  1  0.02395309  -0.10434568  0.82412122  1
  La  La122  1  0.02395309  0.39565432  0.32412122  1
  La  La123  1  0.02395309  0.39565432  0.82412122  1
  La  La124  1  0.52395309  -0.10434568  0.32412122  1
  La  La125  1  0.52395309  -0.10434568  0.82412122  1
  La  La126  1  0.52395309  0.39565432  0.32412122  1
  La  La127  1  0.52395309  0.39565432  0.82412122  1
  La  La128  1  0.35728642  0.06232098  0.49078789  1
  La  La129  1  0.35728642  0.06232098  0.99078789  1
  La  La130  1  0.35728642  0.56232098  0.49078789  1
  La  La131  1  0.35728642  0.56232098  0.99078789  1
  La  La132  1  0.85728642  0.06232098  0.49078789  1
  La  La133  1  0.85728642  0.06232098  0.99078789  1
  La  La134  1  0.85728642  0.56232098  0.49078789  1
  La  La135  1  0.85728642  0.56232098  0.99078789  1
  La  La136  1  0.19061975  0.22898765  0.65745456  1
  La  La137  1  0.19061975  0.22898765  1.15745456  1
  La  La138  1  0.19061975  0.72898765  0.65745456  1
  La  La139  1  0.19061975  0.72898765  1.15745456  1
  La  La140  1  0.69061975  0.22898765  0.65745456  1
  La  La141  1  0.69061975  0.22898765  1.15745456  1
  La  La142  1  0.69061975  0.72898765  0.65745456  1
  La  La143  1  0.69061975  0.72898765  1.15745456  1
  W  W144  1  -0.00000000  -0.00000000  -0.00000000  1
  W  W145  1  -0.00000000  -0.00000000  0.50000000  1
  W  W146  1  0.00000000  0.50000000  -0.00000000  1
  W  W147  1  0.00000000  0.50000000  0.50000000  1
  W  W148  1  0.50000000  -0.00000000  -0.00000000  1
  W  W149  1  0.50000000  -0.00000000  0.50000000  1
  W  W150  1  0.50000000  0.50000000  -0.00000000  1
  W  W151  1  0.50000000  0.50000000  0.50000000  1
  W  W152  1  0.33333333  0.16666667  0.16666667  1
  W  W153  1  0.33333333  0.16666667  0.66666667  1
  W  W154  1  0.33333333  0.66666667  0.16666667  1
  W  W155  1  0.33333333  0.66666667  0.66666667  1
  W  W156  1  0.83333333  0.16666667  0.16666667  1
  W  W157  1  0.83333333  0.16666667  0.66666667  1
  W  W158  1  0.83333333  0.66666667  0.16666667  1
  W  W159  1  0.83333333  0.66666667  0.66666667  1
  W  W160  1  0.16666667  0.33333333  0.33333333  1
  W  W161  1  0.16666667  0.33333333  0.83333333  1
  W  W162  1  0.16666667  0.83333333  0.33333333  1
  W  W163  1  0.16666667  0.83333333  0.83333333  1
  W  W164  1  0.66666667  0.33333333  0.33333333  1
  W  W165  1  0.66666667  0.33333333  0.83333333  1
  W  W166  1  0.66666667  0.83333333  0.33333333  1
  W  W167  1  0.66666667  0.83333333  0.83333333  1
  O  O168  1  -0.07804293  0.18673485  0.22010120  1
  O  O169  1  -0.07804293  0.18673485  0.72010120  1
  O  O170  1  -0.07804293  0.68673485  0.22010120  1
  O  O171  1  -0.07804293  0.68673485  0.72010120  1
  O  O172  1  0.42195707  0.18673485  0.22010120  1
  O  O173  1  0.42195707  0.18673485  0.72010120  1
  O  O174  1  0.42195707  0.68673485  0.22010120  1
  O  O175  1  0.42195707  0.68673485  0.72010120  1
  O  O176  1  0.25529040  0.35340152  0.38676786  1
  O  O177  1  0.25529040  0.35340152  0.88676786  1
  O  O178  1  0.25529040  0.85340152  0.38676786  1
  O  O179  1  0.25529040  0.85340152  0.88676786  1
  O  O180  1  0.75529040  0.35340152  0.38676786  1
  O  O181  1  0.75529040  0.35340152  0.88676786  1
  O  O182  1  0.75529040  0.85340152  0.38676786  1
  O  O183  1  0.75529040  0.85340152  0.88676786  1
  O  O184  1  0.08862374  0.52006819  0.55343453  1
  O  O185  1  0.08862374  0.52006819  1.05343453  1
  O  O186  1  0.08862374  1.02006819  0.55343453  1
  O  O187  1  0.08862374  1.02006819  1.05343453  1
  O  O188  1  0.58862374  0.52006819  0.55343453  1
  O  O189  1  0.58862374  0.52006819  1.05343453  1
  O  O190  1  0.58862374  1.02006819  0.55343453  1
  O  O191  1  0.58862374  1.02006819  1.05343453  1
  O  O192  1  0.18673485  0.26477778  0.27989880  1
  O  O193  1  0.18673485  0.26477778  0.77989880  1
  O  O194  1  0.18673485  0.76477778  0.27989880  1
  O  O195  1  0.18673485  0.76477778  0.77989880  1
  O  O196  1  0.68673485  0.26477778  0.27989880  1
  O  O197  1  0.68673485  0.26477778  0.77989880  1
  O  O198  1  0.68673485  0.76477778  0.27989880  1
  O  O199  1  0.68673485  0.76477778  0.77989880  1
  O  O200  1  0.52006819  0.43144445  0.44656547  1
  O  O201  1  0.52006819  0.43144445  0.94656547  1
  O  O202  1  0.52006819  0.93144445  0.44656547  1
  O  O203  1  0.52006819  0.93144445  0.94656547  1
  O  O204  1  1.02006819  0.43144445  0.44656547  1
  O  O205  1  1.02006819  0.43144445  0.94656547  1
  O  O206  1  1.02006819  0.93144445  0.44656547  1
  O  O207  1  1.02006819  0.93144445  0.94656547  1
  O  O208  1  0.35340152  0.59811112  0.61323214  1
  O  O209  1  0.35340152  0.59811112  1.11323214  1
  O  O210  1  0.35340152  1.09811112  0.61323214  1
  O  O211  1  0.35340152  1.09811112  1.11323214  1
  O  O212  1  0.85340152  0.59811112  0.61323214  1
  O  O213  1  0.85340152  0.59811112  1.11323214  1
  O  O214  1  0.85340152  1.09811112  0.61323214  1
  O  O215  1  0.85340152  1.09811112  1.11323214  1
  O  O216  1  -0.01898047  0.09491401  0.29760626  1
  O  O217  1  -0.01898047  0.09491401  0.79760626  1
  O  O218  1  -0.01898047  0.59491401  0.29760626  1
  O  O219  1  -0.01898047  0.59491401  0.79760626  1
  O  O220  1  0.48101953  0.09491401  0.29760626  1
  O  O221  1  0.48101953  0.09491401  0.79760626  1
  O  O222  1  0.48101953  0.59491401  0.29760626  1
  O  O223  1  0.48101953  0.59491401  0.79760626  1
  O  O224  1  0.31435286  0.26158068  0.46427293  1
  O  O225  1  0.31435286  0.26158068  0.96427293  1
  O  O226  1  0.31435286  0.76158068  0.46427293  1
  O  O227  1  0.31435286  0.76158068  0.96427293  1
  O  O228  1  0.81435286  0.26158068  0.46427293  1
  O  O229  1  0.81435286  0.26158068  0.96427293  1
  O  O230  1  0.81435286  0.76158068  0.46427293  1
  O  O231  1  0.81435286  0.76158068  0.96427293  1
  O  O232  1  0.14768619  0.42824735  0.63093959  1
  O  O233  1  0.14768619  0.42824735  1.13093959  1
  O  O234  1  0.14768619  0.92824735  0.63093959  1
  O  O235  1  0.14768619  0.92824735  1.13093959  1
  O  O236  1  0.64768619  0.42824735  0.63093959  1
  O  O237  1  0.64768619  0.42824735  1.13093959  1
  O  O238  1  0.64768619  0.92824735  0.63093959  1
  O  O239  1  0.64768619  0.92824735  1.13093959  1
  O  O240  1  0.09491401  0.11389448  0.20239374  1
  O  O241  1  0.09491401  0.11389448  0.70239374  1
  O  O242  1  0.09491401  0.61389448  0.20239374  1
  O  O243  1  0.09491401  0.61389448  0.70239374  1
  O  O244  1  0.59491401  0.11389448  0.20239374  1
  O  O245  1  0.59491401  0.11389448  0.70239374  1
  O  O246  1  0.59491401  0.61389448  0.20239374  1
  O  O247  1  0.59491401  0.61389448  0.70239374  1
  O  O248  1  0.42824735  0.28056115  0.36906041  1
  O  O249  1  0.42824735  0.28056115  0.86906041  1
  O  O250  1  0.42824735  0.78056115  0.36906041  1
  O  O251  1  0.42824735  0.78056115  0.86906041  1
  O  O252  1  0.92824735  0.28056115  0.36906041  1
  O  O253  1  0.92824735  0.28056115  0.86906041  1
  O  O254  1  0.92824735  0.78056115  0.36906041  1
  O  O255  1  0.92824735  0.78056115  0.86906041  1
  O  O256  1  0.26158068  0.44722782  0.53572707  1
  O  O257  1  0.26158068  0.44722782  1.03572707  1
  O  O258  1  0.26158068  0.94722782  0.53572707  1
  O  O259  1  0.26158068  0.94722782  1.03572707  1
  O  O260  1  0.76158068  0.44722782  0.53572707  1
  O  O261  1  0.76158068  0.44722782  1.03572707  1
  O  O262  1  0.76158068  0.94722782  0.53572707  1
  O  O263  1  0.76158068  0.94722782  1.03572707  1
  O  O264  1  -0.26477778  -0.07804293  0.27989880  1
  O  O265  1  -0.26477778  -0.07804293  0.77989880  1
  O  O266  1  -0.26477778  0.42195707  0.27989880  1
  O  O267  1  -0.26477778  0.42195707  0.77989880  1
  O  O268  1  0.23522222  -0.07804293  0.27989880  1
  O  O269  1  0.23522222  -0.07804293  0.77989880  1
  O  O270  1  0.23522222  0.42195707  0.27989880  1
  O  O271  1  0.23522222  0.42195707  0.77989880  1
  O  O272  1  0.06855555  0.08862374  0.44656547  1
  O  O273  1  0.06855555  0.08862374  0.94656547  1
  O  O274  1  0.06855555  0.58862374  0.44656547  1
  O  O275  1  0.06855555  0.58862374  0.94656547  1
  O  O276  1  0.56855555  0.08862374  0.44656547  1
  O  O277  1  0.56855555  0.08862374  0.94656547  1
  O  O278  1  0.56855555  0.58862374  0.44656547  1
  O  O279  1  0.56855555  0.58862374  0.94656547  1
  O  O280  1  -0.09811112  0.25529040  0.61323214  1
  O  O281  1  -0.09811112  0.25529040  1.11323214  1
  O  O282  1  -0.09811112  0.75529040  0.61323214  1
  O  O283  1  -0.09811112  0.75529040  1.11323214  1
  O  O284  1  0.40188888  0.25529040  0.61323214  1
  O  O285  1  0.40188888  0.25529040  1.11323214  1
  O  O286  1  0.40188888  0.75529040  0.61323214  1
  O  O287  1  0.40188888  0.75529040  1.11323214  1
  O  O288  1  -0.11389448  -0.01898047  0.20239374  1
  O  O289  1  -0.11389448  -0.01898047  0.70239374  1
  O  O290  1  -0.11389448  0.48101953  0.20239374  1
  O  O291  1  -0.11389448  0.48101953  0.70239374  1
  O  O292  1  0.38610552  -0.01898047  0.20239374  1
  O  O293  1  0.38610552  -0.01898047  0.70239374  1
  O  O294  1  0.38610552  0.48101953  0.20239374  1
  O  O295  1  0.38610552  0.48101953  0.70239374  1
  O  O296  1  0.21943885  0.14768619  0.36906041  1
  O  O297  1  0.21943885  0.14768619  0.86906041  1
  O  O298  1  0.21943885  0.64768619  0.36906041  1
  O  O299  1  0.21943885  0.64768619  0.86906041  1
  O  O300  1  0.71943885  0.14768619  0.36906041  1
  O  O301  1  0.71943885  0.14768619  0.86906041  1
  O  O302  1  0.71943885  0.64768619  0.36906041  1
  O  O303  1  0.71943885  0.64768619  0.86906041  1
  O  O304  1  0.05277218  0.31435286  0.53572707  1
  O  O305  1  0.05277218  0.31435286  1.03572707  1
  O  O306  1  0.05277218  0.81435286  0.53572707  1
  O  O307  1  0.05277218  0.81435286  1.03572707  1
  O  O308  1  0.55277218  0.31435286  0.53572707  1
  O  O309  1  0.55277218  0.31435286  1.03572707  1
  O  O310  1  0.55277218  0.81435286  0.53572707  1
  O  O311  1  0.55277218  0.81435286  1.03572707  1
  O  O312  1  0.11389448  0.01898047  0.29760626  1
  O  O313  1  0.11389448  0.01898047  0.79760626  1
  O  O314  1  0.11389448  0.51898047  0.29760626  1
  O  O315  1  0.11389448  0.51898047  0.79760626  1
  O  O316  1  0.61389448  0.01898047  0.29760626  1
  O  O317  1  0.61389448  0.01898047  0.79760626  1
  O  O318  1  0.61389448  0.51898047  0.29760626  1
  O  O319  1  0.61389448  0.51898047  0.79760626  1
  O  O320  1  0.44722782  0.18564714  0.46427293  1
  O  O321  1  0.44722782  0.18564714  0.96427293  1
  O  O322  1  0.44722782  0.68564714  0.46427293  1
  O  O323  1  0.44722782  0.68564714  0.96427293  1
  O  O324  1  0.94722782  0.18564714  0.46427293  1
  O  O325  1  0.94722782  0.18564714  0.96427293  1
  O  O326  1  0.94722782  0.68564714  0.46427293  1
  O  O327  1  0.94722782  0.68564714  0.96427293  1
  O  O328  1  0.28056115  0.35231381  0.63093959  1
  O  O329  1  0.28056115  0.35231381  1.13093959  1
  O  O330  1  0.28056115  0.85231381  0.63093959  1
  O  O331  1  0.28056115  0.85231381  1.13093959  1
  O  O332  1  0.78056115  0.35231381  0.63093959  1
  O  O333  1  0.78056115  0.35231381  1.13093959  1
  O  O334  1  0.78056115  0.85231381  0.63093959  1
  O  O335  1  0.78056115  0.85231381  1.13093959  1
  O  O336  1  0.26477778  0.07804293  0.22010120  1
  O  O337  1  0.26477778  0.07804293  0.72010120  1
  O  O338  1  0.26477778  0.57804293  0.22010120  1
  O  O339  1  0.26477778  0.57804293  0.72010120  1
  O  O340  1  0.76477778  0.07804293  0.22010120  1
  O  O341  1  0.76477778  0.07804293  0.72010120  1
  O  O342  1  0.76477778  0.57804293  0.22010120  1
  O  O343  1  0.76477778  0.57804293  0.72010120  1
  O  O344  1  0.59811112  0.24470960  0.38676786  1
  O  O345  1  0.59811112  0.24470960  0.88676786  1
  O  O346  1  0.59811112  0.74470960  0.38676786  1
  O  O347  1  0.59811112  0.74470960  0.88676786  1
  O  O348  1  1.09811112  0.24470960  0.38676786  1
  O  O349  1  1.09811112  0.24470960  0.88676786  1
  O  O350  1  1.09811112  0.74470960  0.38676786  1
  O  O351  1  1.09811112  0.74470960  0.88676786  1
  O  O352  1  0.43144445  0.41137626  0.55343453  1
  O  O353  1  0.43144445  0.41137626  1.05343453  1
  O  O354  1  0.43144445  0.91137626  0.55343453  1
  O  O355  1  0.43144445  0.91137626  1.05343453  1
  O  O356  1  0.93144445  0.41137626  0.55343453  1
  O  O357  1  0.93144445  0.41137626  1.05343453  1
  O  O358  1  0.93144445  0.91137626  0.55343453  1
  O  O359  1  0.93144445  0.91137626  1.05343453  1
  O  O360  1  -0.09491401  -0.11389448  0.29760626  1
  O  O361  1  -0.09491401  -0.11389448  0.79760626  1
  O  O362  1  -0.09491401  0.38610552  0.29760626  1
  O  O363  1  -0.09491401  0.38610552  0.79760626  1
  O  O364  1  0.40508599  -0.11389448  0.29760626  1
  O  O365  1  0.40508599  -0.11389448  0.79760626  1
  O  O366  1  0.40508599  0.38610552  0.29760626  1
  O  O367  1  0.40508599  0.38610552  0.79760626  1
  O  O368  1  0.23841932  0.05277218  0.46427293  1
  O  O369  1  0.23841932  0.05277218  0.96427293  1
  O  O370  1  0.23841932  0.55277218  0.46427293  1
  O  O371  1  0.23841932  0.55277218  0.96427293  1
  O  O372  1  0.73841932  0.05277218  0.46427293  1
  O  O373  1  0.73841932  0.05277218  0.96427293  1
  O  O374  1  0.73841932  0.55277218  0.46427293  1
  O  O375  1  0.73841932  0.55277218  0.96427293  1
  O  O376  1  0.07175265  0.21943885  0.63093959  1
  O  O377  1  0.07175265  0.21943885  1.13093959  1
  O  O378  1  0.07175265  0.71943885  0.63093959  1
  O  O379  1  0.07175265  0.71943885  1.13093959  1
  O  O380  1  0.57175265  0.21943885  0.63093959  1
  O  O381  1  0.57175265  0.21943885  1.13093959  1
  O  O382  1  0.57175265  0.71943885  0.63093959  1
  O  O383  1  0.57175265  0.71943885  1.13093959  1
  O  O384  1  0.01898047  -0.09491401  0.20239374  1
  O  O385  1  0.01898047  -0.09491401  0.70239374  1
  O  O386  1  0.01898047  0.40508599  0.20239374  1
  O  O387  1  0.01898047  0.40508599  0.70239374  1
  O  O388  1  0.51898047  -0.09491401  0.20239374  1
  O  O389  1  0.51898047  -0.09491401  0.70239374  1
  O  O390  1  0.51898047  0.40508599  0.20239374  1
  O  O391  1  0.51898047  0.40508599  0.70239374  1
  O  O392  1  0.35231381  0.07175265  0.36906041  1
  O  O393  1  0.35231381  0.07175265  0.86906041  1
  O  O394  1  0.35231381  0.57175265  0.36906041  1
  O  O395  1  0.35231381  0.57175265  0.86906041  1
  O  O396  1  0.85231381  0.07175265  0.36906041  1
  O  O397  1  0.85231381  0.07175265  0.86906041  1
  O  O398  1  0.85231381  0.57175265  0.36906041  1
  O  O399  1  0.85231381  0.57175265  0.86906041  1
  O  O400  1  0.18564714  0.23841932  0.53572707  1
  O  O401  1  0.18564714  0.23841932  1.03572707  1
  O  O402  1  0.18564714  0.73841932  0.53572707  1
  O  O403  1  0.18564714  0.73841932  1.03572707  1
  O  O404  1  0.68564714  0.23841932  0.53572707  1
  O  O405  1  0.68564714  0.23841932  1.03572707  1
  O  O406  1  0.68564714  0.73841932  0.53572707  1
  O  O407  1  0.68564714  0.73841932  1.03572707  1
  O  O408  1  -0.18673485  -0.26477778  0.22010120  1
  O  O409  1  -0.18673485  -0.26477778  0.72010120  1
  O  O410  1  -0.18673485  0.23522222  0.22010120  1
  O  O411  1  -0.18673485  0.23522222  0.72010120  1
  O  O412  1  0.31326515  -0.26477778  0.22010120  1
  O  O413  1  0.31326515  -0.26477778  0.72010120  1
  O  O414  1  0.31326515  0.23522222  0.22010120  1
  O  O415  1  0.31326515  0.23522222  0.72010120  1
  O  O416  1  0.14659848  -0.09811112  0.38676786  1
  O  O417  1  0.14659848  -0.09811112  0.88676786  1
  O  O418  1  0.14659848  0.40188888  0.38676786  1
  O  O419  1  0.14659848  0.40188888  0.88676786  1
  O  O420  1  0.64659848  -0.09811112  0.38676786  1
  O  O421  1  0.64659848  -0.09811112  0.88676786  1
  O  O422  1  0.64659848  0.40188888  0.38676786  1
  O  O423  1  0.64659848  0.40188888  0.88676786  1
  O  O424  1  -0.02006819  0.06855555  0.55343453  1
  O  O425  1  -0.02006819  0.06855555  1.05343453  1
  O  O426  1  -0.02006819  0.56855555  0.55343453  1
  O  O427  1  -0.02006819  0.56855555  1.05343453  1
  O  O428  1  0.47993181  0.06855555  0.55343453  1
  O  O429  1  0.47993181  0.06855555  1.05343453  1
  O  O430  1  0.47993181  0.56855555  0.55343453  1
  O  O431  1  0.47993181  0.56855555  1.05343453  1
  O  O432  1  0.07804293  -0.18673485  0.27989880  1
  O  O433  1  0.07804293  -0.18673485  0.77989880  1
  O  O434  1  0.07804293  0.31326515  0.27989880  1
  O  O435  1  0.07804293  0.31326515  0.77989880  1
  O  O436  1  0.57804293  -0.18673485  0.27989880  1
  O  O437  1  0.57804293  -0.18673485  0.77989880  1
  O  O438  1  0.57804293  0.31326515  0.27989880  1
  O  O439  1  0.57804293  0.31326515  0.77989880  1
  O  O440  1  0.41137626  -0.02006819  0.44656547  1
  O  O441  1  0.41137626  -0.02006819  0.94656547  1
  O  O442  1  0.41137626  0.47993181  0.44656547  1
  O  O443  1  0.41137626  0.47993181  0.94656547  1
  O  O444  1  0.91137626  -0.02006819  0.44656547  1
  O  O445  1  0.91137626  -0.02006819  0.94656547  1
  O  O446  1  0.91137626  0.47993181  0.44656547  1
  O  O447  1  0.91137626  0.47993181  0.94656547  1
  O  O448  1  0.24470960  0.14659848  0.61323214  1
  O  O449  1  0.24470960  0.14659848  1.11323214  1
  O  O450  1  0.24470960  0.64659848  0.61323214  1
  O  O451  1  0.24470960  0.64659848  1.11323214  1
  O  O452  1  0.74470960  0.14659848  0.61323214  1
  O  O453  1  0.74470960  0.14659848  1.11323214  1
  O  O454  1  0.74470960  0.64659848  0.61323214  1
  O  O455  1  0.74470960  0.64659848  1.11323214  1
