# generated using pymatgen
data_LiNbO3
_symmetry_space_group_name_H-M   'P 1'
_cell_length_a   15.48448570
_cell_length_b   15.48448570
_cell_length_c   13.93913801
_cell_angle_alpha   90.00000000
_cell_angle_beta   90.00000000
_cell_angle_gamma   120.00000000
_symmetry_Int_Tables_number   1
_chemical_formula_structural   LiNbO3
_chemical_formula_sum   'Li54 Nb54 O162'
_cell_volume   2894.41046755
_cell_formula_units_Z   54
loop_
 _symmetry_equiv_pos_site_id
 _symmetry_equiv_pos_as_xyz
  1  'x, y, z'
loop_
 _atom_site_type_symbol
 _atom_site_label
 _atom_site_symmetry_multiplicity
 _atom_site_fract_x
 _atom_site_fract_y
 _atom_site_fract_z
 _atom_site_occupancy
  Li  Li0  1  -0.00000000  0.00000000  0.71773738  1
  Li  Li1  1  -0.00000000  0.33333333  0.71773738  1
  Li  Li2  1  -0.00000000  0.66666667  0.71773738  1
  Li  Li3  1  0.33333333  0.00000000  0.71773738  1
  Li  Li4  1  0.33333333  0.33333333  0.71773738  1
  Li  Li5  1  0.33333333  0.66666667  0.71773738  1
  Li  Li6  1  0.66666667  0.00000000  0.71773738  1
  Li  Li7  1  0.66666667  0.33333333  0.71773738  1
  Li  Li8  1  0.66666667  0.66666667  0.71773738  1
  Li  Li9  1  0.22222222  0.11111111  1.05107071  1
  Li  Li10  1  0.22222222  0.44444444  1.05107071  1
  Li  Li11  1  0.22222222  0.77777778  1.05107071  1
  Li  Li12  1  0.55555556  0.11111111  1.05107071  1
  Li  Li13  1  0.55555556  0.44444444  1.05107071  1
  Li  Li14  1  0.55555556  0.77777778  1.05107071  1
  Li  Li15  1  0.88888889  0.11111111  1.05107071  1
  Li  Li16  1  0.88888889  0.44444444  1.05107071  1
  Li  Li17  1  0.88888889  0.77777778  1.05107071  1
  Li  Li18  1  0.11111111  0.22222222  1.38440405  1
  Li  Li19  1  0.11111111  0.55555556  1.38440405  1
  Li  Li20  1  0.11111111  0.88888889  1.38440405  1
  Li  Li21  1  0.44444444  0.22222222  1.38440405  1
  Li  Li22  1  0.44444444  0.55555556  1.38440405  1
  Li  Li23  1  0.44444444  0.88888889  1.38440405  1
  Li  Li24  1  0.77777778  0.22222222  1.38440405  1
  Li  Li25  1  0.77777778  0.55555556  1.38440405  1
  Li  Li26  1  0.77777778  0.88888889  1.38440405  1
  Li  Li27  1  -0.00000000  -0.00000000  0.21773738  1
  Li  Li28  1  -0.00000000  0.33333333  0.21773738  1
  Li  Li29  1  -0.00000000  0.66666667  0.21773738  1
  Li  Li30  1  0.33333333  -0.00000000  0.21773738  1
  Li  Li31  1  0.33333333  0.33333333  0.21773738  1
  Li  Li32  1  0.33333333  0.66666667  0.21773738  1
  Li  Li33  1  0.66666667  -0.00000000  0.21773738  1
  Li  Li34  1  0.66666667  0.33333333  0.21773738  1
  Li  Li35  1  0.66666667  0.66666667  0.21773738  1
  Li  Li36  1  0.22222222  0.11111111  0.55107071  1
  Li  Li37  1  0.22222222  0.44444444  0.55107071  1
  Li  Li38  1  0.22222222  0.77777778  0.55107071  1
  Li  Li39  1  0.55555556  0.11111111  0.55107071  1
  Li  Li40  1  0.55555556  0.44444444  0.55107071  1
  Li  Li41  1  0.55555556  0.77777778  0.55107071  1
  Li  Li42  1  0.88888889  0.11111111  0.55107071  1
  Li  Li43  1  0.88888889  0.44444444  0.55107071  1
  Li  Li44  1  0.88888889  0.77777778  0.55107071  1
  Li  Li45  1  0.11111111  0.22222222  0.88440405  1
  Li  Li46  1  0.11111111  0.55555556  0.88440405  1
  Li  Li47  1  0.11111111  0.88888889  0.88440405  1
  Li  Li48  1  0.44444444  0.22222222  0.88440405  1
  Li  Li49  1  0.44444444  0.55555556  0.88440405  1
  Li  Li50  1  0.44444444  0.88888889  0.88440405  1
  Li  Li51  1  0.77777778  0.22222222  0.88440405  1
  Li  Li52  1  0.77777778  0.55555556  0.88440405  1
  Li  Li53  1  0.77777778  0.88888889  0.88440405  1
  Nb  Nb54  1  -0.00000000  -0.00000000  0.00022397  1
  Nb  Nb55  1  -0.00000000  0.33333333  0.00022397  1
  Nb  Nb56  1  -0.00000000  0.66666667  0.00022397  1
  Nb  Nb57  1  0.33333333  -0.00000000  0.00022397  1
  Nb  Nb58  1  0.33333333  0.33333333  0.00022397  1
  Nb  Nb59  1  0.33333333  0.66666667  0.00022397  1
  Nb  Nb60  1  0.66666667  -0.00000000  0.00022397  1
  Nb  Nb61  1  0.66666667  0.33333333  0.00022397  1
  Nb  Nb62  1  0.66666667  0.66666667  0.00022397  1
  Nb  Nb63  1  0.22222222  0.11111111  0.33355730  1
  Nb  Nb64  1  0.22222222  0.44444444  0.33355730  1
  Nb  Nb65  1  0.22222222  0.77777778  0.33355730  1
  Nb  Nb66  1  0.55555556  0.11111111  0.33355730  1
  Nb  Nb67  1  0.55555556  0.44444444  0.33355730  1
  Nb  Nb68  1  0.55555556  0.77777778  0.33355730  1
  Nb  Nb69  1  0.88888889  0.11111111  0.33355730  1
  Nb  Nb70  1  0.88888889  0.44444444  0.33355730  1
  Nb  Nb71  1  0.88888889  0.77777778  0.33355730  1
  Nb  Nb72  1  0.11111111  0.22222222  0.66689063  1
  Nb  Nb73  1  0.11111111  0.55555556  0.66689063  1
  Nb  Nb74  1  0.11111111  0.88888889  0.66689063  1
  Nb  Nb75  1  0.44444444  0.22222222  0.66689063  1
  Nb  Nb76  1  0.44444444  0.55555556  0.66689063  1
  Nb  Nb77  1  0.44444444  0.88888889  0.66689063  1
  Nb  Nb78  1  0.77777778  0.22222222  0.66689063  1
  Nb  Nb79  1  0.77777778  0.55555556  0.66689063  1
  Nb  Nb80  1  0.77777778  0.88888889  0.66689063  1
  Nb  Nb81  1  0.00000000  -0.00000000  0.50022397  1
  Nb  Nb82  1  -0.00000000  0.33333333  0.50022397  1
  Nb  Nb83  1  -0.00000000  0.66666667  0.50022397  1
  Nb  Nb84  1  0.33333333  -0.00000000  0.50022397  1
  Nb  Nb85  1  0.33333333  0.33333333  0.50022397  1
  Nb  Nb86  1  0.33333333  0.66666667  0.50022397  1
  Nb  Nb87  1  0.66666667  -0.00000000  0.50022397  1
  Nb  Nb88  1  0.66666667  0.33333333  0.50022397  1
  Nb  Nb89  1  0.66666667  0.66666667  0.50022397  1
  Nb  Nb90  1  0.22222222  0.11111111  0.83355730  1
  Nb  Nb91  1  0.22222222  0.44444444  0.83355730  1
  Nb  Nb92  1  0.22222222  0.77777778  0.83355730  1
  Nb  Nb93  1  0.55555556  0.11111111  0.83355730  1
  Nb  Nb94  1  0.55555556  0.44444444  0.83355730  1
  Nb  Nb95  1  0.55555556  0.77777778  0.83355730  1
  Nb  Nb96  1  0.88888889  0.11111111  0.83355730  1
  Nb  Nb97  1  0.88888889  0.44444444  0.83355730  1
  Nb  Nb98  1  0.88888889  0.77777778  0.83355730  1
  Nb  Nb99  1  0.11111111  0.22222222  1.16689063  1
  Nb  Nb100  1  0.11111111  0.55555556  1.16689063  1
  Nb  Nb101  1  0.11111111  0.88888889  1.16689063  1
  Nb  Nb102  1  0.44444444  0.22222222  1.16689063  1
  Nb  Nb103  1  0.44444444  0.55555556  1.16689063  1
  Nb  Nb104  1  0.44444444  0.88888889  1.16689063  1
  Nb  Nb105  1  0.77777778  0.22222222  1.16689063  1
  Nb  Nb106  1  0.77777778  0.55555556  1.16689063  1
  Nb  Nb107  1  0.77777778  0.88888889  1.16689063  1
  O  O108  1  0.09631756  0.10715266  0.60281288  1
  O  O109  1  0.09631756  0.44048600  0.60281288  1
  O  O110  1  0.09631756  0.77381933  0.60281288  1
  O  O111  1  0.42965090  0.10715266  0.60281288  1
  O  O112  1  0.42965090  0.44048600  0.60281288  1
  O  O113  1  0.42965090  0.77381933  0.60281288  1
  O  O114  1  0.76298423  0.10715266  0.60281288  1
  O  O115  1  0.76298423  0.44048600  0.60281288  1
  O  O116  1  0.76298423  0.77381933  0.60281288  1
  O  O117  1  0.31853979  0.21826377  0.93614622  1
  O  O118  1  0.31853979  0.55159711  0.93614622  1
  O  O119  1  0.31853979  0.88493044  0.93614622  1
  O  O120  1  0.65187312  0.21826377  0.93614622  1
  O  O121  1  0.65187312  0.55159711  0.93614622  1
  O  O122  1  0.65187312  0.88493044  0.93614622  1
  O  O123  1  0.98520645  0.21826377  0.93614622  1
  O  O124  1  0.98520645  0.55159711  0.93614622  1
  O  O125  1  0.98520645  0.88493044  0.93614622  1
  O  O126  1  0.20742867  0.32937489  1.26947955  1
  O  O127  1  0.20742867  0.66270822  1.26947955  1
  O  O128  1  0.20742867  0.99604155  1.26947955  1
  O  O129  1  0.54076201  0.32937489  1.26947955  1
  O  O130  1  0.54076201  0.66270822  1.26947955  1
  O  O131  1  0.54076201  0.99604155  1.26947955  1
  O  O132  1  0.87409534  0.32937489  1.26947955  1
  O  O133  1  0.87409534  0.66270822  1.26947955  1
  O  O134  1  0.87409534  0.99604155  1.26947955  1
  O  O135  1  -0.10715266  -0.01083510  0.60281288  1
  O  O136  1  -0.10715266  0.32249823  0.60281288  1
  O  O137  1  -0.10715266  0.65583157  0.60281288  1
  O  O138  1  0.22618067  -0.01083510  0.60281288  1
  O  O139  1  0.22618067  0.32249823  0.60281288  1
  O  O140  1  0.22618067  0.65583157  0.60281288  1
  O  O141  1  0.55951400  -0.01083510  0.60281288  1
  O  O142  1  0.55951400  0.32249823  0.60281288  1
  O  O143  1  0.55951400  0.65583157  0.60281288  1
  O  O144  1  0.11506956  0.10027601  0.93614622  1
  O  O145  1  0.11506956  0.43360934  0.93614622  1
  O  O146  1  0.11506956  0.76694268  0.93614622  1
  O  O147  1  0.44840289  0.10027601  0.93614622  1
  O  O148  1  0.44840289  0.43360934  0.93614622  1
  O  O149  1  0.44840289  0.76694268  0.93614622  1
  O  O150  1  0.78173623  0.10027601  0.93614622  1
  O  O151  1  0.78173623  0.43360934  0.93614622  1
  O  O152  1  0.78173623  0.76694268  0.93614622  1
  O  O153  1  0.00395845  0.21138712  1.26947955  1
  O  O154  1  0.00395845  0.54472046  1.26947955  1
  O  O155  1  0.00395845  0.87805379  1.26947955  1
  O  O156  1  0.33729178  0.21138712  1.26947955  1
  O  O157  1  0.33729178  0.54472046  1.26947955  1
  O  O158  1  0.33729178  0.87805379  1.26947955  1
  O  O159  1  0.67062511  0.21138712  1.26947955  1
  O  O160  1  0.67062511  0.54472046  1.26947955  1
  O  O161  1  0.67062511  0.87805379  1.26947955  1
  O  O162  1  0.01083510  -0.09631756  0.60281288  1
  O  O163  1  0.01083510  0.23701577  0.60281288  1
  O  O164  1  0.01083510  0.57034910  0.60281288  1
  O  O165  1  0.34416843  -0.09631756  0.60281288  1
  O  O166  1  0.34416843  0.23701577  0.60281288  1
  O  O167  1  0.34416843  0.57034910  0.60281288  1
  O  O168  1  0.67750177  -0.09631756  0.60281288  1
  O  O169  1  0.67750177  0.23701577  0.60281288  1
  O  O170  1  0.67750177  0.57034910  0.60281288  1
  O  O171  1  0.23305732  0.01479355  0.93614622  1
  O  O172  1  0.23305732  0.34812688  0.93614622  1
  O  O173  1  0.23305732  0.68146021  0.93614622  1
  O  O174  1  0.56639066  0.01479355  0.93614622  1
  O  O175  1  0.56639066  0.34812688  0.93614622  1
  O  O176  1  0.56639066  0.68146021  0.93614622  1
  O  O177  1  0.89972399  0.01479355  0.93614622  1
  O  O178  1  0.89972399  0.34812688  0.93614622  1
  O  O179  1  0.89972399  0.68146021  0.93614622  1
  O  O180  1  0.12194621  0.12590466  1.26947955  1
  O  O181  1  0.12194621  0.45923799  1.26947955  1
  O  O182  1  0.12194621  0.79257133  1.26947955  1
  O  O183  1  0.45527954  0.12590466  1.26947955  1
  O  O184  1  0.45527954  0.45923799  1.26947955  1
  O  O185  1  0.45527954  0.79257133  1.26947955  1
  O  O186  1  0.78861288  0.12590466  1.26947955  1
  O  O187  1  0.78861288  0.45923799  1.26947955  1
  O  O188  1  0.78861288  0.79257133  1.26947955  1
  O  O189  1  -0.10027601  -0.11506956  0.43614622  1
  O  O190  1  -0.10027601  0.21826377  0.43614622  1
  O  O191  1  -0.10027601  0.55159711  0.43614622  1
  O  O192  1  0.23305732  -0.11506956  0.43614622  1
  O  O193  1  0.23305732  0.21826377  0.43614622  1
  O  O194  1  0.23305732  0.55159711  0.43614622  1
  O  O195  1  0.56639066  -0.11506956  0.43614622  1
  O  O196  1  0.56639066  0.21826377  0.43614622  1
  O  O197  1  0.56639066  0.55159711  0.43614622  1
  O  O198  1  0.12194621  -0.00395845  0.76947955  1
  O  O199  1  0.12194621  0.32937489  0.76947955  1
  O  O200  1  0.12194621  0.66270822  0.76947955  1
  O  O201  1  0.45527954  -0.00395845  0.76947955  1
  O  O202  1  0.45527954  0.32937489  0.76947955  1
  O  O203  1  0.45527954  0.66270822  0.76947955  1
  O  O204  1  0.78861288  -0.00395845  0.76947955  1
  O  O205  1  0.78861288  0.32937489  0.76947955  1
  O  O206  1  0.78861288  0.66270822  0.76947955  1
  O  O207  1  0.01083510  0.10715266  1.10281288  1
  O  O208  1  0.01083510  0.44048600  1.10281288  1
  O  O209  1  0.01083510  0.77381933  1.10281288  1
  O  O210  1  0.34416843  0.10715266  1.10281288  1
  O  O211  1  0.34416843  0.44048600  1.10281288  1
  O  O212  1  0.34416843  0.77381933  1.10281288  1
  O  O213  1  0.67750177  0.10715266  1.10281288  1
  O  O214  1  0.67750177  0.44048600  1.10281288  1
  O  O215  1  0.67750177  0.77381933  1.10281288  1
  O  O216  1  0.11506956  0.01479355  0.43614622  1
  O  O217  1  0.11506956  0.34812688  0.43614622  1
  O  O218  1  0.11506956  0.68146021  0.43614622  1
  O  O219  1  0.44840289  0.01479355  0.43614622  1
  O  O220  1  0.44840289  0.34812688  0.43614622  1
  O  O221  1  0.44840289  0.68146021  0.43614622  1
  O  O222  1  0.78173623  0.01479355  0.43614622  1
  O  O223  1  0.78173623  0.34812688  0.43614622  1
  O  O224  1  0.78173623  0.68146021  0.43614622  1
  O  O225  1  0.33729178  0.12590466  0.76947955  1
  O  O226  1  0.33729178  0.45923799  0.76947955  1
  O  O227  1  0.33729178  0.79257133  0.76947955  1
  O  O228  1  0.67062511  0.12590466  0.76947955  1
  O  O229  1  0.67062511  0.45923799  0.76947955  1
  O  O230  1  0.67062511  0.79257133  0.76947955  1
  O  O231  1  1.00395845  0.12590466  0.76947955  1
  O  O232  1  1.00395845  0.45923799  0.76947955  1
  O  O233  1  1.00395845  0.79257133  0.76947955  1
  O  O234  1  0.22618067  0.23701577  1.10281288  1
  O  O235  1  0.22618067  0.57034910  1.10281288  1
  O  O236  1  0.22618067  0.90368244  1.10281288  1
  O  O237  1  0.55951400  0.23701577  1.10281288  1
  O  O238  1  0.55951400  0.57034910  1.10281288  1
  O  O239  1  0.55951400  0.90368244  1.10281288  1
  O  O240  1  0.89284734  0.23701577  1.10281288  1
  O  O241  1  0.89284734  0.57034910  1.10281288  1
  O  O242  1  0.89284734  0.90368244  1.10281288  1
  O  O243  1  -0.01479355  0.10027601  0.43614622  1
  O  O244  1  -0.01479355  0.43360934  0.43614622  1
  O  O245  1  -0.01479355  0.76694268  0.43614622  1
  O  O246  1  0.31853979  0.10027601  0.43614622  1
  O  O247  1  0.31853979  0.43360934  0.43614622  1
  O  O248  1  0.31853979  0.76694268  0.43614622  1
  O  O249  1  0.65187312  0.10027601  0.43614622  1
  O  O250  1  0.65187312  0.43360934  0.43614622  1
  O  O251  1  0.65187312  0.76694268  0.43614622  1
  O  O252  1  0.20742867  0.21138712  0.76947955  1
  O  O253  1  0.20742867  0.54472046  0.76947955  1
  O  O254  1  0.20742867  0.87805379  0.76947955  1
  O  O255  1  0.54076201  0.21138712  0.76947955  1
  O  O256  1  0.54076201  0.54472046  0.76947955  1
  O  O257  1  0.54076201  0.87805379  0.76947955  1
  O  O258  1  0.87409534  0.21138712  0.76947955  1
  O  O259  1  0.87409534  0.54472046  0.76947955  1
  O  O260  1  0.87409534  0.87805379  0.76947955  1
  O  O261  1  0.09631756  0.32249823  1.10281288  1
  O  O262  1  0.09631756  0.65583157  1.10281288  1
  O  O263  1  0.09631756  0.98916490  1.10281288  1
  O  O264  1  0.42965090  0.32249823  1.10281288  1
  O  O265  1  0.42965090  0.65583157  1.10281288  1
  O  O266  1  0.42965090  0.98916490  1.10281288  1
  O  O267  1  0.76298423  0.32249823  1.10281288  1
  O  O268  1  0.76298423  0.65583157  1.10281288  1
  O  O269  1  0.76298423  0.98916490  1.10281288  1
