# generated using pymatgen
data_Li4Ca(BO3)2
_symmetry_space_group_name_H-M   'P 1'
_cell_length_a   8.03929925
_cell_length_b   9.23298712
_cell_length_c   10.39719572
_cell_angle_alpha   90.00000000
_cell_angle_beta   90.00000000
_cell_angle_gamma   90.00000000
_symmetry_Int_Tables_number   1
_chemical_formula_structural   Li4Ca(BO3)2
_chemical_formula_sum   'Li24 Ca6 B12 O36'
_cell_volume   771.75000996
_cell_formula_units_Z   6
loop_
 _symmetry_equiv_pos_site_id
 _symmetry_equiv_pos_as_xyz
  1  'x, y, z'
loop_
 _atom_site_type_symbol
 _atom_site_label
 _atom_site_symmetry_multiplicity
 _atom_site_fract_x
 _atom_site_fract_y
 _atom_site_fract_z
 _atom_site_occupancy
  Li  Li0  1  0.48672227  0.19868973  0.00000000  1
  Li  Li1  1  0.48672227  0.19868973  0.33333333  1
  Li  Li2  1  0.48672227  0.19868973  0.66666667  1
  Li  Li3  1  0.51327773  0.80131027  0.00000000  1
  Li  Li4  1  0.51327773  0.80131027  0.33333333  1
  Li  Li5  1  0.51327773  0.80131027  0.66666667  1
  Li  Li6  1  0.01327773  0.69868973  0.16666667  1
  Li  Li7  1  0.01327773  0.69868973  0.50000000  1
  Li  Li8  1  0.01327773  0.69868973  0.83333333  1
  Li  Li9  1  0.98672227  0.30131027  0.16666667  1
  Li  Li10  1  0.98672227  0.30131027  0.50000000  1
  Li  Li11  1  0.98672227  0.30131027  0.83333333  1
  Li  Li12  1  0.66852290  0.95063218  0.16666667  1
  Li  Li13  1  0.66852290  0.95063218  0.50000000  1
  Li  Li14  1  0.66852290  0.95063218  0.83333333  1
  Li  Li15  1  0.33147710  0.04936782  0.16666667  1
  Li  Li16  1  0.33147710  0.04936782  0.50000000  1
  Li  Li17  1  0.33147710  0.04936782  0.83333333  1
  Li  Li18  1  0.83147710  0.45063218  0.00000000  1
  Li  Li19  1  0.83147710  0.45063218  0.33333333  1
  Li  Li20  1  0.83147710  0.45063218  0.66666667  1
  Li  Li21  1  0.16852290  0.54936782  0.00000000  1
  Li  Li22  1  0.16852290  0.54936782  0.33333333  1
  Li  Li23  1  0.16852290  0.54936782  0.66666667  1
  Ca  Ca24  1  0.50000000  0.50000000  0.16666667  1
  Ca  Ca25  1  0.50000000  0.50000000  0.50000000  1
  Ca  Ca26  1  0.50000000  0.50000000  0.83333333  1
  Ca  Ca27  1  0.00000000  0.00000000  0.00000000  1
  Ca  Ca28  1  0.00000000  0.00000000  0.33333333  1
  Ca  Ca29  1  0.00000000  0.00000000  0.66666667  1
  B  B30  1  0.72735502  0.20863059  0.16666667  1
  B  B31  1  0.72735502  0.20863059  0.50000000  1
  B  B32  1  0.72735502  0.20863059  0.83333333  1
  B  B33  1  0.27264498  0.79136941  0.16666667  1
  B  B34  1  0.27264498  0.79136941  0.50000000  1
  B  B35  1  0.27264498  0.79136941  0.83333333  1
  B  B36  1  0.77264498  0.70863059  0.00000000  1
  B  B37  1  0.77264498  0.70863059  0.33333333  1
  B  B38  1  0.77264498  0.70863059  0.66666667  1
  B  B39  1  0.22735502  0.29136941  0.00000000  1
  B  B40  1  0.22735502  0.29136941  0.33333333  1
  B  B41  1  0.22735502  0.29136941  0.66666667  1
  O  O42  1  0.75160240  0.35773922  0.16666667  1
  O  O43  1  0.75160240  0.35773922  0.50000000  1
  O  O44  1  0.75160240  0.35773922  0.83333333  1
  O  O45  1  0.24839760  0.64226078  0.16666667  1
  O  O46  1  0.24839760  0.64226078  0.50000000  1
  O  O47  1  0.24839760  0.64226078  0.83333333  1
  O  O48  1  0.74839760  0.85773922  0.00000000  1
  O  O49  1  0.74839760  0.85773922  0.33333333  1
  O  O50  1  0.74839760  0.85773922  0.66666667  1
  O  O51  1  0.25160240  0.14226078  0.00000000  1
  O  O52  1  0.25160240  0.14226078  0.33333333  1
  O  O53  1  0.25160240  0.14226078  0.66666667  1
  O  O54  1  0.57030994  0.14803187  0.16666667  1
  O  O55  1  0.57030994  0.14803187  0.50000000  1
  O  O56  1  0.57030994  0.14803187  0.83333333  1
  O  O57  1  0.42969006  0.85196813  0.16666667  1
  O  O58  1  0.42969006  0.85196813  0.50000000  1
  O  O59  1  0.42969006  0.85196813  0.83333333  1
  O  O60  1  0.92969006  0.64803187  0.00000000  1
  O  O61  1  0.92969006  0.64803187  0.33333333  1
  O  O62  1  0.92969006  0.64803187  0.66666667  1
  O  O63  1  0.07030994  0.35196813  0.00000000  1
  O  O64  1  0.07030994  0.35196813  0.33333333  1
  O  O65  1  0.07030994  0.35196813  0.66666667  1
  O  O66  1  0.36597087  0.38225633  0.00000000  1
  O  O67  1  0.36597087  0.38225633  0.33333333  1
  O  O68  1  0.36597087  0.38225633  0.66666667  1
  O  O69  1  0.63402913  0.61774367  0.00000000  1
  O  O70  1  0.63402913  0.61774367  0.33333333  1
  O  O71  1  0.63402913  0.61774367  0.66666667  1
  O  O72  1  0.13402913  0.88225633  0.16666667  1
  O  O73  1  0.13402913  0.88225633  0.50000000  1
  O  O74  1  0.13402913  0.88225633  0.83333333  1
  O  O75  1  0.86597087  0.11774367  0.16666667  1
  O  O76  1  0.86597087  0.11774367  0.50000000  1
  O  O77  1  0.86597087  0.11774367  0.83333333  1
