# generated using pymatgen
data_Ta6TiTl2O18
_symmetry_space_group_name_H-M   'P 1'
_cell_length_a   15.09273538
_cell_length_b   15.09273538
_cell_length_c   16.55842865
_cell_angle_alpha   90.00000000
_cell_angle_beta   90.00000000
_cell_angle_gamma   120.00000000
_symmetry_Int_Tables_number   1
_chemical_formula_structural   Ta6TiTl2O18
_chemical_formula_sum   'Ta48 Ti8 Tl16 O144'
_cell_volume   3266.52260509
_cell_formula_units_Z   8
loop_
 _symmetry_equiv_pos_site_id
 _symmetry_equiv_pos_as_xyz
  1  'x, y, z'
loop_
 _atom_site_type_symbol
 _atom_site_label
 _atom_site_symmetry_multiplicity
 _atom_site_fract_x
 _atom_site_fract_y
 _atom_site_fract_z
 _atom_site_occupancy
  Ta  Ta0  1  0.33298032  0.41649016  0.07608974  1
  Ta  Ta1  1  0.33298032  0.41649016  0.57608974  1
  Ta  Ta2  1  0.33298032  0.91649016  0.07608974  1
  Ta  Ta3  1  0.33298032  0.91649016  0.57608974  1
  Ta  Ta4  1  0.83298032  0.41649016  0.07608974  1
  Ta  Ta5  1  0.83298032  0.41649016  0.57608974  1
  Ta  Ta6  1  0.83298032  0.91649016  0.07608974  1
  Ta  Ta7  1  0.83298032  0.91649016  0.57608974  1
  Ta  Ta8  1  0.08350984  0.16701968  0.07608974  1
  Ta  Ta9  1  0.08350984  0.16701968  0.57608974  1
  Ta  Ta10  1  0.08350984  0.66701968  0.07608974  1
  Ta  Ta11  1  0.08350984  0.66701968  0.57608974  1
  Ta  Ta12  1  0.58350984  0.16701968  0.07608974  1
  Ta  Ta13  1  0.58350984  0.16701968  0.57608974  1
  Ta  Ta14  1  0.58350984  0.66701968  0.07608974  1
  Ta  Ta15  1  0.58350984  0.66701968  0.57608974  1
  Ta  Ta16  1  0.08350984  0.41649016  0.07608974  1
  Ta  Ta17  1  0.08350984  0.41649016  0.57608974  1
  Ta  Ta18  1  0.08350984  0.91649016  0.07608974  1
  Ta  Ta19  1  0.08350984  0.91649016  0.57608974  1
  Ta  Ta20  1  0.58350984  0.41649016  0.07608974  1
  Ta  Ta21  1  0.58350984  0.41649016  0.57608974  1
  Ta  Ta22  1  0.58350984  0.91649016  0.07608974  1
  Ta  Ta23  1  0.58350984  0.91649016  0.57608974  1
  Ta  Ta24  1  0.16701968  0.08350984  0.42391026  1
  Ta  Ta25  1  0.16701968  0.08350984  0.92391026  1
  Ta  Ta26  1  0.16701968  0.58350984  0.42391026  1
  Ta  Ta27  1  0.16701968  0.58350984  0.92391026  1
  Ta  Ta28  1  0.66701968  0.08350984  0.42391026  1
  Ta  Ta29  1  0.66701968  0.08350984  0.92391026  1
  Ta  Ta30  1  0.66701968  0.58350984  0.42391026  1
  Ta  Ta31  1  0.66701968  0.58350984  0.92391026  1
  Ta  Ta32  1  0.41649016  0.33298032  0.42391026  1
  Ta  Ta33  1  0.41649016  0.33298032  0.92391026  1
  Ta  Ta34  1  0.41649016  0.83298032  0.42391026  1
  Ta  Ta35  1  0.41649016  0.83298032  0.92391026  1
  Ta  Ta36  1  0.91649016  0.33298032  0.42391026  1
  Ta  Ta37  1  0.91649016  0.33298032  0.92391026  1
  Ta  Ta38  1  0.91649016  0.83298032  0.42391026  1
  Ta  Ta39  1  0.91649016  0.83298032  0.92391026  1
  Ta  Ta40  1  0.41649016  0.08350984  0.42391026  1
  Ta  Ta41  1  0.41649016  0.08350984  0.92391026  1
  Ta  Ta42  1  0.41649016  0.58350984  0.42391026  1
  Ta  Ta43  1  0.41649016  0.58350984  0.92391026  1
  Ta  Ta44  1  0.91649016  0.08350984  0.42391026  1
  Ta  Ta45  1  0.91649016  0.08350984  0.92391026  1
  Ta  Ta46  1  0.91649016  0.58350984  0.42391026  1
  Ta  Ta47  1  0.91649016  0.58350984  0.92391026  1
  Ti  Ti48  1  0.00000000  0.00000000  0.25000000  1
  Ti  Ti49  1  0.00000000  0.00000000  0.75000000  1
  Ti  Ti50  1  0.00000000  0.50000000  0.25000000  1
  Ti  Ti51  1  0.00000000  0.50000000  0.75000000  1
  Ti  Ti52  1  0.50000000  0.00000000  0.25000000  1
  Ti  Ti53  1  0.50000000  0.00000000  0.75000000  1
  Ti  Ti54  1  0.50000000  0.50000000  0.25000000  1
  Ti  Ti55  1  0.50000000  0.50000000  0.75000000  1
  Tl  Tl56  1  0.16666667  0.33333333  0.36101002  1
  Tl  Tl57  1  0.16666667  0.33333333  0.86101002  1
  Tl  Tl58  1  0.16666667  0.83333333  0.36101002  1
  Tl  Tl59  1  0.16666667  0.83333333  0.86101002  1
  Tl  Tl60  1  0.66666667  0.33333333  0.36101002  1
  Tl  Tl61  1  0.66666667  0.33333333  0.86101002  1
  Tl  Tl62  1  0.66666667  0.83333333  0.36101002  1
  Tl  Tl63  1  0.66666667  0.83333333  0.86101002  1
  Tl  Tl64  1  0.33333333  0.16666667  0.13898998  1
  Tl  Tl65  1  0.33333333  0.16666667  0.63898998  1
  Tl  Tl66  1  0.33333333  0.66666667  0.13898998  1
  Tl  Tl67  1  0.33333333  0.66666667  0.63898998  1
  Tl  Tl68  1  0.83333333  0.16666667  0.13898998  1
  Tl  Tl69  1  0.83333333  0.16666667  0.63898998  1
  Tl  Tl70  1  0.83333333  0.66666667  0.13898998  1
  Tl  Tl71  1  0.83333333  0.66666667  0.63898998  1
  O  O72  1  0.05013461  0.27506730  0.07954473  1
  O  O73  1  0.05013461  0.27506730  0.57954473  1
  O  O74  1  0.05013461  0.77506730  0.07954473  1
  O  O75  1  0.05013461  0.77506730  0.57954473  1
  O  O76  1  0.55013461  0.27506730  0.07954473  1
  O  O77  1  0.55013461  0.27506730  0.57954473  1
  O  O78  1  0.55013461  0.77506730  0.07954473  1
  O  O79  1  0.55013461  0.77506730  0.57954473  1
  O  O80  1  0.22493270  0.44986539  0.07954473  1
  O  O81  1  0.22493270  0.44986539  0.57954473  1
  O  O82  1  0.22493270  0.94986539  0.07954473  1
  O  O83  1  0.22493270  0.94986539  0.57954473  1
  O  O84  1  0.72493270  0.44986539  0.07954473  1
  O  O85  1  0.72493270  0.44986539  0.57954473  1
  O  O86  1  0.72493270  0.94986539  0.07954473  1
  O  O87  1  0.72493270  0.94986539  0.57954473  1
  O  O88  1  0.22493270  0.27506730  0.07954473  1
  O  O89  1  0.22493270  0.27506730  0.57954473  1
  O  O90  1  0.22493270  0.77506730  0.07954473  1
  O  O91  1  0.22493270  0.77506730  0.57954473  1
  O  O92  1  0.72493270  0.27506730  0.07954473  1
  O  O93  1  0.72493270  0.27506730  0.57954473  1
  O  O94  1  0.72493270  0.77506730  0.07954473  1
  O  O95  1  0.72493270  0.77506730  0.57954473  1
  O  O96  1  0.44986539  0.22493270  0.42045527  1
  O  O97  1  0.44986539  0.22493270  0.92045527  1
  O  O98  1  0.44986539  0.72493270  0.42045527  1
  O  O99  1  0.44986539  0.72493270  0.92045527  1
  O  O100  1  0.94986539  0.22493270  0.42045527  1
  O  O101  1  0.94986539  0.22493270  0.92045527  1
  O  O102  1  0.94986539  0.72493270  0.42045527  1
  O  O103  1  0.94986539  0.72493270  0.92045527  1
  O  O104  1  0.27506730  0.05013461  0.42045527  1
  O  O105  1  0.27506730  0.05013461  0.92045527  1
  O  O106  1  0.27506730  0.55013461  0.42045527  1
  O  O107  1  0.27506730  0.55013461  0.92045527  1
  O  O108  1  0.77506730  0.05013461  0.42045527  1
  O  O109  1  0.77506730  0.05013461  0.92045527  1
  O  O110  1  0.77506730  0.55013461  0.42045527  1
  O  O111  1  0.77506730  0.55013461  0.92045527  1
  O  O112  1  0.27506730  0.22493270  0.42045527  1
  O  O113  1  0.27506730  0.22493270  0.92045527  1
  O  O114  1  0.27506730  0.72493270  0.42045527  1
  O  O115  1  0.27506730  0.72493270  0.92045527  1
  O  O116  1  0.77506730  0.22493270  0.42045527  1
  O  O117  1  0.77506730  0.22493270  0.92045527  1
  O  O118  1  0.77506730  0.72493270  0.42045527  1
  O  O119  1  0.77506730  0.72493270  0.92045527  1
  O  O120  1  0.14207978  0.07103989  0.05065364  1
  O  O121  1  0.14207978  0.07103989  0.55065364  1
  O  O122  1  0.14207978  0.57103989  0.05065364  1
  O  O123  1  0.14207978  0.57103989  0.55065364  1
  O  O124  1  0.64207978  0.07103989  0.05065364  1
  O  O125  1  0.64207978  0.07103989  0.55065364  1
  O  O126  1  0.64207978  0.57103989  0.05065364  1
  O  O127  1  0.64207978  0.57103989  0.55065364  1
  O  O128  1  0.42896011  0.35792022  0.05065364  1
  O  O129  1  0.42896011  0.35792022  0.55065364  1
  O  O130  1  0.42896011  0.85792022  0.05065364  1
  O  O131  1  0.42896011  0.85792022  0.55065364  1
  O  O132  1  0.92896011  0.35792022  0.05065364  1
  O  O133  1  0.92896011  0.35792022  0.55065364  1
  O  O134  1  0.92896011  0.85792022  0.05065364  1
  O  O135  1  0.92896011  0.85792022  0.55065364  1
  O  O136  1  0.42896011  0.07103989  0.05065364  1
  O  O137  1  0.42896011  0.07103989  0.55065364  1
  O  O138  1  0.42896011  0.57103989  0.05065364  1
  O  O139  1  0.42896011  0.57103989  0.55065364  1
  O  O140  1  0.92896011  0.07103989  0.05065364  1
  O  O141  1  0.92896011  0.07103989  0.55065364  1
  O  O142  1  0.92896011  0.57103989  0.05065364  1
  O  O143  1  0.92896011  0.57103989  0.55065364  1
  O  O144  1  0.35792022  0.42896011  0.44934636  1
  O  O145  1  0.35792022  0.42896011  0.94934636  1
  O  O146  1  0.35792022  0.92896011  0.44934636  1
  O  O147  1  0.35792022  0.92896011  0.94934636  1
  O  O148  1  0.85792022  0.42896011  0.44934636  1
  O  O149  1  0.85792022  0.42896011  0.94934636  1
  O  O150  1  0.85792022  0.92896011  0.44934636  1
  O  O151  1  0.85792022  0.92896011  0.94934636  1
  O  O152  1  0.07103989  0.14207978  0.44934636  1
  O  O153  1  0.07103989  0.14207978  0.94934636  1
  O  O154  1  0.07103989  0.64207978  0.44934636  1
  O  O155  1  0.07103989  0.64207978  0.94934636  1
  O  O156  1  0.57103989  0.14207978  0.44934636  1
  O  O157  1  0.57103989  0.14207978  0.94934636  1
  O  O158  1  0.57103989  0.64207978  0.44934636  1
  O  O159  1  0.57103989  0.64207978  0.94934636  1
  O  O160  1  0.07103989  0.42896011  0.44934636  1
  O  O161  1  0.07103989  0.42896011  0.94934636  1
  O  O162  1  0.07103989  0.92896011  0.44934636  1
  O  O163  1  0.07103989  0.92896011  0.94934636  1
  O  O164  1  0.57103989  0.42896011  0.44934636  1
  O  O165  1  0.57103989  0.42896011  0.94934636  1
  O  O166  1  0.57103989  0.92896011  0.44934636  1
  O  O167  1  0.57103989  0.92896011  0.94934636  1
  O  O168  1  0.37880435  0.43940217  0.18116049  1
  O  O169  1  0.37880435  0.43940217  0.68116049  1
  O  O170  1  0.37880435  0.93940217  0.18116049  1
  O  O171  1  0.37880435  0.93940217  0.68116049  1
  O  O172  1  0.87880435  0.43940217  0.18116049  1
  O  O173  1  0.87880435  0.43940217  0.68116049  1
  O  O174  1  0.87880435  0.93940217  0.18116049  1
  O  O175  1  0.87880435  0.93940217  0.68116049  1
  O  O176  1  0.06059783  0.12119565  0.18116049  1
  O  O177  1  0.06059783  0.12119565  0.68116049  1
  O  O178  1  0.06059783  0.62119565  0.18116049  1
  O  O179  1  0.06059783  0.62119565  0.68116049  1
  O  O180  1  0.56059783  0.12119565  0.18116049  1
  O  O181  1  0.56059783  0.12119565  0.68116049  1
  O  O182  1  0.56059783  0.62119565  0.18116049  1
  O  O183  1  0.56059783  0.62119565  0.68116049  1
  O  O184  1  0.06059783  0.43940217  0.18116049  1
  O  O185  1  0.06059783  0.43940217  0.68116049  1
  O  O186  1  0.06059783  0.93940217  0.18116049  1
  O  O187  1  0.06059783  0.93940217  0.68116049  1
  O  O188  1  0.56059783  0.43940217  0.18116049  1
  O  O189  1  0.56059783  0.43940217  0.68116049  1
  O  O190  1  0.56059783  0.93940217  0.18116049  1
  O  O191  1  0.56059783  0.93940217  0.68116049  1
  O  O192  1  0.12119565  0.06059783  0.31883951  1
  O  O193  1  0.12119565  0.06059783  0.81883951  1
  O  O194  1  0.12119565  0.56059783  0.31883951  1
  O  O195  1  0.12119565  0.56059783  0.81883951  1
  O  O196  1  0.62119565  0.06059783  0.31883951  1
  O  O197  1  0.62119565  0.06059783  0.81883951  1
  O  O198  1  0.62119565  0.56059783  0.31883951  1
  O  O199  1  0.62119565  0.56059783  0.81883951  1
  O  O200  1  0.43940217  0.37880435  0.31883951  1
  O  O201  1  0.43940217  0.37880435  0.81883951  1
  O  O202  1  0.43940217  0.87880435  0.31883951  1
  O  O203  1  0.43940217  0.87880435  0.81883951  1
  O  O204  1  0.93940217  0.37880435  0.31883951  1
  O  O205  1  0.93940217  0.37880435  0.81883951  1
  O  O206  1  0.93940217  0.87880435  0.31883951  1
  O  O207  1  0.93940217  0.87880435  0.81883951  1
  O  O208  1  0.43940217  0.06059783  0.31883951  1
  O  O209  1  0.43940217  0.06059783  0.81883951  1
  O  O210  1  0.43940217  0.56059783  0.31883951  1
  O  O211  1  0.43940217  0.56059783  0.81883951  1
  O  O212  1  0.93940217  0.06059783  0.31883951  1
  O  O213  1  0.93940217  0.06059783  0.81883951  1
  O  O214  1  0.93940217  0.56059783  0.31883951  1
  O  O215  1  0.93940217  0.56059783  0.81883951  1
