# generated using pymatgen
data_Cd(SbO3)2
_symmetry_space_group_name_H-M   'P 1'
_cell_length_a   10.55831009
_cell_length_b   10.55831009
_cell_length_c   9.63268053
_cell_angle_alpha   90.00000000
_cell_angle_beta   90.00000000
_cell_angle_gamma   120.00000000
_symmetry_Int_Tables_number   1
_chemical_formula_structural   Cd(SbO3)2
_chemical_formula_sum   'Cd8 Sb16 O48'
_cell_volume   929.96502287
_cell_formula_units_Z   8
loop_
 _symmetry_equiv_pos_site_id
 _symmetry_equiv_pos_as_xyz
  1  'x, y, z'
loop_
 _atom_site_type_symbol
 _atom_site_label
 _atom_site_symmetry_multiplicity
 _atom_site_fract_x
 _atom_site_fract_y
 _atom_site_fract_z
 _atom_site_occupancy
  Cd  Cd0  1  0.00000000  0.00000000  0.00000000  1
  Cd  Cd1  1  0.00000000  0.00000000  0.50000000  1
  Cd  Cd2  1  0.00000000  0.50000000  0.00000000  1
  Cd  Cd3  1  0.00000000  0.50000000  0.50000000  1
  Cd  Cd4  1  0.50000000  0.00000000  0.00000000  1
  Cd  Cd5  1  0.50000000  0.00000000  0.50000000  1
  Cd  Cd6  1  0.50000000  0.50000000  0.00000000  1
  Cd  Cd7  1  0.50000000  0.50000000  0.50000000  1
  Sb  Sb8  1  0.16666667  0.33333333  0.25000000  1
  Sb  Sb9  1  0.16666667  0.33333333  0.75000000  1
  Sb  Sb10  1  0.16666667  0.83333333  0.25000000  1
  Sb  Sb11  1  0.16666667  0.83333333  0.75000000  1
  Sb  Sb12  1  0.66666667  0.33333333  0.25000000  1
  Sb  Sb13  1  0.66666667  0.33333333  0.75000000  1
  Sb  Sb14  1  0.66666667  0.83333333  0.25000000  1
  Sb  Sb15  1  0.66666667  0.83333333  0.75000000  1
  Sb  Sb16  1  0.33333333  0.16666667  0.25000000  1
  Sb  Sb17  1  0.33333333  0.16666667  0.75000000  1
  Sb  Sb18  1  0.33333333  0.66666667  0.25000000  1
  Sb  Sb19  1  0.33333333  0.66666667  0.75000000  1
  Sb  Sb20  1  0.83333333  0.16666667  0.25000000  1
  Sb  Sb21  1  0.83333333  0.16666667  0.75000000  1
  Sb  Sb22  1  0.83333333  0.66666667  0.25000000  1
  Sb  Sb23  1  0.83333333  0.66666667  0.75000000  1
  O  O24  1  0.18266305  0.18266305  0.36329854  1
  O  O25  1  0.18266305  0.18266305  0.86329854  1
  O  O26  1  0.18266305  0.68266305  0.36329854  1
  O  O27  1  0.18266305  0.68266305  0.86329854  1
  O  O28  1  0.68266305  0.18266305  0.36329854  1
  O  O29  1  0.68266305  0.18266305  0.86329854  1
  O  O30  1  0.68266305  0.68266305  0.36329854  1
  O  O31  1  0.68266305  0.68266305  0.86329854  1
  O  O32  1  0.31733695  0.00000000  0.36329854  1
  O  O33  1  0.31733695  0.00000000  0.86329854  1
  O  O34  1  0.31733695  0.50000000  0.36329854  1
  O  O35  1  0.31733695  0.50000000  0.86329854  1
  O  O36  1  0.81733695  0.00000000  0.36329854  1
  O  O37  1  0.81733695  0.00000000  0.86329854  1
  O  O38  1  0.81733695  0.50000000  0.36329854  1
  O  O39  1  0.81733695  0.50000000  0.86329854  1
  O  O40  1  0.00000000  0.31733695  0.36329854  1
  O  O41  1  0.00000000  0.31733695  0.86329854  1
  O  O42  1  0.00000000  0.81733695  0.36329854  1
  O  O43  1  0.00000000  0.81733695  0.86329854  1
  O  O44  1  0.50000000  0.31733695  0.36329854  1
  O  O45  1  0.50000000  0.31733695  0.86329854  1
  O  O46  1  0.50000000  0.81733695  0.36329854  1
  O  O47  1  0.50000000  0.81733695  0.86329854  1
  O  O48  1  0.18266305  0.00000000  0.13670146  1
  O  O49  1  0.18266305  0.00000000  0.63670146  1
  O  O50  1  0.18266305  0.50000000  0.13670146  1
  O  O51  1  0.18266305  0.50000000  0.63670146  1
  O  O52  1  0.68266305  0.00000000  0.13670146  1
  O  O53  1  0.68266305  0.00000000  0.63670146  1
  O  O54  1  0.68266305  0.50000000  0.13670146  1
  O  O55  1  0.68266305  0.50000000  0.63670146  1
  O  O56  1  0.00000000  0.18266305  0.13670146  1
  O  O57  1  0.00000000  0.18266305  0.63670146  1
  O  O58  1  0.00000000  0.68266305  0.13670146  1
  O  O59  1  0.00000000  0.68266305  0.63670146  1
  O  O60  1  0.50000000  0.18266305  0.13670146  1
  O  O61  1  0.50000000  0.18266305  0.63670146  1
  O  O62  1  0.50000000  0.68266305  0.13670146  1
  O  O63  1  0.50000000  0.68266305  0.63670146  1
  O  O64  1  0.31733695  0.31733695  0.13670146  1
  O  O65  1  0.31733695  0.31733695  0.63670146  1
  O  O66  1  0.31733695  0.81733695  0.13670146  1
  O  O67  1  0.31733695  0.81733695  0.63670146  1
  O  O68  1  0.81733695  0.31733695  0.13670146  1
  O  O69  1  0.81733695  0.31733695  0.63670146  1
  O  O70  1  0.81733695  0.81733695  0.13670146  1
  O  O71  1  0.81733695  0.81733695  0.63670146  1
