# generated using pymatgen
data_K4ZrO4
_symmetry_space_group_name_H-M   'P 1'
_cell_length_a   19.66323390
_cell_length_b   19.71559388
_cell_length_c   19.73090744
_cell_angle_alpha   80.55126393
_cell_angle_beta   71.73713099
_cell_angle_gamma   67.37213684
_symmetry_Int_Tables_number   1
_chemical_formula_structural   K4ZrO4
_chemical_formula_sum   'K144 Zr36 O144'
_cell_volume   6696.38695263
_cell_formula_units_Z   36
loop_
 _symmetry_equiv_pos_site_id
 _symmetry_equiv_pos_as_xyz
  1  'x, y, z'
loop_
 _atom_site_type_symbol
 _atom_site_label
 _atom_site_symmetry_multiplicity
 _atom_site_fract_x
 _atom_site_fract_y
 _atom_site_fract_z
 _atom_site_occupancy
  K  K0  1  0.31845796  0.07643042  0.30520627  1
  K  K1  1  0.31845796  0.07643042  0.80520627  1
  K  K2  1  0.31845796  0.40976376  0.30520627  1
  K  K3  1  0.31845796  0.40976376  0.80520627  1
  K  K4  1  0.31845796  0.74309709  0.30520627  1
  K  K5  1  0.31845796  0.74309709  0.80520627  1
  K  K6  1  0.65179130  0.07643042  0.30520627  1
  K  K7  1  0.65179130  0.07643042  0.80520627  1
  K  K8  1  0.65179130  0.40976376  0.30520627  1
  K  K9  1  0.65179130  0.40976376  0.80520627  1
  K  K10  1  0.65179130  0.74309709  0.30520627  1
  K  K11  1  0.65179130  0.74309709  0.80520627  1
  K  K12  1  0.98512463  0.07643042  0.30520627  1
  K  K13  1  0.98512463  0.07643042  0.80520627  1
  K  K14  1  0.98512463  0.40976376  0.30520627  1
  K  K15  1  0.98512463  0.40976376  0.80520627  1
  K  K16  1  0.98512463  0.74309709  0.30520627  1
  K  K17  1  0.98512463  0.74309709  0.80520627  1
  K  K18  1  0.01487537  0.25690291  0.19479373  1
  K  K19  1  0.01487537  0.25690291  0.69479373  1
  K  K20  1  0.01487537  0.59023624  0.19479373  1
  K  K21  1  0.01487537  0.59023624  0.69479373  1
  K  K22  1  0.01487537  0.92356958  0.19479373  1
  K  K23  1  0.01487537  0.92356958  0.69479373  1
  K  K24  1  0.34820870  0.25690291  0.19479373  1
  K  K25  1  0.34820870  0.25690291  0.69479373  1
  K  K26  1  0.34820870  0.59023624  0.19479373  1
  K  K27  1  0.34820870  0.59023624  0.69479373  1
  K  K28  1  0.34820870  0.92356958  0.19479373  1
  K  K29  1  0.34820870  0.92356958  0.69479373  1
  K  K30  1  0.68154204  0.25690291  0.19479373  1
  K  K31  1  0.68154204  0.25690291  0.69479373  1
  K  K32  1  0.68154204  0.59023624  0.19479373  1
  K  K33  1  0.68154204  0.59023624  0.69479373  1
  K  K34  1  0.68154204  0.92356958  0.19479373  1
  K  K35  1  0.68154204  0.92356958  0.69479373  1
  K  K36  1  0.13291406  0.08971022  0.41290161  1
  K  K37  1  0.13291406  0.08971022  0.91290161  1
  K  K38  1  0.13291406  0.42304355  0.41290161  1
  K  K39  1  0.13291406  0.42304355  0.91290161  1
  K  K40  1  0.13291406  0.75637688  0.41290161  1
  K  K41  1  0.13291406  0.75637688  0.91290161  1
  K  K42  1  0.46624739  0.08971022  0.41290161  1
  K  K43  1  0.46624739  0.08971022  0.91290161  1
  K  K44  1  0.46624739  0.42304355  0.41290161  1
  K  K45  1  0.46624739  0.42304355  0.91290161  1
  K  K46  1  0.46624739  0.75637688  0.41290161  1
  K  K47  1  0.46624739  0.75637688  0.91290161  1
  K  K48  1  0.79958072  0.08971022  0.41290161  1
  K  K49  1  0.79958072  0.08971022  0.91290161  1
  K  K50  1  0.79958072  0.42304355  0.41290161  1
  K  K51  1  0.79958072  0.42304355  0.91290161  1
  K  K52  1  0.79958072  0.75637688  0.41290161  1
  K  K53  1  0.79958072  0.75637688  0.91290161  1
  K  K54  1  0.20041928  0.24362312  0.08709839  1
  K  K55  1  0.20041928  0.24362312  0.58709839  1
  K  K56  1  0.20041928  0.57695645  0.08709839  1
  K  K57  1  0.20041928  0.57695645  0.58709839  1
  K  K58  1  0.20041928  0.91028978  0.08709839  1
  K  K59  1  0.20041928  0.91028978  0.58709839  1
  K  K60  1  0.53375261  0.24362312  0.08709839  1
  K  K61  1  0.53375261  0.24362312  0.58709839  1
  K  K62  1  0.53375261  0.57695645  0.08709839  1
  K  K63  1  0.53375261  0.57695645  0.58709839  1
  K  K64  1  0.53375261  0.91028978  0.08709839  1
  K  K65  1  0.53375261  0.91028978  0.58709839  1
  K  K66  1  0.86708594  0.24362312  0.08709839  1
  K  K67  1  0.86708594  0.24362312  0.58709839  1
  K  K68  1  0.86708594  0.57695645  0.08709839  1
  K  K69  1  0.86708594  0.57695645  0.58709839  1
  K  K70  1  0.86708594  0.91028978  0.08709839  1
  K  K71  1  0.86708594  0.91028978  0.58709839  1
  K  K72  1  0.08008159  0.25355864  0.49056548  1
  K  K73  1  0.08008159  0.25355864  0.99056548  1
  K  K74  1  0.08008159  0.58689198  0.49056548  1
  K  K75  1  0.08008159  0.58689198  0.99056548  1
  K  K76  1  0.08008159  0.92022531  0.49056548  1
  K  K77  1  0.08008159  0.92022531  0.99056548  1
  K  K78  1  0.41341492  0.25355864  0.49056548  1
  K  K79  1  0.41341492  0.25355864  0.99056548  1
  K  K80  1  0.41341492  0.58689198  0.49056548  1
  K  K81  1  0.41341492  0.58689198  0.99056548  1
  K  K82  1  0.41341492  0.92022531  0.49056548  1
  K  K83  1  0.41341492  0.92022531  0.99056548  1
  K  K84  1  0.74674825  0.25355864  0.49056548  1
  K  K85  1  0.74674825  0.25355864  0.99056548  1
  K  K86  1  0.74674825  0.58689198  0.49056548  1
  K  K87  1  0.74674825  0.58689198  0.99056548  1
  K  K88  1  0.74674825  0.92022531  0.49056548  1
  K  K89  1  0.74674825  0.92022531  0.99056548  1
  K  K90  1  0.25325175  0.07977469  0.00943452  1
  K  K91  1  0.25325175  0.07977469  0.50943452  1
  K  K92  1  0.25325175  0.41310802  0.00943452  1
  K  K93  1  0.25325175  0.41310802  0.50943452  1
  K  K94  1  0.25325175  0.74644136  0.00943452  1
  K  K95  1  0.25325175  0.74644136  0.50943452  1
  K  K96  1  0.58658508  0.07977469  0.00943452  1
  K  K97  1  0.58658508  0.07977469  0.50943452  1
  K  K98  1  0.58658508  0.41310802  0.00943452  1
  K  K99  1  0.58658508  0.41310802  0.50943452  1
  K  K100  1  0.58658508  0.74644136  0.00943452  1
  K  K101  1  0.58658508  0.74644136  0.50943452  1
  K  K102  1  0.91991841  0.07977469  0.00943452  1
  K  K103  1  0.91991841  0.07977469  0.50943452  1
  K  K104  1  0.91991841  0.41310802  0.00943452  1
  K  K105  1  0.91991841  0.41310802  0.50943452  1
  K  K106  1  0.91991841  0.74644136  0.00943452  1
  K  K107  1  0.91991841  0.74644136  0.50943452  1
  K  K108  1  0.16101683  0.24340309  0.28059617  1
  K  K109  1  0.16101683  0.24340309  0.78059617  1
  K  K110  1  0.16101683  0.57673642  0.28059617  1
  K  K111  1  0.16101683  0.57673642  0.78059617  1
  K  K112  1  0.16101683  0.91006975  0.28059617  1
  K  K113  1  0.16101683  0.91006975  0.78059617  1
  K  K114  1  0.49435017  0.24340309  0.28059617  1
  K  K115  1  0.49435017  0.24340309  0.78059617  1
  K  K116  1  0.49435017  0.57673642  0.28059617  1
  K  K117  1  0.49435017  0.57673642  0.78059617  1
  K  K118  1  0.49435017  0.91006975  0.28059617  1
  K  K119  1  0.49435017  0.91006975  0.78059617  1
  K  K120  1  0.82768350  0.24340309  0.28059617  1
  K  K121  1  0.82768350  0.24340309  0.78059617  1
  K  K122  1  0.82768350  0.57673642  0.28059617  1
  K  K123  1  0.82768350  0.57673642  0.78059617  1
  K  K124  1  0.82768350  0.91006975  0.28059617  1
  K  K125  1  0.82768350  0.91006975  0.78059617  1
  K  K126  1  0.17231650  0.08993025  0.21940383  1
  K  K127  1  0.17231650  0.08993025  0.71940383  1
  K  K128  1  0.17231650  0.42326358  0.21940383  1
  K  K129  1  0.17231650  0.42326358  0.71940383  1
  K  K130  1  0.17231650  0.75659691  0.21940383  1
  K  K131  1  0.17231650  0.75659691  0.71940383  1
  K  K132  1  0.50564983  0.08993025  0.21940383  1
  K  K133  1  0.50564983  0.08993025  0.71940383  1
  K  K134  1  0.50564983  0.42326358  0.21940383  1
  K  K135  1  0.50564983  0.42326358  0.71940383  1
  K  K136  1  0.50564983  0.75659691  0.21940383  1
  K  K137  1  0.50564983  0.75659691  0.71940383  1
  K  K138  1  0.83898317  0.08993025  0.21940383  1
  K  K139  1  0.83898317  0.08993025  0.71940383  1
  K  K140  1  0.83898317  0.42326358  0.21940383  1
  K  K141  1  0.83898317  0.42326358  0.71940383  1
  K  K142  1  0.83898317  0.75659691  0.21940383  1
  K  K143  1  0.83898317  0.75659691  0.71940383  1
  Zr  Zr144  1  0.28139052  0.24039283  0.37786502  1
  Zr  Zr145  1  0.28139052  0.24039283  0.87786502  1
  Zr  Zr146  1  0.28139052  0.57372616  0.37786502  1
  Zr  Zr147  1  0.28139052  0.57372616  0.87786502  1
  Zr  Zr148  1  0.28139052  0.90705949  0.37786502  1
  Zr  Zr149  1  0.28139052  0.90705949  0.87786502  1
  Zr  Zr150  1  0.61472385  0.24039283  0.37786502  1
  Zr  Zr151  1  0.61472385  0.24039283  0.87786502  1
  Zr  Zr152  1  0.61472385  0.57372616  0.37786502  1
  Zr  Zr153  1  0.61472385  0.57372616  0.87786502  1
  Zr  Zr154  1  0.61472385  0.90705949  0.37786502  1
  Zr  Zr155  1  0.61472385  0.90705949  0.87786502  1
  Zr  Zr156  1  0.94805719  0.24039283  0.37786502  1
  Zr  Zr157  1  0.94805719  0.24039283  0.87786502  1
  Zr  Zr158  1  0.94805719  0.57372616  0.37786502  1
  Zr  Zr159  1  0.94805719  0.57372616  0.87786502  1
  Zr  Zr160  1  0.94805719  0.90705949  0.37786502  1
  Zr  Zr161  1  0.94805719  0.90705949  0.87786502  1
  Zr  Zr162  1  0.05194281  0.09294051  0.12213498  1
  Zr  Zr163  1  0.05194281  0.09294051  0.62213498  1
  Zr  Zr164  1  0.05194281  0.42627384  0.12213498  1
  Zr  Zr165  1  0.05194281  0.42627384  0.62213498  1
  Zr  Zr166  1  0.05194281  0.75960717  0.12213498  1
  Zr  Zr167  1  0.05194281  0.75960717  0.62213498  1
  Zr  Zr168  1  0.38527615  0.09294051  0.12213498  1
  Zr  Zr169  1  0.38527615  0.09294051  0.62213498  1
  Zr  Zr170  1  0.38527615  0.42627384  0.12213498  1
  Zr  Zr171  1  0.38527615  0.42627384  0.62213498  1
  Zr  Zr172  1  0.38527615  0.75960717  0.12213498  1
  Zr  Zr173  1  0.38527615  0.75960717  0.62213498  1
  Zr  Zr174  1  0.71860948  0.09294051  0.12213498  1
  Zr  Zr175  1  0.71860948  0.09294051  0.62213498  1
  Zr  Zr176  1  0.71860948  0.42627384  0.12213498  1
  Zr  Zr177  1  0.71860948  0.42627384  0.62213498  1
  Zr  Zr178  1  0.71860948  0.75960717  0.12213498  1
  Zr  Zr179  1  0.71860948  0.75960717  0.62213498  1
  O  O180  1  0.23557167  0.32152022  0.31369457  1
  O  O181  1  0.23557167  0.32152022  0.81369457  1
  O  O182  1  0.23557167  0.65485356  0.31369457  1
  O  O183  1  0.23557167  0.65485356  0.81369457  1
  O  O184  1  0.23557167  0.98818689  0.31369457  1
  O  O185  1  0.23557167  0.98818689  0.81369457  1
  O  O186  1  0.56890500  0.32152022  0.31369457  1
  O  O187  1  0.56890500  0.32152022  0.81369457  1
  O  O188  1  0.56890500  0.65485356  0.31369457  1
  O  O189  1  0.56890500  0.65485356  0.81369457  1
  O  O190  1  0.56890500  0.98818689  0.31369457  1
  O  O191  1  0.56890500  0.98818689  0.81369457  1
  O  O192  1  0.90223833  0.32152022  0.31369457  1
  O  O193  1  0.90223833  0.32152022  0.81369457  1
  O  O194  1  0.90223833  0.65485356  0.31369457  1
  O  O195  1  0.90223833  0.65485356  0.81369457  1
  O  O196  1  0.90223833  0.98818689  0.31369457  1
  O  O197  1  0.90223833  0.98818689  0.81369457  1
  O  O198  1  0.09776167  0.01181311  0.18630543  1
  O  O199  1  0.09776167  0.01181311  0.68630543  1
  O  O200  1  0.09776167  0.34514644  0.18630543  1
  O  O201  1  0.09776167  0.34514644  0.68630543  1
  O  O202  1  0.09776167  0.67847978  0.18630543  1
  O  O203  1  0.09776167  0.67847978  0.68630543  1
  O  O204  1  0.43109500  0.01181311  0.18630543  1
  O  O205  1  0.43109500  0.01181311  0.68630543  1
  O  O206  1  0.43109500  0.34514644  0.18630543  1
  O  O207  1  0.43109500  0.34514644  0.68630543  1
  O  O208  1  0.43109500  0.67847978  0.18630543  1
  O  O209  1  0.43109500  0.67847978  0.68630543  1
  O  O210  1  0.76442833  0.01181311  0.18630543  1
  O  O211  1  0.76442833  0.01181311  0.68630543  1
  O  O212  1  0.76442833  0.34514644  0.18630543  1
  O  O213  1  0.76442833  0.34514644  0.68630543  1
  O  O214  1  0.76442833  0.67847978  0.18630543  1
  O  O215  1  0.76442833  0.67847978  0.68630543  1
  O  O216  1  0.28184898  0.15301599  0.17888756  1
  O  O217  1  0.28184898  0.15301599  0.67888756  1
  O  O218  1  0.28184898  0.48634932  0.17888756  1
  O  O219  1  0.28184898  0.48634932  0.67888756  1
  O  O220  1  0.28184898  0.81968266  0.17888756  1
  O  O221  1  0.28184898  0.81968266  0.67888756  1
  O  O222  1  0.61518231  0.15301599  0.17888756  1
  O  O223  1  0.61518231  0.15301599  0.67888756  1
  O  O224  1  0.61518231  0.48634932  0.17888756  1
  O  O225  1  0.61518231  0.48634932  0.67888756  1
  O  O226  1  0.61518231  0.81968266  0.17888756  1
  O  O227  1  0.61518231  0.81968266  0.67888756  1
  O  O228  1  0.94851564  0.15301599  0.17888756  1
  O  O229  1  0.94851564  0.15301599  0.67888756  1
  O  O230  1  0.94851564  0.48634932  0.17888756  1
  O  O231  1  0.94851564  0.48634932  0.67888756  1
  O  O232  1  0.94851564  0.81968266  0.17888756  1
  O  O233  1  0.94851564  0.81968266  0.67888756  1
  O  O234  1  0.05148436  0.18031734  0.32111244  1
  O  O235  1  0.05148436  0.18031734  0.82111244  1
  O  O236  1  0.05148436  0.51365068  0.32111244  1
  O  O237  1  0.05148436  0.51365068  0.82111244  1
  O  O238  1  0.05148436  0.84698401  0.32111244  1
  O  O239  1  0.05148436  0.84698401  0.82111244  1
  O  O240  1  0.38481769  0.18031734  0.32111244  1
  O  O241  1  0.38481769  0.18031734  0.82111244  1
  O  O242  1  0.38481769  0.51365068  0.32111244  1
  O  O243  1  0.38481769  0.51365068  0.82111244  1
  O  O244  1  0.38481769  0.84698401  0.32111244  1
  O  O245  1  0.38481769  0.84698401  0.82111244  1
  O  O246  1  0.71815102  0.18031734  0.32111244  1
  O  O247  1  0.71815102  0.18031734  0.82111244  1
  O  O248  1  0.71815102  0.51365068  0.32111244  1
  O  O249  1  0.71815102  0.51365068  0.82111244  1
  O  O250  1  0.71815102  0.84698401  0.32111244  1
  O  O251  1  0.71815102  0.84698401  0.82111244  1
  O  O252  1  0.21752289  0.17825797  0.40264628  1
  O  O253  1  0.21752289  0.17825797  0.90264628  1
  O  O254  1  0.21752289  0.51159130  0.40264628  1
  O  O255  1  0.21752289  0.51159130  0.90264628  1
  O  O256  1  0.21752289  0.84492464  0.40264628  1
  O  O257  1  0.21752289  0.84492464  0.90264628  1
  O  O258  1  0.55085622  0.17825797  0.40264628  1
  O  O259  1  0.55085622  0.17825797  0.90264628  1
  O  O260  1  0.55085622  0.51159130  0.40264628  1
  O  O261  1  0.55085622  0.51159130  0.90264628  1
  O  O262  1  0.55085622  0.84492464  0.40264628  1
  O  O263  1  0.55085622  0.84492464  0.90264628  1
  O  O264  1  0.88418956  0.17825797  0.40264628  1
  O  O265  1  0.88418956  0.17825797  0.90264628  1
  O  O266  1  0.88418956  0.51159130  0.40264628  1
  O  O267  1  0.88418956  0.51159130  0.90264628  1
  O  O268  1  0.88418956  0.84492464  0.40264628  1
  O  O269  1  0.88418956  0.84492464  0.90264628  1
  O  O270  1  0.11581044  0.15507536  0.09735372  1
  O  O271  1  0.11581044  0.15507536  0.59735372  1
  O  O272  1  0.11581044  0.48840870  0.09735372  1
  O  O273  1  0.11581044  0.48840870  0.59735372  1
  O  O274  1  0.11581044  0.82174203  0.09735372  1
  O  O275  1  0.11581044  0.82174203  0.59735372  1
  O  O276  1  0.44914378  0.15507536  0.09735372  1
  O  O277  1  0.44914378  0.15507536  0.59735372  1
  O  O278  1  0.44914378  0.48840870  0.09735372  1
  O  O279  1  0.44914378  0.48840870  0.59735372  1
  O  O280  1  0.44914378  0.82174203  0.09735372  1
  O  O281  1  0.44914378  0.82174203  0.59735372  1
  O  O282  1  0.78247711  0.15507536  0.09735372  1
  O  O283  1  0.78247711  0.15507536  0.59735372  1
  O  O284  1  0.78247711  0.48840870  0.09735372  1
  O  O285  1  0.78247711  0.48840870  0.59735372  1
  O  O286  1  0.78247711  0.82174203  0.09735372  1
  O  O287  1  0.78247711  0.82174203  0.59735372  1
  O  O288  1  0.28226227  0.28309030  0.46098506  1
  O  O289  1  0.28226227  0.28309030  0.96098506  1
  O  O290  1  0.28226227  0.61642363  0.46098506  1
  O  O291  1  0.28226227  0.61642363  0.96098506  1
  O  O292  1  0.28226227  0.94975696  0.46098506  1
  O  O293  1  0.28226227  0.94975696  0.96098506  1
  O  O294  1  0.61559560  0.28309030  0.46098506  1
  O  O295  1  0.61559560  0.28309030  0.96098506  1
  O  O296  1  0.61559560  0.61642363  0.46098506  1
  O  O297  1  0.61559560  0.61642363  0.96098506  1
  O  O298  1  0.61559560  0.94975696  0.46098506  1
  O  O299  1  0.61559560  0.94975696  0.96098506  1
  O  O300  1  0.94892893  0.28309030  0.46098506  1
  O  O301  1  0.94892893  0.28309030  0.96098506  1
  O  O302  1  0.94892893  0.61642363  0.46098506  1
  O  O303  1  0.94892893  0.61642363  0.96098506  1
  O  O304  1  0.94892893  0.94975696  0.46098506  1
  O  O305  1  0.94892893  0.94975696  0.96098506  1
  O  O306  1  0.05107107  0.05024304  0.03901494  1
  O  O307  1  0.05107107  0.05024304  0.53901494  1
  O  O308  1  0.05107107  0.38357637  0.03901494  1
  O  O309  1  0.05107107  0.38357637  0.53901494  1
  O  O310  1  0.05107107  0.71690970  0.03901494  1
  O  O311  1  0.05107107  0.71690970  0.53901494  1
  O  O312  1  0.38440440  0.05024304  0.03901494  1
  O  O313  1  0.38440440  0.05024304  0.53901494  1
  O  O314  1  0.38440440  0.38357637  0.03901494  1
  O  O315  1  0.38440440  0.38357637  0.53901494  1
  O  O316  1  0.38440440  0.71690970  0.03901494  1
  O  O317  1  0.38440440  0.71690970  0.53901494  1
  O  O318  1  0.71773773  0.05024304  0.03901494  1
  O  O319  1  0.71773773  0.05024304  0.53901494  1
  O  O320  1  0.71773773  0.38357637  0.03901494  1
  O  O321  1  0.71773773  0.38357637  0.53901494  1
  O  O322  1  0.71773773  0.71690970  0.03901494  1
  O  O323  1  0.71773773  0.71690970  0.53901494  1
