# generated using pymatgen
data_NaSbO3
_symmetry_space_group_name_H-M   'P 1'
_cell_length_a   15.97312540
_cell_length_b   15.97312540
_cell_length_c   15.80314093
_cell_angle_alpha   90.00000000
_cell_angle_beta   90.00000000
_cell_angle_gamma   120.00000000
_symmetry_Int_Tables_number   1
_chemical_formula_structural   NaSbO3
_chemical_formula_sum   'Na54 Sb54 O162'
_cell_volume   3491.83607292
_cell_formula_units_Z   54
loop_
 _symmetry_equiv_pos_site_id
 _symmetry_equiv_pos_as_xyz
  1  'x, y, z'
loop_
 _atom_site_type_symbol
 _atom_site_label
 _atom_site_symmetry_multiplicity
 _atom_site_fract_x
 _atom_site_fract_y
 _atom_site_fract_z
 _atom_site_occupancy
  Na  Na0  1  0.00000000  0.00000000  0.36121636  1
  Na  Na1  1  -0.00000000  0.33333333  0.36121636  1
  Na  Na2  1  -0.00000000  0.66666667  0.36121636  1
  Na  Na3  1  0.33333333  0.00000000  0.36121636  1
  Na  Na4  1  0.33333333  0.33333333  0.36121636  1
  Na  Na5  1  0.33333333  0.66666667  0.36121636  1
  Na  Na6  1  0.66666667  0.00000000  0.36121636  1
  Na  Na7  1  0.66666667  0.33333333  0.36121636  1
  Na  Na8  1  0.66666667  0.66666667  0.36121636  1
  Na  Na9  1  0.22222222  0.11111111  0.69454969  1
  Na  Na10  1  0.22222222  0.44444444  0.69454969  1
  Na  Na11  1  0.22222222  0.77777778  0.69454969  1
  Na  Na12  1  0.55555556  0.11111111  0.69454969  1
  Na  Na13  1  0.55555556  0.44444444  0.69454969  1
  Na  Na14  1  0.55555556  0.77777778  0.69454969  1
  Na  Na15  1  0.88888889  0.11111111  0.69454969  1
  Na  Na16  1  0.88888889  0.44444444  0.69454969  1
  Na  Na17  1  0.88888889  0.77777778  0.69454969  1
  Na  Na18  1  0.11111111  0.22222222  1.02788302  1
  Na  Na19  1  0.11111111  0.55555556  1.02788302  1
  Na  Na20  1  0.11111111  0.88888889  1.02788302  1
  Na  Na21  1  0.44444444  0.22222222  1.02788302  1
  Na  Na22  1  0.44444444  0.55555556  1.02788302  1
  Na  Na23  1  0.44444444  0.88888889  1.02788302  1
  Na  Na24  1  0.77777778  0.22222222  1.02788302  1
  Na  Na25  1  0.77777778  0.55555556  1.02788302  1
  Na  Na26  1  0.77777778  0.88888889  1.02788302  1
  Na  Na27  1  0.00000000  0.00000000  0.63878364  1
  Na  Na28  1  -0.00000000  0.33333333  0.63878364  1
  Na  Na29  1  -0.00000000  0.66666667  0.63878364  1
  Na  Na30  1  0.33333333  0.00000000  0.63878364  1
  Na  Na31  1  0.33333333  0.33333333  0.63878364  1
  Na  Na32  1  0.33333333  0.66666667  0.63878364  1
  Na  Na33  1  0.66666667  0.00000000  0.63878364  1
  Na  Na34  1  0.66666667  0.33333333  0.63878364  1
  Na  Na35  1  0.66666667  0.66666667  0.63878364  1
  Na  Na36  1  0.22222222  0.11111111  0.97211698  1
  Na  Na37  1  0.22222222  0.44444444  0.97211698  1
  Na  Na38  1  0.22222222  0.77777778  0.97211698  1
  Na  Na39  1  0.55555556  0.11111111  0.97211698  1
  Na  Na40  1  0.55555556  0.44444444  0.97211698  1
  Na  Na41  1  0.55555556  0.77777778  0.97211698  1
  Na  Na42  1  0.88888889  0.11111111  0.97211698  1
  Na  Na43  1  0.88888889  0.44444444  0.97211698  1
  Na  Na44  1  0.88888889  0.77777778  0.97211698  1
  Na  Na45  1  0.11111111  0.22222222  1.30545031  1
  Na  Na46  1  0.11111111  0.55555556  1.30545031  1
  Na  Na47  1  0.11111111  0.88888889  1.30545031  1
  Na  Na48  1  0.44444444  0.22222222  1.30545031  1
  Na  Na49  1  0.44444444  0.55555556  1.30545031  1
  Na  Na50  1  0.44444444  0.88888889  1.30545031  1
  Na  Na51  1  0.77777778  0.22222222  1.30545031  1
  Na  Na52  1  0.77777778  0.55555556  1.30545031  1
  Na  Na53  1  0.77777778  0.88888889  1.30545031  1
  Sb  Sb54  1  -0.00000000  -0.00000000  0.16041694  1
  Sb  Sb55  1  -0.00000000  0.33333333  0.16041694  1
  Sb  Sb56  1  -0.00000000  0.66666667  0.16041694  1
  Sb  Sb57  1  0.33333333  -0.00000000  0.16041694  1
  Sb  Sb58  1  0.33333333  0.33333333  0.16041694  1
  Sb  Sb59  1  0.33333333  0.66666667  0.16041694  1
  Sb  Sb60  1  0.66666667  -0.00000000  0.16041694  1
  Sb  Sb61  1  0.66666667  0.33333333  0.16041694  1
  Sb  Sb62  1  0.66666667  0.66666667  0.16041694  1
  Sb  Sb63  1  0.22222222  0.11111111  0.49375027  1
  Sb  Sb64  1  0.22222222  0.44444444  0.49375027  1
  Sb  Sb65  1  0.22222222  0.77777778  0.49375027  1
  Sb  Sb66  1  0.55555556  0.11111111  0.49375027  1
  Sb  Sb67  1  0.55555556  0.44444444  0.49375027  1
  Sb  Sb68  1  0.55555556  0.77777778  0.49375027  1
  Sb  Sb69  1  0.88888889  0.11111111  0.49375027  1
  Sb  Sb70  1  0.88888889  0.44444444  0.49375027  1
  Sb  Sb71  1  0.88888889  0.77777778  0.49375027  1
  Sb  Sb72  1  0.11111111  0.22222222  0.82708360  1
  Sb  Sb73  1  0.11111111  0.55555556  0.82708360  1
  Sb  Sb74  1  0.11111111  0.88888889  0.82708360  1
  Sb  Sb75  1  0.44444444  0.22222222  0.82708360  1
  Sb  Sb76  1  0.44444444  0.55555556  0.82708360  1
  Sb  Sb77  1  0.44444444  0.88888889  0.82708360  1
  Sb  Sb78  1  0.77777778  0.22222222  0.82708360  1
  Sb  Sb79  1  0.77777778  0.55555556  0.82708360  1
  Sb  Sb80  1  0.77777778  0.88888889  0.82708360  1
  Sb  Sb81  1  -0.00000000  -0.00000000  0.83958306  1
  Sb  Sb82  1  -0.00000000  0.33333333  0.83958306  1
  Sb  Sb83  1  -0.00000000  0.66666667  0.83958306  1
  Sb  Sb84  1  0.33333333  -0.00000000  0.83958306  1
  Sb  Sb85  1  0.33333333  0.33333333  0.83958306  1
  Sb  Sb86  1  0.33333333  0.66666667  0.83958306  1
  Sb  Sb87  1  0.66666667  -0.00000000  0.83958306  1
  Sb  Sb88  1  0.66666667  0.33333333  0.83958306  1
  Sb  Sb89  1  0.66666667  0.66666667  0.83958306  1
  Sb  Sb90  1  0.22222222  0.11111111  1.17291640  1
  Sb  Sb91  1  0.22222222  0.44444444  1.17291640  1
  Sb  Sb92  1  0.22222222  0.77777778  1.17291640  1
  Sb  Sb93  1  0.55555556  0.11111111  1.17291640  1
  Sb  Sb94  1  0.55555556  0.44444444  1.17291640  1
  Sb  Sb95  1  0.55555556  0.77777778  1.17291640  1
  Sb  Sb96  1  0.88888889  0.11111111  1.17291640  1
  Sb  Sb97  1  0.88888889  0.44444444  1.17291640  1
  Sb  Sb98  1  0.88888889  0.77777778  1.17291640  1
  Sb  Sb99  1  0.11111111  0.22222222  1.50624973  1
  Sb  Sb100  1  0.11111111  0.55555556  1.50624973  1
  Sb  Sb101  1  0.11111111  0.88888889  1.50624973  1
  Sb  Sb102  1  0.44444444  0.22222222  1.50624973  1
  Sb  Sb103  1  0.44444444  0.55555556  1.50624973  1
  Sb  Sb104  1  0.44444444  0.88888889  1.50624973  1
  Sb  Sb105  1  0.77777778  0.22222222  1.50624973  1
  Sb  Sb106  1  0.77777778  0.55555556  1.50624973  1
  Sb  Sb107  1  0.77777778  0.88888889  1.50624973  1
  O  O108  1  -0.12928655  -0.00377103  0.42827996  1
  O  O109  1  -0.12928655  0.32956231  0.42827996  1
  O  O110  1  -0.12928655  0.66289564  0.42827996  1
  O  O111  1  0.20404678  -0.00377103  0.42827996  1
  O  O112  1  0.20404678  0.32956231  0.42827996  1
  O  O113  1  0.20404678  0.66289564  0.42827996  1
  O  O114  1  0.53738011  -0.00377103  0.42827996  1
  O  O115  1  0.53738011  0.32956231  0.42827996  1
  O  O116  1  0.53738011  0.66289564  0.42827996  1
  O  O117  1  0.09293567  0.10734008  0.76161330  1
  O  O118  1  0.09293567  0.44067342  0.76161330  1
  O  O119  1  0.09293567  0.77400675  0.76161330  1
  O  O120  1  0.42626900  0.10734008  0.76161330  1
  O  O121  1  0.42626900  0.44067342  0.76161330  1
  O  O122  1  0.42626900  0.77400675  0.76161330  1
  O  O123  1  0.75960234  0.10734008  0.76161330  1
  O  O124  1  0.75960234  0.44067342  0.76161330  1
  O  O125  1  0.75960234  0.77400675  0.76161330  1
  O  O126  1  -0.01817544  0.21845120  1.09494663  1
  O  O127  1  -0.01817544  0.55178453  1.09494663  1
  O  O128  1  -0.01817544  0.88511786  1.09494663  1
  O  O129  1  0.31515789  0.21845120  1.09494663  1
  O  O130  1  0.31515789  0.55178453  1.09494663  1
  O  O131  1  0.31515789  0.88511786  1.09494663  1
  O  O132  1  0.64849123  0.21845120  1.09494663  1
  O  O133  1  0.64849123  0.55178453  1.09494663  1
  O  O134  1  0.64849123  0.88511786  1.09494663  1
  O  O135  1  0.12551553  0.12928655  0.42827996  1
  O  O136  1  0.12551553  0.46261989  0.42827996  1
  O  O137  1  0.12551553  0.79595322  0.42827996  1
  O  O138  1  0.45884886  0.12928655  0.42827996  1
  O  O139  1  0.45884886  0.46261989  0.42827996  1
  O  O140  1  0.45884886  0.79595322  0.42827996  1
  O  O141  1  0.79218219  0.12928655  0.42827996  1
  O  O142  1  0.79218219  0.46261989  0.42827996  1
  O  O143  1  0.79218219  0.79595322  0.42827996  1
  O  O144  1  0.34773775  0.24039766  0.76161330  1
  O  O145  1  0.34773775  0.57373100  0.76161330  1
  O  O146  1  0.34773775  0.90706433  0.76161330  1
  O  O147  1  0.68107108  0.24039766  0.76161330  1
  O  O148  1  0.68107108  0.57373100  0.76161330  1
  O  O149  1  0.68107108  0.90706433  0.76161330  1
  O  O150  1  1.01440441  0.24039766  0.76161330  1
  O  O151  1  1.01440441  0.57373100  0.76161330  1
  O  O152  1  1.01440441  0.90706433  0.76161330  1
  O  O153  1  0.23662664  0.35150877  1.09494663  1
  O  O154  1  0.23662664  0.68484211  1.09494663  1
  O  O155  1  0.23662664  1.01817544  1.09494663  1
  O  O156  1  0.56995997  0.35150877  1.09494663  1
  O  O157  1  0.56995997  0.68484211  1.09494663  1
  O  O158  1  0.56995997  1.01817544  1.09494663  1
  O  O159  1  0.90329330  0.35150877  1.09494663  1
  O  O160  1  0.90329330  0.68484211  1.09494663  1
  O  O161  1  0.90329330  1.01817544  1.09494663  1
  O  O162  1  0.00377103  -0.12551553  0.42827996  1
  O  O163  1  0.00377103  0.20781781  0.42827996  1
  O  O164  1  0.00377103  0.54115114  0.42827996  1
  O  O165  1  0.33710436  -0.12551553  0.42827996  1
  O  O166  1  0.33710436  0.20781781  0.42827996  1
  O  O167  1  0.33710436  0.54115114  0.42827996  1
  O  O168  1  0.67043769  -0.12551553  0.42827996  1
  O  O169  1  0.67043769  0.20781781  0.42827996  1
  O  O170  1  0.67043769  0.54115114  0.42827996  1
  O  O171  1  0.22599325  -0.01440441  0.76161330  1
  O  O172  1  0.22599325  0.31892892  0.76161330  1
  O  O173  1  0.22599325  0.65226225  0.76161330  1
  O  O174  1  0.55932658  -0.01440441  0.76161330  1
  O  O175  1  0.55932658  0.31892892  0.76161330  1
  O  O176  1  0.55932658  0.65226225  0.76161330  1
  O  O177  1  0.89265992  -0.01440441  0.76161330  1
  O  O178  1  0.89265992  0.31892892  0.76161330  1
  O  O179  1  0.89265992  0.65226225  0.76161330  1
  O  O180  1  0.11488214  0.09670670  1.09494663  1
  O  O181  1  0.11488214  0.43004003  1.09494663  1
  O  O182  1  0.11488214  0.76337336  1.09494663  1
  O  O183  1  0.44821547  0.09670670  1.09494663  1
  O  O184  1  0.44821547  0.43004003  1.09494663  1
  O  O185  1  0.44821547  0.76337336  1.09494663  1
  O  O186  1  0.78154880  0.09670670  1.09494663  1
  O  O187  1  0.78154880  0.43004003  1.09494663  1
  O  O188  1  0.78154880  0.76337336  1.09494663  1
  O  O189  1  0.12928655  0.00377103  0.57172004  1
  O  O190  1  0.12928655  0.33710436  0.57172004  1
  O  O191  1  0.12928655  0.67043769  0.57172004  1
  O  O192  1  0.46261989  0.00377103  0.57172004  1
  O  O193  1  0.46261989  0.33710436  0.57172004  1
  O  O194  1  0.46261989  0.67043769  0.57172004  1
  O  O195  1  0.79595322  0.00377103  0.57172004  1
  O  O196  1  0.79595322  0.33710436  0.57172004  1
  O  O197  1  0.79595322  0.67043769  0.57172004  1
  O  O198  1  0.35150877  0.11488214  0.90505337  1
  O  O199  1  0.35150877  0.44821547  0.90505337  1
  O  O200  1  0.35150877  0.78154880  0.90505337  1
  O  O201  1  0.68484211  0.11488214  0.90505337  1
  O  O202  1  0.68484211  0.44821547  0.90505337  1
  O  O203  1  0.68484211  0.78154880  0.90505337  1
  O  O204  1  1.01817544  0.11488214  0.90505337  1
  O  O205  1  1.01817544  0.44821547  0.90505337  1
  O  O206  1  1.01817544  0.78154880  0.90505337  1
  O  O207  1  0.24039766  0.22599325  1.23838670  1
  O  O208  1  0.24039766  0.55932658  1.23838670  1
  O  O209  1  0.24039766  0.89265992  1.23838670  1
  O  O210  1  0.57373100  0.22599325  1.23838670  1
  O  O211  1  0.57373100  0.55932658  1.23838670  1
  O  O212  1  0.57373100  0.89265992  1.23838670  1
  O  O213  1  0.90706433  0.22599325  1.23838670  1
  O  O214  1  0.90706433  0.55932658  1.23838670  1
  O  O215  1  0.90706433  0.89265992  1.23838670  1
  O  O216  1  -0.00377103  0.12551553  0.57172004  1
  O  O217  1  -0.00377103  0.45884886  0.57172004  1
  O  O218  1  -0.00377103  0.79218219  0.57172004  1
  O  O219  1  0.32956231  0.12551553  0.57172004  1
  O  O220  1  0.32956231  0.45884886  0.57172004  1
  O  O221  1  0.32956231  0.79218219  0.57172004  1
  O  O222  1  0.66289564  0.12551553  0.57172004  1
  O  O223  1  0.66289564  0.45884886  0.57172004  1
  O  O224  1  0.66289564  0.79218219  0.57172004  1
  O  O225  1  0.21845120  0.23662664  0.90505337  1
  O  O226  1  0.21845120  0.56995997  0.90505337  1
  O  O227  1  0.21845120  0.90329330  0.90505337  1
  O  O228  1  0.55178453  0.23662664  0.90505337  1
  O  O229  1  0.55178453  0.56995997  0.90505337  1
  O  O230  1  0.55178453  0.90329330  0.90505337  1
  O  O231  1  0.88511786  0.23662664  0.90505337  1
  O  O232  1  0.88511786  0.56995997  0.90505337  1
  O  O233  1  0.88511786  0.90329330  0.90505337  1
  O  O234  1  0.10734008  0.34773775  1.23838670  1
  O  O235  1  0.10734008  0.68107108  1.23838670  1
  O  O236  1  0.10734008  1.01440441  1.23838670  1
  O  O237  1  0.44067342  0.34773775  1.23838670  1
  O  O238  1  0.44067342  0.68107108  1.23838670  1
  O  O239  1  0.44067342  1.01440441  1.23838670  1
  O  O240  1  0.77400675  0.34773775  1.23838670  1
  O  O241  1  0.77400675  0.68107108  1.23838670  1
  O  O242  1  0.77400675  1.01440441  1.23838670  1
  O  O243  1  -0.12551553  -0.12928655  0.57172004  1
  O  O244  1  -0.12551553  0.20404678  0.57172004  1
  O  O245  1  -0.12551553  0.53738011  0.57172004  1
  O  O246  1  0.20781781  -0.12928655  0.57172004  1
  O  O247  1  0.20781781  0.20404678  0.57172004  1
  O  O248  1  0.20781781  0.53738011  0.57172004  1
  O  O249  1  0.54115114  -0.12928655  0.57172004  1
  O  O250  1  0.54115114  0.20404678  0.57172004  1
  O  O251  1  0.54115114  0.53738011  0.57172004  1
  O  O252  1  0.09670670  -0.01817544  0.90505337  1
  O  O253  1  0.09670670  0.31515789  0.90505337  1
  O  O254  1  0.09670670  0.64849123  0.90505337  1
  O  O255  1  0.43004003  -0.01817544  0.90505337  1
  O  O256  1  0.43004003  0.31515789  0.90505337  1
  O  O257  1  0.43004003  0.64849123  0.90505337  1
  O  O258  1  0.76337336  -0.01817544  0.90505337  1
  O  O259  1  0.76337336  0.31515789  0.90505337  1
  O  O260  1  0.76337336  0.64849123  0.90505337  1
  O  O261  1  -0.01440441  0.09293567  1.23838670  1
  O  O262  1  -0.01440441  0.42626900  1.23838670  1
  O  O263  1  -0.01440441  0.75960234  1.23838670  1
  O  O264  1  0.31892892  0.09293567  1.23838670  1
  O  O265  1  0.31892892  0.42626900  1.23838670  1
  O  O266  1  0.31892892  0.75960234  1.23838670  1
  O  O267  1  0.65226225  0.09293567  1.23838670  1
  O  O268  1  0.65226225  0.42626900  1.23838670  1
  O  O269  1  0.65226225  0.75960234  1.23838670  1
