# generated using pymatgen
data_Na2ZnGeO4
_symmetry_space_group_name_H-M   'P 1'
_cell_length_a   15.89064978
_cell_length_b   16.66686720
_cell_length_c   17.70443513
_cell_angle_alpha   90.00000000
_cell_angle_beta   126.72772674
_cell_angle_gamma   90.00000000
_symmetry_Int_Tables_number   1
_chemical_formula_structural   Na2ZnGeO4
_chemical_formula_sum   'Na72 Zn36 Ge36 O144'
_cell_volume   3758.14761046
_cell_formula_units_Z   36
loop_
 _symmetry_equiv_pos_site_id
 _symmetry_equiv_pos_as_xyz
  1  'x, y, z'
loop_
 _atom_site_type_symbol
 _atom_site_label
 _atom_site_symmetry_multiplicity
 _atom_site_fract_x
 _atom_site_fract_y
 _atom_site_fract_z
 _atom_site_occupancy
  Na  Na0  1  0.16255138  0.27455697  0.49838801  1
  Na  Na1  1  0.16255138  0.27455697  0.99838801  1
  Na  Na2  1  0.16255138  0.60789031  0.49838801  1
  Na  Na3  1  0.16255138  0.60789031  0.99838801  1
  Na  Na4  1  0.16255138  0.94122364  0.49838801  1
  Na  Na5  1  0.16255138  0.94122364  0.99838801  1
  Na  Na6  1  0.49588472  0.27455697  0.49838801  1
  Na  Na7  1  0.49588472  0.27455697  0.99838801  1
  Na  Na8  1  0.49588472  0.60789031  0.49838801  1
  Na  Na9  1  0.49588472  0.60789031  0.99838801  1
  Na  Na10  1  0.49588472  0.94122364  0.49838801  1
  Na  Na11  1  0.49588472  0.94122364  0.99838801  1
  Na  Na12  1  0.82921805  0.27455697  0.49838801  1
  Na  Na13  1  0.82921805  0.27455697  0.99838801  1
  Na  Na14  1  0.82921805  0.60789031  0.49838801  1
  Na  Na15  1  0.82921805  0.60789031  0.99838801  1
  Na  Na16  1  0.82921805  0.94122364  0.49838801  1
  Na  Na17  1  0.82921805  0.94122364  0.99838801  1
  Na  Na18  1  0.24715347  0.10705196  0.12603337  1
  Na  Na19  1  0.24715347  0.10705196  0.62603337  1
  Na  Na20  1  0.24715347  0.44038529  0.12603337  1
  Na  Na21  1  0.24715347  0.44038529  0.62603337  1
  Na  Na22  1  0.24715347  0.77371862  0.12603337  1
  Na  Na23  1  0.24715347  0.77371862  0.62603337  1
  Na  Na24  1  0.58048680  0.10705196  0.12603337  1
  Na  Na25  1  0.58048680  0.10705196  0.62603337  1
  Na  Na26  1  0.58048680  0.44038529  0.12603337  1
  Na  Na27  1  0.58048680  0.44038529  0.62603337  1
  Na  Na28  1  0.58048680  0.77371862  0.12603337  1
  Na  Na29  1  0.58048680  0.77371862  0.62603337  1
  Na  Na30  1  0.91382013  0.10705196  0.12603337  1
  Na  Na31  1  0.91382013  0.10705196  0.62603337  1
  Na  Na32  1  0.91382013  0.44038529  0.12603337  1
  Na  Na33  1  0.91382013  0.44038529  0.62603337  1
  Na  Na34  1  0.91382013  0.77371862  0.12603337  1
  Na  Na35  1  0.91382013  0.77371862  0.62603337  1
  Na  Na36  1  0.16255138  0.05877636  0.24838801  1
  Na  Na37  1  0.16255138  0.05877636  0.74838801  1
  Na  Na38  1  0.16255138  0.39210969  0.24838801  1
  Na  Na39  1  0.16255138  0.39210969  0.74838801  1
  Na  Na40  1  0.16255138  0.72544303  0.24838801  1
  Na  Na41  1  0.16255138  0.72544303  0.74838801  1
  Na  Na42  1  0.49588472  0.05877636  0.24838801  1
  Na  Na43  1  0.49588472  0.05877636  0.74838801  1
  Na  Na44  1  0.49588472  0.39210969  0.24838801  1
  Na  Na45  1  0.49588472  0.39210969  0.74838801  1
  Na  Na46  1  0.49588472  0.72544303  0.24838801  1
  Na  Na47  1  0.49588472  0.72544303  0.74838801  1
  Na  Na48  1  0.82921805  0.05877636  0.24838801  1
  Na  Na49  1  0.82921805  0.05877636  0.74838801  1
  Na  Na50  1  0.82921805  0.39210969  0.24838801  1
  Na  Na51  1  0.82921805  0.39210969  0.74838801  1
  Na  Na52  1  0.82921805  0.72544303  0.24838801  1
  Na  Na53  1  0.82921805  0.72544303  0.74838801  1
  Na  Na54  1  0.24715347  0.22628138  0.37603337  1
  Na  Na55  1  0.24715347  0.22628138  0.87603337  1
  Na  Na56  1  0.24715347  0.55961471  0.37603337  1
  Na  Na57  1  0.24715347  0.55961471  0.87603337  1
  Na  Na58  1  0.24715347  0.89294804  0.37603337  1
  Na  Na59  1  0.24715347  0.89294804  0.87603337  1
  Na  Na60  1  0.58048680  0.22628138  0.37603337  1
  Na  Na61  1  0.58048680  0.22628138  0.87603337  1
  Na  Na62  1  0.58048680  0.55961471  0.37603337  1
  Na  Na63  1  0.58048680  0.55961471  0.87603337  1
  Na  Na64  1  0.58048680  0.89294804  0.37603337  1
  Na  Na65  1  0.58048680  0.89294804  0.87603337  1
  Na  Na66  1  0.91382013  0.22628138  0.37603337  1
  Na  Na67  1  0.91382013  0.22628138  0.87603337  1
  Na  Na68  1  0.91382013  0.55961471  0.37603337  1
  Na  Na69  1  0.91382013  0.55961471  0.87603337  1
  Na  Na70  1  0.91382013  0.89294804  0.37603337  1
  Na  Na71  1  0.91382013  0.89294804  0.87603337  1
  Zn  Zn72  1  0.00104936  0.06193722  0.00092587  1
  Zn  Zn73  1  0.00104936  0.06193722  0.50092587  1
  Zn  Zn74  1  0.00104936  0.39527056  0.00092587  1
  Zn  Zn75  1  0.00104936  0.39527056  0.50092587  1
  Zn  Zn76  1  0.00104936  0.72860389  0.00092587  1
  Zn  Zn77  1  0.00104936  0.72860389  0.50092587  1
  Zn  Zn78  1  0.33438269  0.06193722  0.00092587  1
  Zn  Zn79  1  0.33438269  0.06193722  0.50092587  1
  Zn  Zn80  1  0.33438269  0.39527056  0.00092587  1
  Zn  Zn81  1  0.33438269  0.39527056  0.50092587  1
  Zn  Zn82  1  0.33438269  0.72860389  0.00092587  1
  Zn  Zn83  1  0.33438269  0.72860389  0.50092587  1
  Zn  Zn84  1  0.66771603  0.06193722  0.00092587  1
  Zn  Zn85  1  0.66771603  0.06193722  0.50092587  1
  Zn  Zn86  1  0.66771603  0.39527056  0.00092587  1
  Zn  Zn87  1  0.66771603  0.39527056  0.50092587  1
  Zn  Zn88  1  0.66771603  0.72860389  0.00092587  1
  Zn  Zn89  1  0.66771603  0.72860389  0.50092587  1
  Zn  Zn90  1  0.00104936  0.27139611  0.25092587  1
  Zn  Zn91  1  0.00104936  0.27139611  0.75092587  1
  Zn  Zn92  1  0.00104936  0.60472944  0.25092587  1
  Zn  Zn93  1  0.00104936  0.60472944  0.75092587  1
  Zn  Zn94  1  0.00104936  0.93806278  0.25092587  1
  Zn  Zn95  1  0.00104936  0.93806278  0.75092587  1
  Zn  Zn96  1  0.33438269  0.27139611  0.25092587  1
  Zn  Zn97  1  0.33438269  0.27139611  0.75092587  1
  Zn  Zn98  1  0.33438269  0.60472944  0.25092587  1
  Zn  Zn99  1  0.33438269  0.60472944  0.75092587  1
  Zn  Zn100  1  0.33438269  0.93806278  0.25092587  1
  Zn  Zn101  1  0.33438269  0.93806278  0.75092587  1
  Zn  Zn102  1  0.66771603  0.27139611  0.25092587  1
  Zn  Zn103  1  0.66771603  0.27139611  0.75092587  1
  Zn  Zn104  1  0.66771603  0.60472944  0.25092587  1
  Zn  Zn105  1  0.66771603  0.60472944  0.75092587  1
  Zn  Zn106  1  0.66771603  0.93806278  0.25092587  1
  Zn  Zn107  1  0.66771603  0.93806278  0.75092587  1
  Ge  Ge108  1  0.08469631  0.22795899  0.12455732  1
  Ge  Ge109  1  0.08469631  0.22795899  0.62455732  1
  Ge  Ge110  1  0.08469631  0.56129232  0.12455732  1
  Ge  Ge111  1  0.08469631  0.56129232  0.62455732  1
  Ge  Ge112  1  0.08469631  0.89462565  0.12455732  1
  Ge  Ge113  1  0.08469631  0.89462565  0.62455732  1
  Ge  Ge114  1  0.41802964  0.22795899  0.12455732  1
  Ge  Ge115  1  0.41802964  0.22795899  0.62455732  1
  Ge  Ge116  1  0.41802964  0.56129232  0.12455732  1
  Ge  Ge117  1  0.41802964  0.56129232  0.62455732  1
  Ge  Ge118  1  0.41802964  0.89462565  0.12455732  1
  Ge  Ge119  1  0.41802964  0.89462565  0.62455732  1
  Ge  Ge120  1  0.75136297  0.22795899  0.12455732  1
  Ge  Ge121  1  0.75136297  0.22795899  0.62455732  1
  Ge  Ge122  1  0.75136297  0.56129232  0.12455732  1
  Ge  Ge123  1  0.75136297  0.56129232  0.62455732  1
  Ge  Ge124  1  0.75136297  0.89462565  0.12455732  1
  Ge  Ge125  1  0.75136297  0.89462565  0.62455732  1
  Ge  Ge126  1  0.08469631  0.10537435  0.37455732  1
  Ge  Ge127  1  0.08469631  0.10537435  0.87455732  1
  Ge  Ge128  1  0.08469631  0.43870768  0.37455732  1
  Ge  Ge129  1  0.08469631  0.43870768  0.87455732  1
  Ge  Ge130  1  0.08469631  0.77204101  0.37455732  1
  Ge  Ge131  1  0.08469631  0.77204101  0.87455732  1
  Ge  Ge132  1  0.41802964  0.10537435  0.37455732  1
  Ge  Ge133  1  0.41802964  0.10537435  0.87455732  1
  Ge  Ge134  1  0.41802964  0.43870768  0.37455732  1
  Ge  Ge135  1  0.41802964  0.43870768  0.87455732  1
  Ge  Ge136  1  0.41802964  0.77204101  0.37455732  1
  Ge  Ge137  1  0.41802964  0.77204101  0.87455732  1
  Ge  Ge138  1  0.75136297  0.10537435  0.37455732  1
  Ge  Ge139  1  0.75136297  0.10537435  0.87455732  1
  Ge  Ge140  1  0.75136297  0.43870768  0.37455732  1
  Ge  Ge141  1  0.75136297  0.43870768  0.87455732  1
  Ge  Ge142  1  0.75136297  0.77204101  0.37455732  1
  Ge  Ge143  1  0.75136297  0.77204101  0.87455732  1
  O  O144  1  0.20565793  0.09791430  0.38817279  1
  O  O145  1  0.20565793  0.09791430  0.88817279  1
  O  O146  1  0.20565793  0.43124764  0.38817279  1
  O  O147  1  0.20565793  0.43124764  0.88817279  1
  O  O148  1  0.20565793  0.76458097  0.38817279  1
  O  O149  1  0.20565793  0.76458097  0.88817279  1
  O  O150  1  0.53899126  0.09791430  0.38817279  1
  O  O151  1  0.53899126  0.09791430  0.88817279  1
  O  O152  1  0.53899126  0.43124764  0.38817279  1
  O  O153  1  0.53899126  0.43124764  0.88817279  1
  O  O154  1  0.53899126  0.76458097  0.38817279  1
  O  O155  1  0.53899126  0.76458097  0.88817279  1
  O  O156  1  0.87232459  0.09791430  0.38817279  1
  O  O157  1  0.87232459  0.09791430  0.88817279  1
  O  O158  1  0.87232459  0.43124764  0.38817279  1
  O  O159  1  0.87232459  0.43124764  0.88817279  1
  O  O160  1  0.87232459  0.76458097  0.38817279  1
  O  O161  1  0.87232459  0.76458097  0.88817279  1
  O  O162  1  0.20565793  0.23541903  0.13817279  1
  O  O163  1  0.20565793  0.23541903  0.63817279  1
  O  O164  1  0.20565793  0.56875236  0.13817279  1
  O  O165  1  0.20565793  0.56875236  0.63817279  1
  O  O166  1  0.20565793  0.90208570  0.13817279  1
  O  O167  1  0.20565793  0.90208570  0.63817279  1
  O  O168  1  0.53899126  0.23541903  0.13817279  1
  O  O169  1  0.53899126  0.23541903  0.63817279  1
  O  O170  1  0.53899126  0.56875236  0.13817279  1
  O  O171  1  0.53899126  0.56875236  0.63817279  1
  O  O172  1  0.53899126  0.90208570  0.13817279  1
  O  O173  1  0.53899126  0.90208570  0.63817279  1
  O  O174  1  0.87232459  0.23541903  0.13817279  1
  O  O175  1  0.87232459  0.23541903  0.63817279  1
  O  O176  1  0.87232459  0.56875236  0.13817279  1
  O  O177  1  0.87232459  0.56875236  0.63817279  1
  O  O178  1  0.87232459  0.90208570  0.13817279  1
  O  O179  1  0.87232459  0.90208570  0.63817279  1
  O  O180  1  0.10675041  0.26482312  0.22981514  1
  O  O181  1  0.10675041  0.26482312  0.72981514  1
  O  O182  1  0.10675041  0.59815645  0.22981514  1
  O  O183  1  0.10675041  0.59815645  0.72981514  1
  O  O184  1  0.10675041  0.93148978  0.22981514  1
  O  O185  1  0.10675041  0.93148978  0.72981514  1
  O  O186  1  0.44008374  0.26482312  0.22981514  1
  O  O187  1  0.44008374  0.26482312  0.72981514  1
  O  O188  1  0.44008374  0.59815645  0.22981514  1
  O  O189  1  0.44008374  0.59815645  0.72981514  1
  O  O190  1  0.44008374  0.93148978  0.22981514  1
  O  O191  1  0.44008374  0.93148978  0.72981514  1
  O  O192  1  0.77341708  0.26482312  0.22981514  1
  O  O193  1  0.77341708  0.26482312  0.72981514  1
  O  O194  1  0.77341708  0.59815645  0.22981514  1
  O  O195  1  0.77341708  0.59815645  0.72981514  1
  O  O196  1  0.77341708  0.93148978  0.22981514  1
  O  O197  1  0.77341708  0.93148978  0.72981514  1
  O  O198  1  0.10675041  0.06851022  0.47981514  1
  O  O199  1  0.10675041  0.06851022  0.97981514  1
  O  O200  1  0.10675041  0.40184355  0.47981514  1
  O  O201  1  0.10675041  0.40184355  0.97981514  1
  O  O202  1  0.10675041  0.73517688  0.47981514  1
  O  O203  1  0.10675041  0.73517688  0.97981514  1
  O  O204  1  0.44008374  0.06851022  0.47981514  1
  O  O205  1  0.44008374  0.06851022  0.97981514  1
  O  O206  1  0.44008374  0.40184355  0.47981514  1
  O  O207  1  0.44008374  0.40184355  0.97981514  1
  O  O208  1  0.44008374  0.73517688  0.47981514  1
  O  O209  1  0.44008374  0.73517688  0.97981514  1
  O  O210  1  0.77341708  0.06851022  0.47981514  1
  O  O211  1  0.77341708  0.06851022  0.97981514  1
  O  O212  1  0.77341708  0.40184355  0.47981514  1
  O  O213  1  0.77341708  0.40184355  0.97981514  1
  O  O214  1  0.77341708  0.73517688  0.47981514  1
  O  O215  1  0.77341708  0.73517688  0.97981514  1
  O  O216  1  0.31996319  0.28339629  0.02105634  1
  O  O217  1  0.31996319  0.28339629  0.52105634  1
  O  O218  1  0.31996319  0.61672962  0.02105634  1
  O  O219  1  0.31996319  0.61672962  0.52105634  1
  O  O220  1  0.31996319  0.95006296  0.02105634  1
  O  O221  1  0.31996319  0.95006296  0.52105634  1
  O  O222  1  0.65329652  0.28339629  0.02105634  1
  O  O223  1  0.65329652  0.28339629  0.52105634  1
  O  O224  1  0.65329652  0.61672962  0.02105634  1
  O  O225  1  0.65329652  0.61672962  0.52105634  1
  O  O226  1  0.65329652  0.95006296  0.02105634  1
  O  O227  1  0.65329652  0.95006296  0.52105634  1
  O  O228  1  0.98662986  0.28339629  0.02105634  1
  O  O229  1  0.98662986  0.28339629  0.52105634  1
  O  O230  1  0.98662986  0.61672962  0.02105634  1
  O  O231  1  0.98662986  0.61672962  0.52105634  1
  O  O232  1  0.98662986  0.95006296  0.02105634  1
  O  O233  1  0.98662986  0.95006296  0.52105634  1
  O  O234  1  0.04751129  0.20910412  0.36105116  1
  O  O235  1  0.04751129  0.20910412  0.86105116  1
  O  O236  1  0.04751129  0.54243745  0.36105116  1
  O  O237  1  0.04751129  0.54243745  0.86105116  1
  O  O238  1  0.04751129  0.87577078  0.36105116  1
  O  O239  1  0.04751129  0.87577078  0.86105116  1
  O  O240  1  0.38084462  0.20910412  0.36105116  1
  O  O241  1  0.38084462  0.20910412  0.86105116  1
  O  O242  1  0.38084462  0.54243745  0.36105116  1
  O  O243  1  0.38084462  0.54243745  0.86105116  1
  O  O244  1  0.38084462  0.87577078  0.36105116  1
  O  O245  1  0.38084462  0.87577078  0.86105116  1
  O  O246  1  0.71417795  0.20910412  0.36105116  1
  O  O247  1  0.71417795  0.20910412  0.86105116  1
  O  O248  1  0.71417795  0.54243745  0.36105116  1
  O  O249  1  0.71417795  0.54243745  0.86105116  1
  O  O250  1  0.71417795  0.87577078  0.36105116  1
  O  O251  1  0.71417795  0.87577078  0.86105116  1
  O  O252  1  0.04751129  0.12422922  0.11105116  1
  O  O253  1  0.04751129  0.12422922  0.61105116  1
  O  O254  1  0.04751129  0.45756255  0.11105116  1
  O  O255  1  0.04751129  0.45756255  0.61105116  1
  O  O256  1  0.04751129  0.79089588  0.11105116  1
  O  O257  1  0.04751129  0.79089588  0.61105116  1
  O  O258  1  0.38084462  0.12422922  0.11105116  1
  O  O259  1  0.38084462  0.12422922  0.61105116  1
  O  O260  1  0.38084462  0.45756255  0.11105116  1
  O  O261  1  0.38084462  0.45756255  0.61105116  1
  O  O262  1  0.38084462  0.79089588  0.11105116  1
  O  O263  1  0.38084462  0.79089588  0.61105116  1
  O  O264  1  0.71417795  0.12422922  0.11105116  1
  O  O265  1  0.71417795  0.12422922  0.61105116  1
  O  O266  1  0.71417795  0.45756255  0.11105116  1
  O  O267  1  0.71417795  0.45756255  0.61105116  1
  O  O268  1  0.71417795  0.79089588  0.11105116  1
  O  O269  1  0.71417795  0.79089588  0.61105116  1
  O  O270  1  0.31996319  0.04993704  0.27105634  1
  O  O271  1  0.31996319  0.04993704  0.77105634  1
  O  O272  1  0.31996319  0.38327038  0.27105634  1
  O  O273  1  0.31996319  0.38327038  0.77105634  1
  O  O274  1  0.31996319  0.71660371  0.27105634  1
  O  O275  1  0.31996319  0.71660371  0.77105634  1
  O  O276  1  0.65329652  0.04993704  0.27105634  1
  O  O277  1  0.65329652  0.04993704  0.77105634  1
  O  O278  1  0.65329652  0.38327038  0.27105634  1
  O  O279  1  0.65329652  0.38327038  0.77105634  1
  O  O280  1  0.65329652  0.71660371  0.27105634  1
  O  O281  1  0.65329652  0.71660371  0.77105634  1
  O  O282  1  0.98662986  0.04993704  0.27105634  1
  O  O283  1  0.98662986  0.04993704  0.77105634  1
  O  O284  1  0.98662986  0.38327038  0.27105634  1
  O  O285  1  0.98662986  0.38327038  0.77105634  1
  O  O286  1  0.98662986  0.71660371  0.27105634  1
  O  O287  1  0.98662986  0.71660371  0.77105634  1
