# generated using pymatgen
data_Na14Cd2O9
_symmetry_space_group_name_H-M   'P 1'
_cell_length_a   20.10538235
_cell_length_b   20.10538235
_cell_length_c   18.63670162
_cell_angle_alpha   90.00000000
_cell_angle_beta   90.00000000
_cell_angle_gamma   120.00000000
_symmetry_Int_Tables_number   1
_chemical_formula_structural   Na14Cd2O9
_chemical_formula_sum   'Na252 Cd36 O162'
_cell_volume   6524.15630267
_cell_formula_units_Z   18
loop_
 _symmetry_equiv_pos_site_id
 _symmetry_equiv_pos_as_xyz
  1  'x, y, z'
loop_
 _atom_site_type_symbol
 _atom_site_label
 _atom_site_symmetry_multiplicity
 _atom_site_fract_x
 _atom_site_fract_y
 _atom_site_fract_z
 _atom_site_occupancy
  Na  Na0  1  0.10577763  0.11958966  0.45370601  1
  Na  Na1  1  0.10577763  0.11958966  0.95370601  1
  Na  Na2  1  0.10577763  0.45292300  0.45370601  1
  Na  Na3  1  0.10577763  0.45292300  0.95370601  1
  Na  Na4  1  0.10577763  0.78625633  0.45370601  1
  Na  Na5  1  0.10577763  0.78625633  0.95370601  1
  Na  Na6  1  0.43911096  0.11958966  0.45370601  1
  Na  Na7  1  0.43911096  0.11958966  0.95370601  1
  Na  Na8  1  0.43911096  0.45292300  0.45370601  1
  Na  Na9  1  0.43911096  0.45292300  0.95370601  1
  Na  Na10  1  0.43911096  0.78625633  0.45370601  1
  Na  Na11  1  0.43911096  0.78625633  0.95370601  1
  Na  Na12  1  0.77244430  0.11958966  0.45370601  1
  Na  Na13  1  0.77244430  0.11958966  0.95370601  1
  Na  Na14  1  0.77244430  0.45292300  0.45370601  1
  Na  Na15  1  0.77244430  0.45292300  0.95370601  1
  Na  Na16  1  0.77244430  0.78625633  0.45370601  1
  Na  Na17  1  0.77244430  0.78625633  0.95370601  1
  Na  Na18  1  0.31952130  0.10577763  0.04629399  1
  Na  Na19  1  0.31952130  0.10577763  0.54629399  1
  Na  Na20  1  0.31952130  0.43911096  0.04629399  1
  Na  Na21  1  0.31952130  0.43911096  0.54629399  1
  Na  Na22  1  0.31952130  0.77244430  0.04629399  1
  Na  Na23  1  0.31952130  0.77244430  0.54629399  1
  Na  Na24  1  0.65285463  0.10577763  0.04629399  1
  Na  Na25  1  0.65285463  0.10577763  0.54629399  1
  Na  Na26  1  0.65285463  0.43911096  0.04629399  1
  Na  Na27  1  0.65285463  0.43911096  0.54629399  1
  Na  Na28  1  0.65285463  0.77244430  0.04629399  1
  Na  Na29  1  0.65285463  0.77244430  0.54629399  1
  Na  Na30  1  0.98618797  0.10577763  0.04629399  1
  Na  Na31  1  0.98618797  0.10577763  0.54629399  1
  Na  Na32  1  0.98618797  0.43911096  0.04629399  1
  Na  Na33  1  0.98618797  0.43911096  0.54629399  1
  Na  Na34  1  0.98618797  0.77244430  0.04629399  1
  Na  Na35  1  0.98618797  0.77244430  0.54629399  1
  Na  Na36  1  0.21374367  0.31952130  0.45370601  1
  Na  Na37  1  0.21374367  0.31952130  0.95370601  1
  Na  Na38  1  0.21374367  0.65285463  0.45370601  1
  Na  Na39  1  0.21374367  0.65285463  0.95370601  1
  Na  Na40  1  0.21374367  0.98618797  0.45370601  1
  Na  Na41  1  0.21374367  0.98618797  0.95370601  1
  Na  Na42  1  0.54707700  0.31952130  0.45370601  1
  Na  Na43  1  0.54707700  0.31952130  0.95370601  1
  Na  Na44  1  0.54707700  0.65285463  0.45370601  1
  Na  Na45  1  0.54707700  0.65285463  0.95370601  1
  Na  Na46  1  0.54707700  0.98618797  0.45370601  1
  Na  Na47  1  0.54707700  0.98618797  0.95370601  1
  Na  Na48  1  0.88041034  0.31952130  0.45370601  1
  Na  Na49  1  0.88041034  0.31952130  0.95370601  1
  Na  Na50  1  0.88041034  0.65285463  0.45370601  1
  Na  Na51  1  0.88041034  0.65285463  0.95370601  1
  Na  Na52  1  0.88041034  0.98618797  0.45370601  1
  Na  Na53  1  0.88041034  0.98618797  0.95370601  1
  Na  Na54  1  0.22872864  0.02027441  0.20462576  1
  Na  Na55  1  0.22872864  0.02027441  0.70462576  1
  Na  Na56  1  0.22872864  0.35360775  0.20462576  1
  Na  Na57  1  0.22872864  0.35360775  0.70462576  1
  Na  Na58  1  0.22872864  0.68694108  0.20462576  1
  Na  Na59  1  0.22872864  0.68694108  0.70462576  1
  Na  Na60  1  0.56206197  0.02027441  0.20462576  1
  Na  Na61  1  0.56206197  0.02027441  0.70462576  1
  Na  Na62  1  0.56206197  0.35360775  0.20462576  1
  Na  Na63  1  0.56206197  0.35360775  0.70462576  1
  Na  Na64  1  0.56206197  0.68694108  0.20462576  1
  Na  Na65  1  0.56206197  0.68694108  0.70462576  1
  Na  Na66  1  0.89539530  0.02027441  0.20462576  1
  Na  Na67  1  0.89539530  0.02027441  0.70462576  1
  Na  Na68  1  0.89539530  0.35360775  0.20462576  1
  Na  Na69  1  0.89539530  0.35360775  0.70462576  1
  Na  Na70  1  0.89539530  0.68694108  0.20462576  1
  Na  Na71  1  0.89539530  0.68694108  0.70462576  1
  Na  Na72  1  0.01381203  0.22755570  0.45370601  1
  Na  Na73  1  0.01381203  0.22755570  0.95370601  1
  Na  Na74  1  0.01381203  0.56088904  0.45370601  1
  Na  Na75  1  0.01381203  0.56088904  0.95370601  1
  Na  Na76  1  0.01381203  0.89422237  0.45370601  1
  Na  Na77  1  0.01381203  0.89422237  0.95370601  1
  Na  Na78  1  0.34714537  0.22755570  0.45370601  1
  Na  Na79  1  0.34714537  0.22755570  0.95370601  1
  Na  Na80  1  0.34714537  0.56088904  0.45370601  1
  Na  Na81  1  0.34714537  0.56088904  0.95370601  1
  Na  Na82  1  0.34714537  0.89422237  0.45370601  1
  Na  Na83  1  0.34714537  0.89422237  0.95370601  1
  Na  Na84  1  0.68047870  0.22755570  0.45370601  1
  Na  Na85  1  0.68047870  0.22755570  0.95370601  1
  Na  Na86  1  0.68047870  0.56088904  0.45370601  1
  Na  Na87  1  0.68047870  0.56088904  0.95370601  1
  Na  Na88  1  0.68047870  0.89422237  0.45370601  1
  Na  Na89  1  0.68047870  0.89422237  0.95370601  1
  Na  Na90  1  0.00000000  0.00000000  0.12712882  1
  Na  Na91  1  0.00000000  0.00000000  0.62712882  1
  Na  Na92  1  -0.00000000  0.33333333  0.12712882  1
  Na  Na93  1  -0.00000000  0.33333333  0.62712882  1
  Na  Na94  1  -0.00000000  0.66666667  0.12712882  1
  Na  Na95  1  -0.00000000  0.66666667  0.62712882  1
  Na  Na96  1  0.33333333  0.00000000  0.12712882  1
  Na  Na97  1  0.33333333  0.00000000  0.62712882  1
  Na  Na98  1  0.33333333  0.33333333  0.12712882  1
  Na  Na99  1  0.33333333  0.33333333  0.62712882  1
  Na  Na100  1  0.33333333  0.66666667  0.12712882  1
  Na  Na101  1  0.33333333  0.66666667  0.62712882  1
  Na  Na102  1  0.66666667  0.00000000  0.12712882  1
  Na  Na103  1  0.66666667  0.00000000  0.62712882  1
  Na  Na104  1  0.66666667  0.33333333  0.12712882  1
  Na  Na105  1  0.66666667  0.33333333  0.62712882  1
  Na  Na106  1  0.66666667  0.66666667  0.12712882  1
  Na  Na107  1  0.66666667  0.66666667  0.62712882  1
  Na  Na108  1  0.00000000  0.00000000  0.37287118  1
  Na  Na109  1  0.00000000  0.00000000  0.87287118  1
  Na  Na110  1  -0.00000000  0.33333333  0.37287118  1
  Na  Na111  1  -0.00000000  0.33333333  0.87287118  1
  Na  Na112  1  -0.00000000  0.66666667  0.37287118  1
  Na  Na113  1  -0.00000000  0.66666667  0.87287118  1
  Na  Na114  1  0.33333333  0.00000000  0.37287118  1
  Na  Na115  1  0.33333333  0.00000000  0.87287118  1
  Na  Na116  1  0.33333333  0.33333333  0.37287118  1
  Na  Na117  1  0.33333333  0.33333333  0.87287118  1
  Na  Na118  1  0.33333333  0.66666667  0.37287118  1
  Na  Na119  1  0.33333333  0.66666667  0.87287118  1
  Na  Na120  1  0.66666667  0.00000000  0.37287118  1
  Na  Na121  1  0.66666667  0.00000000  0.87287118  1
  Na  Na122  1  0.66666667  0.33333333  0.37287118  1
  Na  Na123  1  0.66666667  0.33333333  0.87287118  1
  Na  Na124  1  0.66666667  0.66666667  0.37287118  1
  Na  Na125  1  0.66666667  0.66666667  0.87287118  1
  Na  Na126  1  0.22755570  0.21374367  0.04629399  1
  Na  Na127  1  0.22755570  0.21374367  0.54629399  1
  Na  Na128  1  0.22755570  0.54707700  0.04629399  1
  Na  Na129  1  0.22755570  0.54707700  0.54629399  1
  Na  Na130  1  0.22755570  0.88041034  0.04629399  1
  Na  Na131  1  0.22755570  0.88041034  0.54629399  1
  Na  Na132  1  0.56088904  0.21374367  0.04629399  1
  Na  Na133  1  0.56088904  0.21374367  0.54629399  1
  Na  Na134  1  0.56088904  0.54707700  0.04629399  1
  Na  Na135  1  0.56088904  0.54707700  0.54629399  1
  Na  Na136  1  0.56088904  0.88041034  0.04629399  1
  Na  Na137  1  0.56088904  0.88041034  0.54629399  1
  Na  Na138  1  0.89422237  0.21374367  0.04629399  1
  Na  Na139  1  0.89422237  0.21374367  0.54629399  1
  Na  Na140  1  0.89422237  0.54707700  0.04629399  1
  Na  Na141  1  0.89422237  0.54707700  0.54629399  1
  Na  Na142  1  0.89422237  0.88041034  0.04629399  1
  Na  Na143  1  0.89422237  0.88041034  0.54629399  1
  Na  Na144  1  0.02027441  0.12487911  0.29537424  1
  Na  Na145  1  0.02027441  0.12487911  0.79537424  1
  Na  Na146  1  0.02027441  0.45821244  0.29537424  1
  Na  Na147  1  0.02027441  0.45821244  0.79537424  1
  Na  Na148  1  0.02027441  0.79154578  0.29537424  1
  Na  Na149  1  0.02027441  0.79154578  0.79537424  1
  Na  Na150  1  0.35360775  0.12487911  0.29537424  1
  Na  Na151  1  0.35360775  0.12487911  0.79537424  1
  Na  Na152  1  0.35360775  0.45821244  0.29537424  1
  Na  Na153  1  0.35360775  0.45821244  0.79537424  1
  Na  Na154  1  0.35360775  0.79154578  0.29537424  1
  Na  Na155  1  0.35360775  0.79154578  0.79537424  1
  Na  Na156  1  0.68694108  0.12487911  0.29537424  1
  Na  Na157  1  0.68694108  0.12487911  0.79537424  1
  Na  Na158  1  0.68694108  0.45821244  0.29537424  1
  Na  Na159  1  0.68694108  0.45821244  0.79537424  1
  Na  Na160  1  0.68694108  0.79154578  0.29537424  1
  Na  Na161  1  0.68694108  0.79154578  0.79537424  1
  Na  Na162  1  0.12487911  0.10460470  0.20462576  1
  Na  Na163  1  0.12487911  0.10460470  0.70462576  1
  Na  Na164  1  0.12487911  0.43793803  0.20462576  1
  Na  Na165  1  0.12487911  0.43793803  0.70462576  1
  Na  Na166  1  0.12487911  0.77127136  0.20462576  1
  Na  Na167  1  0.12487911  0.77127136  0.70462576  1
  Na  Na168  1  0.45821244  0.10460470  0.20462576  1
  Na  Na169  1  0.45821244  0.10460470  0.70462576  1
  Na  Na170  1  0.45821244  0.43793803  0.20462576  1
  Na  Na171  1  0.45821244  0.43793803  0.70462576  1
  Na  Na172  1  0.45821244  0.77127136  0.20462576  1
  Na  Na173  1  0.45821244  0.77127136  0.70462576  1
  Na  Na174  1  0.79154578  0.10460470  0.20462576  1
  Na  Na175  1  0.79154578  0.10460470  0.70462576  1
  Na  Na176  1  0.79154578  0.43793803  0.20462576  1
  Na  Na177  1  0.79154578  0.43793803  0.70462576  1
  Na  Na178  1  0.79154578  0.77127136  0.20462576  1
  Na  Na179  1  0.79154578  0.77127136  0.70462576  1
  Na  Na180  1  0.31305892  0.20845422  0.20462576  1
  Na  Na181  1  0.31305892  0.20845422  0.70462576  1
  Na  Na182  1  0.31305892  0.54178756  0.20462576  1
  Na  Na183  1  0.31305892  0.54178756  0.70462576  1
  Na  Na184  1  0.31305892  0.87512089  0.20462576  1
  Na  Na185  1  0.31305892  0.87512089  0.70462576  1
  Na  Na186  1  0.64639225  0.20845422  0.20462576  1
  Na  Na187  1  0.64639225  0.20845422  0.70462576  1
  Na  Na188  1  0.64639225  0.54178756  0.20462576  1
  Na  Na189  1  0.64639225  0.54178756  0.70462576  1
  Na  Na190  1  0.64639225  0.87512089  0.20462576  1
  Na  Na191  1  0.64639225  0.87512089  0.70462576  1
  Na  Na192  1  0.97972559  0.20845422  0.20462576  1
  Na  Na193  1  0.97972559  0.20845422  0.70462576  1
  Na  Na194  1  0.97972559  0.54178756  0.20462576  1
  Na  Na195  1  0.97972559  0.54178756  0.70462576  1
  Na  Na196  1  0.97972559  0.87512089  0.20462576  1
  Na  Na197  1  0.97972559  0.87512089  0.70462576  1
  Na  Na198  1  0.10460470  0.31305892  0.29537424  1
  Na  Na199  1  0.10460470  0.31305892  0.79537424  1
  Na  Na200  1  0.10460470  0.64639225  0.29537424  1
  Na  Na201  1  0.10460470  0.64639225  0.79537424  1
  Na  Na202  1  0.10460470  0.97972559  0.29537424  1
  Na  Na203  1  0.10460470  0.97972559  0.79537424  1
  Na  Na204  1  0.43793803  0.31305892  0.29537424  1
  Na  Na205  1  0.43793803  0.31305892  0.79537424  1
  Na  Na206  1  0.43793803  0.64639225  0.29537424  1
  Na  Na207  1  0.43793803  0.64639225  0.79537424  1
  Na  Na208  1  0.43793803  0.97972559  0.29537424  1
  Na  Na209  1  0.43793803  0.97972559  0.79537424  1
  Na  Na210  1  0.77127136  0.31305892  0.29537424  1
  Na  Na211  1  0.77127136  0.31305892  0.79537424  1
  Na  Na212  1  0.77127136  0.64639225  0.29537424  1
  Na  Na213  1  0.77127136  0.64639225  0.79537424  1
  Na  Na214  1  0.77127136  0.97972559  0.29537424  1
  Na  Na215  1  0.77127136  0.97972559  0.79537424  1
  Na  Na216  1  0.20845422  0.22872864  0.29537424  1
  Na  Na217  1  0.20845422  0.22872864  0.79537424  1
  Na  Na218  1  0.20845422  0.56206197  0.29537424  1
  Na  Na219  1  0.20845422  0.56206197  0.79537424  1
  Na  Na220  1  0.20845422  0.89539530  0.29537424  1
  Na  Na221  1  0.20845422  0.89539530  0.79537424  1
  Na  Na222  1  0.54178756  0.22872864  0.29537424  1
  Na  Na223  1  0.54178756  0.22872864  0.79537424  1
  Na  Na224  1  0.54178756  0.56206197  0.29537424  1
  Na  Na225  1  0.54178756  0.56206197  0.79537424  1
  Na  Na226  1  0.54178756  0.89539530  0.29537424  1
  Na  Na227  1  0.54178756  0.89539530  0.79537424  1
  Na  Na228  1  0.87512089  0.22872864  0.29537424  1
  Na  Na229  1  0.87512089  0.22872864  0.79537424  1
  Na  Na230  1  0.87512089  0.56206197  0.29537424  1
  Na  Na231  1  0.87512089  0.56206197  0.79537424  1
  Na  Na232  1  0.87512089  0.89539530  0.29537424  1
  Na  Na233  1  0.87512089  0.89539530  0.79537424  1
  Na  Na234  1  0.11958966  0.01381203  0.04629399  1
  Na  Na235  1  0.11958966  0.01381203  0.54629399  1
  Na  Na236  1  0.11958966  0.34714537  0.04629399  1
  Na  Na237  1  0.11958966  0.34714537  0.54629399  1
  Na  Na238  1  0.11958966  0.68047870  0.04629399  1
  Na  Na239  1  0.11958966  0.68047870  0.54629399  1
  Na  Na240  1  0.45292300  0.01381203  0.04629399  1
  Na  Na241  1  0.45292300  0.01381203  0.54629399  1
  Na  Na242  1  0.45292300  0.34714537  0.04629399  1
  Na  Na243  1  0.45292300  0.34714537  0.54629399  1
  Na  Na244  1  0.45292300  0.68047870  0.04629399  1
  Na  Na245  1  0.45292300  0.68047870  0.54629399  1
  Na  Na246  1  0.78625633  0.01381203  0.04629399  1
  Na  Na247  1  0.78625633  0.01381203  0.54629399  1
  Na  Na248  1  0.78625633  0.34714537  0.04629399  1
  Na  Na249  1  0.78625633  0.34714537  0.54629399  1
  Na  Na250  1  0.78625633  0.68047870  0.04629399  1
  Na  Na251  1  0.78625633  0.68047870  0.54629399  1
  Cd  Cd252  1  0.22222222  0.11111111  0.37014423  1
  Cd  Cd253  1  0.22222222  0.11111111  0.87014423  1
  Cd  Cd254  1  0.22222222  0.44444444  0.37014423  1
  Cd  Cd255  1  0.22222222  0.44444444  0.87014423  1
  Cd  Cd256  1  0.22222222  0.77777778  0.37014423  1
  Cd  Cd257  1  0.22222222  0.77777778  0.87014423  1
  Cd  Cd258  1  0.55555556  0.11111111  0.37014423  1
  Cd  Cd259  1  0.55555556  0.11111111  0.87014423  1
  Cd  Cd260  1  0.55555556  0.44444444  0.37014423  1
  Cd  Cd261  1  0.55555556  0.44444444  0.87014423  1
  Cd  Cd262  1  0.55555556  0.77777778  0.37014423  1
  Cd  Cd263  1  0.55555556  0.77777778  0.87014423  1
  Cd  Cd264  1  0.88888889  0.11111111  0.37014423  1
  Cd  Cd265  1  0.88888889  0.11111111  0.87014423  1
  Cd  Cd266  1  0.88888889  0.44444444  0.37014423  1
  Cd  Cd267  1  0.88888889  0.44444444  0.87014423  1
  Cd  Cd268  1  0.88888889  0.77777778  0.37014423  1
  Cd  Cd269  1  0.88888889  0.77777778  0.87014423  1
  Cd  Cd270  1  0.11111111  0.22222222  0.12985577  1
  Cd  Cd271  1  0.11111111  0.22222222  0.62985577  1
  Cd  Cd272  1  0.11111111  0.55555556  0.12985577  1
  Cd  Cd273  1  0.11111111  0.55555556  0.62985577  1
  Cd  Cd274  1  0.11111111  0.88888889  0.12985577  1
  Cd  Cd275  1  0.11111111  0.88888889  0.62985577  1
  Cd  Cd276  1  0.44444444  0.22222222  0.12985577  1
  Cd  Cd277  1  0.44444444  0.22222222  0.62985577  1
  Cd  Cd278  1  0.44444444  0.55555556  0.12985577  1
  Cd  Cd279  1  0.44444444  0.55555556  0.62985577  1
  Cd  Cd280  1  0.44444444  0.88888889  0.12985577  1
  Cd  Cd281  1  0.44444444  0.88888889  0.62985577  1
  Cd  Cd282  1  0.77777778  0.22222222  0.12985577  1
  Cd  Cd283  1  0.77777778  0.22222222  0.62985577  1
  Cd  Cd284  1  0.77777778  0.55555556  0.12985577  1
  Cd  Cd285  1  0.77777778  0.55555556  0.62985577  1
  Cd  Cd286  1  0.77777778  0.88888889  0.12985577  1
  Cd  Cd287  1  0.77777778  0.88888889  0.62985577  1
  O  O288  1  0.10181030  0.32099300  0.17032975  1
  O  O289  1  0.10181030  0.32099300  0.67032975  1
  O  O290  1  0.10181030  0.65432634  0.17032975  1
  O  O291  1  0.10181030  0.65432634  0.67032975  1
  O  O292  1  0.10181030  0.98765967  0.17032975  1
  O  O293  1  0.10181030  0.98765967  0.67032975  1
  O  O294  1  0.43514363  0.32099300  0.17032975  1
  O  O295  1  0.43514363  0.32099300  0.67032975  1
  O  O296  1  0.43514363  0.65432634  0.17032975  1
  O  O297  1  0.43514363  0.65432634  0.67032975  1
  O  O298  1  0.43514363  0.98765967  0.17032975  1
  O  O299  1  0.43514363  0.98765967  0.67032975  1
  O  O300  1  0.76847697  0.32099300  0.17032975  1
  O  O301  1  0.76847697  0.32099300  0.67032975  1
  O  O302  1  0.76847697  0.65432634  0.17032975  1
  O  O303  1  0.76847697  0.65432634  0.67032975  1
  O  O304  1  0.76847697  0.98765967  0.17032975  1
  O  O305  1  0.76847697  0.98765967  0.67032975  1
  O  O306  1  0.21918270  0.23152303  0.17032975  1
  O  O307  1  0.21918270  0.23152303  0.67032975  1
  O  O308  1  0.21918270  0.56485637  0.17032975  1
  O  O309  1  0.21918270  0.56485637  0.67032975  1
  O  O310  1  0.21918270  0.89818970  0.17032975  1
  O  O311  1  0.21918270  0.89818970  0.67032975  1
  O  O312  1  0.55251604  0.23152303  0.17032975  1
  O  O313  1  0.55251604  0.23152303  0.67032975  1
  O  O314  1  0.55251604  0.56485637  0.17032975  1
  O  O315  1  0.55251604  0.56485637  0.67032975  1
  O  O316  1  0.55251604  0.89818970  0.17032975  1
  O  O317  1  0.55251604  0.89818970  0.67032975  1
  O  O318  1  0.88584937  0.23152303  0.17032975  1
  O  O319  1  0.88584937  0.23152303  0.67032975  1
  O  O320  1  0.88584937  0.56485637  0.17032975  1
  O  O321  1  0.88584937  0.56485637  0.67032975  1
  O  O322  1  0.88584937  0.89818970  0.17032975  1
  O  O323  1  0.88584937  0.89818970  0.67032975  1
  O  O324  1  0.01234033  0.11415063  0.17032975  1
  O  O325  1  0.01234033  0.11415063  0.67032975  1
  O  O326  1  0.01234033  0.44748396  0.17032975  1
  O  O327  1  0.01234033  0.44748396  0.67032975  1
  O  O328  1  0.01234033  0.78081730  0.17032975  1
  O  O329  1  0.01234033  0.78081730  0.67032975  1
  O  O330  1  0.34567366  0.11415063  0.17032975  1
  O  O331  1  0.34567366  0.11415063  0.67032975  1
  O  O332  1  0.34567366  0.44748396  0.17032975  1
  O  O333  1  0.34567366  0.44748396  0.67032975  1
  O  O334  1  0.34567366  0.78081730  0.17032975  1
  O  O335  1  0.34567366  0.78081730  0.67032975  1
  O  O336  1  0.67900700  0.11415063  0.17032975  1
  O  O337  1  0.67900700  0.11415063  0.67032975  1
  O  O338  1  0.67900700  0.44748396  0.17032975  1
  O  O339  1  0.67900700  0.44748396  0.67032975  1
  O  O340  1  0.67900700  0.78081730  0.17032975  1
  O  O341  1  0.67900700  0.78081730  0.67032975  1
  O  O342  1  0.23152303  0.01234033  0.32967025  1
  O  O343  1  0.23152303  0.01234033  0.82967025  1
  O  O344  1  0.23152303  0.34567366  0.32967025  1
  O  O345  1  0.23152303  0.34567366  0.82967025  1
  O  O346  1  0.23152303  0.67900700  0.32967025  1
  O  O347  1  0.23152303  0.67900700  0.82967025  1
  O  O348  1  0.56485637  0.01234033  0.32967025  1
  O  O349  1  0.56485637  0.01234033  0.82967025  1
  O  O350  1  0.56485637  0.34567366  0.32967025  1
  O  O351  1  0.56485637  0.34567366  0.82967025  1
  O  O352  1  0.56485637  0.67900700  0.32967025  1
  O  O353  1  0.56485637  0.67900700  0.82967025  1
  O  O354  1  0.89818970  0.01234033  0.32967025  1
  O  O355  1  0.89818970  0.01234033  0.82967025  1
  O  O356  1  0.89818970  0.34567366  0.32967025  1
  O  O357  1  0.89818970  0.34567366  0.82967025  1
  O  O358  1  0.89818970  0.67900700  0.32967025  1
  O  O359  1  0.89818970  0.67900700  0.82967025  1
  O  O360  1  0.11415063  0.10181030  0.32967025  1
  O  O361  1  0.11415063  0.10181030  0.82967025  1
  O  O362  1  0.11415063  0.43514363  0.32967025  1
  O  O363  1  0.11415063  0.43514363  0.82967025  1
  O  O364  1  0.11415063  0.76847697  0.32967025  1
  O  O365  1  0.11415063  0.76847697  0.82967025  1
  O  O366  1  0.44748396  0.10181030  0.32967025  1
  O  O367  1  0.44748396  0.10181030  0.82967025  1
  O  O368  1  0.44748396  0.43514363  0.32967025  1
  O  O369  1  0.44748396  0.43514363  0.82967025  1
  O  O370  1  0.44748396  0.76847697  0.32967025  1
  O  O371  1  0.44748396  0.76847697  0.82967025  1
  O  O372  1  0.78081730  0.10181030  0.32967025  1
  O  O373  1  0.78081730  0.10181030  0.82967025  1
  O  O374  1  0.78081730  0.43514363  0.32967025  1
  O  O375  1  0.78081730  0.43514363  0.82967025  1
  O  O376  1  0.78081730  0.76847697  0.32967025  1
  O  O377  1  0.78081730  0.76847697  0.82967025  1
  O  O378  1  0.32099300  0.21918270  0.32967025  1
  O  O379  1  0.32099300  0.21918270  0.82967025  1
  O  O380  1  0.32099300  0.55251604  0.32967025  1
  O  O381  1  0.32099300  0.55251604  0.82967025  1
  O  O382  1  0.32099300  0.88584937  0.32967025  1
  O  O383  1  0.32099300  0.88584937  0.82967025  1
  O  O384  1  0.65432634  0.21918270  0.32967025  1
  O  O385  1  0.65432634  0.21918270  0.82967025  1
  O  O386  1  0.65432634  0.55251604  0.32967025  1
  O  O387  1  0.65432634  0.55251604  0.82967025  1
  O  O388  1  0.65432634  0.88584937  0.32967025  1
  O  O389  1  0.65432634  0.88584937  0.82967025  1
  O  O390  1  0.98765967  0.21918270  0.32967025  1
  O  O391  1  0.98765967  0.21918270  0.82967025  1
  O  O392  1  0.98765967  0.55251604  0.32967025  1
  O  O393  1  0.98765967  0.55251604  0.82967025  1
  O  O394  1  0.98765967  0.88584937  0.32967025  1
  O  O395  1  0.98765967  0.88584937  0.82967025  1
  O  O396  1  0.00000000  0.00000000  0.00000000  1
  O  O397  1  0.00000000  0.00000000  0.50000000  1
  O  O398  1  -0.00000000  0.33333333  0.00000000  1
  O  O399  1  -0.00000000  0.33333333  0.50000000  1
  O  O400  1  -0.00000000  0.66666667  0.00000000  1
  O  O401  1  -0.00000000  0.66666667  0.50000000  1
  O  O402  1  0.33333333  0.00000000  0.00000000  1
  O  O403  1  0.33333333  0.00000000  0.50000000  1
  O  O404  1  0.33333333  0.33333333  0.00000000  1
  O  O405  1  0.33333333  0.33333333  0.50000000  1
  O  O406  1  0.33333333  0.66666667  0.00000000  1
  O  O407  1  0.33333333  0.66666667  0.50000000  1
  O  O408  1  0.66666667  0.00000000  0.00000000  1
  O  O409  1  0.66666667  0.00000000  0.50000000  1
  O  O410  1  0.66666667  0.33333333  0.00000000  1
  O  O411  1  0.66666667  0.33333333  0.50000000  1
  O  O412  1  0.66666667  0.66666667  0.00000000  1
  O  O413  1  0.66666667  0.66666667  0.50000000  1
  O  O414  1  0.22222222  0.11111111  0.48840505  1
  O  O415  1  0.22222222  0.11111111  0.98840505  1
  O  O416  1  0.22222222  0.44444444  0.48840505  1
  O  O417  1  0.22222222  0.44444444  0.98840505  1
  O  O418  1  0.22222222  0.77777778  0.48840505  1
  O  O419  1  0.22222222  0.77777778  0.98840505  1
  O  O420  1  0.55555556  0.11111111  0.48840505  1
  O  O421  1  0.55555556  0.11111111  0.98840505  1
  O  O422  1  0.55555556  0.44444444  0.48840505  1
  O  O423  1  0.55555556  0.44444444  0.98840505  1
  O  O424  1  0.55555556  0.77777778  0.48840505  1
  O  O425  1  0.55555556  0.77777778  0.98840505  1
  O  O426  1  0.88888889  0.11111111  0.48840505  1
  O  O427  1  0.88888889  0.11111111  0.98840505  1
  O  O428  1  0.88888889  0.44444444  0.48840505  1
  O  O429  1  0.88888889  0.44444444  0.98840505  1
  O  O430  1  0.88888889  0.77777778  0.48840505  1
  O  O431  1  0.88888889  0.77777778  0.98840505  1
  O  O432  1  0.11111111  0.22222222  0.01159495  1
  O  O433  1  0.11111111  0.22222222  0.51159495  1
  O  O434  1  0.11111111  0.55555556  0.01159495  1
  O  O435  1  0.11111111  0.55555556  0.51159495  1
  O  O436  1  0.11111111  0.88888889  0.01159495  1
  O  O437  1  0.11111111  0.88888889  0.51159495  1
  O  O438  1  0.44444444  0.22222222  0.01159495  1
  O  O439  1  0.44444444  0.22222222  0.51159495  1
  O  O440  1  0.44444444  0.55555556  0.01159495  1
  O  O441  1  0.44444444  0.55555556  0.51159495  1
  O  O442  1  0.44444444  0.88888889  0.01159495  1
  O  O443  1  0.44444444  0.88888889  0.51159495  1
  O  O444  1  0.77777778  0.22222222  0.01159495  1
  O  O445  1  0.77777778  0.22222222  0.51159495  1
  O  O446  1  0.77777778  0.55555556  0.01159495  1
  O  O447  1  0.77777778  0.55555556  0.51159495  1
  O  O448  1  0.77777778  0.88888889  0.01159495  1
  O  O449  1  0.77777778  0.88888889  0.51159495  1
