# generated using pymatgen
data_Rb2CrO4
_symmetry_space_group_name_H-M   'P 1'
_cell_length_a   15.94731710
_cell_length_b   18.07493052
_cell_length_c   21.39686632
_cell_angle_alpha   90.00000000
_cell_angle_beta   90.00000000
_cell_angle_gamma   90.00000000
_symmetry_Int_Tables_number   1
_chemical_formula_structural   Rb2CrO4
_chemical_formula_sum   'Rb96 Cr48 O192'
_cell_volume   6167.57500729
_cell_formula_units_Z   48
loop_
 _symmetry_equiv_pos_site_id
 _symmetry_equiv_pos_as_xyz
  1  'x, y, z'
loop_
 _atom_site_type_symbol
 _atom_site_label
 _atom_site_symmetry_multiplicity
 _atom_site_fract_x
 _atom_site_fract_y
 _atom_site_fract_z
 _atom_site_occupancy
  Rb  Rb0  1  0.25722884  0.08333333  0.40209570  1
  Rb  Rb1  1  0.25722884  0.08333333  0.90209570  1
  Rb  Rb2  1  0.25722884  0.41666667  0.40209570  1
  Rb  Rb3  1  0.25722884  0.41666667  0.90209570  1
  Rb  Rb4  1  0.25722884  0.75000000  0.40209570  1
  Rb  Rb5  1  0.25722884  0.75000000  0.90209570  1
  Rb  Rb6  1  0.75722884  0.08333333  0.40209570  1
  Rb  Rb7  1  0.75722884  0.08333333  0.90209570  1
  Rb  Rb8  1  0.75722884  0.41666667  0.40209570  1
  Rb  Rb9  1  0.75722884  0.41666667  0.90209570  1
  Rb  Rb10  1  0.75722884  0.75000000  0.40209570  1
  Rb  Rb11  1  0.75722884  0.75000000  0.90209570  1
  Rb  Rb12  1  0.24277116  0.25000000  0.09790430  1
  Rb  Rb13  1  0.24277116  0.25000000  0.59790430  1
  Rb  Rb14  1  0.24277116  0.58333333  0.09790430  1
  Rb  Rb15  1  0.24277116  0.58333333  0.59790430  1
  Rb  Rb16  1  0.24277116  0.91666667  0.09790430  1
  Rb  Rb17  1  0.24277116  0.91666667  0.59790430  1
  Rb  Rb18  1  0.74277116  0.25000000  0.09790430  1
  Rb  Rb19  1  0.74277116  0.25000000  0.59790430  1
  Rb  Rb20  1  0.74277116  0.58333333  0.09790430  1
  Rb  Rb21  1  0.74277116  0.58333333  0.59790430  1
  Rb  Rb22  1  0.74277116  0.91666667  0.09790430  1
  Rb  Rb23  1  0.74277116  0.91666667  0.59790430  1
  Rb  Rb24  1  0.00722884  0.08333333  0.34790430  1
  Rb  Rb25  1  0.00722884  0.08333333  0.84790430  1
  Rb  Rb26  1  0.00722884  0.41666667  0.34790430  1
  Rb  Rb27  1  0.00722884  0.41666667  0.84790430  1
  Rb  Rb28  1  0.00722884  0.75000000  0.34790430  1
  Rb  Rb29  1  0.00722884  0.75000000  0.84790430  1
  Rb  Rb30  1  0.50722884  0.08333333  0.34790430  1
  Rb  Rb31  1  0.50722884  0.08333333  0.84790430  1
  Rb  Rb32  1  0.50722884  0.41666667  0.34790430  1
  Rb  Rb33  1  0.50722884  0.41666667  0.84790430  1
  Rb  Rb34  1  0.50722884  0.75000000  0.34790430  1
  Rb  Rb35  1  0.50722884  0.75000000  0.84790430  1
  Rb  Rb36  1  0.49277116  0.25000000  0.15209570  1
  Rb  Rb37  1  0.49277116  0.25000000  0.65209570  1
  Rb  Rb38  1  0.49277116  0.58333333  0.15209570  1
  Rb  Rb39  1  0.49277116  0.58333333  0.65209570  1
  Rb  Rb40  1  0.49277116  0.91666667  0.15209570  1
  Rb  Rb41  1  0.49277116  0.91666667  0.65209570  1
  Rb  Rb42  1  0.99277116  0.25000000  0.15209570  1
  Rb  Rb43  1  0.99277116  0.25000000  0.65209570  1
  Rb  Rb44  1  0.99277116  0.58333333  0.15209570  1
  Rb  Rb45  1  0.99277116  0.58333333  0.65209570  1
  Rb  Rb46  1  0.99277116  0.91666667  0.15209570  1
  Rb  Rb47  1  0.99277116  0.91666667  0.65209570  1
  Rb  Rb48  1  0.41663445  0.08333333  0.04334321  1
  Rb  Rb49  1  0.41663445  0.08333333  0.54334321  1
  Rb  Rb50  1  0.41663445  0.41666667  0.04334321  1
  Rb  Rb51  1  0.41663445  0.41666667  0.54334321  1
  Rb  Rb52  1  0.41663445  0.75000000  0.04334321  1
  Rb  Rb53  1  0.41663445  0.75000000  0.54334321  1
  Rb  Rb54  1  0.91663445  0.08333333  0.04334321  1
  Rb  Rb55  1  0.91663445  0.08333333  0.54334321  1
  Rb  Rb56  1  0.91663445  0.41666667  0.04334321  1
  Rb  Rb57  1  0.91663445  0.41666667  0.54334321  1
  Rb  Rb58  1  0.91663445  0.75000000  0.04334321  1
  Rb  Rb59  1  0.91663445  0.75000000  0.54334321  1
  Rb  Rb60  1  0.08336555  0.25000000  0.45665679  1
  Rb  Rb61  1  0.08336555  0.25000000  0.95665679  1
  Rb  Rb62  1  0.08336555  0.58333333  0.45665679  1
  Rb  Rb63  1  0.08336555  0.58333333  0.95665679  1
  Rb  Rb64  1  0.08336555  0.91666667  0.45665679  1
  Rb  Rb65  1  0.08336555  0.91666667  0.95665679  1
  Rb  Rb66  1  0.58336555  0.25000000  0.45665679  1
  Rb  Rb67  1  0.58336555  0.25000000  0.95665679  1
  Rb  Rb68  1  0.58336555  0.58333333  0.45665679  1
  Rb  Rb69  1  0.58336555  0.58333333  0.95665679  1
  Rb  Rb70  1  0.58336555  0.91666667  0.45665679  1
  Rb  Rb71  1  0.58336555  0.91666667  0.95665679  1
  Rb  Rb72  1  0.16663445  0.08333333  0.20665679  1
  Rb  Rb73  1  0.16663445  0.08333333  0.70665679  1
  Rb  Rb74  1  0.16663445  0.41666667  0.20665679  1
  Rb  Rb75  1  0.16663445  0.41666667  0.70665679  1
  Rb  Rb76  1  0.16663445  0.75000000  0.20665679  1
  Rb  Rb77  1  0.16663445  0.75000000  0.70665679  1
  Rb  Rb78  1  0.66663445  0.08333333  0.20665679  1
  Rb  Rb79  1  0.66663445  0.08333333  0.70665679  1
  Rb  Rb80  1  0.66663445  0.41666667  0.20665679  1
  Rb  Rb81  1  0.66663445  0.41666667  0.70665679  1
  Rb  Rb82  1  0.66663445  0.75000000  0.20665679  1
  Rb  Rb83  1  0.66663445  0.75000000  0.70665679  1
  Rb  Rb84  1  0.33336555  0.25000000  0.29334321  1
  Rb  Rb85  1  0.33336555  0.25000000  0.79334321  1
  Rb  Rb86  1  0.33336555  0.58333333  0.29334321  1
  Rb  Rb87  1  0.33336555  0.58333333  0.79334321  1
  Rb  Rb88  1  0.33336555  0.91666667  0.29334321  1
  Rb  Rb89  1  0.33336555  0.91666667  0.79334321  1
  Rb  Rb90  1  0.83336555  0.25000000  0.29334321  1
  Rb  Rb91  1  0.83336555  0.25000000  0.79334321  1
  Rb  Rb92  1  0.83336555  0.58333333  0.29334321  1
  Rb  Rb93  1  0.83336555  0.58333333  0.79334321  1
  Rb  Rb94  1  0.83336555  0.91666667  0.29334321  1
  Rb  Rb95  1  0.83336555  0.91666667  0.79334321  1
  Cr  Cr96  1  0.13395299  0.08333333  0.03924277  1
  Cr  Cr97  1  0.13395299  0.08333333  0.53924277  1
  Cr  Cr98  1  0.13395299  0.41666667  0.03924277  1
  Cr  Cr99  1  0.13395299  0.41666667  0.53924277  1
  Cr  Cr100  1  0.13395299  0.75000000  0.03924277  1
  Cr  Cr101  1  0.13395299  0.75000000  0.53924277  1
  Cr  Cr102  1  0.63395299  0.08333333  0.03924277  1
  Cr  Cr103  1  0.63395299  0.08333333  0.53924277  1
  Cr  Cr104  1  0.63395299  0.41666667  0.03924277  1
  Cr  Cr105  1  0.63395299  0.41666667  0.53924277  1
  Cr  Cr106  1  0.63395299  0.75000000  0.03924277  1
  Cr  Cr107  1  0.63395299  0.75000000  0.53924277  1
  Cr  Cr108  1  0.36604701  0.25000000  0.46075723  1
  Cr  Cr109  1  0.36604701  0.25000000  0.96075723  1
  Cr  Cr110  1  0.36604701  0.58333333  0.46075723  1
  Cr  Cr111  1  0.36604701  0.58333333  0.96075723  1
  Cr  Cr112  1  0.36604701  0.91666667  0.46075723  1
  Cr  Cr113  1  0.36604701  0.91666667  0.96075723  1
  Cr  Cr114  1  0.86604701  0.25000000  0.46075723  1
  Cr  Cr115  1  0.86604701  0.25000000  0.96075723  1
  Cr  Cr116  1  0.86604701  0.58333333  0.46075723  1
  Cr  Cr117  1  0.86604701  0.58333333  0.96075723  1
  Cr  Cr118  1  0.86604701  0.91666667  0.46075723  1
  Cr  Cr119  1  0.86604701  0.91666667  0.96075723  1
  Cr  Cr120  1  0.38395299  0.08333333  0.21075723  1
  Cr  Cr121  1  0.38395299  0.08333333  0.71075723  1
  Cr  Cr122  1  0.38395299  0.41666667  0.21075723  1
  Cr  Cr123  1  0.38395299  0.41666667  0.71075723  1
  Cr  Cr124  1  0.38395299  0.75000000  0.21075723  1
  Cr  Cr125  1  0.38395299  0.75000000  0.71075723  1
  Cr  Cr126  1  0.88395299  0.08333333  0.21075723  1
  Cr  Cr127  1  0.88395299  0.08333333  0.71075723  1
  Cr  Cr128  1  0.88395299  0.41666667  0.21075723  1
  Cr  Cr129  1  0.88395299  0.41666667  0.71075723  1
  Cr  Cr130  1  0.88395299  0.75000000  0.21075723  1
  Cr  Cr131  1  0.88395299  0.75000000  0.71075723  1
  Cr  Cr132  1  0.11604701  0.25000000  0.28924277  1
  Cr  Cr133  1  0.11604701  0.25000000  0.78924277  1
  Cr  Cr134  1  0.11604701  0.58333333  0.28924277  1
  Cr  Cr135  1  0.11604701  0.58333333  0.78924277  1
  Cr  Cr136  1  0.11604701  0.91666667  0.28924277  1
  Cr  Cr137  1  0.11604701  0.91666667  0.78924277  1
  Cr  Cr138  1  0.61604701  0.25000000  0.28924277  1
  Cr  Cr139  1  0.61604701  0.25000000  0.78924277  1
  Cr  Cr140  1  0.61604701  0.58333333  0.28924277  1
  Cr  Cr141  1  0.61604701  0.58333333  0.78924277  1
  Cr  Cr142  1  0.61604701  0.91666667  0.28924277  1
  Cr  Cr143  1  0.61604701  0.91666667  0.78924277  1
  O  O144  1  0.40298625  0.32507077  0.42559352  1
  O  O145  1  0.40298625  0.32507077  0.92559352  1
  O  O146  1  0.40298625  0.65840410  0.42559352  1
  O  O147  1  0.40298625  0.65840410  0.92559352  1
  O  O148  1  0.40298625  0.99173743  0.42559352  1
  O  O149  1  0.40298625  0.99173743  0.92559352  1
  O  O150  1  0.90298625  0.32507077  0.42559352  1
  O  O151  1  0.90298625  0.32507077  0.92559352  1
  O  O152  1  0.90298625  0.65840410  0.42559352  1
  O  O153  1  0.90298625  0.65840410  0.92559352  1
  O  O154  1  0.90298625  0.99173743  0.42559352  1
  O  O155  1  0.90298625  0.99173743  0.92559352  1
  O  O156  1  0.09701375  0.15840410  0.07440648  1
  O  O157  1  0.09701375  0.15840410  0.57440648  1
  O  O158  1  0.09701375  0.49173743  0.07440648  1
  O  O159  1  0.09701375  0.49173743  0.57440648  1
  O  O160  1  0.09701375  0.82507077  0.07440648  1
  O  O161  1  0.09701375  0.82507077  0.57440648  1
  O  O162  1  0.59701375  0.15840410  0.07440648  1
  O  O163  1  0.59701375  0.15840410  0.57440648  1
  O  O164  1  0.59701375  0.49173743  0.07440648  1
  O  O165  1  0.59701375  0.49173743  0.57440648  1
  O  O166  1  0.59701375  0.82507077  0.07440648  1
  O  O167  1  0.59701375  0.82507077  0.57440648  1
  O  O168  1  0.15298625  0.17492923  0.32440648  1
  O  O169  1  0.15298625  0.17492923  0.82440648  1
  O  O170  1  0.15298625  0.50826257  0.32440648  1
  O  O171  1  0.15298625  0.50826257  0.82440648  1
  O  O172  1  0.15298625  0.84159590  0.32440648  1
  O  O173  1  0.15298625  0.84159590  0.82440648  1
  O  O174  1  0.65298625  0.17492923  0.32440648  1
  O  O175  1  0.65298625  0.17492923  0.82440648  1
  O  O176  1  0.65298625  0.50826257  0.32440648  1
  O  O177  1  0.65298625  0.50826257  0.82440648  1
  O  O178  1  0.65298625  0.84159590  0.32440648  1
  O  O179  1  0.65298625  0.84159590  0.82440648  1
  O  O180  1  0.34701375  0.00826257  0.17559352  1
  O  O181  1  0.34701375  0.00826257  0.67559352  1
  O  O182  1  0.34701375  0.34159590  0.17559352  1
  O  O183  1  0.34701375  0.34159590  0.67559352  1
  O  O184  1  0.34701375  0.67492923  0.17559352  1
  O  O185  1  0.34701375  0.67492923  0.67559352  1
  O  O186  1  0.84701375  0.00826257  0.17559352  1
  O  O187  1  0.84701375  0.00826257  0.67559352  1
  O  O188  1  0.84701375  0.34159590  0.17559352  1
  O  O189  1  0.84701375  0.34159590  0.67559352  1
  O  O190  1  0.84701375  0.67492923  0.17559352  1
  O  O191  1  0.84701375  0.67492923  0.67559352  1
  O  O192  1  0.09701375  0.00826257  0.07440648  1
  O  O193  1  0.09701375  0.00826257  0.57440648  1
  O  O194  1  0.09701375  0.34159590  0.07440648  1
  O  O195  1  0.09701375  0.34159590  0.57440648  1
  O  O196  1  0.09701375  0.67492923  0.07440648  1
  O  O197  1  0.09701375  0.67492923  0.57440648  1
  O  O198  1  0.59701375  0.00826257  0.07440648  1
  O  O199  1  0.59701375  0.00826257  0.57440648  1
  O  O200  1  0.59701375  0.34159590  0.07440648  1
  O  O201  1  0.59701375  0.34159590  0.57440648  1
  O  O202  1  0.59701375  0.67492923  0.07440648  1
  O  O203  1  0.59701375  0.67492923  0.57440648  1
  O  O204  1  0.40298625  0.17492923  0.42559352  1
  O  O205  1  0.40298625  0.17492923  0.92559352  1
  O  O206  1  0.40298625  0.50826257  0.42559352  1
  O  O207  1  0.40298625  0.50826257  0.92559352  1
  O  O208  1  0.40298625  0.84159590  0.42559352  1
  O  O209  1  0.40298625  0.84159590  0.92559352  1
  O  O210  1  0.90298625  0.17492923  0.42559352  1
  O  O211  1  0.90298625  0.17492923  0.92559352  1
  O  O212  1  0.90298625  0.50826257  0.42559352  1
  O  O213  1  0.90298625  0.50826257  0.92559352  1
  O  O214  1  0.90298625  0.84159590  0.42559352  1
  O  O215  1  0.90298625  0.84159590  0.92559352  1
  O  O216  1  0.34701375  0.15840410  0.17559352  1
  O  O217  1  0.34701375  0.15840410  0.67559352  1
  O  O218  1  0.34701375  0.49173743  0.17559352  1
  O  O219  1  0.34701375  0.49173743  0.67559352  1
  O  O220  1  0.34701375  0.82507077  0.17559352  1
  O  O221  1  0.34701375  0.82507077  0.67559352  1
  O  O222  1  0.84701375  0.15840410  0.17559352  1
  O  O223  1  0.84701375  0.15840410  0.67559352  1
  O  O224  1  0.84701375  0.49173743  0.17559352  1
  O  O225  1  0.84701375  0.49173743  0.67559352  1
  O  O226  1  0.84701375  0.82507077  0.17559352  1
  O  O227  1  0.84701375  0.82507077  0.67559352  1
  O  O228  1  0.15298625  0.32507077  0.32440648  1
  O  O229  1  0.15298625  0.32507077  0.82440648  1
  O  O230  1  0.15298625  0.65840410  0.32440648  1
  O  O231  1  0.15298625  0.65840410  0.82440648  1
  O  O232  1  0.15298625  0.99173743  0.32440648  1
  O  O233  1  0.15298625  0.99173743  0.82440648  1
  O  O234  1  0.65298625  0.32507077  0.32440648  1
  O  O235  1  0.65298625  0.32507077  0.82440648  1
  O  O236  1  0.65298625  0.65840410  0.32440648  1
  O  O237  1  0.65298625  0.65840410  0.82440648  1
  O  O238  1  0.65298625  0.99173743  0.32440648  1
  O  O239  1  0.65298625  0.99173743  0.82440648  1
  O  O240  1  0.10172270  0.08333333  0.46528649  1
  O  O241  1  0.10172270  0.08333333  0.96528649  1
  O  O242  1  0.10172270  0.41666667  0.46528649  1
  O  O243  1  0.10172270  0.41666667  0.96528649  1
  O  O244  1  0.10172270  0.75000000  0.46528649  1
  O  O245  1  0.10172270  0.75000000  0.96528649  1
  O  O246  1  0.60172270  0.08333333  0.46528649  1
  O  O247  1  0.60172270  0.08333333  0.96528649  1
  O  O248  1  0.60172270  0.41666667  0.46528649  1
  O  O249  1  0.60172270  0.41666667  0.96528649  1
  O  O250  1  0.60172270  0.75000000  0.46528649  1
  O  O251  1  0.60172270  0.75000000  0.96528649  1
  O  O252  1  0.39827730  0.25000000  0.03471351  1
  O  O253  1  0.39827730  0.25000000  0.53471351  1
  O  O254  1  0.39827730  0.58333333  0.03471351  1
  O  O255  1  0.39827730  0.58333333  0.53471351  1
  O  O256  1  0.39827730  0.91666667  0.03471351  1
  O  O257  1  0.39827730  0.91666667  0.53471351  1
  O  O258  1  0.89827730  0.25000000  0.03471351  1
  O  O259  1  0.89827730  0.25000000  0.53471351  1
  O  O260  1  0.89827730  0.58333333  0.03471351  1
  O  O261  1  0.89827730  0.58333333  0.53471351  1
  O  O262  1  0.89827730  0.91666667  0.03471351  1
  O  O263  1  0.89827730  0.91666667  0.53471351  1
  O  O264  1  0.35172270  0.08333333  0.28471351  1
  O  O265  1  0.35172270  0.08333333  0.78471351  1
  O  O266  1  0.35172270  0.41666667  0.28471351  1
  O  O267  1  0.35172270  0.41666667  0.78471351  1
  O  O268  1  0.35172270  0.75000000  0.28471351  1
  O  O269  1  0.35172270  0.75000000  0.78471351  1
  O  O270  1  0.85172270  0.08333333  0.28471351  1
  O  O271  1  0.85172270  0.08333333  0.78471351  1
  O  O272  1  0.85172270  0.41666667  0.28471351  1
  O  O273  1  0.85172270  0.41666667  0.78471351  1
  O  O274  1  0.85172270  0.75000000  0.28471351  1
  O  O275  1  0.85172270  0.75000000  0.78471351  1
  O  O276  1  0.14827730  0.25000000  0.21528649  1
  O  O277  1  0.14827730  0.25000000  0.71528649  1
  O  O278  1  0.14827730  0.58333333  0.21528649  1
  O  O279  1  0.14827730  0.58333333  0.71528649  1
  O  O280  1  0.14827730  0.91666667  0.21528649  1
  O  O281  1  0.14827730  0.91666667  0.71528649  1
  O  O282  1  0.64827730  0.25000000  0.21528649  1
  O  O283  1  0.64827730  0.25000000  0.71528649  1
  O  O284  1  0.64827730  0.58333333  0.21528649  1
  O  O285  1  0.64827730  0.58333333  0.71528649  1
  O  O286  1  0.64827730  0.91666667  0.21528649  1
  O  O287  1  0.64827730  0.91666667  0.71528649  1
  O  O288  1  0.01232782  0.25000000  0.29210973  1
  O  O289  1  0.01232782  0.25000000  0.79210973  1
  O  O290  1  0.01232782  0.58333333  0.29210973  1
  O  O291  1  0.01232782  0.58333333  0.79210973  1
  O  O292  1  0.01232782  0.91666667  0.29210973  1
  O  O293  1  0.01232782  0.91666667  0.79210973  1
  O  O294  1  0.51232782  0.25000000  0.29210973  1
  O  O295  1  0.51232782  0.25000000  0.79210973  1
  O  O296  1  0.51232782  0.58333333  0.29210973  1
  O  O297  1  0.51232782  0.58333333  0.79210973  1
  O  O298  1  0.51232782  0.91666667  0.29210973  1
  O  O299  1  0.51232782  0.91666667  0.79210973  1
  O  O300  1  0.48767218  0.08333333  0.20789027  1
  O  O301  1  0.48767218  0.08333333  0.70789027  1
  O  O302  1  0.48767218  0.41666667  0.20789027  1
  O  O303  1  0.48767218  0.41666667  0.70789027  1
  O  O304  1  0.48767218  0.75000000  0.20789027  1
  O  O305  1  0.48767218  0.75000000  0.70789027  1
  O  O306  1  0.98767218  0.08333333  0.20789027  1
  O  O307  1  0.98767218  0.08333333  0.70789027  1
  O  O308  1  0.98767218  0.41666667  0.20789027  1
  O  O309  1  0.98767218  0.41666667  0.70789027  1
  O  O310  1  0.98767218  0.75000000  0.20789027  1
  O  O311  1  0.98767218  0.75000000  0.70789027  1
  O  O312  1  0.26232782  0.25000000  0.45789027  1
  O  O313  1  0.26232782  0.25000000  0.95789027  1
  O  O314  1  0.26232782  0.58333333  0.45789027  1
  O  O315  1  0.26232782  0.58333333  0.95789027  1
  O  O316  1  0.26232782  0.91666667  0.45789027  1
  O  O317  1  0.26232782  0.91666667  0.95789027  1
  O  O318  1  0.76232782  0.25000000  0.45789027  1
  O  O319  1  0.76232782  0.25000000  0.95789027  1
  O  O320  1  0.76232782  0.58333333  0.45789027  1
  O  O321  1  0.76232782  0.58333333  0.95789027  1
  O  O322  1  0.76232782  0.91666667  0.45789027  1
  O  O323  1  0.76232782  0.91666667  0.95789027  1
  O  O324  1  0.23767218  0.08333333  0.04210973  1
  O  O325  1  0.23767218  0.08333333  0.54210973  1
  O  O326  1  0.23767218  0.41666667  0.04210973  1
  O  O327  1  0.23767218  0.41666667  0.54210973  1
  O  O328  1  0.23767218  0.75000000  0.04210973  1
  O  O329  1  0.23767218  0.75000000  0.54210973  1
  O  O330  1  0.73767218  0.08333333  0.04210973  1
  O  O331  1  0.73767218  0.08333333  0.54210973  1
  O  O332  1  0.73767218  0.41666667  0.04210973  1
  O  O333  1  0.73767218  0.41666667  0.54210973  1
  O  O334  1  0.73767218  0.75000000  0.04210973  1
  O  O335  1  0.73767218  0.75000000  0.54210973  1
