# generated using pymatgen
data_Sr(AuO2)2
_symmetry_space_group_name_H-M   'P 1'
_cell_length_a   17.48809872
_cell_length_b   17.48809872
_cell_length_c   20.31559927
_cell_angle_alpha   90.00000000
_cell_angle_beta   90.00000000
_cell_angle_gamma   90.00000000
_symmetry_Int_Tables_number   1
_chemical_formula_structural   Sr(AuO2)2
_chemical_formula_sum   'Sr64 Au128 O256'
_cell_volume   6213.19279336
_cell_formula_units_Z   64
loop_
 _symmetry_equiv_pos_site_id
 _symmetry_equiv_pos_as_xyz
  1  'x, y, z'
loop_
 _atom_site_type_symbol
 _atom_site_label
 _atom_site_symmetry_multiplicity
 _atom_site_fract_x
 _atom_site_fract_y
 _atom_site_fract_z
 _atom_site_occupancy
  Sr  Sr0  1  0.87500000  0.62500000  0.12500000  1
  Sr  Sr1  1  0.87500000  0.62500000  0.62500000  1
  Sr  Sr2  1  0.37500000  0.62500000  0.12500000  1
  Sr  Sr3  1  0.37500000  0.62500000  0.62500000  1
  Sr  Sr4  1  0.62500000  0.37500000  0.12500000  1
  Sr  Sr5  1  0.62500000  0.37500000  0.62500000  1
  Sr  Sr6  1  0.87500000  0.12500000  0.12500000  1
  Sr  Sr7  1  0.87500000  0.12500000  0.62500000  1
  Sr  Sr8  1  0.12500000  0.37500000  0.12500000  1
  Sr  Sr9  1  0.12500000  0.37500000  0.62500000  1
  Sr  Sr10  1  0.37500000  0.12500000  0.12500000  1
  Sr  Sr11  1  0.37500000  0.12500000  0.62500000  1
  Sr  Sr12  1  0.62500000  -0.12500000  0.12500000  1
  Sr  Sr13  1  0.62500000  -0.12500000  0.62500000  1
  Sr  Sr14  1  0.12500000  -0.12500000  0.12500000  1
  Sr  Sr15  1  0.12500000  -0.12500000  0.62500000  1
  Sr  Sr16  1  0.87500000  0.37500000  0.37500000  1
  Sr  Sr17  1  0.87500000  0.37500000  0.87500000  1
  Sr  Sr18  1  0.37500000  0.37500000  0.37500000  1
  Sr  Sr19  1  0.37500000  0.37500000  0.87500000  1
  Sr  Sr20  1  0.62500000  0.12500000  0.37500000  1
  Sr  Sr21  1  0.62500000  0.12500000  0.87500000  1
  Sr  Sr22  1  0.87500000  -0.12500000  0.37500000  1
  Sr  Sr23  1  0.87500000  -0.12500000  0.87500000  1
  Sr  Sr24  1  0.12500000  0.12500000  0.37500000  1
  Sr  Sr25  1  0.12500000  0.12500000  0.87500000  1
  Sr  Sr26  1  0.37500000  -0.12500000  0.37500000  1
  Sr  Sr27  1  0.37500000  -0.12500000  0.87500000  1
  Sr  Sr28  1  0.62500000  -0.37500000  0.37500000  1
  Sr  Sr29  1  0.62500000  -0.37500000  0.87500000  1
  Sr  Sr30  1  0.12500000  -0.37500000  0.37500000  1
  Sr  Sr31  1  0.12500000  -0.37500000  0.87500000  1
  Sr  Sr32  1  0.75000000  0.75000000  0.00000000  1
  Sr  Sr33  1  0.75000000  0.75000000  0.50000000  1
  Sr  Sr34  1  0.25000000  0.75000000  0.00000000  1
  Sr  Sr35  1  0.25000000  0.75000000  0.50000000  1
  Sr  Sr36  1  0.50000000  0.50000000  0.00000000  1
  Sr  Sr37  1  0.50000000  0.50000000  0.50000000  1
  Sr  Sr38  1  0.75000000  0.25000000  0.00000000  1
  Sr  Sr39  1  0.75000000  0.25000000  0.50000000  1
  Sr  Sr40  1  0.00000000  0.50000000  0.00000000  1
  Sr  Sr41  1  0.00000000  0.50000000  0.50000000  1
  Sr  Sr42  1  0.25000000  0.25000000  0.00000000  1
  Sr  Sr43  1  0.25000000  0.25000000  0.50000000  1
  Sr  Sr44  1  0.50000000  -0.00000000  0.00000000  1
  Sr  Sr45  1  0.50000000  -0.00000000  0.50000000  1
  Sr  Sr46  1  0.00000000  0.00000000  0.00000000  1
  Sr  Sr47  1  0.00000000  0.00000000  0.50000000  1
  Sr  Sr48  1  0.75000000  0.50000000  0.25000000  1
  Sr  Sr49  1  0.75000000  0.50000000  0.75000000  1
  Sr  Sr50  1  0.25000000  0.50000000  0.25000000  1
  Sr  Sr51  1  0.25000000  0.50000000  0.75000000  1
  Sr  Sr52  1  0.50000000  0.25000000  0.25000000  1
  Sr  Sr53  1  0.50000000  0.25000000  0.75000000  1
  Sr  Sr54  1  0.75000000  -0.00000000  0.25000000  1
  Sr  Sr55  1  0.75000000  -0.00000000  0.75000000  1
  Sr  Sr56  1  0.00000000  0.25000000  0.25000000  1
  Sr  Sr57  1  0.00000000  0.25000000  0.75000000  1
  Sr  Sr58  1  0.25000000  0.00000000  0.25000000  1
  Sr  Sr59  1  0.25000000  0.00000000  0.75000000  1
  Sr  Sr60  1  0.50000000  -0.25000000  0.25000000  1
  Sr  Sr61  1  0.50000000  -0.25000000  0.75000000  1
  Sr  Sr62  1  -0.00000000  -0.25000000  0.25000000  1
  Sr  Sr63  1  -0.00000000  -0.25000000  0.75000000  1
  Au  Au64  1  0.68750000  0.68750000  0.18750000  1
  Au  Au65  1  0.68750000  0.68750000  0.68750000  1
  Au  Au66  1  0.18750000  0.68750000  0.18750000  1
  Au  Au67  1  0.18750000  0.68750000  0.68750000  1
  Au  Au68  1  0.43750000  0.43750000  0.18750000  1
  Au  Au69  1  0.43750000  0.43750000  0.68750000  1
  Au  Au70  1  0.68750000  0.18750000  0.18750000  1
  Au  Au71  1  0.68750000  0.18750000  0.68750000  1
  Au  Au72  1  -0.06250000  0.43750000  0.18750000  1
  Au  Au73  1  -0.06250000  0.43750000  0.68750000  1
  Au  Au74  1  0.18750000  0.18750000  0.18750000  1
  Au  Au75  1  0.18750000  0.18750000  0.68750000  1
  Au  Au76  1  0.43750000  -0.06250000  0.18750000  1
  Au  Au77  1  0.43750000  -0.06250000  0.68750000  1
  Au  Au78  1  -0.06250000  -0.06250000  0.18750000  1
  Au  Au79  1  -0.06250000  -0.06250000  0.68750000  1
  Au  Au80  1  0.68750000  0.43750000  0.43750000  1
  Au  Au81  1  0.68750000  0.43750000  0.93750000  1
  Au  Au82  1  0.18750000  0.43750000  0.43750000  1
  Au  Au83  1  0.18750000  0.43750000  0.93750000  1
  Au  Au84  1  0.43750000  0.18750000  0.43750000  1
  Au  Au85  1  0.43750000  0.18750000  0.93750000  1
  Au  Au86  1  0.68750000  -0.06250000  0.43750000  1
  Au  Au87  1  0.68750000  -0.06250000  0.93750000  1
  Au  Au88  1  -0.06250000  0.18750000  0.43750000  1
  Au  Au89  1  -0.06250000  0.18750000  0.93750000  1
  Au  Au90  1  0.18750000  -0.06250000  0.43750000  1
  Au  Au91  1  0.18750000  -0.06250000  0.93750000  1
  Au  Au92  1  0.43750000  -0.31250000  0.43750000  1
  Au  Au93  1  0.43750000  -0.31250000  0.93750000  1
  Au  Au94  1  -0.06250000  -0.31250000  0.43750000  1
  Au  Au95  1  -0.06250000  -0.31250000  0.93750000  1
  Au  Au96  1  0.81250000  0.68750000  0.31250000  1
  Au  Au97  1  0.81250000  0.68750000  0.81250000  1
  Au  Au98  1  0.31250000  0.68750000  0.31250000  1
  Au  Au99  1  0.31250000  0.68750000  0.81250000  1
  Au  Au100  1  0.56250000  0.43750000  0.31250000  1
  Au  Au101  1  0.56250000  0.43750000  0.81250000  1
  Au  Au102  1  0.81250000  0.18750000  0.31250000  1
  Au  Au103  1  0.81250000  0.18750000  0.81250000  1
  Au  Au104  1  0.06250000  0.43750000  0.31250000  1
  Au  Au105  1  0.06250000  0.43750000  0.81250000  1
  Au  Au106  1  0.31250000  0.18750000  0.31250000  1
  Au  Au107  1  0.31250000  0.18750000  0.81250000  1
  Au  Au108  1  0.56250000  -0.06250000  0.31250000  1
  Au  Au109  1  0.56250000  -0.06250000  0.81250000  1
  Au  Au110  1  0.06250000  -0.06250000  0.31250000  1
  Au  Au111  1  0.06250000  -0.06250000  0.81250000  1
  Au  Au112  1  0.81250000  0.43750000  0.56250000  1
  Au  Au113  1  0.81250000  0.43750000  1.06250000  1
  Au  Au114  1  0.31250000  0.43750000  0.56250000  1
  Au  Au115  1  0.31250000  0.43750000  1.06250000  1
  Au  Au116  1  0.56250000  0.18750000  0.56250000  1
  Au  Au117  1  0.56250000  0.18750000  1.06250000  1
  Au  Au118  1  0.81250000  -0.06250000  0.56250000  1
  Au  Au119  1  0.81250000  -0.06250000  1.06250000  1
  Au  Au120  1  0.06250000  0.18750000  0.56250000  1
  Au  Au121  1  0.06250000  0.18750000  1.06250000  1
  Au  Au122  1  0.31250000  -0.06250000  0.56250000  1
  Au  Au123  1  0.31250000  -0.06250000  1.06250000  1
  Au  Au124  1  0.56250000  -0.31250000  0.56250000  1
  Au  Au125  1  0.56250000  -0.31250000  1.06250000  1
  Au  Au126  1  0.06250000  -0.31250000  0.56250000  1
  Au  Au127  1  0.06250000  -0.31250000  1.06250000  1
  Au  Au128  1  0.81250000  0.56250000  -0.06250000  1
  Au  Au129  1  0.81250000  0.56250000  0.43750000  1
  Au  Au130  1  0.31250000  0.56250000  -0.06250000  1
  Au  Au131  1  0.31250000  0.56250000  0.43750000  1
  Au  Au132  1  0.56250000  0.31250000  -0.06250000  1
  Au  Au133  1  0.56250000  0.31250000  0.43750000  1
  Au  Au134  1  0.81250000  0.06250000  -0.06250000  1
  Au  Au135  1  0.81250000  0.06250000  0.43750000  1
  Au  Au136  1  0.06250000  0.31250000  -0.06250000  1
  Au  Au137  1  0.06250000  0.31250000  0.43750000  1
  Au  Au138  1  0.31250000  0.06250000  -0.06250000  1
  Au  Au139  1  0.31250000  0.06250000  0.43750000  1
  Au  Au140  1  0.56250000  -0.18750000  -0.06250000  1
  Au  Au141  1  0.56250000  -0.18750000  0.43750000  1
  Au  Au142  1  0.06250000  -0.18750000  -0.06250000  1
  Au  Au143  1  0.06250000  -0.18750000  0.43750000  1
  Au  Au144  1  0.81250000  0.31250000  0.18750000  1
  Au  Au145  1  0.81250000  0.31250000  0.68750000  1
  Au  Au146  1  0.31250000  0.31250000  0.18750000  1
  Au  Au147  1  0.31250000  0.31250000  0.68750000  1
  Au  Au148  1  0.56250000  0.06250000  0.18750000  1
  Au  Au149  1  0.56250000  0.06250000  0.68750000  1
  Au  Au150  1  0.81250000  -0.18750000  0.18750000  1
  Au  Au151  1  0.81250000  -0.18750000  0.68750000  1
  Au  Au152  1  0.06250000  0.06250000  0.18750000  1
  Au  Au153  1  0.06250000  0.06250000  0.68750000  1
  Au  Au154  1  0.31250000  -0.18750000  0.18750000  1
  Au  Au155  1  0.31250000  -0.18750000  0.68750000  1
  Au  Au156  1  0.56250000  -0.43750000  0.18750000  1
  Au  Au157  1  0.56250000  -0.43750000  0.68750000  1
  Au  Au158  1  0.06250000  -0.43750000  0.18750000  1
  Au  Au159  1  0.06250000  -0.43750000  0.68750000  1
  Au  Au160  1  0.68750000  0.56250000  0.06250000  1
  Au  Au161  1  0.68750000  0.56250000  0.56250000  1
  Au  Au162  1  0.18750000  0.56250000  0.06250000  1
  Au  Au163  1  0.18750000  0.56250000  0.56250000  1
  Au  Au164  1  0.43750000  0.31250000  0.06250000  1
  Au  Au165  1  0.43750000  0.31250000  0.56250000  1
  Au  Au166  1  0.68750000  0.06250000  0.06250000  1
  Au  Au167  1  0.68750000  0.06250000  0.56250000  1
  Au  Au168  1  -0.06250000  0.31250000  0.06250000  1
  Au  Au169  1  -0.06250000  0.31250000  0.56250000  1
  Au  Au170  1  0.18750000  0.06250000  0.06250000  1
  Au  Au171  1  0.18750000  0.06250000  0.56250000  1
  Au  Au172  1  0.43750000  -0.18750000  0.06250000  1
  Au  Au173  1  0.43750000  -0.18750000  0.56250000  1
  Au  Au174  1  -0.06250000  -0.18750000  0.06250000  1
  Au  Au175  1  -0.06250000  -0.18750000  0.56250000  1
  Au  Au176  1  0.68750000  0.31250000  0.31250000  1
  Au  Au177  1  0.68750000  0.31250000  0.81250000  1
  Au  Au178  1  0.18750000  0.31250000  0.31250000  1
  Au  Au179  1  0.18750000  0.31250000  0.81250000  1
  Au  Au180  1  0.43750000  0.06250000  0.31250000  1
  Au  Au181  1  0.43750000  0.06250000  0.81250000  1
  Au  Au182  1  0.68750000  -0.18750000  0.31250000  1
  Au  Au183  1  0.68750000  -0.18750000  0.81250000  1
  Au  Au184  1  -0.06250000  0.06250000  0.31250000  1
  Au  Au185  1  -0.06250000  0.06250000  0.81250000  1
  Au  Au186  1  0.18750000  -0.18750000  0.31250000  1
  Au  Au187  1  0.18750000  -0.18750000  0.81250000  1
  Au  Au188  1  0.43750000  -0.43750000  0.31250000  1
  Au  Au189  1  0.43750000  -0.43750000  0.81250000  1
  Au  Au190  1  -0.06250000  -0.43750000  0.31250000  1
  Au  Au191  1  -0.06250000  -0.43750000  0.81250000  1
  O  O192  1  0.65757959  0.51664558  0.14916860  1
  O  O193  1  0.65757959  0.51664558  0.64916860  1
  O  O194  1  0.15757959  0.51664558  0.14916860  1
  O  O195  1  0.15757959  0.51664558  0.64916860  1
  O  O196  1  0.40757959  0.26664558  0.14916860  1
  O  O197  1  0.40757959  0.26664558  0.64916860  1
  O  O198  1  0.65757959  0.01664558  0.14916860  1
  O  O199  1  0.65757959  0.01664558  0.64916860  1
  O  O200  1  -0.09242041  0.26664558  0.14916860  1
  O  O201  1  -0.09242041  0.26664558  0.64916860  1
  O  O202  1  0.15757959  0.01664558  0.14916860  1
  O  O203  1  0.15757959  0.01664558  0.64916860  1
  O  O204  1  0.40757959  -0.23335442  0.14916860  1
  O  O205  1  0.40757959  -0.23335442  0.64916860  1
  O  O206  1  -0.09242041  -0.23335442  0.14916860  1
  O  O207  1  -0.09242041  -0.23335442  0.64916860  1
  O  O208  1  0.65757959  0.26664558  0.39916860  1
  O  O209  1  0.65757959  0.26664558  0.89916860  1
  O  O210  1  0.15757959  0.26664558  0.39916860  1
  O  O211  1  0.15757959  0.26664558  0.89916860  1
  O  O212  1  0.40757959  0.01664558  0.39916860  1
  O  O213  1  0.40757959  0.01664558  0.89916860  1
  O  O214  1  0.65757959  -0.23335442  0.39916860  1
  O  O215  1  0.65757959  -0.23335442  0.89916860  1
  O  O216  1  -0.09242041  0.01664558  0.39916860  1
  O  O217  1  -0.09242041  0.01664558  0.89916860  1
  O  O218  1  0.15757959  -0.23335442  0.39916860  1
  O  O219  1  0.15757959  -0.23335442  0.89916860  1
  O  O220  1  0.40757959  -0.48335442  0.39916860  1
  O  O221  1  0.40757959  -0.48335442  0.89916860  1
  O  O222  1  -0.09242041  -0.48335442  0.39916860  1
  O  O223  1  -0.09242041  -0.48335442  0.89916860  1
  O  O224  1  0.85835442  0.53257959  0.02416860  1
  O  O225  1  0.85835442  0.53257959  0.52416860  1
  O  O226  1  0.35835442  0.53257959  0.02416860  1
  O  O227  1  0.35835442  0.53257959  0.52416860  1
  O  O228  1  0.60835442  0.28257959  0.02416860  1
  O  O229  1  0.60835442  0.28257959  0.52416860  1
  O  O230  1  0.85835442  0.03257959  0.02416860  1
  O  O231  1  0.85835442  0.03257959  0.52416860  1
  O  O232  1  0.10835442  0.28257959  0.02416860  1
  O  O233  1  0.10835442  0.28257959  0.52416860  1
  O  O234  1  0.35835442  0.03257959  0.02416860  1
  O  O235  1  0.35835442  0.03257959  0.52416860  1
  O  O236  1  0.60835442  -0.21742041  0.02416860  1
  O  O237  1  0.60835442  -0.21742041  0.52416860  1
  O  O238  1  0.10835442  -0.21742041  0.02416860  1
  O  O239  1  0.10835442  -0.21742041  0.52416860  1
  O  O240  1  0.85835442  0.28257959  0.27416860  1
  O  O241  1  0.85835442  0.28257959  0.77416860  1
  O  O242  1  0.35835442  0.28257959  0.27416860  1
  O  O243  1  0.35835442  0.28257959  0.77416860  1
  O  O244  1  0.60835442  0.03257959  0.27416860  1
  O  O245  1  0.60835442  0.03257959  0.77416860  1
  O  O246  1  0.85835442  -0.21742041  0.27416860  1
  O  O247  1  0.85835442  -0.21742041  0.77416860  1
  O  O248  1  0.10835442  0.03257959  0.27416860  1
  O  O249  1  0.10835442  0.03257959  0.77416860  1
  O  O250  1  0.35835442  -0.21742041  0.27416860  1
  O  O251  1  0.35835442  -0.21742041  0.77416860  1
  O  O252  1  0.60835442  -0.46742041  0.27416860  1
  O  O253  1  0.60835442  -0.46742041  0.77416860  1
  O  O254  1  0.10835442  -0.46742041  0.27416860  1
  O  O255  1  0.10835442  -0.46742041  0.77416860  1
  O  O256  1  0.64164558  0.71742041  0.27416860  1
  O  O257  1  0.64164558  0.71742041  0.77416860  1
  O  O258  1  0.14164558  0.71742041  0.27416860  1
  O  O259  1  0.14164558  0.71742041  0.77416860  1
  O  O260  1  0.39164558  0.46742041  0.27416860  1
  O  O261  1  0.39164558  0.46742041  0.77416860  1
  O  O262  1  0.64164558  0.21742041  0.27416860  1
  O  O263  1  0.64164558  0.21742041  0.77416860  1
  O  O264  1  -0.10835442  0.46742041  0.27416860  1
  O  O265  1  -0.10835442  0.46742041  0.77416860  1
  O  O266  1  0.14164558  0.21742041  0.27416860  1
  O  O267  1  0.14164558  0.21742041  0.77416860  1
  O  O268  1  0.39164558  -0.03257959  0.27416860  1
  O  O269  1  0.39164558  -0.03257959  0.77416860  1
  O  O270  1  -0.10835442  -0.03257959  0.27416860  1
  O  O271  1  -0.10835442  -0.03257959  0.77416860  1
  O  O272  1  0.64164558  0.46742041  0.52416860  1
  O  O273  1  0.64164558  0.46742041  1.02416860  1
  O  O274  1  0.14164558  0.46742041  0.52416860  1
  O  O275  1  0.14164558  0.46742041  1.02416860  1
  O  O276  1  0.39164558  0.21742041  0.52416860  1
  O  O277  1  0.39164558  0.21742041  1.02416860  1
  O  O278  1  0.64164558  -0.03257959  0.52416860  1
  O  O279  1  0.64164558  -0.03257959  1.02416860  1
  O  O280  1  -0.10835442  0.21742041  0.52416860  1
  O  O281  1  -0.10835442  0.21742041  1.02416860  1
  O  O282  1  0.14164558  -0.03257959  0.52416860  1
  O  O283  1  0.14164558  -0.03257959  1.02416860  1
  O  O284  1  0.39164558  -0.28257959  0.52416860  1
  O  O285  1  0.39164558  -0.28257959  1.02416860  1
  O  O286  1  -0.10835442  -0.28257959  0.52416860  1
  O  O287  1  -0.10835442  -0.28257959  1.02416860  1
  O  O288  1  0.59242041  0.73335442  0.14916860  1
  O  O289  1  0.59242041  0.73335442  0.64916860  1
  O  O290  1  0.09242041  0.73335442  0.14916860  1
  O  O291  1  0.09242041  0.73335442  0.64916860  1
  O  O292  1  0.34242041  0.48335442  0.14916860  1
  O  O293  1  0.34242041  0.48335442  0.64916860  1
  O  O294  1  0.59242041  0.23335442  0.14916860  1
  O  O295  1  0.59242041  0.23335442  0.64916860  1
  O  O296  1  -0.15757959  0.48335442  0.14916860  1
  O  O297  1  -0.15757959  0.48335442  0.64916860  1
  O  O298  1  0.09242041  0.23335442  0.14916860  1
  O  O299  1  0.09242041  0.23335442  0.64916860  1
  O  O300  1  0.34242041  -0.01664558  0.14916860  1
  O  O301  1  0.34242041  -0.01664558  0.64916860  1
  O  O302  1  -0.15757959  -0.01664558  0.14916860  1
  O  O303  1  -0.15757959  -0.01664558  0.64916860  1
  O  O304  1  0.59242041  0.48335442  0.39916860  1
  O  O305  1  0.59242041  0.48335442  0.89916860  1
  O  O306  1  0.09242041  0.48335442  0.39916860  1
  O  O307  1  0.09242041  0.48335442  0.89916860  1
  O  O308  1  0.34242041  0.23335442  0.39916860  1
  O  O309  1  0.34242041  0.23335442  0.89916860  1
  O  O310  1  0.59242041  -0.01664558  0.39916860  1
  O  O311  1  0.59242041  -0.01664558  0.89916860  1
  O  O312  1  -0.15757959  0.23335442  0.39916860  1
  O  O313  1  -0.15757959  0.23335442  0.89916860  1
  O  O314  1  0.09242041  -0.01664558  0.39916860  1
  O  O315  1  0.09242041  -0.01664558  0.89916860  1
  O  O316  1  0.34242041  -0.26664558  0.39916860  1
  O  O317  1  0.34242041  -0.26664558  0.89916860  1
  O  O318  1  -0.15757959  -0.26664558  0.39916860  1
  O  O319  1  -0.15757959  -0.26664558  0.89916860  1
  O  O320  1  0.71742041  0.60835442  -0.02416860  1
  O  O321  1  0.71742041  0.60835442  0.47583140  1
  O  O322  1  0.21742041  0.60835442  -0.02416860  1
  O  O323  1  0.21742041  0.60835442  0.47583140  1
  O  O324  1  0.46742041  0.35835442  -0.02416860  1
  O  O325  1  0.46742041  0.35835442  0.47583140  1
  O  O326  1  0.71742041  0.10835442  -0.02416860  1
  O  O327  1  0.71742041  0.10835442  0.47583140  1
  O  O328  1  -0.03257959  0.35835442  -0.02416860  1
  O  O329  1  -0.03257959  0.35835442  0.47583140  1
  O  O330  1  0.21742041  0.10835442  -0.02416860  1
  O  O331  1  0.21742041  0.10835442  0.47583140  1
  O  O332  1  0.46742041  -0.14164558  -0.02416860  1
  O  O333  1  0.46742041  -0.14164558  0.47583140  1
  O  O334  1  -0.03257959  -0.14164558  -0.02416860  1
  O  O335  1  -0.03257959  -0.14164558  0.47583140  1
  O  O336  1  0.71742041  0.35835442  0.22583140  1
  O  O337  1  0.71742041  0.35835442  0.72583140  1
  O  O338  1  0.21742041  0.35835442  0.22583140  1
  O  O339  1  0.21742041  0.35835442  0.72583140  1
  O  O340  1  0.46742041  0.10835442  0.22583140  1
  O  O341  1  0.46742041  0.10835442  0.72583140  1
  O  O342  1  0.71742041  -0.14164558  0.22583140  1
  O  O343  1  0.71742041  -0.14164558  0.72583140  1
  O  O344  1  -0.03257959  0.10835442  0.22583140  1
  O  O345  1  -0.03257959  0.10835442  0.72583140  1
  O  O346  1  0.21742041  -0.14164558  0.22583140  1
  O  O347  1  0.21742041  -0.14164558  0.72583140  1
  O  O348  1  0.46742041  -0.39164558  0.22583140  1
  O  O349  1  0.46742041  -0.39164558  0.72583140  1
  O  O350  1  -0.03257959  -0.39164558  0.22583140  1
  O  O351  1  -0.03257959  -0.39164558  0.72583140  1
  O  O352  1  0.51664558  0.59242041  0.10083140  1
  O  O353  1  0.51664558  0.59242041  0.60083140  1
  O  O354  1  0.01664558  0.59242041  0.10083140  1
  O  O355  1  0.01664558  0.59242041  0.60083140  1
  O  O356  1  0.26664558  0.34242041  0.10083140  1
  O  O357  1  0.26664558  0.34242041  0.60083140  1
  O  O358  1  0.51664558  0.09242041  0.10083140  1
  O  O359  1  0.51664558  0.09242041  0.60083140  1
  O  O360  1  -0.23335442  0.34242041  0.10083140  1
  O  O361  1  -0.23335442  0.34242041  0.60083140  1
  O  O362  1  0.01664558  0.09242041  0.10083140  1
  O  O363  1  0.01664558  0.09242041  0.60083140  1
  O  O364  1  0.26664558  -0.15757959  0.10083140  1
  O  O365  1  0.26664558  -0.15757959  0.60083140  1
  O  O366  1  -0.23335442  -0.15757959  0.10083140  1
  O  O367  1  -0.23335442  -0.15757959  0.60083140  1
  O  O368  1  0.51664558  0.34242041  0.35083140  1
  O  O369  1  0.51664558  0.34242041  0.85083140  1
  O  O370  1  0.01664558  0.34242041  0.35083140  1
  O  O371  1  0.01664558  0.34242041  0.85083140  1
  O  O372  1  0.26664558  0.09242041  0.35083140  1
  O  O373  1  0.26664558  0.09242041  0.85083140  1
  O  O374  1  0.51664558  -0.15757959  0.35083140  1
  O  O375  1  0.51664558  -0.15757959  0.85083140  1
  O  O376  1  -0.23335442  0.09242041  0.35083140  1
  O  O377  1  -0.23335442  0.09242041  0.85083140  1
  O  O378  1  0.01664558  -0.15757959  0.35083140  1
  O  O379  1  0.01664558  -0.15757959  0.85083140  1
  O  O380  1  0.26664558  -0.40757959  0.35083140  1
  O  O381  1  0.26664558  -0.40757959  0.85083140  1
  O  O382  1  -0.23335442  -0.40757959  0.35083140  1
  O  O383  1  -0.23335442  -0.40757959  0.85083140  1
  O  O384  1  0.78257959  0.64164558  0.22583140  1
  O  O385  1  0.78257959  0.64164558  0.72583140  1
  O  O386  1  0.28257959  0.64164558  0.22583140  1
  O  O387  1  0.28257959  0.64164558  0.72583140  1
  O  O388  1  0.53257959  0.39164558  0.22583140  1
  O  O389  1  0.53257959  0.39164558  0.72583140  1
  O  O390  1  0.78257959  0.14164558  0.22583140  1
  O  O391  1  0.78257959  0.14164558  0.72583140  1
  O  O392  1  0.03257959  0.39164558  0.22583140  1
  O  O393  1  0.03257959  0.39164558  0.72583140  1
  O  O394  1  0.28257959  0.14164558  0.22583140  1
  O  O395  1  0.28257959  0.14164558  0.72583140  1
  O  O396  1  0.53257959  -0.10835442  0.22583140  1
  O  O397  1  0.53257959  -0.10835442  0.72583140  1
  O  O398  1  0.03257959  -0.10835442  0.22583140  1
  O  O399  1  0.03257959  -0.10835442  0.72583140  1
  O  O400  1  0.78257959  0.39164558  0.47583140  1
  O  O401  1  0.78257959  0.39164558  0.97583140  1
  O  O402  1  0.28257959  0.39164558  0.47583140  1
  O  O403  1  0.28257959  0.39164558  0.97583140  1
  O  O404  1  0.53257959  0.14164558  0.47583140  1
  O  O405  1  0.53257959  0.14164558  0.97583140  1
  O  O406  1  0.78257959  -0.10835442  0.47583140  1
  O  O407  1  0.78257959  -0.10835442  0.97583140  1
  O  O408  1  0.03257959  0.14164558  0.47583140  1
  O  O409  1  0.03257959  0.14164558  0.97583140  1
  O  O410  1  0.28257959  -0.10835442  0.47583140  1
  O  O411  1  0.28257959  -0.10835442  0.97583140  1
  O  O412  1  0.53257959  -0.35835442  0.47583140  1
  O  O413  1  0.53257959  -0.35835442  0.97583140  1
  O  O414  1  0.03257959  -0.35835442  0.47583140  1
  O  O415  1  0.03257959  -0.35835442  0.97583140  1
  O  O416  1  0.73335442  0.65757959  0.10083140  1
  O  O417  1  0.73335442  0.65757959  0.60083140  1
  O  O418  1  0.23335442  0.65757959  0.10083140  1
  O  O419  1  0.23335442  0.65757959  0.60083140  1
  O  O420  1  0.48335442  0.40757959  0.10083140  1
  O  O421  1  0.48335442  0.40757959  0.60083140  1
  O  O422  1  0.73335442  0.15757959  0.10083140  1
  O  O423  1  0.73335442  0.15757959  0.60083140  1
  O  O424  1  -0.01664558  0.40757959  0.10083140  1
  O  O425  1  -0.01664558  0.40757959  0.60083140  1
  O  O426  1  0.23335442  0.15757959  0.10083140  1
  O  O427  1  0.23335442  0.15757959  0.60083140  1
  O  O428  1  0.48335442  -0.09242041  0.10083140  1
  O  O429  1  0.48335442  -0.09242041  0.60083140  1
  O  O430  1  -0.01664558  -0.09242041  0.10083140  1
  O  O431  1  -0.01664558  -0.09242041  0.60083140  1
  O  O432  1  0.73335442  0.40757959  0.35083140  1
  O  O433  1  0.73335442  0.40757959  0.85083140  1
  O  O434  1  0.23335442  0.40757959  0.35083140  1
  O  O435  1  0.23335442  0.40757959  0.85083140  1
  O  O436  1  0.48335442  0.15757959  0.35083140  1
  O  O437  1  0.48335442  0.15757959  0.85083140  1
  O  O438  1  0.73335442  -0.09242041  0.35083140  1
  O  O439  1  0.73335442  -0.09242041  0.85083140  1
  O  O440  1  -0.01664558  0.15757959  0.35083140  1
  O  O441  1  -0.01664558  0.15757959  0.85083140  1
  O  O442  1  0.23335442  -0.09242041  0.35083140  1
  O  O443  1  0.23335442  -0.09242041  0.85083140  1
  O  O444  1  0.48335442  -0.34242041  0.35083140  1
  O  O445  1  0.48335442  -0.34242041  0.85083140  1
  O  O446  1  -0.01664558  -0.34242041  0.35083140  1
  O  O447  1  -0.01664558  -0.34242041  0.85083140  1
