# generated using pymatgen
data_Na3ReO5
_symmetry_space_group_name_H-M   'P 1'
_cell_length_a   16.38570821
_cell_length_b   16.38570821
_cell_length_c   13.55146211
_cell_angle_alpha   90.00000000
_cell_angle_beta   90.00000000
_cell_angle_gamma   120.00000000
_symmetry_Int_Tables_number   1
_chemical_formula_structural   Na3ReO5
_chemical_formula_sum   'Na81 Re27 O135'
_cell_volume   3150.99141748
_cell_formula_units_Z   27
loop_
 _symmetry_equiv_pos_site_id
 _symmetry_equiv_pos_as_xyz
  1  'x, y, z'
loop_
 _atom_site_type_symbol
 _atom_site_label
 _atom_site_symmetry_multiplicity
 _atom_site_fract_x
 _atom_site_fract_y
 _atom_site_fract_z
 _atom_site_occupancy
  Na  Na0  1  0.20740714  0.30889691  0.58272840  1
  Na  Na1  1  0.20740714  0.64223025  0.58272840  1
  Na  Na2  1  0.20740714  0.97556358  0.58272840  1
  Na  Na3  1  0.54074047  0.30889691  0.58272840  1
  Na  Na4  1  0.54074047  0.64223025  0.58272840  1
  Na  Na5  1  0.54074047  0.97556358  0.58272840  1
  Na  Na6  1  0.87407381  0.30889691  0.58272840  1
  Na  Na7  1  0.87407381  0.64223025  0.58272840  1
  Na  Na8  1  0.87407381  0.97556358  0.58272840  1
  Na  Na9  1  0.10148977  0.12592619  0.24939507  1
  Na  Na10  1  0.10148977  0.45925953  0.24939507  1
  Na  Na11  1  0.10148977  0.79259286  0.24939507  1
  Na  Na12  1  0.43482311  0.12592619  0.24939507  1
  Na  Na13  1  0.43482311  0.45925953  0.24939507  1
  Na  Na14  1  0.43482311  0.79259286  0.24939507  1
  Na  Na15  1  0.76815644  0.12592619  0.24939507  1
  Na  Na16  1  0.76815644  0.45925953  0.24939507  1
  Na  Na17  1  0.76815644  0.79259286  0.24939507  1
  Na  Na18  1  0.02443642  0.23184356  0.91606174  1
  Na  Na19  1  0.02443642  0.56517689  0.91606174  1
  Na  Na20  1  0.02443642  0.89851023  0.91606174  1
  Na  Na21  1  0.35776975  0.23184356  0.91606174  1
  Na  Na22  1  0.35776975  0.56517689  0.91606174  1
  Na  Na23  1  0.35776975  0.89851023  0.91606174  1
  Na  Na24  1  0.69110309  0.23184356  0.91606174  1
  Na  Na25  1  0.69110309  0.56517689  0.91606174  1
  Na  Na26  1  0.69110309  0.89851023  0.91606174  1
  Na  Na27  1  0.23184356  0.02443642  0.08393826  1
  Na  Na28  1  0.23184356  0.35776975  0.08393826  1
  Na  Na29  1  0.23184356  0.69110309  0.08393826  1
  Na  Na30  1  0.56517689  0.02443642  0.08393826  1
  Na  Na31  1  0.56517689  0.35776975  0.08393826  1
  Na  Na32  1  0.56517689  0.69110309  0.08393826  1
  Na  Na33  1  0.89851023  0.02443642  0.08393826  1
  Na  Na34  1  0.89851023  0.35776975  0.08393826  1
  Na  Na35  1  0.89851023  0.69110309  0.08393826  1
  Na  Na36  1  0.12592619  0.10148977  0.75060493  1
  Na  Na37  1  0.12592619  0.43482311  0.75060493  1
  Na  Na38  1  0.12592619  0.76815644  0.75060493  1
  Na  Na39  1  0.45925953  0.10148977  0.75060493  1
  Na  Na40  1  0.45925953  0.43482311  0.75060493  1
  Na  Na41  1  0.45925953  0.76815644  0.75060493  1
  Na  Na42  1  0.79259286  0.10148977  0.75060493  1
  Na  Na43  1  0.79259286  0.43482311  0.75060493  1
  Na  Na44  1  0.79259286  0.76815644  0.75060493  1
  Na  Na45  1  0.30889691  0.20740714  0.41727160  1
  Na  Na46  1  0.30889691  0.54074047  0.41727160  1
  Na  Na47  1  0.30889691  0.87407381  0.41727160  1
  Na  Na48  1  0.64223025  0.20740714  0.41727160  1
  Na  Na49  1  0.64223025  0.54074047  0.41727160  1
  Na  Na50  1  0.64223025  0.87407381  0.41727160  1
  Na  Na51  1  0.97556358  0.20740714  0.41727160  1
  Na  Na52  1  0.97556358  0.54074047  0.41727160  1
  Na  Na53  1  0.97556358  0.87407381  0.41727160  1
  Na  Na54  1  0.00000000  0.24091478  0.16666667  1
  Na  Na55  1  -0.00000000  0.57424812  0.16666667  1
  Na  Na56  1  -0.00000000  0.90758145  0.16666667  1
  Na  Na57  1  0.33333333  0.24091478  0.16666667  1
  Na  Na58  1  0.33333333  0.57424812  0.16666667  1
  Na  Na59  1  0.33333333  0.90758145  0.16666667  1
  Na  Na60  1  0.66666667  0.24091478  0.16666667  1
  Na  Na61  1  0.66666667  0.57424812  0.16666667  1
  Na  Na62  1  0.66666667  0.90758145  0.16666667  1
  Na  Na63  1  0.24091478  0.00000000  0.83333333  1
  Na  Na64  1  0.24091478  0.33333333  0.83333333  1
  Na  Na65  1  0.24091478  0.66666667  0.83333333  1
  Na  Na66  1  0.57424812  0.00000000  0.83333333  1
  Na  Na67  1  0.57424812  0.33333333  0.83333333  1
  Na  Na68  1  0.57424812  0.66666667  0.83333333  1
  Na  Na69  1  0.90758145  0.00000000  0.83333333  1
  Na  Na70  1  0.90758145  0.33333333  0.83333333  1
  Na  Na71  1  0.90758145  0.66666667  0.83333333  1
  Na  Na72  1  0.09241855  0.09241855  0.50000000  1
  Na  Na73  1  0.09241855  0.42575188  0.50000000  1
  Na  Na74  1  0.09241855  0.75908522  0.50000000  1
  Na  Na75  1  0.42575188  0.09241855  0.50000000  1
  Na  Na76  1  0.42575188  0.42575188  0.50000000  1
  Na  Na77  1  0.42575188  0.75908522  0.50000000  1
  Na  Na78  1  0.75908522  0.09241855  0.50000000  1
  Na  Na79  1  0.75908522  0.42575188  0.50000000  1
  Na  Na80  1  0.75908522  0.75908522  0.50000000  1
  Re  Re81  1  0.00000000  0.20808680  0.66666667  1
  Re  Re82  1  -0.00000000  0.54142013  0.66666667  1
  Re  Re83  1  -0.00000000  0.87475347  0.66666667  1
  Re  Re84  1  0.33333333  0.20808680  0.66666667  1
  Re  Re85  1  0.33333333  0.54142013  0.66666667  1
  Re  Re86  1  0.33333333  0.87475347  0.66666667  1
  Re  Re87  1  0.66666667  0.20808680  0.66666667  1
  Re  Re88  1  0.66666667  0.54142013  0.66666667  1
  Re  Re89  1  0.66666667  0.87475347  0.66666667  1
  Re  Re90  1  0.20808680  0.00000000  0.33333333  1
  Re  Re91  1  0.20808680  0.33333333  0.33333333  1
  Re  Re92  1  0.20808680  0.66666667  0.33333333  1
  Re  Re93  1  0.54142013  0.00000000  0.33333333  1
  Re  Re94  1  0.54142013  0.33333333  0.33333333  1
  Re  Re95  1  0.54142013  0.66666667  0.33333333  1
  Re  Re96  1  0.87475347  0.00000000  0.33333333  1
  Re  Re97  1  0.87475347  0.33333333  0.33333333  1
  Re  Re98  1  0.87475347  0.66666667  0.33333333  1
  Re  Re99  1  0.12524653  0.12524653  0.00000000  1
  Re  Re100  1  0.12524653  0.45857987  0.00000000  1
  Re  Re101  1  0.12524653  0.79191320  0.00000000  1
  Re  Re102  1  0.45857987  0.12524653  0.00000000  1
  Re  Re103  1  0.45857987  0.45857987  0.00000000  1
  Re  Re104  1  0.45857987  0.79191320  0.00000000  1
  Re  Re105  1  0.79191320  0.12524653  0.00000000  1
  Re  Re106  1  0.79191320  0.45857987  0.00000000  1
  Re  Re107  1  0.79191320  0.79191320  0.00000000  1
  O  O108  1  0.05327309  0.16789653  0.06269355  1
  O  O109  1  0.05327309  0.50122987  0.06269355  1
  O  O110  1  0.05327309  0.83456320  0.06269355  1
  O  O111  1  0.38660642  0.16789653  0.06269355  1
  O  O112  1  0.38660642  0.50122987  0.06269355  1
  O  O113  1  0.38660642  0.83456320  0.06269355  1
  O  O114  1  0.71993976  0.16789653  0.06269355  1
  O  O115  1  0.71993976  0.50122987  0.06269355  1
  O  O116  1  0.71993976  0.83456320  0.06269355  1
  O  O117  1  0.11462344  0.28006024  0.72936022  1
  O  O118  1  0.11462344  0.61339358  0.72936022  1
  O  O119  1  0.11462344  0.94672691  0.72936022  1
  O  O120  1  0.44795678  0.28006024  0.72936022  1
  O  O121  1  0.44795678  0.61339358  0.72936022  1
  O  O122  1  0.44795678  0.94672691  0.72936022  1
  O  O123  1  0.78129011  0.28006024  0.72936022  1
  O  O124  1  0.78129011  0.61339358  0.72936022  1
  O  O125  1  0.78129011  0.94672691  0.72936022  1
  O  O126  1  0.16543680  0.21870989  0.39602688  1
  O  O127  1  0.16543680  0.55204322  0.39602688  1
  O  O128  1  0.16543680  0.88537656  0.39602688  1
  O  O129  1  0.49877013  0.21870989  0.39602688  1
  O  O130  1  0.49877013  0.55204322  0.39602688  1
  O  O131  1  0.49877013  0.88537656  0.39602688  1
  O  O132  1  0.83210347  0.21870989  0.39602688  1
  O  O133  1  0.83210347  0.55204322  0.39602688  1
  O  O134  1  0.83210347  0.88537656  0.39602688  1
  O  O135  1  -0.00000000  0.09895534  0.66666667  1
  O  O136  1  -0.00000000  0.43228867  0.66666667  1
  O  O137  1  -0.00000000  0.76562200  0.66666667  1
  O  O138  1  0.33333333  0.09895534  0.66666667  1
  O  O139  1  0.33333333  0.43228867  0.66666667  1
  O  O140  1  0.33333333  0.76562200  0.66666667  1
  O  O141  1  0.66666667  0.09895534  0.66666667  1
  O  O142  1  0.66666667  0.43228867  0.66666667  1
  O  O143  1  0.66666667  0.76562200  0.66666667  1
  O  O144  1  0.09895534  0.00000000  0.33333333  1
  O  O145  1  0.09895534  0.33333333  0.33333333  1
  O  O146  1  0.09895534  0.66666667  0.33333333  1
  O  O147  1  0.43228867  0.00000000  0.33333333  1
  O  O148  1  0.43228867  0.33333333  0.33333333  1
  O  O149  1  0.43228867  0.66666667  0.33333333  1
  O  O150  1  0.76562200  0.00000000  0.33333333  1
  O  O151  1  0.76562200  0.33333333  0.33333333  1
  O  O152  1  0.76562200  0.66666667  0.33333333  1
  O  O153  1  0.23437800  0.23437800  0.00000000  1
  O  O154  1  0.23437800  0.56771133  0.00000000  1
  O  O155  1  0.23437800  0.90104466  0.00000000  1
  O  O156  1  0.56771133  0.23437800  0.00000000  1
  O  O157  1  0.56771133  0.56771133  0.00000000  1
  O  O158  1  0.56771133  0.90104466  0.00000000  1
  O  O159  1  0.90104466  0.23437800  0.00000000  1
  O  O160  1  0.90104466  0.56771133  0.00000000  1
  O  O161  1  0.90104466  0.90104466  0.00000000  1
  O  O162  1  0.21870989  0.16543680  0.60397312  1
  O  O163  1  0.21870989  0.49877013  0.60397312  1
  O  O164  1  0.21870989  0.83210347  0.60397312  1
  O  O165  1  0.55204322  0.16543680  0.60397312  1
  O  O166  1  0.55204322  0.49877013  0.60397312  1
  O  O167  1  0.55204322  0.83210347  0.60397312  1
  O  O168  1  0.88537656  0.16543680  0.60397312  1
  O  O169  1  0.88537656  0.49877013  0.60397312  1
  O  O170  1  0.88537656  0.83210347  0.60397312  1
  O  O171  1  0.28006024  0.11462344  0.27063978  1
  O  O172  1  0.28006024  0.44795678  0.27063978  1
  O  O173  1  0.28006024  0.78129011  0.27063978  1
  O  O174  1  0.61339358  0.11462344  0.27063978  1
  O  O175  1  0.61339358  0.44795678  0.27063978  1
  O  O176  1  0.61339358  0.78129011  0.27063978  1
  O  O177  1  0.94672691  0.11462344  0.27063978  1
  O  O178  1  0.94672691  0.44795678  0.27063978  1
  O  O179  1  0.94672691  0.78129011  0.27063978  1
  O  O180  1  0.16789653  0.05327309  0.93730645  1
  O  O181  1  0.16789653  0.38660642  0.93730645  1
  O  O182  1  0.16789653  0.71993976  0.93730645  1
  O  O183  1  0.50122987  0.05327309  0.93730645  1
  O  O184  1  0.50122987  0.38660642  0.93730645  1
  O  O185  1  0.50122987  0.71993976  0.93730645  1
  O  O186  1  0.83456320  0.05327309  0.93730645  1
  O  O187  1  0.83456320  0.38660642  0.93730645  1
  O  O188  1  0.83456320  0.71993976  0.93730645  1
  O  O189  1  0.10800211  0.05305782  0.10905005  1
  O  O190  1  0.10800211  0.38639115  0.10905005  1
  O  O191  1  0.10800211  0.71972449  0.10905005  1
  O  O192  1  0.44133544  0.05305782  0.10905005  1
  O  O193  1  0.44133544  0.38639115  0.10905005  1
  O  O194  1  0.44133544  0.71972449  0.10905005  1
  O  O195  1  0.77466878  0.05305782  0.10905005  1
  O  O196  1  0.77466878  0.38639115  0.10905005  1
  O  O197  1  0.77466878  0.71972449  0.10905005  1
  O  O198  1  0.27838904  0.22533122  0.77571672  1
  O  O199  1  0.27838904  0.55866456  0.77571672  1
  O  O200  1  0.27838904  0.89199789  0.77571672  1
  O  O201  1  0.61172238  0.22533122  0.77571672  1
  O  O202  1  0.61172238  0.55866456  0.77571672  1
  O  O203  1  0.61172238  0.89199789  0.77571672  1
  O  O204  1  0.94505571  0.22533122  0.77571672  1
  O  O205  1  0.94505571  0.55866456  0.77571672  1
  O  O206  1  0.94505571  0.89199789  0.77571672  1
  O  O207  1  0.28027551  0.05494429  0.44238339  1
  O  O208  1  0.28027551  0.38827762  0.44238339  1
  O  O209  1  0.28027551  0.72161096  0.44238339  1
  O  O210  1  0.61360885  0.05494429  0.44238339  1
  O  O211  1  0.61360885  0.38827762  0.44238339  1
  O  O212  1  0.61360885  0.72161096  0.44238339  1
  O  O213  1  0.94694218  0.05494429  0.44238339  1
  O  O214  1  0.94694218  0.38827762  0.44238339  1
  O  O215  1  0.94694218  0.72161096  0.44238339  1
  O  O216  1  0.05494429  0.28027551  0.55761661  1
  O  O217  1  0.05494429  0.61360885  0.55761661  1
  O  O218  1  0.05494429  0.94694218  0.55761661  1
  O  O219  1  0.38827762  0.28027551  0.55761661  1
  O  O220  1  0.38827762  0.61360885  0.55761661  1
  O  O221  1  0.38827762  0.94694218  0.55761661  1
  O  O222  1  0.72161096  0.28027551  0.55761661  1
  O  O223  1  0.72161096  0.61360885  0.55761661  1
  O  O224  1  0.72161096  0.94694218  0.55761661  1
  O  O225  1  0.05305782  0.10800211  0.89094995  1
  O  O226  1  0.05305782  0.44133544  0.89094995  1
  O  O227  1  0.05305782  0.77466878  0.89094995  1
  O  O228  1  0.38639115  0.10800211  0.89094995  1
  O  O229  1  0.38639115  0.44133544  0.89094995  1
  O  O230  1  0.38639115  0.77466878  0.89094995  1
  O  O231  1  0.71972449  0.10800211  0.89094995  1
  O  O232  1  0.71972449  0.44133544  0.89094995  1
  O  O233  1  0.71972449  0.77466878  0.89094995  1
  O  O234  1  0.22533122  0.27838904  0.22428328  1
  O  O235  1  0.22533122  0.61172238  0.22428328  1
  O  O236  1  0.22533122  0.94505571  0.22428328  1
  O  O237  1  0.55866456  0.27838904  0.22428328  1
  O  O238  1  0.55866456  0.61172238  0.22428328  1
  O  O239  1  0.55866456  0.94505571  0.22428328  1
  O  O240  1  0.89199789  0.27838904  0.22428328  1
  O  O241  1  0.89199789  0.61172238  0.22428328  1
  O  O242  1  0.89199789  0.94505571  0.22428328  1
