# generated using pymatgen
data_Pb3O4
_symmetry_space_group_name_H-M   'P 1'
_cell_length_a   12.45088240
_cell_length_b   12.45088240
_cell_length_c   13.39773329
_cell_angle_alpha   90.00000000
_cell_angle_beta   90.00000000
_cell_angle_gamma   90.00000000
_symmetry_Int_Tables_number   1
_chemical_formula_structural   Pb3O4
_chemical_formula_sum   'Pb48 O64'
_cell_volume   2076.97653498
_cell_formula_units_Z   16
loop_
 _symmetry_equiv_pos_site_id
 _symmetry_equiv_pos_as_xyz
  1  'x, y, z'
loop_
 _atom_site_type_symbol
 _atom_site_label
 _atom_site_symmetry_multiplicity
 _atom_site_fract_x
 _atom_site_fract_y
 _atom_site_fract_z
 _atom_site_occupancy
  Pb  Pb0  1  0.25000000  -0.25000000  0.12500000  1
  Pb  Pb1  1  0.25000000  -0.25000000  0.62500000  1
  Pb  Pb2  1  0.75000000  0.25000000  0.12500000  1
  Pb  Pb3  1  0.75000000  0.25000000  0.62500000  1
  Pb  Pb4  1  0.25000000  0.25000000  0.37500000  1
  Pb  Pb5  1  0.25000000  0.25000000  0.87500000  1
  Pb  Pb6  1  0.75000000  0.75000000  0.37500000  1
  Pb  Pb7  1  0.75000000  0.75000000  0.87500000  1
  Pb  Pb8  1  0.25000000  -0.25000000  0.37500000  1
  Pb  Pb9  1  0.25000000  -0.25000000  0.87500000  1
  Pb  Pb10  1  0.75000000  0.25000000  0.37500000  1
  Pb  Pb11  1  0.75000000  0.25000000  0.87500000  1
  Pb  Pb12  1  0.25000000  0.25000000  0.12500000  1
  Pb  Pb13  1  0.25000000  0.25000000  0.62500000  1
  Pb  Pb14  1  0.75000000  0.75000000  0.12500000  1
  Pb  Pb15  1  0.75000000  0.75000000  0.62500000  1
  Pb  Pb16  1  0.15234639  0.01008748  0.00000000  1
  Pb  Pb17  1  0.15234639  0.01008748  0.50000000  1
  Pb  Pb18  1  0.65234639  0.51008748  0.00000000  1
  Pb  Pb19  1  0.65234639  0.51008748  0.50000000  1
  Pb  Pb20  1  0.51008748  0.34765361  0.25000000  1
  Pb  Pb21  1  0.51008748  0.34765361  0.75000000  1
  Pb  Pb22  1  1.01008748  0.84765361  0.25000000  1
  Pb  Pb23  1  1.01008748  0.84765361  0.75000000  1
  Pb  Pb24  1  0.48991252  -0.34765361  0.25000000  1
  Pb  Pb25  1  0.48991252  -0.34765361  0.75000000  1
  Pb  Pb26  1  0.98991252  0.15234639  0.25000000  1
  Pb  Pb27  1  0.98991252  0.15234639  0.75000000  1
  Pb  Pb28  1  0.84765361  -0.01008748  0.00000000  1
  Pb  Pb29  1  0.84765361  -0.01008748  0.50000000  1
  Pb  Pb30  1  1.34765361  0.48991252  0.00000000  1
  Pb  Pb31  1  1.34765361  0.48991252  0.50000000  1
  Pb  Pb32  1  0.51008748  0.15234639  0.00000000  1
  Pb  Pb33  1  0.51008748  0.15234639  0.50000000  1
  Pb  Pb34  1  1.01008748  0.65234639  0.00000000  1
  Pb  Pb35  1  1.01008748  0.65234639  0.50000000  1
  Pb  Pb36  1  0.48991252  -0.15234639  0.00000000  1
  Pb  Pb37  1  0.48991252  -0.15234639  0.50000000  1
  Pb  Pb38  1  0.98991252  0.34765361  0.00000000  1
  Pb  Pb39  1  0.98991252  0.34765361  0.50000000  1
  Pb  Pb40  1  0.65234639  -0.01008748  0.25000000  1
  Pb  Pb41  1  0.65234639  -0.01008748  0.75000000  1
  Pb  Pb42  1  1.15234639  0.48991252  0.25000000  1
  Pb  Pb43  1  1.15234639  0.48991252  0.75000000  1
  Pb  Pb44  1  0.34765361  0.01008748  0.25000000  1
  Pb  Pb45  1  0.34765361  0.01008748  0.75000000  1
  Pb  Pb46  1  0.84765361  0.51008748  0.25000000  1
  Pb  Pb47  1  0.84765361  0.51008748  0.75000000  1
  O  O48  1  0.42354886  -0.25000000  0.12500000  1
  O  O49  1  0.42354886  -0.25000000  0.62500000  1
  O  O50  1  0.92354886  0.25000000  0.12500000  1
  O  O51  1  0.92354886  0.25000000  0.62500000  1
  O  O52  1  0.25000000  0.07645114  0.37500000  1
  O  O53  1  0.25000000  0.07645114  0.87500000  1
  O  O54  1  0.75000000  0.57645114  0.37500000  1
  O  O55  1  0.75000000  0.57645114  0.87500000  1
  O  O56  1  0.75000000  -0.07645114  0.37500000  1
  O  O57  1  0.75000000  -0.07645114  0.87500000  1
  O  O58  1  1.25000000  0.42354886  0.37500000  1
  O  O59  1  1.25000000  0.42354886  0.87500000  1
  O  O60  1  0.57645114  0.25000000  0.12500000  1
  O  O61  1  0.57645114  0.25000000  0.62500000  1
  O  O62  1  1.07645114  0.75000000  0.12500000  1
  O  O63  1  1.07645114  0.75000000  0.62500000  1
  O  O64  1  0.57645114  0.25000000  0.37500000  1
  O  O65  1  0.57645114  0.25000000  0.87500000  1
  O  O66  1  1.07645114  0.75000000  0.37500000  1
  O  O67  1  1.07645114  0.75000000  0.87500000  1
  O  O68  1  0.75000000  -0.07645114  0.12500000  1
  O  O69  1  0.75000000  -0.07645114  0.62500000  1
  O  O70  1  1.25000000  0.42354886  0.12500000  1
  O  O71  1  1.25000000  0.42354886  0.62500000  1
  O  O72  1  0.25000000  0.07645114  0.12500000  1
  O  O73  1  0.25000000  0.07645114  0.62500000  1
  O  O74  1  0.75000000  0.57645114  0.12500000  1
  O  O75  1  0.75000000  0.57645114  0.62500000  1
  O  O76  1  0.42354886  -0.25000000  0.37500000  1
  O  O77  1  0.42354886  -0.25000000  0.87500000  1
  O  O78  1  0.92354886  0.25000000  0.37500000  1
  O  O79  1  0.92354886  0.25000000  0.87500000  1
  O  O80  1  0.27382351  -0.13430668  0.00000000  1
  O  O81  1  0.27382351  -0.13430668  0.50000000  1
  O  O82  1  0.77382351  0.36569332  0.00000000  1
  O  O83  1  0.77382351  0.36569332  0.50000000  1
  O  O84  1  0.36569332  0.22617649  0.25000000  1
  O  O85  1  0.36569332  0.22617649  0.75000000  1
  O  O86  1  0.86569332  0.72617649  0.25000000  1
  O  O87  1  0.86569332  0.72617649  0.75000000  1
  O  O88  1  0.63430668  -0.22617649  0.25000000  1
  O  O89  1  0.63430668  -0.22617649  0.75000000  1
  O  O90  1  1.13430668  0.27382351  0.25000000  1
  O  O91  1  1.13430668  0.27382351  0.75000000  1
  O  O92  1  0.72617649  0.13430668  0.00000000  1
  O  O93  1  0.72617649  0.13430668  0.50000000  1
  O  O94  1  1.22617649  0.63430668  0.00000000  1
  O  O95  1  1.22617649  0.63430668  0.50000000  1
  O  O96  1  0.36569332  0.27382351  0.00000000  1
  O  O97  1  0.36569332  0.27382351  0.50000000  1
  O  O98  1  0.86569332  0.77382351  0.00000000  1
  O  O99  1  0.86569332  0.77382351  0.50000000  1
  O  O100  1  0.63430668  -0.27382351  0.00000000  1
  O  O101  1  0.63430668  -0.27382351  0.50000000  1
  O  O102  1  1.13430668  0.22617649  0.00000000  1
  O  O103  1  1.13430668  0.22617649  0.50000000  1
  O  O104  1  0.77382351  0.13430668  0.25000000  1
  O  O105  1  0.77382351  0.13430668  0.75000000  1
  O  O106  1  1.27382351  0.63430668  0.25000000  1
  O  O107  1  1.27382351  0.63430668  0.75000000  1
  O  O108  1  0.22617649  -0.13430668  0.25000000  1
  O  O109  1  0.22617649  -0.13430668  0.75000000  1
  O  O110  1  0.72617649  0.36569332  0.25000000  1
  O  O111  1  0.72617649  0.36569332  0.75000000  1
