# generated using pymatgen
data_CsBO2
_symmetry_space_group_name_H-M   'P 1'
_cell_length_a   13.61030645
_cell_length_b   13.61030645
_cell_length_c   16.56949657
_cell_angle_alpha   90.00000000
_cell_angle_beta   90.00000000
_cell_angle_gamma   120.00000000
_symmetry_Int_Tables_number   1
_chemical_formula_structural   CsBO2
_chemical_formula_sum   'Cs36 B36 O72'
_cell_volume   2658.12715979
_cell_formula_units_Z   36
loop_
 _symmetry_equiv_pos_site_id
 _symmetry_equiv_pos_as_xyz
  1  'x, y, z'
loop_
 _atom_site_type_symbol
 _atom_site_label
 _atom_site_symmetry_multiplicity
 _atom_site_fract_x
 _atom_site_fract_y
 _atom_site_fract_z
 _atom_site_occupancy
  Cs  Cs0  1  0.22581698  0.33333333  0.29166667  1
  Cs  Cs1  1  0.22581698  0.33333333  0.79166667  1
  Cs  Cs2  1  0.89248365  0.66666667  0.45833333  1
  Cs  Cs3  1  0.89248365  0.66666667  0.95833333  1
  Cs  Cs4  1  0.55915032  1.00000000  0.62500000  1
  Cs  Cs5  1  0.55915032  1.00000000  1.12500000  1
  Cs  Cs6  1  0.10751635  -0.22581698  0.29166667  1
  Cs  Cs7  1  0.10751635  -0.22581698  0.79166667  1
  Cs  Cs8  1  0.77418302  0.10751635  0.45833333  1
  Cs  Cs9  1  0.77418302  0.10751635  0.95833333  1
  Cs  Cs10  1  0.44084968  0.44084968  0.62500000  1
  Cs  Cs11  1  0.44084968  0.44084968  1.12500000  1
  Cs  Cs12  1  -0.22581698  -0.33333333  0.20833333  1
  Cs  Cs13  1  -0.22581698  -0.33333333  0.70833333  1
  Cs  Cs14  1  0.44084968  -0.00000000  0.37500000  1
  Cs  Cs15  1  0.44084968  -0.00000000  0.87500000  1
  Cs  Cs16  1  0.10751635  0.33333333  0.54166667  1
  Cs  Cs17  1  0.10751635  0.33333333  1.04166667  1
  Cs  Cs18  1  0.33333333  0.10751635  0.20833333  1
  Cs  Cs19  1  0.33333333  0.10751635  0.70833333  1
  Cs  Cs20  1  1.00000000  0.44084968  0.37500000  1
  Cs  Cs21  1  1.00000000  0.44084968  0.87500000  1
  Cs  Cs22  1  0.66666667  0.77418302  0.54166667  1
  Cs  Cs23  1  0.66666667  0.77418302  1.04166667  1
  Cs  Cs24  1  -0.33333333  -0.10751635  0.29166667  1
  Cs  Cs25  1  -0.33333333  -0.10751635  0.79166667  1
  Cs  Cs26  1  0.33333333  0.22581698  0.45833333  1
  Cs  Cs27  1  0.33333333  0.22581698  0.95833333  1
  Cs  Cs28  1  -0.00000000  0.55915032  0.62500000  1
  Cs  Cs29  1  -0.00000000  0.55915032  1.12500000  1
  Cs  Cs30  1  -0.10751635  0.22581698  0.20833333  1
  Cs  Cs31  1  -0.10751635  0.22581698  0.70833333  1
  Cs  Cs32  1  0.55915032  0.55915032  0.37500000  1
  Cs  Cs33  1  0.55915032  0.55915032  0.87500000  1
  Cs  Cs34  1  0.22581698  0.89248365  0.54166667  1
  Cs  Cs35  1  0.22581698  0.89248365  1.04166667  1
  B  B36  1  0.10662722  0.10662722  0.12500000  1
  B  B37  1  0.10662722  0.10662722  0.62500000  1
  B  B38  1  0.77329389  0.43996056  0.29166667  1
  B  B39  1  0.77329389  0.43996056  0.79166667  1
  B  B40  1  0.43996056  0.77329389  0.45833333  1
  B  B41  1  0.43996056  0.77329389  0.95833333  1
  B  B42  1  0.00000000  0.10662722  0.37500000  1
  B  B43  1  0.00000000  0.10662722  0.87500000  1
  B  B44  1  0.66666667  0.43996056  0.54166667  1
  B  B45  1  0.66666667  0.43996056  1.04166667  1
  B  B46  1  0.33333333  0.77329389  0.70833333  1
  B  B47  1  0.33333333  0.77329389  1.20833333  1
  B  B48  1  0.10662722  0.00000000  0.37500000  1
  B  B49  1  0.10662722  0.00000000  0.87500000  1
  B  B50  1  0.77329389  0.33333333  0.54166667  1
  B  B51  1  0.77329389  0.33333333  1.04166667  1
  B  B52  1  0.43996056  0.66666667  0.70833333  1
  B  B53  1  0.43996056  0.66666667  1.20833333  1
  B  B54  1  -0.10662722  -0.10662722  0.37500000  1
  B  B55  1  -0.10662722  -0.10662722  0.87500000  1
  B  B56  1  0.56003944  0.22670611  0.54166667  1
  B  B57  1  0.56003944  0.22670611  1.04166667  1
  B  B58  1  0.22670611  0.56003944  0.70833333  1
  B  B59  1  0.22670611  0.56003944  1.20833333  1
  B  B60  1  -0.10662722  0.00000000  0.12500000  1
  B  B61  1  -0.10662722  0.00000000  0.62500000  1
  B  B62  1  0.56003944  0.33333333  0.29166667  1
  B  B63  1  0.56003944  0.33333333  0.79166667  1
  B  B64  1  0.22670611  0.66666667  0.45833333  1
  B  B65  1  0.22670611  0.66666667  0.95833333  1
  B  B66  1  -0.00000000  -0.10662722  0.12500000  1
  B  B67  1  -0.00000000  -0.10662722  0.62500000  1
  B  B68  1  0.66666667  0.22670611  0.29166667  1
  B  B69  1  0.66666667  0.22670611  0.79166667  1
  B  B70  1  0.33333333  0.56003944  0.45833333  1
  B  B71  1  0.33333333  0.56003944  0.95833333  1
  O  O72  1  0.10189552  -0.00000000  0.12500000  1
  O  O73  1  0.10189552  -0.00000000  0.62500000  1
  O  O74  1  0.76856219  0.33333333  0.29166667  1
  O  O75  1  0.76856219  0.33333333  0.79166667  1
  O  O76  1  0.43522886  0.66666667  0.45833333  1
  O  O77  1  0.43522886  0.66666667  0.95833333  1
  O  O78  1  0.10189552  0.10189552  0.37500000  1
  O  O79  1  0.10189552  0.10189552  0.87500000  1
  O  O80  1  0.76856219  0.43522886  0.54166667  1
  O  O81  1  0.76856219  0.43522886  1.04166667  1
  O  O82  1  0.43522886  0.76856219  0.70833333  1
  O  O83  1  0.43522886  0.76856219  1.20833333  1
  O  O84  1  -0.10189552  0.00000000  0.37500000  1
  O  O85  1  -0.10189552  0.00000000  0.87500000  1
  O  O86  1  0.56477114  0.33333333  0.54166667  1
  O  O87  1  0.56477114  0.33333333  1.04166667  1
  O  O88  1  0.23143781  0.66666667  0.70833333  1
  O  O89  1  0.23143781  0.66666667  1.20833333  1
  O  O90  1  0.20403012  0.00000000  0.37500000  1
  O  O91  1  0.20403012  0.00000000  0.87500000  1
  O  O92  1  0.87069679  0.33333333  0.54166667  1
  O  O93  1  0.87069679  0.33333333  1.04166667  1
  O  O94  1  0.53736346  0.66666667  0.70833333  1
  O  O95  1  0.53736346  0.66666667  1.20833333  1
  O  O96  1  0.20403012  0.20403012  0.12500000  1
  O  O97  1  0.20403012  0.20403012  0.62500000  1
  O  O98  1  0.87069679  0.53736346  0.29166667  1
  O  O99  1  0.87069679  0.53736346  0.79166667  1
  O  O100  1  0.53736346  0.87069679  0.45833333  1
  O  O101  1  0.53736346  0.87069679  0.95833333  1
  O  O102  1  -0.00000000  -0.20403012  0.12500000  1
  O  O103  1  -0.00000000  -0.20403012  0.62500000  1
  O  O104  1  0.66666667  0.12930321  0.29166667  1
  O  O105  1  0.66666667  0.12930321  0.79166667  1
  O  O106  1  0.33333333  0.46263654  0.45833333  1
  O  O107  1  0.33333333  0.46263654  0.95833333  1
  O  O108  1  -0.20403012  -0.20403012  0.37500000  1
  O  O109  1  -0.20403012  -0.20403012  0.87500000  1
  O  O110  1  0.46263654  0.12930321  0.54166667  1
  O  O111  1  0.46263654  0.12930321  1.04166667  1
  O  O112  1  0.12930321  0.46263654  0.70833333  1
  O  O113  1  0.12930321  0.46263654  1.20833333  1
  O  O114  1  -0.10189552  -0.10189552  0.12500000  1
  O  O115  1  -0.10189552  -0.10189552  0.62500000  1
  O  O116  1  0.56477114  0.23143781  0.29166667  1
  O  O117  1  0.56477114  0.23143781  0.79166667  1
  O  O118  1  0.23143781  0.56477114  0.45833333  1
  O  O119  1  0.23143781  0.56477114  0.95833333  1
  O  O120  1  -0.00000000  -0.10189552  0.37500000  1
  O  O121  1  -0.00000000  -0.10189552  0.87500000  1
  O  O122  1  0.66666667  0.23143781  0.54166667  1
  O  O123  1  0.66666667  0.23143781  1.04166667  1
  O  O124  1  0.33333333  0.56477114  0.70833333  1
  O  O125  1  0.33333333  0.56477114  1.20833333  1
  O  O126  1  -0.00000000  0.10189552  0.12500000  1
  O  O127  1  -0.00000000  0.10189552  0.62500000  1
  O  O128  1  0.66666667  0.43522886  0.29166667  1
  O  O129  1  0.66666667  0.43522886  0.79166667  1
  O  O130  1  0.33333333  0.76856219  0.45833333  1
  O  O131  1  0.33333333  0.76856219  0.95833333  1
  O  O132  1  -0.20403012  -0.00000000  0.12500000  1
  O  O133  1  -0.20403012  -0.00000000  0.62500000  1
  O  O134  1  0.46263654  0.33333333  0.29166667  1
  O  O135  1  0.46263654  0.33333333  0.79166667  1
  O  O136  1  0.12930321  0.66666667  0.45833333  1
  O  O137  1  0.12930321  0.66666667  0.95833333  1
  O  O138  1  -0.00000000  0.20403012  0.37500000  1
  O  O139  1  -0.00000000  0.20403012  0.87500000  1
  O  O140  1  0.66666667  0.53736346  0.54166667  1
  O  O141  1  0.66666667  0.53736346  1.04166667  1
  O  O142  1  0.33333333  0.87069679  0.70833333  1
  O  O143  1  0.33333333  0.87069679  1.20833333  1
