# generated using pymatgen
data_NaLaO2
_symmetry_space_group_name_H-M   'P 1'
_cell_length_a   13.44762400
_cell_length_b   13.44762400
_cell_length_c   11.36179130
_cell_angle_alpha   90.00000000
_cell_angle_beta   90.00000000
_cell_angle_gamma   90.00000000
_symmetry_Int_Tables_number   1
_chemical_formula_structural   NaLaO2
_chemical_formula_sum   'Na32 La32 O64'
_cell_volume   2054.65033161
_cell_formula_units_Z   32
loop_
 _symmetry_equiv_pos_site_id
 _symmetry_equiv_pos_as_xyz
  1  'x, y, z'
loop_
 _atom_site_type_symbol
 _atom_site_label
 _atom_site_symmetry_multiplicity
 _atom_site_fract_x
 _atom_site_fract_y
 _atom_site_fract_z
 _atom_site_occupancy
  Na  Na0  1  0.75000000  0.75000000  0.50000000  1
  Na  Na1  1  0.25000000  0.75000000  0.50000000  1
  Na  Na2  1  0.50000000  0.50000000  0.50000000  1
  Na  Na3  1  0.75000000  0.25000000  0.50000000  1
  Na  Na4  1  -0.00000000  0.50000000  0.50000000  1
  Na  Na5  1  0.25000000  0.25000000  0.50000000  1
  Na  Na6  1  0.50000000  -0.00000000  0.50000000  1
  Na  Na7  1  0.00000000  0.00000000  0.50000000  1
  Na  Na8  1  0.75000000  0.50000000  1.00000000  1
  Na  Na9  1  0.25000000  0.50000000  1.00000000  1
  Na  Na10  1  0.50000000  0.25000000  1.00000000  1
  Na  Na11  1  0.75000000  -0.00000000  1.00000000  1
  Na  Na12  1  -0.00000000  0.25000000  1.00000000  1
  Na  Na13  1  0.25000000  -0.00000000  1.00000000  1
  Na  Na14  1  0.50000000  -0.25000000  1.00000000  1
  Na  Na15  1  0.00000000  -0.25000000  1.00000000  1
  Na  Na16  1  0.62500000  0.62500000  0.25000000  1
  Na  Na17  1  0.12500000  0.62500000  0.25000000  1
  Na  Na18  1  0.37500000  0.37500000  0.25000000  1
  Na  Na19  1  0.62500000  0.12500000  0.25000000  1
  Na  Na20  1  -0.12500000  0.37500000  0.25000000  1
  Na  Na21  1  0.12500000  0.12500000  0.25000000  1
  Na  Na22  1  0.37500000  -0.12500000  0.25000000  1
  Na  Na23  1  -0.12500000  -0.12500000  0.25000000  1
  Na  Na24  1  0.62500000  0.37500000  0.75000000  1
  Na  Na25  1  0.12500000  0.37500000  0.75000000  1
  Na  Na26  1  0.37500000  0.12500000  0.75000000  1
  Na  Na27  1  0.62500000  -0.12500000  0.75000000  1
  Na  Na28  1  -0.12500000  0.12500000  0.75000000  1
  Na  Na29  1  0.12500000  -0.12500000  0.75000000  1
  Na  Na30  1  0.37500000  -0.37500000  0.75000000  1
  Na  Na31  1  -0.12500000  -0.37500000  0.75000000  1
  La  La32  1  0.75000000  0.75000000  0.00000000  1
  La  La33  1  0.25000000  0.75000000  0.00000000  1
  La  La34  1  0.50000000  0.50000000  0.00000000  1
  La  La35  1  0.75000000  0.25000000  0.00000000  1
  La  La36  1  -0.00000000  0.50000000  0.00000000  1
  La  La37  1  0.25000000  0.25000000  0.00000000  1
  La  La38  1  0.50000000  -0.00000000  0.00000000  1
  La  La39  1  0.00000000  0.00000000  0.00000000  1
  La  La40  1  0.75000000  0.50000000  0.50000000  1
  La  La41  1  0.25000000  0.50000000  0.50000000  1
  La  La42  1  0.50000000  0.25000000  0.50000000  1
  La  La43  1  0.75000000  -0.00000000  0.50000000  1
  La  La44  1  -0.00000000  0.25000000  0.50000000  1
  La  La45  1  0.25000000  -0.00000000  0.50000000  1
  La  La46  1  0.50000000  -0.25000000  0.50000000  1
  La  La47  1  0.00000000  -0.25000000  0.50000000  1
  La  La48  1  0.87500000  0.62500000  0.25000000  1
  La  La49  1  0.37500000  0.62500000  0.25000000  1
  La  La50  1  0.62500000  0.37500000  0.25000000  1
  La  La51  1  0.87500000  0.12500000  0.25000000  1
  La  La52  1  0.12500000  0.37500000  0.25000000  1
  La  La53  1  0.37500000  0.12500000  0.25000000  1
  La  La54  1  0.62500000  -0.12500000  0.25000000  1
  La  La55  1  0.12500000  -0.12500000  0.25000000  1
  La  La56  1  0.87500000  0.37500000  0.75000000  1
  La  La57  1  0.37500000  0.37500000  0.75000000  1
  La  La58  1  0.62500000  0.12500000  0.75000000  1
  La  La59  1  0.87500000  -0.12500000  0.75000000  1
  La  La60  1  0.12500000  0.12500000  0.75000000  1
  La  La61  1  0.37500000  -0.12500000  0.75000000  1
  La  La62  1  0.62500000  -0.37500000  0.75000000  1
  La  La63  1  0.12500000  -0.37500000  0.75000000  1
  O  O64  1  0.75000000  0.75000000  0.21521578  1
  O  O65  1  0.25000000  0.75000000  0.21521578  1
  O  O66  1  0.50000000  0.50000000  0.21521578  1
  O  O67  1  0.75000000  0.25000000  0.21521578  1
  O  O68  1  -0.00000000  0.50000000  0.21521578  1
  O  O69  1  0.25000000  0.25000000  0.21521578  1
  O  O70  1  0.50000000  -0.00000000  0.21521578  1
  O  O71  1  0.00000000  -0.00000000  0.21521578  1
  O  O72  1  0.75000000  0.50000000  0.71521578  1
  O  O73  1  0.25000000  0.50000000  0.71521578  1
  O  O74  1  0.50000000  0.25000000  0.71521578  1
  O  O75  1  0.75000000  -0.00000000  0.71521578  1
  O  O76  1  -0.00000000  0.25000000  0.71521578  1
  O  O77  1  0.25000000  -0.00000000  0.71521578  1
  O  O78  1  0.50000000  -0.25000000  0.71521578  1
  O  O79  1  0.00000000  -0.25000000  0.71521578  1
  O  O80  1  0.87500000  0.62500000  0.03478422  1
  O  O81  1  0.37500000  0.62500000  0.03478422  1
  O  O82  1  0.62500000  0.37500000  0.03478422  1
  O  O83  1  0.87500000  0.12500000  0.03478422  1
  O  O84  1  0.12500000  0.37500000  0.03478422  1
  O  O85  1  0.37500000  0.12500000  0.03478422  1
  O  O86  1  0.62500000  -0.12500000  0.03478422  1
  O  O87  1  0.12500000  -0.12500000  0.03478422  1
  O  O88  1  0.87500000  0.37500000  0.53478422  1
  O  O89  1  0.37500000  0.37500000  0.53478422  1
  O  O90  1  0.62500000  0.12500000  0.53478422  1
  O  O91  1  0.87500000  -0.12500000  0.53478422  1
  O  O92  1  0.12500000  0.12500000  0.53478422  1
  O  O93  1  0.37500000  -0.12500000  0.53478422  1
  O  O94  1  0.62500000  -0.37500000  0.53478422  1
  O  O95  1  0.12500000  -0.37500000  0.53478422  1
  O  O96  1  0.87500000  0.62500000  0.46521578  1
  O  O97  1  0.37500000  0.62500000  0.46521578  1
  O  O98  1  0.62500000  0.37500000  0.46521578  1
  O  O99  1  0.87500000  0.12500000  0.46521578  1
  O  O100  1  0.12500000  0.37500000  0.46521578  1
  O  O101  1  0.37500000  0.12500000  0.46521578  1
  O  O102  1  0.62500000  -0.12500000  0.46521578  1
  O  O103  1  0.12500000  -0.12500000  0.46521578  1
  O  O104  1  0.87500000  0.37500000  0.96521578  1
  O  O105  1  0.37500000  0.37500000  0.96521578  1
  O  O106  1  0.62500000  0.12500000  0.96521578  1
  O  O107  1  0.87500000  -0.12500000  0.96521578  1
  O  O108  1  0.12500000  0.12500000  0.96521578  1
  O  O109  1  0.37500000  -0.12500000  0.96521578  1
  O  O110  1  0.62500000  -0.37500000  0.96521578  1
  O  O111  1  0.12500000  -0.37500000  0.96521578  1
  O  O112  1  0.75000000  0.75000000  0.78478422  1
  O  O113  1  0.25000000  0.75000000  0.78478422  1
  O  O114  1  0.50000000  0.50000000  0.78478422  1
  O  O115  1  0.75000000  0.25000000  0.78478422  1
  O  O116  1  -0.00000000  0.50000000  0.78478422  1
  O  O117  1  0.25000000  0.25000000  0.78478422  1
  O  O118  1  0.50000000  -0.00000000  0.78478422  1
  O  O119  1  0.00000000  0.00000000  0.78478422  1
  O  O120  1  0.75000000  0.50000000  1.28478422  1
  O  O121  1  0.25000000  0.50000000  1.28478422  1
  O  O122  1  0.50000000  0.25000000  1.28478422  1
  O  O123  1  0.75000000  -0.00000000  1.28478422  1
  O  O124  1  -0.00000000  0.25000000  1.28478422  1
  O  O125  1  0.25000000  -0.00000000  1.28478422  1
  O  O126  1  0.50000000  -0.25000000  1.28478422  1
  O  O127  1  0.00000000  -0.25000000  1.28478422  1
