# generated using pymatgen
data_Al2Ge2O7
_symmetry_space_group_name_H-M   'P 1'
_cell_length_a   14.44033831
_cell_length_b   15.55209768
_cell_length_c   19.58525735
_cell_angle_alpha   90.00000000
_cell_angle_beta   110.41003428
_cell_angle_gamma   90.00000000
_symmetry_Int_Tables_number   1
_chemical_formula_structural   Al2Ge2O7
_chemical_formula_sum   'Al64 Ge64 O224'
_cell_volume   4122.28111189
_cell_formula_units_Z   32
loop_
 _symmetry_equiv_pos_site_id
 _symmetry_equiv_pos_as_xyz
  1  'x, y, z'
loop_
 _atom_site_type_symbol
 _atom_site_label
 _atom_site_symmetry_multiplicity
 _atom_site_fract_x
 _atom_site_fract_y
 _atom_site_fract_z
 _atom_site_occupancy
  Al  Al0  1  0.33507611  0.03848260  0.48938189  1
  Al  Al1  1  0.33507611  0.03848260  0.98938189  1
  Al  Al2  1  0.33507611  0.53848260  0.48938189  1
  Al  Al3  1  0.33507611  0.53848260  0.98938189  1
  Al  Al4  1  0.83507611  0.03848260  0.48938189  1
  Al  Al5  1  0.83507611  0.03848260  0.98938189  1
  Al  Al6  1  0.83507611  0.53848260  0.48938189  1
  Al  Al7  1  0.83507611  0.53848260  0.98938189  1
  Al  Al8  1  0.58507611  0.28848260  0.48938189  1
  Al  Al9  1  0.58507611  0.28848260  0.98938189  1
  Al  Al10  1  0.58507611  0.78848260  0.48938189  1
  Al  Al11  1  0.58507611  0.78848260  0.98938189  1
  Al  Al12  1  1.08507611  0.28848260  0.48938189  1
  Al  Al13  1  1.08507611  0.28848260  0.98938189  1
  Al  Al14  1  1.08507611  0.78848260  0.48938189  1
  Al  Al15  1  1.08507611  0.78848260  0.98938189  1
  Al  Al16  1  0.16492389  0.03848260  0.26061811  1
  Al  Al17  1  0.16492389  0.03848260  0.76061811  1
  Al  Al18  1  0.16492389  0.53848260  0.26061811  1
  Al  Al19  1  0.16492389  0.53848260  0.76061811  1
  Al  Al20  1  0.66492389  0.03848260  0.26061811  1
  Al  Al21  1  0.66492389  0.03848260  0.76061811  1
  Al  Al22  1  0.66492389  0.53848260  0.26061811  1
  Al  Al23  1  0.66492389  0.53848260  0.76061811  1
  Al  Al24  1  0.41492389  0.28848260  0.26061811  1
  Al  Al25  1  0.41492389  0.28848260  0.76061811  1
  Al  Al26  1  0.41492389  0.78848260  0.26061811  1
  Al  Al27  1  0.41492389  0.78848260  0.76061811  1
  Al  Al28  1  0.91492389  0.28848260  0.26061811  1
  Al  Al29  1  0.91492389  0.28848260  0.76061811  1
  Al  Al30  1  0.91492389  0.78848260  0.26061811  1
  Al  Al31  1  0.91492389  0.78848260  0.76061811  1
  Al  Al32  1  0.16492389  -0.03848260  0.01061811  1
  Al  Al33  1  0.16492389  -0.03848260  0.51061811  1
  Al  Al34  1  0.16492389  0.46151740  0.01061811  1
  Al  Al35  1  0.16492389  0.46151740  0.51061811  1
  Al  Al36  1  0.66492389  -0.03848260  0.01061811  1
  Al  Al37  1  0.66492389  -0.03848260  0.51061811  1
  Al  Al38  1  0.66492389  0.46151740  0.01061811  1
  Al  Al39  1  0.66492389  0.46151740  0.51061811  1
  Al  Al40  1  0.41492389  0.21151740  0.01061811  1
  Al  Al41  1  0.41492389  0.21151740  0.51061811  1
  Al  Al42  1  0.41492389  0.71151740  0.01061811  1
  Al  Al43  1  0.41492389  0.71151740  0.51061811  1
  Al  Al44  1  0.91492389  0.21151740  0.01061811  1
  Al  Al45  1  0.91492389  0.21151740  0.51061811  1
  Al  Al46  1  0.91492389  0.71151740  0.01061811  1
  Al  Al47  1  0.91492389  0.71151740  0.51061811  1
  Al  Al48  1  0.33507611  -0.03848260  0.23938189  1
  Al  Al49  1  0.33507611  -0.03848260  0.73938189  1
  Al  Al50  1  0.33507611  0.46151740  0.23938189  1
  Al  Al51  1  0.33507611  0.46151740  0.73938189  1
  Al  Al52  1  0.83507611  -0.03848260  0.23938189  1
  Al  Al53  1  0.83507611  -0.03848260  0.73938189  1
  Al  Al54  1  0.83507611  0.46151740  0.23938189  1
  Al  Al55  1  0.83507611  0.46151740  0.73938189  1
  Al  Al56  1  0.58507611  0.21151740  0.23938189  1
  Al  Al57  1  0.58507611  0.21151740  0.73938189  1
  Al  Al58  1  0.58507611  0.71151740  0.23938189  1
  Al  Al59  1  0.58507611  0.71151740  0.73938189  1
  Al  Al60  1  1.08507611  0.21151740  0.23938189  1
  Al  Al61  1  1.08507611  0.21151740  0.73938189  1
  Al  Al62  1  1.08507611  0.71151740  0.23938189  1
  Al  Al63  1  1.08507611  0.71151740  0.73938189  1
  Ge  Ge64  1  0.12980149  -0.12585769  0.35302786  1
  Ge  Ge65  1  0.12980149  -0.12585769  0.85302786  1
  Ge  Ge66  1  0.12980149  0.37414231  0.35302786  1
  Ge  Ge67  1  0.12980149  0.37414231  0.85302786  1
  Ge  Ge68  1  0.62980149  -0.12585769  0.35302786  1
  Ge  Ge69  1  0.62980149  -0.12585769  0.85302786  1
  Ge  Ge70  1  0.62980149  0.37414231  0.35302786  1
  Ge  Ge71  1  0.62980149  0.37414231  0.85302786  1
  Ge  Ge72  1  0.37980149  0.12414231  0.35302786  1
  Ge  Ge73  1  0.37980149  0.12414231  0.85302786  1
  Ge  Ge74  1  0.37980149  0.62414231  0.35302786  1
  Ge  Ge75  1  0.37980149  0.62414231  0.85302786  1
  Ge  Ge76  1  0.87980149  0.12414231  0.35302786  1
  Ge  Ge77  1  0.87980149  0.12414231  0.85302786  1
  Ge  Ge78  1  0.87980149  0.62414231  0.35302786  1
  Ge  Ge79  1  0.87980149  0.62414231  0.85302786  1
  Ge  Ge80  1  0.37019851  -0.12585769  0.39697214  1
  Ge  Ge81  1  0.37019851  -0.12585769  0.89697214  1
  Ge  Ge82  1  0.37019851  0.37414231  0.39697214  1
  Ge  Ge83  1  0.37019851  0.37414231  0.89697214  1
  Ge  Ge84  1  0.87019851  -0.12585769  0.39697214  1
  Ge  Ge85  1  0.87019851  -0.12585769  0.89697214  1
  Ge  Ge86  1  0.87019851  0.37414231  0.39697214  1
  Ge  Ge87  1  0.87019851  0.37414231  0.89697214  1
  Ge  Ge88  1  0.62019851  0.12414231  0.39697214  1
  Ge  Ge89  1  0.62019851  0.12414231  0.89697214  1
  Ge  Ge90  1  0.62019851  0.62414231  0.39697214  1
  Ge  Ge91  1  0.62019851  0.62414231  0.89697214  1
  Ge  Ge92  1  1.12019851  0.12414231  0.39697214  1
  Ge  Ge93  1  1.12019851  0.12414231  0.89697214  1
  Ge  Ge94  1  1.12019851  0.62414231  0.39697214  1
  Ge  Ge95  1  1.12019851  0.62414231  0.89697214  1
  Ge  Ge96  1  0.37019851  0.12585769  0.14697214  1
  Ge  Ge97  1  0.37019851  0.12585769  0.64697214  1
  Ge  Ge98  1  0.37019851  0.62585769  0.14697214  1
  Ge  Ge99  1  0.37019851  0.62585769  0.64697214  1
  Ge  Ge100  1  0.87019851  0.12585769  0.14697214  1
  Ge  Ge101  1  0.87019851  0.12585769  0.64697214  1
  Ge  Ge102  1  0.87019851  0.62585769  0.14697214  1
  Ge  Ge103  1  0.87019851  0.62585769  0.64697214  1
  Ge  Ge104  1  0.62019851  0.37585769  0.14697214  1
  Ge  Ge105  1  0.62019851  0.37585769  0.64697214  1
  Ge  Ge106  1  0.62019851  0.87585769  0.14697214  1
  Ge  Ge107  1  0.62019851  0.87585769  0.64697214  1
  Ge  Ge108  1  1.12019851  0.37585769  0.14697214  1
  Ge  Ge109  1  1.12019851  0.37585769  0.64697214  1
  Ge  Ge110  1  1.12019851  0.87585769  0.14697214  1
  Ge  Ge111  1  1.12019851  0.87585769  0.64697214  1
  Ge  Ge112  1  0.12980149  0.12585769  0.10302786  1
  Ge  Ge113  1  0.12980149  0.12585769  0.60302786  1
  Ge  Ge114  1  0.12980149  0.62585769  0.10302786  1
  Ge  Ge115  1  0.12980149  0.62585769  0.60302786  1
  Ge  Ge116  1  0.62980149  0.12585769  0.10302786  1
  Ge  Ge117  1  0.62980149  0.12585769  0.60302786  1
  Ge  Ge118  1  0.62980149  0.62585769  0.10302786  1
  Ge  Ge119  1  0.62980149  0.62585769  0.60302786  1
  Ge  Ge120  1  0.37980149  0.37585769  0.10302786  1
  Ge  Ge121  1  0.37980149  0.37585769  0.60302786  1
  Ge  Ge122  1  0.37980149  0.87585769  0.10302786  1
  Ge  Ge123  1  0.37980149  0.87585769  0.60302786  1
  Ge  Ge124  1  0.87980149  0.37585769  0.10302786  1
  Ge  Ge125  1  0.87980149  0.37585769  0.60302786  1
  Ge  Ge126  1  0.87980149  0.87585769  0.10302786  1
  Ge  Ge127  1  0.87980149  0.87585769  0.60302786  1
  O  O128  1  0.35442852  0.13634383  0.43629054  1
  O  O129  1  0.35442852  0.13634383  0.93629054  1
  O  O130  1  0.35442852  0.63634383  0.43629054  1
  O  O131  1  0.35442852  0.63634383  0.93629054  1
  O  O132  1  0.85442852  0.13634383  0.43629054  1
  O  O133  1  0.85442852  0.13634383  0.93629054  1
  O  O134  1  0.85442852  0.63634383  0.43629054  1
  O  O135  1  0.85442852  0.63634383  0.93629054  1
  O  O136  1  0.60442852  0.38634383  0.43629054  1
  O  O137  1  0.60442852  0.38634383  0.93629054  1
  O  O138  1  0.60442852  0.88634383  0.43629054  1
  O  O139  1  0.60442852  0.88634383  0.93629054  1
  O  O140  1  1.10442852  0.38634383  0.43629054  1
  O  O141  1  1.10442852  0.38634383  0.93629054  1
  O  O142  1  1.10442852  0.88634383  0.43629054  1
  O  O143  1  1.10442852  0.88634383  0.93629054  1
  O  O144  1  0.14557148  0.13634383  0.31370946  1
  O  O145  1  0.14557148  0.13634383  0.81370946  1
  O  O146  1  0.14557148  0.63634383  0.31370946  1
  O  O147  1  0.14557148  0.63634383  0.81370946  1
  O  O148  1  0.64557148  0.13634383  0.31370946  1
  O  O149  1  0.64557148  0.13634383  0.81370946  1
  O  O150  1  0.64557148  0.63634383  0.31370946  1
  O  O151  1  0.64557148  0.63634383  0.81370946  1
  O  O152  1  0.39557148  0.38634383  0.31370946  1
  O  O153  1  0.39557148  0.38634383  0.81370946  1
  O  O154  1  0.39557148  0.88634383  0.31370946  1
  O  O155  1  0.39557148  0.88634383  0.81370946  1
  O  O156  1  0.89557148  0.38634383  0.31370946  1
  O  O157  1  0.89557148  0.38634383  0.81370946  1
  O  O158  1  0.89557148  0.88634383  0.31370946  1
  O  O159  1  0.89557148  0.88634383  0.81370946  1
  O  O160  1  0.14557148  -0.13634383  0.06370946  1
  O  O161  1  0.14557148  -0.13634383  0.56370946  1
  O  O162  1  0.14557148  0.36365617  0.06370946  1
  O  O163  1  0.14557148  0.36365617  0.56370946  1
  O  O164  1  0.64557148  -0.13634383  0.06370946  1
  O  O165  1  0.64557148  -0.13634383  0.56370946  1
  O  O166  1  0.64557148  0.36365617  0.06370946  1
  O  O167  1  0.64557148  0.36365617  0.56370946  1
  O  O168  1  0.39557148  0.11365617  0.06370946  1
  O  O169  1  0.39557148  0.11365617  0.56370946  1
  O  O170  1  0.39557148  0.61365617  0.06370946  1
  O  O171  1  0.39557148  0.61365617  0.56370946  1
  O  O172  1  0.89557148  0.11365617  0.06370946  1
  O  O173  1  0.89557148  0.11365617  0.56370946  1
  O  O174  1  0.89557148  0.61365617  0.06370946  1
  O  O175  1  0.89557148  0.61365617  0.56370946  1
  O  O176  1  0.35442852  -0.13634383  0.18629054  1
  O  O177  1  0.35442852  -0.13634383  0.68629054  1
  O  O178  1  0.35442852  0.36365617  0.18629054  1
  O  O179  1  0.35442852  0.36365617  0.68629054  1
  O  O180  1  0.85442852  -0.13634383  0.18629054  1
  O  O181  1  0.85442852  -0.13634383  0.68629054  1
  O  O182  1  0.85442852  0.36365617  0.18629054  1
  O  O183  1  0.85442852  0.36365617  0.68629054  1
  O  O184  1  0.60442852  0.11365617  0.18629054  1
  O  O185  1  0.60442852  0.11365617  0.68629054  1
  O  O186  1  0.60442852  0.61365617  0.18629054  1
  O  O187  1  0.60442852  0.61365617  0.68629054  1
  O  O188  1  1.10442852  0.11365617  0.18629054  1
  O  O189  1  1.10442852  0.11365617  0.68629054  1
  O  O190  1  1.10442852  0.61365617  0.18629054  1
  O  O191  1  1.10442852  0.61365617  0.68629054  1
  O  O192  1  0.30002379  0.04053172  0.30103606  1
  O  O193  1  0.30002379  0.04053172  0.80103606  1
  O  O194  1  0.30002379  0.54053172  0.30103606  1
  O  O195  1  0.30002379  0.54053172  0.80103606  1
  O  O196  1  0.80002379  0.04053172  0.30103606  1
  O  O197  1  0.80002379  0.04053172  0.80103606  1
  O  O198  1  0.80002379  0.54053172  0.30103606  1
  O  O199  1  0.80002379  0.54053172  0.80103606  1
  O  O200  1  0.55002379  0.29053172  0.30103606  1
  O  O201  1  0.55002379  0.29053172  0.80103606  1
  O  O202  1  0.55002379  0.79053172  0.30103606  1
  O  O203  1  0.55002379  0.79053172  0.80103606  1
  O  O204  1  1.05002379  0.29053172  0.30103606  1
  O  O205  1  1.05002379  0.29053172  0.80103606  1
  O  O206  1  1.05002379  0.79053172  0.30103606  1
  O  O207  1  1.05002379  0.79053172  0.80103606  1
  O  O208  1  0.19997621  0.04053172  0.44896394  1
  O  O209  1  0.19997621  0.04053172  0.94896394  1
  O  O210  1  0.19997621  0.54053172  0.44896394  1
  O  O211  1  0.19997621  0.54053172  0.94896394  1
  O  O212  1  0.69997621  0.04053172  0.44896394  1
  O  O213  1  0.69997621  0.04053172  0.94896394  1
  O  O214  1  0.69997621  0.54053172  0.44896394  1
  O  O215  1  0.69997621  0.54053172  0.94896394  1
  O  O216  1  0.44997621  0.29053172  0.44896394  1
  O  O217  1  0.44997621  0.29053172  0.94896394  1
  O  O218  1  0.44997621  0.79053172  0.44896394  1
  O  O219  1  0.44997621  0.79053172  0.94896394  1
  O  O220  1  0.94997621  0.29053172  0.44896394  1
  O  O221  1  0.94997621  0.29053172  0.94896394  1
  O  O222  1  0.94997621  0.79053172  0.44896394  1
  O  O223  1  0.94997621  0.79053172  0.94896394  1
  O  O224  1  0.19997621  -0.04053172  0.19896394  1
  O  O225  1  0.19997621  -0.04053172  0.69896394  1
  O  O226  1  0.19997621  0.45946828  0.19896394  1
  O  O227  1  0.19997621  0.45946828  0.69896394  1
  O  O228  1  0.69997621  -0.04053172  0.19896394  1
  O  O229  1  0.69997621  -0.04053172  0.69896394  1
  O  O230  1  0.69997621  0.45946828  0.19896394  1
  O  O231  1  0.69997621  0.45946828  0.69896394  1
  O  O232  1  0.44997621  0.20946828  0.19896394  1
  O  O233  1  0.44997621  0.20946828  0.69896394  1
  O  O234  1  0.44997621  0.70946828  0.19896394  1
  O  O235  1  0.44997621  0.70946828  0.69896394  1
  O  O236  1  0.94997621  0.20946828  0.19896394  1
  O  O237  1  0.94997621  0.20946828  0.69896394  1
  O  O238  1  0.94997621  0.70946828  0.19896394  1
  O  O239  1  0.94997621  0.70946828  0.69896394  1
  O  O240  1  0.30002379  -0.04053172  0.05103606  1
  O  O241  1  0.30002379  -0.04053172  0.55103606  1
  O  O242  1  0.30002379  0.45946828  0.05103606  1
  O  O243  1  0.30002379  0.45946828  0.55103606  1
  O  O244  1  0.80002379  -0.04053172  0.05103606  1
  O  O245  1  0.80002379  -0.04053172  0.55103606  1
  O  O246  1  0.80002379  0.45946828  0.05103606  1
  O  O247  1  0.80002379  0.45946828  0.55103606  1
  O  O248  1  0.55002379  0.20946828  0.05103606  1
  O  O249  1  0.55002379  0.20946828  0.55103606  1
  O  O250  1  0.55002379  0.70946828  0.05103606  1
  O  O251  1  0.55002379  0.70946828  0.55103606  1
  O  O252  1  1.05002379  0.20946828  0.05103606  1
  O  O253  1  1.05002379  0.20946828  0.55103606  1
  O  O254  1  1.05002379  0.70946828  0.05103606  1
  O  O255  1  1.05002379  0.70946828  0.55103606  1
  O  O256  1  0.25000000  0.17014918  0.12500000  1
  O  O257  1  0.25000000  0.17014918  0.62500000  1
  O  O258  1  0.25000000  0.67014918  0.12500000  1
  O  O259  1  0.25000000  0.67014918  0.62500000  1
  O  O260  1  0.75000000  0.17014918  0.12500000  1
  O  O261  1  0.75000000  0.17014918  0.62500000  1
  O  O262  1  0.75000000  0.67014918  0.12500000  1
  O  O263  1  0.75000000  0.67014918  0.62500000  1
  O  O264  1  0.50000000  0.42014918  0.12500000  1
  O  O265  1  0.50000000  0.42014918  0.62500000  1
  O  O266  1  0.50000000  0.92014918  0.12500000  1
  O  O267  1  0.50000000  0.92014918  0.62500000  1
  O  O268  1  1.00000000  0.42014918  0.12500000  1
  O  O269  1  1.00000000  0.42014918  0.62500000  1
  O  O270  1  1.00000000  0.92014918  0.12500000  1
  O  O271  1  1.00000000  0.92014918  0.62500000  1
  O  O272  1  0.25000000  -0.17014918  0.37500000  1
  O  O273  1  0.25000000  -0.17014918  0.87500000  1
  O  O274  1  0.25000000  0.32985082  0.37500000  1
  O  O275  1  0.25000000  0.32985082  0.87500000  1
  O  O276  1  0.75000000  -0.17014918  0.37500000  1
  O  O277  1  0.75000000  -0.17014918  0.87500000  1
  O  O278  1  0.75000000  0.32985082  0.37500000  1
  O  O279  1  0.75000000  0.32985082  0.87500000  1
  O  O280  1  0.50000000  0.07985082  0.37500000  1
  O  O281  1  0.50000000  0.07985082  0.87500000  1
  O  O282  1  0.50000000  0.57985082  0.37500000  1
  O  O283  1  0.50000000  0.57985082  0.87500000  1
  O  O284  1  1.00000000  0.07985082  0.37500000  1
  O  O285  1  1.00000000  0.07985082  0.87500000  1
  O  O286  1  1.00000000  0.57985082  0.37500000  1
  O  O287  1  1.00000000  0.57985082  0.87500000  1
  O  O288  1  0.10579307  0.03305637  0.05068160  1
  O  O289  1  0.10579307  0.03305637  0.55068160  1
  O  O290  1  0.10579307  0.53305637  0.05068160  1
  O  O291  1  0.10579307  0.53305637  0.55068160  1
  O  O292  1  0.60579307  0.03305637  0.05068160  1
  O  O293  1  0.60579307  0.03305637  0.55068160  1
  O  O294  1  0.60579307  0.53305637  0.05068160  1
  O  O295  1  0.60579307  0.53305637  0.55068160  1
  O  O296  1  0.35579307  0.28305637  0.05068160  1
  O  O297  1  0.35579307  0.28305637  0.55068160  1
  O  O298  1  0.35579307  0.78305637  0.05068160  1
  O  O299  1  0.35579307  0.78305637  0.55068160  1
  O  O300  1  0.85579307  0.28305637  0.05068160  1
  O  O301  1  0.85579307  0.28305637  0.55068160  1
  O  O302  1  0.85579307  0.78305637  0.05068160  1
  O  O303  1  0.85579307  0.78305637  0.55068160  1
  O  O304  1  0.39420693  0.03305637  0.19931840  1
  O  O305  1  0.39420693  0.03305637  0.69931840  1
  O  O306  1  0.39420693  0.53305637  0.19931840  1
  O  O307  1  0.39420693  0.53305637  0.69931840  1
  O  O308  1  0.89420693  0.03305637  0.19931840  1
  O  O309  1  0.89420693  0.03305637  0.69931840  1
  O  O310  1  0.89420693  0.53305637  0.19931840  1
  O  O311  1  0.89420693  0.53305637  0.69931840  1
  O  O312  1  0.64420693  0.28305637  0.19931840  1
  O  O313  1  0.64420693  0.28305637  0.69931840  1
  O  O314  1  0.64420693  0.78305637  0.19931840  1
  O  O315  1  0.64420693  0.78305637  0.69931840  1
  O  O316  1  1.14420693  0.28305637  0.19931840  1
  O  O317  1  1.14420693  0.28305637  0.69931840  1
  O  O318  1  1.14420693  0.78305637  0.19931840  1
  O  O319  1  1.14420693  0.78305637  0.69931840  1
  O  O320  1  0.39420693  -0.03305637  0.44931840  1
  O  O321  1  0.39420693  -0.03305637  0.94931840  1
  O  O322  1  0.39420693  0.46694363  0.44931840  1
  O  O323  1  0.39420693  0.46694363  0.94931840  1
  O  O324  1  0.89420693  -0.03305637  0.44931840  1
  O  O325  1  0.89420693  -0.03305637  0.94931840  1
  O  O326  1  0.89420693  0.46694363  0.44931840  1
  O  O327  1  0.89420693  0.46694363  0.94931840  1
  O  O328  1  0.64420693  0.21694363  0.44931840  1
  O  O329  1  0.64420693  0.21694363  0.94931840  1
  O  O330  1  0.64420693  0.71694363  0.44931840  1
  O  O331  1  0.64420693  0.71694363  0.94931840  1
  O  O332  1  1.14420693  0.21694363  0.44931840  1
  O  O333  1  1.14420693  0.21694363  0.94931840  1
  O  O334  1  1.14420693  0.71694363  0.44931840  1
  O  O335  1  1.14420693  0.71694363  0.94931840  1
  O  O336  1  0.10579307  -0.03305637  0.30068160  1
  O  O337  1  0.10579307  -0.03305637  0.80068160  1
  O  O338  1  0.10579307  0.46694363  0.30068160  1
  O  O339  1  0.10579307  0.46694363  0.80068160  1
  O  O340  1  0.60579307  -0.03305637  0.30068160  1
  O  O341  1  0.60579307  -0.03305637  0.80068160  1
  O  O342  1  0.60579307  0.46694363  0.30068160  1
  O  O343  1  0.60579307  0.46694363  0.80068160  1
  O  O344  1  0.35579307  0.21694363  0.30068160  1
  O  O345  1  0.35579307  0.21694363  0.80068160  1
  O  O346  1  0.35579307  0.71694363  0.30068160  1
  O  O347  1  0.35579307  0.71694363  0.80068160  1
  O  O348  1  0.85579307  0.21694363  0.30068160  1
  O  O349  1  0.85579307  0.21694363  0.80068160  1
  O  O350  1  0.85579307  0.71694363  0.30068160  1
  O  O351  1  0.85579307  0.71694363  0.80068160  1
