# generated using pymatgen
data_Li2HfO3
_symmetry_space_group_name_H-M   'P 1'
_cell_length_a   16.00290919
_cell_length_b   17.89633509
_cell_length_c   15.98855917
_cell_angle_alpha   90.00000000
_cell_angle_beta   112.03912087
_cell_angle_gamma   90.00000000
_symmetry_Int_Tables_number   1
_chemical_formula_structural   Li2HfO3
_chemical_formula_sum   'Li144 Hf72 O216'
_cell_volume   4244.41957294
_cell_formula_units_Z   72
loop_
 _symmetry_equiv_pos_site_id
 _symmetry_equiv_pos_as_xyz
  1  'x, y, z'
loop_
 _atom_site_type_symbol
 _atom_site_label
 _atom_site_symmetry_multiplicity
 _atom_site_fract_x
 _atom_site_fract_y
 _atom_site_fract_z
 _atom_site_occupancy
  Li  Li0  1  0.16666667  0.21187363  0.25000000  1
  Li  Li1  1  0.16666667  0.21187363  0.58333333  1
  Li  Li2  1  0.16666667  0.21187363  0.91666667  1
  Li  Li3  1  0.16666667  0.71187363  0.25000000  1
  Li  Li4  1  0.16666667  0.71187363  0.58333333  1
  Li  Li5  1  0.16666667  0.71187363  0.91666667  1
  Li  Li6  1  0.50000000  0.21187363  0.25000000  1
  Li  Li7  1  0.50000000  0.21187363  0.58333333  1
  Li  Li8  1  0.50000000  0.21187363  0.91666667  1
  Li  Li9  1  0.50000000  0.71187363  0.25000000  1
  Li  Li10  1  0.50000000  0.71187363  0.58333333  1
  Li  Li11  1  0.50000000  0.71187363  0.91666667  1
  Li  Li12  1  0.83333333  0.21187363  0.25000000  1
  Li  Li13  1  0.83333333  0.21187363  0.58333333  1
  Li  Li14  1  0.83333333  0.21187363  0.91666667  1
  Li  Li15  1  0.83333333  0.71187363  0.25000000  1
  Li  Li16  1  0.83333333  0.71187363  0.58333333  1
  Li  Li17  1  0.83333333  0.71187363  0.91666667  1
  Li  Li18  1  0.33333333  0.46187363  0.25000000  1
  Li  Li19  1  0.33333333  0.46187363  0.58333333  1
  Li  Li20  1  0.33333333  0.46187363  0.91666667  1
  Li  Li21  1  0.33333333  0.96187363  0.25000000  1
  Li  Li22  1  0.33333333  0.96187363  0.58333333  1
  Li  Li23  1  0.33333333  0.96187363  0.91666667  1
  Li  Li24  1  0.66666667  0.46187363  0.25000000  1
  Li  Li25  1  0.66666667  0.46187363  0.58333333  1
  Li  Li26  1  0.66666667  0.46187363  0.91666667  1
  Li  Li27  1  0.66666667  0.96187363  0.25000000  1
  Li  Li28  1  0.66666667  0.96187363  0.58333333  1
  Li  Li29  1  0.66666667  0.96187363  0.91666667  1
  Li  Li30  1  1.00000000  0.46187363  0.25000000  1
  Li  Li31  1  1.00000000  0.46187363  0.58333333  1
  Li  Li32  1  1.00000000  0.46187363  0.91666667  1
  Li  Li33  1  1.00000000  0.96187363  0.25000000  1
  Li  Li34  1  1.00000000  0.96187363  0.58333333  1
  Li  Li35  1  1.00000000  0.96187363  0.91666667  1
  Li  Li36  1  0.16666667  -0.12904401  0.25000000  1
  Li  Li37  1  0.16666667  -0.12904401  0.58333333  1
  Li  Li38  1  0.16666667  -0.12904401  0.91666667  1
  Li  Li39  1  0.16666667  0.37095599  0.25000000  1
  Li  Li40  1  0.16666667  0.37095599  0.58333333  1
  Li  Li41  1  0.16666667  0.37095599  0.91666667  1
  Li  Li42  1  0.50000000  -0.12904401  0.25000000  1
  Li  Li43  1  0.50000000  -0.12904401  0.58333333  1
  Li  Li44  1  0.50000000  -0.12904401  0.91666667  1
  Li  Li45  1  0.50000000  0.37095599  0.25000000  1
  Li  Li46  1  0.50000000  0.37095599  0.58333333  1
  Li  Li47  1  0.50000000  0.37095599  0.91666667  1
  Li  Li48  1  0.83333333  -0.12904401  0.25000000  1
  Li  Li49  1  0.83333333  -0.12904401  0.58333333  1
  Li  Li50  1  0.83333333  -0.12904401  0.91666667  1
  Li  Li51  1  0.83333333  0.37095599  0.25000000  1
  Li  Li52  1  0.83333333  0.37095599  0.58333333  1
  Li  Li53  1  0.83333333  0.37095599  0.91666667  1
  Li  Li54  1  0.33333333  0.12095599  0.25000000  1
  Li  Li55  1  0.33333333  0.12095599  0.58333333  1
  Li  Li56  1  0.33333333  0.12095599  0.91666667  1
  Li  Li57  1  0.33333333  0.62095599  0.25000000  1
  Li  Li58  1  0.33333333  0.62095599  0.58333333  1
  Li  Li59  1  0.33333333  0.62095599  0.91666667  1
  Li  Li60  1  0.66666667  0.12095599  0.25000000  1
  Li  Li61  1  0.66666667  0.12095599  0.58333333  1
  Li  Li62  1  0.66666667  0.12095599  0.91666667  1
  Li  Li63  1  0.66666667  0.62095599  0.25000000  1
  Li  Li64  1  0.66666667  0.62095599  0.58333333  1
  Li  Li65  1  0.66666667  0.62095599  0.91666667  1
  Li  Li66  1  1.00000000  0.12095599  0.25000000  1
  Li  Li67  1  1.00000000  0.12095599  0.58333333  1
  Li  Li68  1  1.00000000  0.12095599  0.91666667  1
  Li  Li69  1  1.00000000  0.62095599  0.25000000  1
  Li  Li70  1  1.00000000  0.62095599  0.58333333  1
  Li  Li71  1  1.00000000  0.62095599  0.91666667  1
  Li  Li72  1  0.16666667  -0.21187363  0.08333333  1
  Li  Li73  1  0.16666667  -0.21187363  0.41666667  1
  Li  Li74  1  0.16666667  -0.21187363  0.75000000  1
  Li  Li75  1  0.16666667  0.28812637  0.08333333  1
  Li  Li76  1  0.16666667  0.28812637  0.41666667  1
  Li  Li77  1  0.16666667  0.28812637  0.75000000  1
  Li  Li78  1  0.50000000  -0.21187363  0.08333333  1
  Li  Li79  1  0.50000000  -0.21187363  0.41666667  1
  Li  Li80  1  0.50000000  -0.21187363  0.75000000  1
  Li  Li81  1  0.50000000  0.28812637  0.08333333  1
  Li  Li82  1  0.50000000  0.28812637  0.41666667  1
  Li  Li83  1  0.50000000  0.28812637  0.75000000  1
  Li  Li84  1  0.83333333  -0.21187363  0.08333333  1
  Li  Li85  1  0.83333333  -0.21187363  0.41666667  1
  Li  Li86  1  0.83333333  -0.21187363  0.75000000  1
  Li  Li87  1  0.83333333  0.28812637  0.08333333  1
  Li  Li88  1  0.83333333  0.28812637  0.41666667  1
  Li  Li89  1  0.83333333  0.28812637  0.75000000  1
  Li  Li90  1  0.33333333  0.03812637  0.08333333  1
  Li  Li91  1  0.33333333  0.03812637  0.41666667  1
  Li  Li92  1  0.33333333  0.03812637  0.75000000  1
  Li  Li93  1  0.33333333  0.53812637  0.08333333  1
  Li  Li94  1  0.33333333  0.53812637  0.41666667  1
  Li  Li95  1  0.33333333  0.53812637  0.75000000  1
  Li  Li96  1  0.66666667  0.03812637  0.08333333  1
  Li  Li97  1  0.66666667  0.03812637  0.41666667  1
  Li  Li98  1  0.66666667  0.03812637  0.75000000  1
  Li  Li99  1  0.66666667  0.53812637  0.08333333  1
  Li  Li100  1  0.66666667  0.53812637  0.41666667  1
  Li  Li101  1  0.66666667  0.53812637  0.75000000  1
  Li  Li102  1  1.00000000  0.03812637  0.08333333  1
  Li  Li103  1  1.00000000  0.03812637  0.41666667  1
  Li  Li104  1  1.00000000  0.03812637  0.75000000  1
  Li  Li105  1  1.00000000  0.53812637  0.08333333  1
  Li  Li106  1  1.00000000  0.53812637  0.41666667  1
  Li  Li107  1  1.00000000  0.53812637  0.75000000  1
  Li  Li108  1  0.16666667  0.12904401  0.08333333  1
  Li  Li109  1  0.16666667  0.12904401  0.41666667  1
  Li  Li110  1  0.16666667  0.12904401  0.75000000  1
  Li  Li111  1  0.16666667  0.62904401  0.08333333  1
  Li  Li112  1  0.16666667  0.62904401  0.41666667  1
  Li  Li113  1  0.16666667  0.62904401  0.75000000  1
  Li  Li114  1  0.50000000  0.12904401  0.08333333  1
  Li  Li115  1  0.50000000  0.12904401  0.41666667  1
  Li  Li116  1  0.50000000  0.12904401  0.75000000  1
  Li  Li117  1  0.50000000  0.62904401  0.08333333  1
  Li  Li118  1  0.50000000  0.62904401  0.41666667  1
  Li  Li119  1  0.50000000  0.62904401  0.75000000  1
  Li  Li120  1  0.83333333  0.12904401  0.08333333  1
  Li  Li121  1  0.83333333  0.12904401  0.41666667  1
  Li  Li122  1  0.83333333  0.12904401  0.75000000  1
  Li  Li123  1  0.83333333  0.62904401  0.08333333  1
  Li  Li124  1  0.83333333  0.62904401  0.41666667  1
  Li  Li125  1  0.83333333  0.62904401  0.75000000  1
  Li  Li126  1  0.33333333  0.37904401  0.08333333  1
  Li  Li127  1  0.33333333  0.37904401  0.41666667  1
  Li  Li128  1  0.33333333  0.37904401  0.75000000  1
  Li  Li129  1  0.33333333  0.87904401  0.08333333  1
  Li  Li130  1  0.33333333  0.87904401  0.41666667  1
  Li  Li131  1  0.33333333  0.87904401  0.75000000  1
  Li  Li132  1  0.66666667  0.37904401  0.08333333  1
  Li  Li133  1  0.66666667  0.37904401  0.41666667  1
  Li  Li134  1  0.66666667  0.37904401  0.75000000  1
  Li  Li135  1  0.66666667  0.87904401  0.08333333  1
  Li  Li136  1  0.66666667  0.87904401  0.41666667  1
  Li  Li137  1  0.66666667  0.87904401  0.75000000  1
  Li  Li138  1  1.00000000  0.37904401  0.08333333  1
  Li  Li139  1  1.00000000  0.37904401  0.41666667  1
  Li  Li140  1  1.00000000  0.37904401  0.75000000  1
  Li  Li141  1  1.00000000  0.87904401  0.08333333  1
  Li  Li142  1  1.00000000  0.87904401  0.41666667  1
  Li  Li143  1  1.00000000  0.87904401  0.75000000  1
  Hf  Hf144  1  0.16666667  0.04539574  0.25000000  1
  Hf  Hf145  1  0.16666667  0.04539574  0.58333333  1
  Hf  Hf146  1  0.16666667  0.04539574  0.91666667  1
  Hf  Hf147  1  0.16666667  0.54539574  0.25000000  1
  Hf  Hf148  1  0.16666667  0.54539574  0.58333333  1
  Hf  Hf149  1  0.16666667  0.54539574  0.91666667  1
  Hf  Hf150  1  0.50000000  0.04539574  0.25000000  1
  Hf  Hf151  1  0.50000000  0.04539574  0.58333333  1
  Hf  Hf152  1  0.50000000  0.04539574  0.91666667  1
  Hf  Hf153  1  0.50000000  0.54539574  0.25000000  1
  Hf  Hf154  1  0.50000000  0.54539574  0.58333333  1
  Hf  Hf155  1  0.50000000  0.54539574  0.91666667  1
  Hf  Hf156  1  0.83333333  0.04539574  0.25000000  1
  Hf  Hf157  1  0.83333333  0.04539574  0.58333333  1
  Hf  Hf158  1  0.83333333  0.04539574  0.91666667  1
  Hf  Hf159  1  0.83333333  0.54539574  0.25000000  1
  Hf  Hf160  1  0.83333333  0.54539574  0.58333333  1
  Hf  Hf161  1  0.83333333  0.54539574  0.91666667  1
  Hf  Hf162  1  0.33333333  0.29539574  0.25000000  1
  Hf  Hf163  1  0.33333333  0.29539574  0.58333333  1
  Hf  Hf164  1  0.33333333  0.29539574  0.91666667  1
  Hf  Hf165  1  0.33333333  0.79539574  0.25000000  1
  Hf  Hf166  1  0.33333333  0.79539574  0.58333333  1
  Hf  Hf167  1  0.33333333  0.79539574  0.91666667  1
  Hf  Hf168  1  0.66666667  0.29539574  0.25000000  1
  Hf  Hf169  1  0.66666667  0.29539574  0.58333333  1
  Hf  Hf170  1  0.66666667  0.29539574  0.91666667  1
  Hf  Hf171  1  0.66666667  0.79539574  0.25000000  1
  Hf  Hf172  1  0.66666667  0.79539574  0.58333333  1
  Hf  Hf173  1  0.66666667  0.79539574  0.91666667  1
  Hf  Hf174  1  1.00000000  0.29539574  0.25000000  1
  Hf  Hf175  1  1.00000000  0.29539574  0.58333333  1
  Hf  Hf176  1  1.00000000  0.29539574  0.91666667  1
  Hf  Hf177  1  1.00000000  0.79539574  0.25000000  1
  Hf  Hf178  1  1.00000000  0.79539574  0.58333333  1
  Hf  Hf179  1  1.00000000  0.79539574  0.91666667  1
  Hf  Hf180  1  0.16666667  -0.04539574  0.08333333  1
  Hf  Hf181  1  0.16666667  -0.04539574  0.41666667  1
  Hf  Hf182  1  0.16666667  -0.04539574  0.75000000  1
  Hf  Hf183  1  0.16666667  0.45460426  0.08333333  1
  Hf  Hf184  1  0.16666667  0.45460426  0.41666667  1
  Hf  Hf185  1  0.16666667  0.45460426  0.75000000  1
  Hf  Hf186  1  0.50000000  -0.04539574  0.08333333  1
  Hf  Hf187  1  0.50000000  -0.04539574  0.41666667  1
  Hf  Hf188  1  0.50000000  -0.04539574  0.75000000  1
  Hf  Hf189  1  0.50000000  0.45460426  0.08333333  1
  Hf  Hf190  1  0.50000000  0.45460426  0.41666667  1
  Hf  Hf191  1  0.50000000  0.45460426  0.75000000  1
  Hf  Hf192  1  0.83333333  -0.04539574  0.08333333  1
  Hf  Hf193  1  0.83333333  -0.04539574  0.41666667  1
  Hf  Hf194  1  0.83333333  -0.04539574  0.75000000  1
  Hf  Hf195  1  0.83333333  0.45460426  0.08333333  1
  Hf  Hf196  1  0.83333333  0.45460426  0.41666667  1
  Hf  Hf197  1  0.83333333  0.45460426  0.75000000  1
  Hf  Hf198  1  0.33333333  0.20460426  0.08333333  1
  Hf  Hf199  1  0.33333333  0.20460426  0.41666667  1
  Hf  Hf200  1  0.33333333  0.20460426  0.75000000  1
  Hf  Hf201  1  0.33333333  0.70460426  0.08333333  1
  Hf  Hf202  1  0.33333333  0.70460426  0.41666667  1
  Hf  Hf203  1  0.33333333  0.70460426  0.75000000  1
  Hf  Hf204  1  0.66666667  0.20460426  0.08333333  1
  Hf  Hf205  1  0.66666667  0.20460426  0.41666667  1
  Hf  Hf206  1  0.66666667  0.20460426  0.75000000  1
  Hf  Hf207  1  0.66666667  0.70460426  0.08333333  1
  Hf  Hf208  1  0.66666667  0.70460426  0.41666667  1
  Hf  Hf209  1  0.66666667  0.70460426  0.75000000  1
  Hf  Hf210  1  1.00000000  0.20460426  0.08333333  1
  Hf  Hf211  1  1.00000000  0.20460426  0.41666667  1
  Hf  Hf212  1  1.00000000  0.20460426  0.75000000  1
  Hf  Hf213  1  1.00000000  0.70460426  0.08333333  1
  Hf  Hf214  1  1.00000000  0.70460426  0.41666667  1
  Hf  Hf215  1  1.00000000  0.70460426  0.75000000  1
  O  O216  1  0.09002213  -0.03783848  0.16268557  1
  O  O217  1  0.09002213  -0.03783848  0.49601890  1
  O  O218  1  0.09002213  -0.03783848  0.82935224  1
  O  O219  1  0.09002213  0.46216152  0.16268557  1
  O  O220  1  0.09002213  0.46216152  0.49601890  1
  O  O221  1  0.09002213  0.46216152  0.82935224  1
  O  O222  1  0.42335546  -0.03783848  0.16268557  1
  O  O223  1  0.42335546  -0.03783848  0.49601890  1
  O  O224  1  0.42335546  -0.03783848  0.82935224  1
  O  O225  1  0.42335546  0.46216152  0.16268557  1
  O  O226  1  0.42335546  0.46216152  0.49601890  1
  O  O227  1  0.42335546  0.46216152  0.82935224  1
  O  O228  1  0.75668879  -0.03783848  0.16268557  1
  O  O229  1  0.75668879  -0.03783848  0.49601890  1
  O  O230  1  0.75668879  -0.03783848  0.82935224  1
  O  O231  1  0.75668879  0.46216152  0.16268557  1
  O  O232  1  0.75668879  0.46216152  0.49601890  1
  O  O233  1  0.75668879  0.46216152  0.82935224  1
  O  O234  1  0.25668879  0.21216152  0.16268557  1
  O  O235  1  0.25668879  0.21216152  0.49601890  1
  O  O236  1  0.25668879  0.21216152  0.82935224  1
  O  O237  1  0.25668879  0.71216152  0.16268557  1
  O  O238  1  0.25668879  0.71216152  0.49601890  1
  O  O239  1  0.25668879  0.71216152  0.82935224  1
  O  O240  1  0.59002213  0.21216152  0.16268557  1
  O  O241  1  0.59002213  0.21216152  0.49601890  1
  O  O242  1  0.59002213  0.21216152  0.82935224  1
  O  O243  1  0.59002213  0.71216152  0.16268557  1
  O  O244  1  0.59002213  0.71216152  0.49601890  1
  O  O245  1  0.59002213  0.71216152  0.82935224  1
  O  O246  1  0.92335546  0.21216152  0.16268557  1
  O  O247  1  0.92335546  0.21216152  0.49601890  1
  O  O248  1  0.92335546  0.21216152  0.82935224  1
  O  O249  1  0.92335546  0.71216152  0.16268557  1
  O  O250  1  0.92335546  0.71216152  0.49601890  1
  O  O251  1  0.92335546  0.71216152  0.82935224  1
  O  O252  1  0.09002213  0.03783848  0.32935224  1
  O  O253  1  0.09002213  0.03783848  0.66268557  1
  O  O254  1  0.09002213  0.03783848  0.99601890  1
  O  O255  1  0.09002213  0.53783848  0.32935224  1
  O  O256  1  0.09002213  0.53783848  0.66268557  1
  O  O257  1  0.09002213  0.53783848  0.99601890  1
  O  O258  1  0.42335546  0.03783848  0.32935224  1
  O  O259  1  0.42335546  0.03783848  0.66268557  1
  O  O260  1  0.42335546  0.03783848  0.99601890  1
  O  O261  1  0.42335546  0.53783848  0.32935224  1
  O  O262  1  0.42335546  0.53783848  0.66268557  1
  O  O263  1  0.42335546  0.53783848  0.99601890  1
  O  O264  1  0.75668879  0.03783848  0.32935224  1
  O  O265  1  0.75668879  0.03783848  0.66268557  1
  O  O266  1  0.75668879  0.03783848  0.99601890  1
  O  O267  1  0.75668879  0.53783848  0.32935224  1
  O  O268  1  0.75668879  0.53783848  0.66268557  1
  O  O269  1  0.75668879  0.53783848  0.99601890  1
  O  O270  1  0.25668879  0.28783848  0.32935224  1
  O  O271  1  0.25668879  0.28783848  0.66268557  1
  O  O272  1  0.25668879  0.28783848  0.99601890  1
  O  O273  1  0.25668879  0.78783848  0.32935224  1
  O  O274  1  0.25668879  0.78783848  0.66268557  1
  O  O275  1  0.25668879  0.78783848  0.99601890  1
  O  O276  1  0.59002213  0.28783848  0.32935224  1
  O  O277  1  0.59002213  0.28783848  0.66268557  1
  O  O278  1  0.59002213  0.28783848  0.99601890  1
  O  O279  1  0.59002213  0.78783848  0.32935224  1
  O  O280  1  0.59002213  0.78783848  0.66268557  1
  O  O281  1  0.59002213  0.78783848  0.99601890  1
  O  O282  1  0.92335546  0.28783848  0.32935224  1
  O  O283  1  0.92335546  0.28783848  0.66268557  1
  O  O284  1  0.92335546  0.28783848  0.99601890  1
  O  O285  1  0.92335546  0.78783848  0.32935224  1
  O  O286  1  0.92335546  0.78783848  0.66268557  1
  O  O287  1  0.92335546  0.78783848  0.99601890  1
  O  O288  1  0.08333333  0.12500000  0.16666667  1
  O  O289  1  0.08333333  0.12500000  0.50000000  1
  O  O290  1  0.08333333  0.12500000  0.83333333  1
  O  O291  1  0.08333333  0.62500000  0.16666667  1
  O  O292  1  0.08333333  0.62500000  0.50000000  1
  O  O293  1  0.08333333  0.62500000  0.83333333  1
  O  O294  1  0.41666667  0.12500000  0.16666667  1
  O  O295  1  0.41666667  0.12500000  0.50000000  1
  O  O296  1  0.41666667  0.12500000  0.83333333  1
  O  O297  1  0.41666667  0.62500000  0.16666667  1
  O  O298  1  0.41666667  0.62500000  0.50000000  1
  O  O299  1  0.41666667  0.62500000  0.83333333  1
  O  O300  1  0.75000000  0.12500000  0.16666667  1
  O  O301  1  0.75000000  0.12500000  0.50000000  1
  O  O302  1  0.75000000  0.12500000  0.83333333  1
  O  O303  1  0.75000000  0.62500000  0.16666667  1
  O  O304  1  0.75000000  0.62500000  0.50000000  1
  O  O305  1  0.75000000  0.62500000  0.83333333  1
  O  O306  1  0.25000000  0.37500000  0.16666667  1
  O  O307  1  0.25000000  0.37500000  0.50000000  1
  O  O308  1  0.25000000  0.37500000  0.83333333  1
  O  O309  1  0.25000000  0.87500000  0.16666667  1
  O  O310  1  0.25000000  0.87500000  0.50000000  1
  O  O311  1  0.25000000  0.87500000  0.83333333  1
  O  O312  1  0.58333333  0.37500000  0.16666667  1
  O  O313  1  0.58333333  0.37500000  0.50000000  1
  O  O314  1  0.58333333  0.37500000  0.83333333  1
  O  O315  1  0.58333333  0.87500000  0.16666667  1
  O  O316  1  0.58333333  0.87500000  0.50000000  1
  O  O317  1  0.58333333  0.87500000  0.83333333  1
  O  O318  1  0.91666667  0.37500000  0.16666667  1
  O  O319  1  0.91666667  0.37500000  0.50000000  1
  O  O320  1  0.91666667  0.37500000  0.83333333  1
  O  O321  1  0.91666667  0.87500000  0.16666667  1
  O  O322  1  0.91666667  0.87500000  0.50000000  1
  O  O323  1  0.91666667  0.87500000  0.83333333  1
  O  O324  1  0.24331121  0.03783848  0.17064776  1
  O  O325  1  0.24331121  0.03783848  0.50398110  1
  O  O326  1  0.24331121  0.03783848  0.83731443  1
  O  O327  1  0.24331121  0.53783848  0.17064776  1
  O  O328  1  0.24331121  0.53783848  0.50398110  1
  O  O329  1  0.24331121  0.53783848  0.83731443  1
  O  O330  1  0.57664454  0.03783848  0.17064776  1
  O  O331  1  0.57664454  0.03783848  0.50398110  1
  O  O332  1  0.57664454  0.03783848  0.83731443  1
  O  O333  1  0.57664454  0.53783848  0.17064776  1
  O  O334  1  0.57664454  0.53783848  0.50398110  1
  O  O335  1  0.57664454  0.53783848  0.83731443  1
  O  O336  1  0.90997787  0.03783848  0.17064776  1
  O  O337  1  0.90997787  0.03783848  0.50398110  1
  O  O338  1  0.90997787  0.03783848  0.83731443  1
  O  O339  1  0.90997787  0.53783848  0.17064776  1
  O  O340  1  0.90997787  0.53783848  0.50398110  1
  O  O341  1  0.90997787  0.53783848  0.83731443  1
  O  O342  1  0.40997787  0.28783848  0.17064776  1
  O  O343  1  0.40997787  0.28783848  0.50398110  1
  O  O344  1  0.40997787  0.28783848  0.83731443  1
  O  O345  1  0.40997787  0.78783848  0.17064776  1
  O  O346  1  0.40997787  0.78783848  0.50398110  1
  O  O347  1  0.40997787  0.78783848  0.83731443  1
  O  O348  1  0.74331121  0.28783848  0.17064776  1
  O  O349  1  0.74331121  0.28783848  0.50398110  1
  O  O350  1  0.74331121  0.28783848  0.83731443  1
  O  O351  1  0.74331121  0.78783848  0.17064776  1
  O  O352  1  0.74331121  0.78783848  0.50398110  1
  O  O353  1  0.74331121  0.78783848  0.83731443  1
  O  O354  1  1.07664454  0.28783848  0.17064776  1
  O  O355  1  1.07664454  0.28783848  0.50398110  1
  O  O356  1  1.07664454  0.28783848  0.83731443  1
  O  O357  1  1.07664454  0.78783848  0.17064776  1
  O  O358  1  1.07664454  0.78783848  0.50398110  1
  O  O359  1  1.07664454  0.78783848  0.83731443  1
  O  O360  1  0.08333333  -0.12500000  0.00000000  1
  O  O361  1  0.08333333  -0.12500000  0.33333333  1
  O  O362  1  0.08333333  -0.12500000  0.66666667  1
  O  O363  1  0.08333333  0.37500000  0.00000000  1
  O  O364  1  0.08333333  0.37500000  0.33333333  1
  O  O365  1  0.08333333  0.37500000  0.66666667  1
  O  O366  1  0.41666667  -0.12500000  0.00000000  1
  O  O367  1  0.41666667  -0.12500000  0.33333333  1
  O  O368  1  0.41666667  -0.12500000  0.66666667  1
  O  O369  1  0.41666667  0.37500000  0.00000000  1
  O  O370  1  0.41666667  0.37500000  0.33333333  1
  O  O371  1  0.41666667  0.37500000  0.66666667  1
  O  O372  1  0.75000000  -0.12500000  0.00000000  1
  O  O373  1  0.75000000  -0.12500000  0.33333333  1
  O  O374  1  0.75000000  -0.12500000  0.66666667  1
  O  O375  1  0.75000000  0.37500000  0.00000000  1
  O  O376  1  0.75000000  0.37500000  0.33333333  1
  O  O377  1  0.75000000  0.37500000  0.66666667  1
  O  O378  1  0.25000000  0.12500000  0.00000000  1
  O  O379  1  0.25000000  0.12500000  0.33333333  1
  O  O380  1  0.25000000  0.12500000  0.66666667  1
  O  O381  1  0.25000000  0.62500000  0.00000000  1
  O  O382  1  0.25000000  0.62500000  0.33333333  1
  O  O383  1  0.25000000  0.62500000  0.66666667  1
  O  O384  1  0.58333333  0.12500000  0.00000000  1
  O  O385  1  0.58333333  0.12500000  0.33333333  1
  O  O386  1  0.58333333  0.12500000  0.66666667  1
  O  O387  1  0.58333333  0.62500000  0.00000000  1
  O  O388  1  0.58333333  0.62500000  0.33333333  1
  O  O389  1  0.58333333  0.62500000  0.66666667  1
  O  O390  1  0.91666667  0.12500000  0.00000000  1
  O  O391  1  0.91666667  0.12500000  0.33333333  1
  O  O392  1  0.91666667  0.12500000  0.66666667  1
  O  O393  1  0.91666667  0.62500000  0.00000000  1
  O  O394  1  0.91666667  0.62500000  0.33333333  1
  O  O395  1  0.91666667  0.62500000  0.66666667  1
  O  O396  1  0.24331121  -0.03783848  0.00398110  1
  O  O397  1  0.24331121  -0.03783848  0.33731443  1
  O  O398  1  0.24331121  -0.03783848  0.67064776  1
  O  O399  1  0.24331121  0.46216152  0.00398110  1
  O  O400  1  0.24331121  0.46216152  0.33731443  1
  O  O401  1  0.24331121  0.46216152  0.67064776  1
  O  O402  1  0.57664454  -0.03783848  0.00398110  1
  O  O403  1  0.57664454  -0.03783848  0.33731443  1
  O  O404  1  0.57664454  -0.03783848  0.67064776  1
  O  O405  1  0.57664454  0.46216152  0.00398110  1
  O  O406  1  0.57664454  0.46216152  0.33731443  1
  O  O407  1  0.57664454  0.46216152  0.67064776  1
  O  O408  1  0.90997787  -0.03783848  0.00398110  1
  O  O409  1  0.90997787  -0.03783848  0.33731443  1
  O  O410  1  0.90997787  -0.03783848  0.67064776  1
  O  O411  1  0.90997787  0.46216152  0.00398110  1
  O  O412  1  0.90997787  0.46216152  0.33731443  1
  O  O413  1  0.90997787  0.46216152  0.67064776  1
  O  O414  1  0.40997787  0.21216152  0.00398110  1
  O  O415  1  0.40997787  0.21216152  0.33731443  1
  O  O416  1  0.40997787  0.21216152  0.67064776  1
  O  O417  1  0.40997787  0.71216152  0.00398110  1
  O  O418  1  0.40997787  0.71216152  0.33731443  1
  O  O419  1  0.40997787  0.71216152  0.67064776  1
  O  O420  1  0.74331121  0.21216152  0.00398110  1
  O  O421  1  0.74331121  0.21216152  0.33731443  1
  O  O422  1  0.74331121  0.21216152  0.67064776  1
  O  O423  1  0.74331121  0.71216152  0.00398110  1
  O  O424  1  0.74331121  0.71216152  0.33731443  1
  O  O425  1  0.74331121  0.71216152  0.67064776  1
  O  O426  1  1.07664454  0.21216152  0.00398110  1
  O  O427  1  1.07664454  0.21216152  0.33731443  1
  O  O428  1  1.07664454  0.21216152  0.67064776  1
  O  O429  1  1.07664454  0.71216152  0.00398110  1
  O  O430  1  1.07664454  0.71216152  0.33731443  1
  O  O431  1  1.07664454  0.71216152  0.67064776  1
