# generated using pymatgen
data_Mg3(AsO4)2
_symmetry_space_group_name_H-M   'P 1'
_cell_length_a   16.00941699
_cell_length_b   16.73041997
_cell_length_c   18.06309377
_cell_angle_alpha   90.00000000
_cell_angle_beta   120.25491284
_cell_angle_gamma   90.00000000
_symmetry_Int_Tables_number   1
_chemical_formula_structural   Mg3(AsO4)2
_chemical_formula_sum   'Mg72 As48 O192'
_cell_volume   4179.11023749
_cell_formula_units_Z   24
loop_
 _symmetry_equiv_pos_site_id
 _symmetry_equiv_pos_as_xyz
  1  'x, y, z'
loop_
 _atom_site_type_symbol
 _atom_site_label
 _atom_site_symmetry_multiplicity
 _atom_site_fract_x
 _atom_site_fract_y
 _atom_site_fract_z
 _atom_site_occupancy
  Mg  Mg0  1  0.16666667  0.00000000  0.25000000  1
  Mg  Mg1  1  0.16666667  0.00000000  0.75000000  1
  Mg  Mg2  1  0.16666667  0.50000000  0.25000000  1
  Mg  Mg3  1  0.16666667  0.50000000  0.75000000  1
  Mg  Mg4  1  0.50000000  0.00000000  0.25000000  1
  Mg  Mg5  1  0.50000000  0.00000000  0.75000000  1
  Mg  Mg6  1  0.50000000  0.50000000  0.25000000  1
  Mg  Mg7  1  0.50000000  0.50000000  0.75000000  1
  Mg  Mg8  1  0.83333333  0.00000000  0.25000000  1
  Mg  Mg9  1  0.83333333  0.00000000  0.75000000  1
  Mg  Mg10  1  0.83333333  0.50000000  0.25000000  1
  Mg  Mg11  1  0.83333333  0.50000000  0.75000000  1
  Mg  Mg12  1  0.16753149  0.17841582  0.30177866  1
  Mg  Mg13  1  0.16753149  0.17841582  0.80177866  1
  Mg  Mg14  1  0.16753149  0.67841582  0.30177866  1
  Mg  Mg15  1  0.16753149  0.67841582  0.80177866  1
  Mg  Mg16  1  0.50086483  0.17841582  0.30177866  1
  Mg  Mg17  1  0.50086483  0.17841582  0.80177866  1
  Mg  Mg18  1  0.50086483  0.67841582  0.30177866  1
  Mg  Mg19  1  0.50086483  0.67841582  0.80177866  1
  Mg  Mg20  1  0.83419816  0.17841582  0.30177866  1
  Mg  Mg21  1  0.83419816  0.17841582  0.80177866  1
  Mg  Mg22  1  0.83419816  0.67841582  0.30177866  1
  Mg  Mg23  1  0.83419816  0.67841582  0.80177866  1
  Mg  Mg24  1  0.16580184  0.42841582  0.44822134  1
  Mg  Mg25  1  0.16580184  0.42841582  0.94822134  1
  Mg  Mg26  1  0.16580184  0.92841582  0.44822134  1
  Mg  Mg27  1  0.16580184  0.92841582  0.94822134  1
  Mg  Mg28  1  0.49913517  0.42841582  0.44822134  1
  Mg  Mg29  1  0.49913517  0.42841582  0.94822134  1
  Mg  Mg30  1  0.49913517  0.92841582  0.44822134  1
  Mg  Mg31  1  0.49913517  0.92841582  0.94822134  1
  Mg  Mg32  1  0.83246851  0.42841582  0.44822134  1
  Mg  Mg33  1  0.83246851  0.42841582  0.94822134  1
  Mg  Mg34  1  0.83246851  0.92841582  0.44822134  1
  Mg  Mg35  1  0.83246851  0.92841582  0.94822134  1
  Mg  Mg36  1  0.16666667  0.25000000  0.00000000  1
  Mg  Mg37  1  0.16666667  0.25000000  0.50000000  1
  Mg  Mg38  1  0.16666667  0.75000000  0.00000000  1
  Mg  Mg39  1  0.16666667  0.75000000  0.50000000  1
  Mg  Mg40  1  0.50000000  0.25000000  0.00000000  1
  Mg  Mg41  1  0.50000000  0.25000000  0.50000000  1
  Mg  Mg42  1  0.50000000  0.75000000  0.00000000  1
  Mg  Mg43  1  0.50000000  0.75000000  0.50000000  1
  Mg  Mg44  1  0.83333333  0.25000000  0.00000000  1
  Mg  Mg45  1  0.83333333  0.25000000  0.50000000  1
  Mg  Mg46  1  0.83333333  0.75000000  0.00000000  1
  Mg  Mg47  1  0.83333333  0.75000000  0.50000000  1
  Mg  Mg48  1  0.16753149  0.07158418  0.05177866  1
  Mg  Mg49  1  0.16753149  0.07158418  0.55177866  1
  Mg  Mg50  1  0.16753149  0.57158418  0.05177866  1
  Mg  Mg51  1  0.16753149  0.57158418  0.55177866  1
  Mg  Mg52  1  0.50086483  0.07158418  0.05177866  1
  Mg  Mg53  1  0.50086483  0.07158418  0.55177866  1
  Mg  Mg54  1  0.50086483  0.57158418  0.05177866  1
  Mg  Mg55  1  0.50086483  0.57158418  0.55177866  1
  Mg  Mg56  1  0.83419816  0.07158418  0.05177866  1
  Mg  Mg57  1  0.83419816  0.07158418  0.55177866  1
  Mg  Mg58  1  0.83419816  0.57158418  0.05177866  1
  Mg  Mg59  1  0.83419816  0.57158418  0.55177866  1
  Mg  Mg60  1  0.16580184  0.32158418  0.19822134  1
  Mg  Mg61  1  0.16580184  0.32158418  0.69822134  1
  Mg  Mg62  1  0.16580184  0.82158418  0.19822134  1
  Mg  Mg63  1  0.16580184  0.82158418  0.69822134  1
  Mg  Mg64  1  0.49913517  0.32158418  0.19822134  1
  Mg  Mg65  1  0.49913517  0.32158418  0.69822134  1
  Mg  Mg66  1  0.49913517  0.82158418  0.19822134  1
  Mg  Mg67  1  0.49913517  0.82158418  0.69822134  1
  Mg  Mg68  1  0.83246851  0.32158418  0.19822134  1
  Mg  Mg69  1  0.83246851  0.32158418  0.69822134  1
  Mg  Mg70  1  0.83246851  0.82158418  0.19822134  1
  Mg  Mg71  1  0.83246851  0.82158418  0.69822134  1
  As  As72  1  0.05026084  0.15203245  0.09771105  1
  As  As73  1  0.05026084  0.15203245  0.59771105  1
  As  As74  1  0.05026084  0.65203245  0.09771105  1
  As  As75  1  0.05026084  0.65203245  0.59771105  1
  As  As76  1  0.38359417  0.15203245  0.09771105  1
  As  As77  1  0.38359417  0.15203245  0.59771105  1
  As  As78  1  0.38359417  0.65203245  0.09771105  1
  As  As79  1  0.38359417  0.65203245  0.59771105  1
  As  As80  1  0.71692751  0.15203245  0.09771105  1
  As  As81  1  0.71692751  0.15203245  0.59771105  1
  As  As82  1  0.71692751  0.65203245  0.09771105  1
  As  As83  1  0.71692751  0.65203245  0.59771105  1
  As  As84  1  0.28307249  0.40203245  0.15228895  1
  As  As85  1  0.28307249  0.40203245  0.65228895  1
  As  As86  1  0.28307249  0.90203245  0.15228895  1
  As  As87  1  0.28307249  0.90203245  0.65228895  1
  As  As88  1  0.61640583  0.40203245  0.15228895  1
  As  As89  1  0.61640583  0.40203245  0.65228895  1
  As  As90  1  0.61640583  0.90203245  0.15228895  1
  As  As91  1  0.61640583  0.90203245  0.65228895  1
  As  As92  1  0.94973916  0.40203245  0.15228895  1
  As  As93  1  0.94973916  0.40203245  0.65228895  1
  As  As94  1  0.94973916  0.90203245  0.15228895  1
  As  As95  1  0.94973916  0.90203245  0.65228895  1
  As  As96  1  0.05026084  0.09796755  0.34771105  1
  As  As97  1  0.05026084  0.09796755  0.84771105  1
  As  As98  1  0.05026084  0.59796755  0.34771105  1
  As  As99  1  0.05026084  0.59796755  0.84771105  1
  As  As100  1  0.38359417  0.09796755  0.34771105  1
  As  As101  1  0.38359417  0.09796755  0.84771105  1
  As  As102  1  0.38359417  0.59796755  0.34771105  1
  As  As103  1  0.38359417  0.59796755  0.84771105  1
  As  As104  1  0.71692751  0.09796755  0.34771105  1
  As  As105  1  0.71692751  0.09796755  0.84771105  1
  As  As106  1  0.71692751  0.59796755  0.34771105  1
  As  As107  1  0.71692751  0.59796755  0.84771105  1
  As  As108  1  0.28307249  0.34796755  0.40228895  1
  As  As109  1  0.28307249  0.34796755  0.90228895  1
  As  As110  1  0.28307249  0.84796755  0.40228895  1
  As  As111  1  0.28307249  0.84796755  0.90228895  1
  As  As112  1  0.61640583  0.34796755  0.40228895  1
  As  As113  1  0.61640583  0.34796755  0.90228895  1
  As  As114  1  0.61640583  0.84796755  0.40228895  1
  As  As115  1  0.61640583  0.84796755  0.90228895  1
  As  As116  1  0.94973916  0.34796755  0.40228895  1
  As  As117  1  0.94973916  0.34796755  0.90228895  1
  As  As118  1  0.94973916  0.84796755  0.40228895  1
  As  As119  1  0.94973916  0.84796755  0.90228895  1
  O  O120  1  0.22344253  0.43826862  0.37005250  1
  O  O121  1  0.22344253  0.43826862  0.87005250  1
  O  O122  1  0.22344253  0.93826862  0.37005250  1
  O  O123  1  0.22344253  0.93826862  0.87005250  1
  O  O124  1  0.55677586  0.43826862  0.37005250  1
  O  O125  1  0.55677586  0.43826862  0.87005250  1
  O  O126  1  0.55677586  0.93826862  0.37005250  1
  O  O127  1  0.55677586  0.93826862  0.87005250  1
  O  O128  1  0.89010919  0.43826862  0.37005250  1
  O  O129  1  0.89010919  0.43826862  0.87005250  1
  O  O130  1  0.89010919  0.93826862  0.37005250  1
  O  O131  1  0.89010919  0.93826862  0.87005250  1
  O  O132  1  0.09921393  0.21823778  0.18071205  1
  O  O133  1  0.09921393  0.21823778  0.68071205  1
  O  O134  1  0.09921393  0.71823778  0.18071205  1
  O  O135  1  0.09921393  0.71823778  0.68071205  1
  O  O136  1  0.43254726  0.21823778  0.18071205  1
  O  O137  1  0.43254726  0.21823778  0.68071205  1
  O  O138  1  0.43254726  0.71823778  0.18071205  1
  O  O139  1  0.43254726  0.71823778  0.68071205  1
  O  O140  1  0.76588060  0.21823778  0.18071205  1
  O  O141  1  0.76588060  0.21823778  0.68071205  1
  O  O142  1  0.76588060  0.71823778  0.18071205  1
  O  O143  1  0.76588060  0.71823778  0.68071205  1
  O  O144  1  0.25460442  0.32414987  0.47916668  1
  O  O145  1  0.25460442  0.32414987  0.97916668  1
  O  O146  1  0.25460442  0.82414987  0.47916668  1
  O  O147  1  0.25460442  0.82414987  0.97916668  1
  O  O148  1  0.58793776  0.32414987  0.47916668  1
  O  O149  1  0.58793776  0.32414987  0.97916668  1
  O  O150  1  0.58793776  0.82414987  0.47916668  1
  O  O151  1  0.58793776  0.82414987  0.97916668  1
  O  O152  1  0.92127109  0.32414987  0.47916668  1
  O  O153  1  0.92127109  0.32414987  0.97916668  1
  O  O154  1  0.92127109  0.82414987  0.47916668  1
  O  O155  1  0.92127109  0.82414987  0.97916668  1
  O  O156  1  0.07110448  0.40093251  0.19278224  1
  O  O157  1  0.07110448  0.40093251  0.69278224  1
  O  O158  1  0.07110448  0.90093251  0.19278224  1
  O  O159  1  0.07110448  0.90093251  0.69278224  1
  O  O160  1  0.40443781  0.40093251  0.19278224  1
  O  O161  1  0.40443781  0.40093251  0.69278224  1
  O  O162  1  0.40443781  0.90093251  0.19278224  1
  O  O163  1  0.40443781  0.90093251  0.69278224  1
  O  O164  1  0.73777114  0.40093251  0.19278224  1
  O  O165  1  0.73777114  0.40093251  0.69278224  1
  O  O166  1  0.73777114  0.90093251  0.19278224  1
  O  O167  1  0.73777114  0.90093251  0.69278224  1
  O  O168  1  0.07872891  0.07414987  0.27083332  1
  O  O169  1  0.07872891  0.07414987  0.77083332  1
  O  O170  1  0.07872891  0.57414987  0.27083332  1
  O  O171  1  0.07872891  0.57414987  0.77083332  1
  O  O172  1  0.41206224  0.07414987  0.27083332  1
  O  O173  1  0.41206224  0.07414987  0.77083332  1
  O  O174  1  0.41206224  0.57414987  0.27083332  1
  O  O175  1  0.41206224  0.57414987  0.77083332  1
  O  O176  1  0.74539558  0.07414987  0.27083332  1
  O  O177  1  0.74539558  0.07414987  0.77083332  1
  O  O178  1  0.74539558  0.57414987  0.27083332  1
  O  O179  1  0.74539558  0.57414987  0.77083332  1
  O  O180  1  0.10989081  0.18826862  0.37994750  1
  O  O181  1  0.10989081  0.18826862  0.87994750  1
  O  O182  1  0.10989081  0.68826862  0.37994750  1
  O  O183  1  0.10989081  0.68826862  0.87994750  1
  O  O184  1  0.44322414  0.18826862  0.37994750  1
  O  O185  1  0.44322414  0.18826862  0.87994750  1
  O  O186  1  0.44322414  0.68826862  0.37994750  1
  O  O187  1  0.44322414  0.68826862  0.87994750  1
  O  O188  1  0.77655747  0.18826862  0.37994750  1
  O  O189  1  0.77655747  0.18826862  0.87994750  1
  O  O190  1  0.77655747  0.68826862  0.37994750  1
  O  O191  1  0.77655747  0.68826862  0.87994750  1
  O  O192  1  0.26222886  0.15093251  0.05721776  1
  O  O193  1  0.26222886  0.15093251  0.55721776  1
  O  O194  1  0.26222886  0.65093251  0.05721776  1
  O  O195  1  0.26222886  0.65093251  0.55721776  1
  O  O196  1  0.59556219  0.15093251  0.05721776  1
  O  O197  1  0.59556219  0.15093251  0.55721776  1
  O  O198  1  0.59556219  0.65093251  0.05721776  1
  O  O199  1  0.59556219  0.65093251  0.55721776  1
  O  O200  1  0.92889552  0.15093251  0.05721776  1
  O  O201  1  0.92889552  0.15093251  0.55721776  1
  O  O202  1  0.92889552  0.65093251  0.05721776  1
  O  O203  1  0.92889552  0.65093251  0.55721776  1
  O  O204  1  0.23411940  0.46823778  0.06928795  1
  O  O205  1  0.23411940  0.46823778  0.56928795  1
  O  O206  1  0.23411940  0.96823778  0.06928795  1
  O  O207  1  0.23411940  0.96823778  0.56928795  1
  O  O208  1  0.56745274  0.46823778  0.06928795  1
  O  O209  1  0.56745274  0.46823778  0.56928795  1
  O  O210  1  0.56745274  0.96823778  0.06928795  1
  O  O211  1  0.56745274  0.96823778  0.56928795  1
  O  O212  1  0.90078607  0.46823778  0.06928795  1
  O  O213  1  0.90078607  0.46823778  0.56928795  1
  O  O214  1  0.90078607  0.96823778  0.06928795  1
  O  O215  1  0.90078607  0.96823778  0.56928795  1
  O  O216  1  0.09921393  0.03176222  0.43071205  1
  O  O217  1  0.09921393  0.03176222  0.93071205  1
  O  O218  1  0.09921393  0.53176222  0.43071205  1
  O  O219  1  0.09921393  0.53176222  0.93071205  1
  O  O220  1  0.43254726  0.03176222  0.43071205  1
  O  O221  1  0.43254726  0.03176222  0.93071205  1
  O  O222  1  0.43254726  0.53176222  0.43071205  1
  O  O223  1  0.43254726  0.53176222  0.93071205  1
  O  O224  1  0.76588060  0.03176222  0.43071205  1
  O  O225  1  0.76588060  0.03176222  0.93071205  1
  O  O226  1  0.76588060  0.53176222  0.43071205  1
  O  O227  1  0.76588060  0.53176222  0.93071205  1
  O  O228  1  0.07110448  0.34906749  0.44278224  1
  O  O229  1  0.07110448  0.34906749  0.94278224  1
  O  O230  1  0.07110448  0.84906749  0.44278224  1
  O  O231  1  0.07110448  0.84906749  0.94278224  1
  O  O232  1  0.40443781  0.34906749  0.44278224  1
  O  O233  1  0.40443781  0.34906749  0.94278224  1
  O  O234  1  0.40443781  0.84906749  0.44278224  1
  O  O235  1  0.40443781  0.84906749  0.94278224  1
  O  O236  1  0.73777114  0.34906749  0.44278224  1
  O  O237  1  0.73777114  0.34906749  0.94278224  1
  O  O238  1  0.73777114  0.84906749  0.44278224  1
  O  O239  1  0.73777114  0.84906749  0.94278224  1
  O  O240  1  0.22344253  0.31173138  0.12005250  1
  O  O241  1  0.22344253  0.31173138  0.62005250  1
  O  O242  1  0.22344253  0.81173138  0.12005250  1
  O  O243  1  0.22344253  0.81173138  0.62005250  1
  O  O244  1  0.55677586  0.31173138  0.12005250  1
  O  O245  1  0.55677586  0.31173138  0.62005250  1
  O  O246  1  0.55677586  0.81173138  0.12005250  1
  O  O247  1  0.55677586  0.81173138  0.62005250  1
  O  O248  1  0.89010919  0.31173138  0.12005250  1
  O  O249  1  0.89010919  0.31173138  0.62005250  1
  O  O250  1  0.89010919  0.81173138  0.12005250  1
  O  O251  1  0.89010919  0.81173138  0.62005250  1
  O  O252  1  0.25460442  0.42585013  0.22916668  1
  O  O253  1  0.25460442  0.42585013  0.72916668  1
  O  O254  1  0.25460442  0.92585013  0.22916668  1
  O  O255  1  0.25460442  0.92585013  0.72916668  1
  O  O256  1  0.58793776  0.42585013  0.22916668  1
  O  O257  1  0.58793776  0.42585013  0.72916668  1
  O  O258  1  0.58793776  0.92585013  0.22916668  1
  O  O259  1  0.58793776  0.92585013  0.72916668  1
  O  O260  1  0.92127109  0.42585013  0.22916668  1
  O  O261  1  0.92127109  0.42585013  0.72916668  1
  O  O262  1  0.92127109  0.92585013  0.22916668  1
  O  O263  1  0.92127109  0.92585013  0.72916668  1
  O  O264  1  0.26222886  0.09906749  0.30721776  1
  O  O265  1  0.26222886  0.09906749  0.80721776  1
  O  O266  1  0.26222886  0.59906749  0.30721776  1
  O  O267  1  0.26222886  0.59906749  0.80721776  1
  O  O268  1  0.59556219  0.09906749  0.30721776  1
  O  O269  1  0.59556219  0.09906749  0.80721776  1
  O  O270  1  0.59556219  0.59906749  0.30721776  1
  O  O271  1  0.59556219  0.59906749  0.80721776  1
  O  O272  1  0.92889552  0.09906749  0.30721776  1
  O  O273  1  0.92889552  0.09906749  0.80721776  1
  O  O274  1  0.92889552  0.59906749  0.30721776  1
  O  O275  1  0.92889552  0.59906749  0.80721776  1
  O  O276  1  0.07872891  0.17585013  0.02083332  1
  O  O277  1  0.07872891  0.17585013  0.52083332  1
  O  O278  1  0.07872891  0.67585013  0.02083332  1
  O  O279  1  0.07872891  0.67585013  0.52083332  1
  O  O280  1  0.41206224  0.17585013  0.02083332  1
  O  O281  1  0.41206224  0.17585013  0.52083332  1
  O  O282  1  0.41206224  0.67585013  0.02083332  1
  O  O283  1  0.41206224  0.67585013  0.52083332  1
  O  O284  1  0.74539558  0.17585013  0.02083332  1
  O  O285  1  0.74539558  0.17585013  0.52083332  1
  O  O286  1  0.74539558  0.67585013  0.02083332  1
  O  O287  1  0.74539558  0.67585013  0.52083332  1
  O  O288  1  0.23411940  0.28176222  0.31928795  1
  O  O289  1  0.23411940  0.28176222  0.81928795  1
  O  O290  1  0.23411940  0.78176222  0.31928795  1
  O  O291  1  0.23411940  0.78176222  0.81928795  1
  O  O292  1  0.56745274  0.28176222  0.31928795  1
  O  O293  1  0.56745274  0.28176222  0.81928795  1
  O  O294  1  0.56745274  0.78176222  0.31928795  1
  O  O295  1  0.56745274  0.78176222  0.81928795  1
  O  O296  1  0.90078607  0.28176222  0.31928795  1
  O  O297  1  0.90078607  0.28176222  0.81928795  1
  O  O298  1  0.90078607  0.78176222  0.31928795  1
  O  O299  1  0.90078607  0.78176222  0.81928795  1
  O  O300  1  0.10989081  0.06173138  0.12994750  1
  O  O301  1  0.10989081  0.06173138  0.62994750  1
  O  O302  1  0.10989081  0.56173138  0.12994750  1
  O  O303  1  0.10989081  0.56173138  0.62994750  1
  O  O304  1  0.44322414  0.06173138  0.12994750  1
  O  O305  1  0.44322414  0.06173138  0.62994750  1
  O  O306  1  0.44322414  0.56173138  0.12994750  1
  O  O307  1  0.44322414  0.56173138  0.62994750  1
  O  O308  1  0.77655747  0.06173138  0.12994750  1
  O  O309  1  0.77655747  0.06173138  0.62994750  1
  O  O310  1  0.77655747  0.56173138  0.12994750  1
  O  O311  1  0.77655747  0.56173138  0.62994750  1
