# generated using pymatgen
data_Mg2SnO4
_symmetry_space_group_name_H-M   'P 1'
_cell_length_a   18.16057161
_cell_length_b   12.46236878
_cell_length_c   17.24014453
_cell_angle_alpha   90.00000000
_cell_angle_beta   90.00000000
_cell_angle_gamma   90.00000000
_symmetry_Int_Tables_number   1
_chemical_formula_structural   Mg2SnO4
_chemical_formula_sum   'Mg96 Sn48 O192'
_cell_volume   3901.85400155
_cell_formula_units_Z   48
loop_
 _symmetry_equiv_pos_site_id
 _symmetry_equiv_pos_as_xyz
  1  'x, y, z'
loop_
 _atom_site_type_symbol
 _atom_site_label
 _atom_site_symmetry_multiplicity
 _atom_site_fract_x
 _atom_site_fract_y
 _atom_site_fract_z
 _atom_site_occupancy
  Mg  Mg0  1  0.16666667  0.12500000  0.18106163  1
  Mg  Mg1  1  0.16666667  0.12500000  0.68106163  1
  Mg  Mg2  1  0.16666667  0.62500000  0.18106163  1
  Mg  Mg3  1  0.16666667  0.62500000  0.68106163  1
  Mg  Mg4  1  0.50000000  0.12500000  0.18106163  1
  Mg  Mg5  1  0.50000000  0.12500000  0.68106163  1
  Mg  Mg6  1  0.50000000  0.62500000  0.18106163  1
  Mg  Mg7  1  0.50000000  0.62500000  0.68106163  1
  Mg  Mg8  1  0.83333333  0.12500000  0.18106163  1
  Mg  Mg9  1  0.83333333  0.12500000  0.68106163  1
  Mg  Mg10  1  0.83333333  0.62500000  0.18106163  1
  Mg  Mg11  1  0.83333333  0.62500000  0.68106163  1
  Mg  Mg12  1  0.33333333  0.37500000  0.43106163  1
  Mg  Mg13  1  0.33333333  0.37500000  0.93106163  1
  Mg  Mg14  1  0.33333333  0.87500000  0.43106163  1
  Mg  Mg15  1  0.33333333  0.87500000  0.93106163  1
  Mg  Mg16  1  0.66666667  0.37500000  0.43106163  1
  Mg  Mg17  1  0.66666667  0.37500000  0.93106163  1
  Mg  Mg18  1  0.66666667  0.87500000  0.43106163  1
  Mg  Mg19  1  0.66666667  0.87500000  0.93106163  1
  Mg  Mg20  1  1.00000000  0.37500000  0.43106163  1
  Mg  Mg21  1  1.00000000  0.37500000  0.93106163  1
  Mg  Mg22  1  1.00000000  0.87500000  0.43106163  1
  Mg  Mg23  1  1.00000000  0.87500000  0.93106163  1
  Mg  Mg24  1  -0.00000000  0.12500000  0.06893837  1
  Mg  Mg25  1  -0.00000000  0.12500000  0.56893837  1
  Mg  Mg26  1  -0.00000000  0.62500000  0.06893837  1
  Mg  Mg27  1  -0.00000000  0.62500000  0.56893837  1
  Mg  Mg28  1  0.33333333  0.12500000  0.06893837  1
  Mg  Mg29  1  0.33333333  0.12500000  0.56893837  1
  Mg  Mg30  1  0.33333333  0.62500000  0.06893837  1
  Mg  Mg31  1  0.33333333  0.62500000  0.56893837  1
  Mg  Mg32  1  0.66666667  0.12500000  0.06893837  1
  Mg  Mg33  1  0.66666667  0.12500000  0.56893837  1
  Mg  Mg34  1  0.66666667  0.62500000  0.06893837  1
  Mg  Mg35  1  0.66666667  0.62500000  0.56893837  1
  Mg  Mg36  1  0.16666667  0.37500000  0.31893837  1
  Mg  Mg37  1  0.16666667  0.37500000  0.81893837  1
  Mg  Mg38  1  0.16666667  0.87500000  0.31893837  1
  Mg  Mg39  1  0.16666667  0.87500000  0.81893837  1
  Mg  Mg40  1  0.50000000  0.37500000  0.31893837  1
  Mg  Mg41  1  0.50000000  0.37500000  0.81893837  1
  Mg  Mg42  1  0.50000000  0.87500000  0.31893837  1
  Mg  Mg43  1  0.50000000  0.87500000  0.81893837  1
  Mg  Mg44  1  0.83333333  0.37500000  0.31893837  1
  Mg  Mg45  1  0.83333333  0.37500000  0.81893837  1
  Mg  Mg46  1  0.83333333  0.87500000  0.31893837  1
  Mg  Mg47  1  0.83333333  0.87500000  0.81893837  1
  Mg  Mg48  1  0.08333333  0.12500000  -0.12500000  1
  Mg  Mg49  1  0.08333333  0.12500000  0.37500000  1
  Mg  Mg50  1  0.08333333  0.62500000  -0.12500000  1
  Mg  Mg51  1  0.08333333  0.62500000  0.37500000  1
  Mg  Mg52  1  0.41666667  0.12500000  -0.12500000  1
  Mg  Mg53  1  0.41666667  0.12500000  0.37500000  1
  Mg  Mg54  1  0.41666667  0.62500000  -0.12500000  1
  Mg  Mg55  1  0.41666667  0.62500000  0.37500000  1
  Mg  Mg56  1  0.75000000  0.12500000  -0.12500000  1
  Mg  Mg57  1  0.75000000  0.12500000  0.37500000  1
  Mg  Mg58  1  0.75000000  0.62500000  -0.12500000  1
  Mg  Mg59  1  0.75000000  0.62500000  0.37500000  1
  Mg  Mg60  1  0.25000000  0.37500000  0.12500000  1
  Mg  Mg61  1  0.25000000  0.37500000  0.62500000  1
  Mg  Mg62  1  0.25000000  0.87500000  0.12500000  1
  Mg  Mg63  1  0.25000000  0.87500000  0.62500000  1
  Mg  Mg64  1  0.58333333  0.37500000  0.12500000  1
  Mg  Mg65  1  0.58333333  0.37500000  0.62500000  1
  Mg  Mg66  1  0.58333333  0.87500000  0.12500000  1
  Mg  Mg67  1  0.58333333  0.87500000  0.62500000  1
  Mg  Mg68  1  0.91666667  0.37500000  0.12500000  1
  Mg  Mg69  1  0.91666667  0.37500000  0.62500000  1
  Mg  Mg70  1  0.91666667  0.87500000  0.12500000  1
  Mg  Mg71  1  0.91666667  0.87500000  0.62500000  1
  Mg  Mg72  1  0.08333333  -0.12500000  0.12500000  1
  Mg  Mg73  1  0.08333333  -0.12500000  0.62500000  1
  Mg  Mg74  1  0.08333333  0.37500000  0.12500000  1
  Mg  Mg75  1  0.08333333  0.37500000  0.62500000  1
  Mg  Mg76  1  0.41666667  -0.12500000  0.12500000  1
  Mg  Mg77  1  0.41666667  -0.12500000  0.62500000  1
  Mg  Mg78  1  0.41666667  0.37500000  0.12500000  1
  Mg  Mg79  1  0.41666667  0.37500000  0.62500000  1
  Mg  Mg80  1  0.75000000  -0.12500000  0.12500000  1
  Mg  Mg81  1  0.75000000  -0.12500000  0.62500000  1
  Mg  Mg82  1  0.75000000  0.37500000  0.12500000  1
  Mg  Mg83  1  0.75000000  0.37500000  0.62500000  1
  Mg  Mg84  1  0.25000000  0.12500000  0.37500000  1
  Mg  Mg85  1  0.25000000  0.12500000  0.87500000  1
  Mg  Mg86  1  0.25000000  0.62500000  0.37500000  1
  Mg  Mg87  1  0.25000000  0.62500000  0.87500000  1
  Mg  Mg88  1  0.58333333  0.12500000  0.37500000  1
  Mg  Mg89  1  0.58333333  0.12500000  0.87500000  1
  Mg  Mg90  1  0.58333333  0.62500000  0.37500000  1
  Mg  Mg91  1  0.58333333  0.62500000  0.87500000  1
  Mg  Mg92  1  0.91666667  0.12500000  0.37500000  1
  Mg  Mg93  1  0.91666667  0.12500000  0.87500000  1
  Mg  Mg94  1  0.91666667  0.62500000  0.37500000  1
  Mg  Mg95  1  0.91666667  0.62500000  0.87500000  1
  Sn  Sn96  1  0.00000000  0.00000000  0.25000000  1
  Sn  Sn97  1  0.00000000  0.00000000  0.75000000  1
  Sn  Sn98  1  0.00000000  0.50000000  0.25000000  1
  Sn  Sn99  1  0.00000000  0.50000000  0.75000000  1
  Sn  Sn100  1  0.33333333  0.00000000  0.25000000  1
  Sn  Sn101  1  0.33333333  0.00000000  0.75000000  1
  Sn  Sn102  1  0.33333333  0.50000000  0.25000000  1
  Sn  Sn103  1  0.33333333  0.50000000  0.75000000  1
  Sn  Sn104  1  0.66666667  0.00000000  0.25000000  1
  Sn  Sn105  1  0.66666667  0.00000000  0.75000000  1
  Sn  Sn106  1  0.66666667  0.50000000  0.25000000  1
  Sn  Sn107  1  0.66666667  0.50000000  0.75000000  1
  Sn  Sn108  1  0.16666667  0.25000000  0.50000000  1
  Sn  Sn109  1  0.16666667  0.25000000  1.00000000  1
  Sn  Sn110  1  0.16666667  0.75000000  0.50000000  1
  Sn  Sn111  1  0.16666667  0.75000000  1.00000000  1
  Sn  Sn112  1  0.50000000  0.25000000  0.50000000  1
  Sn  Sn113  1  0.50000000  0.25000000  1.00000000  1
  Sn  Sn114  1  0.50000000  0.75000000  0.50000000  1
  Sn  Sn115  1  0.50000000  0.75000000  1.00000000  1
  Sn  Sn116  1  0.83333333  0.25000000  0.50000000  1
  Sn  Sn117  1  0.83333333  0.25000000  1.00000000  1
  Sn  Sn118  1  0.83333333  0.75000000  0.50000000  1
  Sn  Sn119  1  0.83333333  0.75000000  1.00000000  1
  Sn  Sn120  1  0.16666667  0.00000000  0.00000000  1
  Sn  Sn121  1  0.16666667  0.00000000  0.50000000  1
  Sn  Sn122  1  0.16666667  0.50000000  0.00000000  1
  Sn  Sn123  1  0.16666667  0.50000000  0.50000000  1
  Sn  Sn124  1  0.50000000  0.00000000  0.00000000  1
  Sn  Sn125  1  0.50000000  0.00000000  0.50000000  1
  Sn  Sn126  1  0.50000000  0.50000000  0.00000000  1
  Sn  Sn127  1  0.50000000  0.50000000  0.50000000  1
  Sn  Sn128  1  0.83333333  0.00000000  0.00000000  1
  Sn  Sn129  1  0.83333333  0.00000000  0.50000000  1
  Sn  Sn130  1  0.83333333  0.50000000  0.00000000  1
  Sn  Sn131  1  0.83333333  0.50000000  0.50000000  1
  Sn  Sn132  1  0.33333333  0.25000000  0.25000000  1
  Sn  Sn133  1  0.33333333  0.25000000  0.75000000  1
  Sn  Sn134  1  0.33333333  0.75000000  0.25000000  1
  Sn  Sn135  1  0.33333333  0.75000000  0.75000000  1
  Sn  Sn136  1  0.66666667  0.25000000  0.25000000  1
  Sn  Sn137  1  0.66666667  0.25000000  0.75000000  1
  Sn  Sn138  1  0.66666667  0.75000000  0.25000000  1
  Sn  Sn139  1  0.66666667  0.75000000  0.75000000  1
  Sn  Sn140  1  1.00000000  0.25000000  0.25000000  1
  Sn  Sn141  1  1.00000000  0.25000000  0.75000000  1
  Sn  Sn142  1  1.00000000  0.75000000  0.25000000  1
  Sn  Sn143  1  1.00000000  0.75000000  0.75000000  1
  O  O144  1  0.08838658  0.12500000  -0.00200867  1
  O  O145  1  0.08838658  0.12500000  0.49799133  1
  O  O146  1  0.08838658  0.62500000  -0.00200867  1
  O  O147  1  0.08838658  0.62500000  0.49799133  1
  O  O148  1  0.42171992  0.12500000  -0.00200867  1
  O  O149  1  0.42171992  0.12500000  0.49799133  1
  O  O150  1  0.42171992  0.62500000  -0.00200867  1
  O  O151  1  0.42171992  0.62500000  0.49799133  1
  O  O152  1  0.75505325  0.12500000  -0.00200867  1
  O  O153  1  0.75505325  0.12500000  0.49799133  1
  O  O154  1  0.75505325  0.62500000  -0.00200867  1
  O  O155  1  0.75505325  0.62500000  0.49799133  1
  O  O156  1  0.25505325  0.37500000  0.24799133  1
  O  O157  1  0.25505325  0.37500000  0.74799133  1
  O  O158  1  0.25505325  0.87500000  0.24799133  1
  O  O159  1  0.25505325  0.87500000  0.74799133  1
  O  O160  1  0.58838658  0.37500000  0.24799133  1
  O  O161  1  0.58838658  0.37500000  0.74799133  1
  O  O162  1  0.58838658  0.87500000  0.24799133  1
  O  O163  1  0.58838658  0.87500000  0.74799133  1
  O  O164  1  0.92171992  0.37500000  0.24799133  1
  O  O165  1  0.92171992  0.37500000  0.74799133  1
  O  O166  1  0.92171992  0.87500000  0.24799133  1
  O  O167  1  0.92171992  0.87500000  0.74799133  1
  O  O168  1  0.16666667  0.24070225  -0.11822535  1
  O  O169  1  0.16666667  0.24070225  0.38177465  1
  O  O170  1  0.16666667  0.74070225  -0.11822535  1
  O  O171  1  0.16666667  0.74070225  0.38177465  1
  O  O172  1  0.50000000  0.24070225  -0.11822535  1
  O  O173  1  0.50000000  0.24070225  0.38177465  1
  O  O174  1  0.50000000  0.74070225  -0.11822535  1
  O  O175  1  0.50000000  0.74070225  0.38177465  1
  O  O176  1  0.83333333  0.24070225  -0.11822535  1
  O  O177  1  0.83333333  0.24070225  0.38177465  1
  O  O178  1  0.83333333  0.74070225  -0.11822535  1
  O  O179  1  0.83333333  0.74070225  0.38177465  1
  O  O180  1  0.33333333  0.49070225  0.13177465  1
  O  O181  1  0.33333333  0.49070225  0.63177465  1
  O  O182  1  0.33333333  0.99070225  0.13177465  1
  O  O183  1  0.33333333  0.99070225  0.63177465  1
  O  O184  1  0.66666667  0.49070225  0.13177465  1
  O  O185  1  0.66666667  0.49070225  0.63177465  1
  O  O186  1  0.66666667  0.99070225  0.13177465  1
  O  O187  1  0.66666667  0.99070225  0.63177465  1
  O  O188  1  1.00000000  0.49070225  0.13177465  1
  O  O189  1  1.00000000  0.49070225  0.63177465  1
  O  O190  1  1.00000000  0.99070225  0.13177465  1
  O  O191  1  1.00000000  0.99070225  0.63177465  1
  O  O192  1  0.24494675  0.12500000  -0.00200867  1
  O  O193  1  0.24494675  0.12500000  0.49799133  1
  O  O194  1  0.24494675  0.62500000  -0.00200867  1
  O  O195  1  0.24494675  0.62500000  0.49799133  1
  O  O196  1  0.57828008  0.12500000  -0.00200867  1
  O  O197  1  0.57828008  0.12500000  0.49799133  1
  O  O198  1  0.57828008  0.62500000  -0.00200867  1
  O  O199  1  0.57828008  0.62500000  0.49799133  1
  O  O200  1  0.91161342  0.12500000  -0.00200867  1
  O  O201  1  0.91161342  0.12500000  0.49799133  1
  O  O202  1  0.91161342  0.62500000  -0.00200867  1
  O  O203  1  0.91161342  0.62500000  0.49799133  1
  O  O204  1  0.41161342  0.37500000  0.24799133  1
  O  O205  1  0.41161342  0.37500000  0.74799133  1
  O  O206  1  0.41161342  0.87500000  0.24799133  1
  O  O207  1  0.41161342  0.87500000  0.74799133  1
  O  O208  1  0.74494675  0.37500000  0.24799133  1
  O  O209  1  0.74494675  0.37500000  0.74799133  1
  O  O210  1  0.74494675  0.87500000  0.24799133  1
  O  O211  1  0.74494675  0.87500000  0.74799133  1
  O  O212  1  1.07828008  0.37500000  0.24799133  1
  O  O213  1  1.07828008  0.37500000  0.74799133  1
  O  O214  1  1.07828008  0.87500000  0.24799133  1
  O  O215  1  1.07828008  0.87500000  0.74799133  1
  O  O216  1  0.00000000  0.25929775  0.13177465  1
  O  O217  1  0.00000000  0.25929775  0.63177465  1
  O  O218  1  0.00000000  0.75929775  0.13177465  1
  O  O219  1  0.00000000  0.75929775  0.63177465  1
  O  O220  1  0.33333333  0.25929775  0.13177465  1
  O  O221  1  0.33333333  0.25929775  0.63177465  1
  O  O222  1  0.33333333  0.75929775  0.13177465  1
  O  O223  1  0.33333333  0.75929775  0.63177465  1
  O  O224  1  0.66666667  0.25929775  0.13177465  1
  O  O225  1  0.66666667  0.25929775  0.63177465  1
  O  O226  1  0.66666667  0.75929775  0.13177465  1
  O  O227  1  0.66666667  0.75929775  0.63177465  1
  O  O228  1  0.16666667  0.50929775  0.38177465  1
  O  O229  1  0.16666667  0.50929775  0.88177465  1
  O  O230  1  0.16666667  1.00929775  0.38177465  1
  O  O231  1  0.16666667  1.00929775  0.88177465  1
  O  O232  1  0.50000000  0.50929775  0.38177465  1
  O  O233  1  0.50000000  0.50929775  0.88177465  1
  O  O234  1  0.50000000  1.00929775  0.38177465  1
  O  O235  1  0.50000000  1.00929775  0.88177465  1
  O  O236  1  0.83333333  0.50929775  0.38177465  1
  O  O237  1  0.83333333  0.50929775  0.88177465  1
  O  O238  1  0.83333333  1.00929775  0.38177465  1
  O  O239  1  0.83333333  1.00929775  0.88177465  1
  O  O240  1  0.16666667  -0.00929775  0.11822535  1
  O  O241  1  0.16666667  -0.00929775  0.61822535  1
  O  O242  1  0.16666667  0.49070225  0.11822535  1
  O  O243  1  0.16666667  0.49070225  0.61822535  1
  O  O244  1  0.50000000  -0.00929775  0.11822535  1
  O  O245  1  0.50000000  -0.00929775  0.61822535  1
  O  O246  1  0.50000000  0.49070225  0.11822535  1
  O  O247  1  0.50000000  0.49070225  0.61822535  1
  O  O248  1  0.83333333  -0.00929775  0.11822535  1
  O  O249  1  0.83333333  -0.00929775  0.61822535  1
  O  O250  1  0.83333333  0.49070225  0.11822535  1
  O  O251  1  0.83333333  0.49070225  0.61822535  1
  O  O252  1  0.33333333  0.24070225  0.36822535  1
  O  O253  1  0.33333333  0.24070225  0.86822535  1
  O  O254  1  0.33333333  0.74070225  0.36822535  1
  O  O255  1  0.33333333  0.74070225  0.86822535  1
  O  O256  1  0.66666667  0.24070225  0.36822535  1
  O  O257  1  0.66666667  0.24070225  0.86822535  1
  O  O258  1  0.66666667  0.74070225  0.36822535  1
  O  O259  1  0.66666667  0.74070225  0.86822535  1
  O  O260  1  1.00000000  0.24070225  0.36822535  1
  O  O261  1  1.00000000  0.24070225  0.86822535  1
  O  O262  1  1.00000000  0.74070225  0.36822535  1
  O  O263  1  1.00000000  0.74070225  0.86822535  1
  O  O264  1  0.00000000  0.00929775  0.36822535  1
  O  O265  1  0.00000000  0.00929775  0.86822535  1
  O  O266  1  0.00000000  0.50929775  0.36822535  1
  O  O267  1  0.00000000  0.50929775  0.86822535  1
  O  O268  1  0.33333333  0.00929775  0.36822535  1
  O  O269  1  0.33333333  0.00929775  0.86822535  1
  O  O270  1  0.33333333  0.50929775  0.36822535  1
  O  O271  1  0.33333333  0.50929775  0.86822535  1
  O  O272  1  0.66666667  0.00929775  0.36822535  1
  O  O273  1  0.66666667  0.00929775  0.86822535  1
  O  O274  1  0.66666667  0.50929775  0.36822535  1
  O  O275  1  0.66666667  0.50929775  0.86822535  1
  O  O276  1  0.16666667  0.25929775  0.61822535  1
  O  O277  1  0.16666667  0.25929775  1.11822535  1
  O  O278  1  0.16666667  0.75929775  0.61822535  1
  O  O279  1  0.16666667  0.75929775  1.11822535  1
  O  O280  1  0.50000000  0.25929775  0.61822535  1
  O  O281  1  0.50000000  0.25929775  1.11822535  1
  O  O282  1  0.50000000  0.75929775  0.61822535  1
  O  O283  1  0.50000000  0.75929775  1.11822535  1
  O  O284  1  0.83333333  0.25929775  0.61822535  1
  O  O285  1  0.83333333  0.25929775  1.11822535  1
  O  O286  1  0.83333333  0.75929775  0.61822535  1
  O  O287  1  0.83333333  0.75929775  1.11822535  1
  O  O288  1  -0.07828008  0.12500000  0.25200867  1
  O  O289  1  -0.07828008  0.12500000  0.75200867  1
  O  O290  1  -0.07828008  0.62500000  0.25200867  1
  O  O291  1  -0.07828008  0.62500000  0.75200867  1
  O  O292  1  0.25505325  0.12500000  0.25200867  1
  O  O293  1  0.25505325  0.12500000  0.75200867  1
  O  O294  1  0.25505325  0.62500000  0.25200867  1
  O  O295  1  0.25505325  0.62500000  0.75200867  1
  O  O296  1  0.58838658  0.12500000  0.25200867  1
  O  O297  1  0.58838658  0.12500000  0.75200867  1
  O  O298  1  0.58838658  0.62500000  0.25200867  1
  O  O299  1  0.58838658  0.62500000  0.75200867  1
  O  O300  1  0.08838658  0.37500000  0.50200867  1
  O  O301  1  0.08838658  0.37500000  1.00200867  1
  O  O302  1  0.08838658  0.87500000  0.50200867  1
  O  O303  1  0.08838658  0.87500000  1.00200867  1
  O  O304  1  0.42171992  0.37500000  0.50200867  1
  O  O305  1  0.42171992  0.37500000  1.00200867  1
  O  O306  1  0.42171992  0.87500000  0.50200867  1
  O  O307  1  0.42171992  0.87500000  1.00200867  1
  O  O308  1  0.75505325  0.37500000  0.50200867  1
  O  O309  1  0.75505325  0.37500000  1.00200867  1
  O  O310  1  0.75505325  0.87500000  0.50200867  1
  O  O311  1  0.75505325  0.87500000  1.00200867  1
  O  O312  1  0.07828008  0.12500000  0.25200867  1
  O  O313  1  0.07828008  0.12500000  0.75200867  1
  O  O314  1  0.07828008  0.62500000  0.25200867  1
  O  O315  1  0.07828008  0.62500000  0.75200867  1
  O  O316  1  0.41161342  0.12500000  0.25200867  1
  O  O317  1  0.41161342  0.12500000  0.75200867  1
  O  O318  1  0.41161342  0.62500000  0.25200867  1
  O  O319  1  0.41161342  0.62500000  0.75200867  1
  O  O320  1  0.74494675  0.12500000  0.25200867  1
  O  O321  1  0.74494675  0.12500000  0.75200867  1
  O  O322  1  0.74494675  0.62500000  0.25200867  1
  O  O323  1  0.74494675  0.62500000  0.75200867  1
  O  O324  1  0.24494675  0.37500000  0.50200867  1
  O  O325  1  0.24494675  0.37500000  1.00200867  1
  O  O326  1  0.24494675  0.87500000  0.50200867  1
  O  O327  1  0.24494675  0.87500000  1.00200867  1
  O  O328  1  0.57828008  0.37500000  0.50200867  1
  O  O329  1  0.57828008  0.37500000  1.00200867  1
  O  O330  1  0.57828008  0.87500000  0.50200867  1
  O  O331  1  0.57828008  0.87500000  1.00200867  1
  O  O332  1  0.91161342  0.37500000  0.50200867  1
  O  O333  1  0.91161342  0.37500000  1.00200867  1
  O  O334  1  0.91161342  0.87500000  0.50200867  1
  O  O335  1  0.91161342  0.87500000  1.00200867  1
