# generated using pymatgen
data_Ca4Bi2O
_symmetry_space_group_name_H-M   'P 1'
_cell_length_a   18.81235504
_cell_length_b   18.81235504
_cell_length_c   16.34947283
_cell_angle_alpha   90.00000000
_cell_angle_beta   90.00000000
_cell_angle_gamma   90.00000000
_symmetry_Int_Tables_number   1
_chemical_formula_structural   Ca4Bi2O
_chemical_formula_sum   'Ca128 Bi64 O32'
_cell_volume   5786.15531141
_cell_formula_units_Z   32
loop_
 _symmetry_equiv_pos_site_id
 _symmetry_equiv_pos_as_xyz
  1  'x, y, z'
loop_
 _atom_site_type_symbol
 _atom_site_label
 _atom_site_symmetry_multiplicity
 _atom_site_fract_x
 _atom_site_fract_y
 _atom_site_fract_z
 _atom_site_occupancy
  Ca  Ca0  1  0.75000000  0.75000000  0.33758781  1
  Ca  Ca1  1  0.75000000  0.50000000  0.33758781  1
  Ca  Ca2  1  0.75000000  0.25000000  0.33758781  1
  Ca  Ca3  1  0.75000000  -0.00000000  0.33758781  1
  Ca  Ca4  1  0.50000000  0.75000000  0.33758781  1
  Ca  Ca5  1  0.50000000  0.50000000  0.33758781  1
  Ca  Ca6  1  0.50000000  0.25000000  0.33758781  1
  Ca  Ca7  1  0.50000000  -0.00000000  0.33758781  1
  Ca  Ca8  1  0.25000000  0.75000000  0.33758781  1
  Ca  Ca9  1  0.25000000  0.50000000  0.33758781  1
  Ca  Ca10  1  0.25000000  0.25000000  0.33758781  1
  Ca  Ca11  1  0.25000000  -0.00000000  0.33758781  1
  Ca  Ca12  1  -0.00000000  0.75000000  0.33758781  1
  Ca  Ca13  1  -0.00000000  0.50000000  0.33758781  1
  Ca  Ca14  1  -0.00000000  0.25000000  0.33758781  1
  Ca  Ca15  1  -0.00000000  -0.00000000  0.33758781  1
  Ca  Ca16  1  0.62500000  0.62500000  0.83758781  1
  Ca  Ca17  1  0.62500000  0.37500000  0.83758781  1
  Ca  Ca18  1  0.62500000  0.12500000  0.83758781  1
  Ca  Ca19  1  0.62500000  -0.12500000  0.83758781  1
  Ca  Ca20  1  0.37500000  0.62500000  0.83758781  1
  Ca  Ca21  1  0.37500000  0.37500000  0.83758781  1
  Ca  Ca22  1  0.37500000  0.12500000  0.83758781  1
  Ca  Ca23  1  0.37500000  -0.12500000  0.83758781  1
  Ca  Ca24  1  0.12500000  0.62500000  0.83758781  1
  Ca  Ca25  1  0.12500000  0.37500000  0.83758781  1
  Ca  Ca26  1  0.12500000  0.12500000  0.83758781  1
  Ca  Ca27  1  0.12500000  -0.12500000  0.83758781  1
  Ca  Ca28  1  -0.12500000  0.62500000  0.83758781  1
  Ca  Ca29  1  -0.12500000  0.37500000  0.83758781  1
  Ca  Ca30  1  -0.12500000  0.12500000  0.83758781  1
  Ca  Ca31  1  -0.12500000  -0.12500000  0.83758781  1
  Ca  Ca32  1  0.75000000  0.62500000  0.00000000  1
  Ca  Ca33  1  0.75000000  0.37500000  0.00000000  1
  Ca  Ca34  1  0.75000000  0.12500000  0.00000000  1
  Ca  Ca35  1  0.75000000  -0.12500000  0.00000000  1
  Ca  Ca36  1  0.50000000  0.62500000  0.00000000  1
  Ca  Ca37  1  0.50000000  0.37500000  0.00000000  1
  Ca  Ca38  1  0.50000000  0.12500000  0.00000000  1
  Ca  Ca39  1  0.50000000  -0.12500000  0.00000000  1
  Ca  Ca40  1  0.25000000  0.62500000  0.00000000  1
  Ca  Ca41  1  0.25000000  0.37500000  0.00000000  1
  Ca  Ca42  1  0.25000000  0.12500000  0.00000000  1
  Ca  Ca43  1  0.25000000  -0.12500000  0.00000000  1
  Ca  Ca44  1  -0.00000000  0.62500000  0.00000000  1
  Ca  Ca45  1  -0.00000000  0.37500000  0.00000000  1
  Ca  Ca46  1  -0.00000000  0.12500000  0.00000000  1
  Ca  Ca47  1  -0.00000000  -0.12500000  0.00000000  1
  Ca  Ca48  1  0.62500000  0.50000000  0.50000000  1
  Ca  Ca49  1  0.62500000  0.25000000  0.50000000  1
  Ca  Ca50  1  0.62500000  0.00000000  0.50000000  1
  Ca  Ca51  1  0.62500000  -0.25000000  0.50000000  1
  Ca  Ca52  1  0.37500000  0.50000000  0.50000000  1
  Ca  Ca53  1  0.37500000  0.25000000  0.50000000  1
  Ca  Ca54  1  0.37500000  0.00000000  0.50000000  1
  Ca  Ca55  1  0.37500000  -0.25000000  0.50000000  1
  Ca  Ca56  1  0.12500000  0.50000000  0.50000000  1
  Ca  Ca57  1  0.12500000  0.25000000  0.50000000  1
  Ca  Ca58  1  0.12500000  0.00000000  0.50000000  1
  Ca  Ca59  1  0.12500000  -0.25000000  0.50000000  1
  Ca  Ca60  1  -0.12500000  0.50000000  0.50000000  1
  Ca  Ca61  1  -0.12500000  0.25000000  0.50000000  1
  Ca  Ca62  1  -0.12500000  0.00000000  0.50000000  1
  Ca  Ca63  1  -0.12500000  -0.25000000  0.50000000  1
  Ca  Ca64  1  0.75000000  0.75000000  0.66241219  1
  Ca  Ca65  1  0.75000000  0.50000000  0.66241219  1
  Ca  Ca66  1  0.75000000  0.25000000  0.66241219  1
  Ca  Ca67  1  0.75000000  -0.00000000  0.66241219  1
  Ca  Ca68  1  0.50000000  0.75000000  0.66241219  1
  Ca  Ca69  1  0.50000000  0.50000000  0.66241219  1
  Ca  Ca70  1  0.50000000  0.25000000  0.66241219  1
  Ca  Ca71  1  0.50000000  -0.00000000  0.66241219  1
  Ca  Ca72  1  0.25000000  0.75000000  0.66241219  1
  Ca  Ca73  1  0.25000000  0.50000000  0.66241219  1
  Ca  Ca74  1  0.25000000  0.25000000  0.66241219  1
  Ca  Ca75  1  0.25000000  -0.00000000  0.66241219  1
  Ca  Ca76  1  -0.00000000  0.75000000  0.66241219  1
  Ca  Ca77  1  -0.00000000  0.50000000  0.66241219  1
  Ca  Ca78  1  -0.00000000  0.25000000  0.66241219  1
  Ca  Ca79  1  -0.00000000  -0.00000000  0.66241219  1
  Ca  Ca80  1  0.62500000  0.62500000  1.16241219  1
  Ca  Ca81  1  0.62500000  0.37500000  1.16241219  1
  Ca  Ca82  1  0.62500000  0.12500000  1.16241219  1
  Ca  Ca83  1  0.62500000  -0.12500000  1.16241219  1
  Ca  Ca84  1  0.37500000  0.62500000  1.16241219  1
  Ca  Ca85  1  0.37500000  0.37500000  1.16241219  1
  Ca  Ca86  1  0.37500000  0.12500000  1.16241219  1
  Ca  Ca87  1  0.37500000  -0.12500000  1.16241219  1
  Ca  Ca88  1  0.12500000  0.62500000  1.16241219  1
  Ca  Ca89  1  0.12500000  0.37500000  1.16241219  1
  Ca  Ca90  1  0.12500000  0.12500000  1.16241219  1
  Ca  Ca91  1  0.12500000  -0.12500000  1.16241219  1
  Ca  Ca92  1  -0.12500000  0.62500000  1.16241219  1
  Ca  Ca93  1  -0.12500000  0.37500000  1.16241219  1
  Ca  Ca94  1  -0.12500000  0.12500000  1.16241219  1
  Ca  Ca95  1  -0.12500000  -0.12500000  1.16241219  1
  Ca  Ca96  1  0.62500000  0.75000000  0.00000000  1
  Ca  Ca97  1  0.62500000  0.50000000  0.00000000  1
  Ca  Ca98  1  0.62500000  0.25000000  0.00000000  1
  Ca  Ca99  1  0.62500000  -0.00000000  0.00000000  1
  Ca  Ca100  1  0.37500000  0.75000000  0.00000000  1
  Ca  Ca101  1  0.37500000  0.50000000  0.00000000  1
  Ca  Ca102  1  0.37500000  0.25000000  0.00000000  1
  Ca  Ca103  1  0.37500000  -0.00000000  0.00000000  1
  Ca  Ca104  1  0.12500000  0.75000000  0.00000000  1
  Ca  Ca105  1  0.12500000  0.50000000  0.00000000  1
  Ca  Ca106  1  0.12500000  0.25000000  0.00000000  1
  Ca  Ca107  1  0.12500000  -0.00000000  0.00000000  1
  Ca  Ca108  1  -0.12500000  0.75000000  0.00000000  1
  Ca  Ca109  1  -0.12500000  0.50000000  0.00000000  1
  Ca  Ca110  1  -0.12500000  0.25000000  0.00000000  1
  Ca  Ca111  1  -0.12500000  -0.00000000  0.00000000  1
  Ca  Ca112  1  0.50000000  0.62500000  0.50000000  1
  Ca  Ca113  1  0.50000000  0.37500000  0.50000000  1
  Ca  Ca114  1  0.50000000  0.12500000  0.50000000  1
  Ca  Ca115  1  0.50000000  -0.12500000  0.50000000  1
  Ca  Ca116  1  0.25000000  0.62500000  0.50000000  1
  Ca  Ca117  1  0.25000000  0.37500000  0.50000000  1
  Ca  Ca118  1  0.25000000  0.12500000  0.50000000  1
  Ca  Ca119  1  0.25000000  -0.12500000  0.50000000  1
  Ca  Ca120  1  0.00000000  0.62500000  0.50000000  1
  Ca  Ca121  1  0.00000000  0.37500000  0.50000000  1
  Ca  Ca122  1  0.00000000  0.12500000  0.50000000  1
  Ca  Ca123  1  0.00000000  -0.12500000  0.50000000  1
  Ca  Ca124  1  -0.25000000  0.62500000  0.50000000  1
  Ca  Ca125  1  -0.25000000  0.37500000  0.50000000  1
  Ca  Ca126  1  -0.25000000  0.12500000  0.50000000  1
  Ca  Ca127  1  -0.25000000  -0.12500000  0.50000000  1
  Bi  Bi128  1  0.75000000  0.75000000  0.14108319  1
  Bi  Bi129  1  0.75000000  0.50000000  0.14108319  1
  Bi  Bi130  1  0.75000000  0.25000000  0.14108319  1
  Bi  Bi131  1  0.75000000  -0.00000000  0.14108319  1
  Bi  Bi132  1  0.50000000  0.75000000  0.14108319  1
  Bi  Bi133  1  0.50000000  0.50000000  0.14108319  1
  Bi  Bi134  1  0.50000000  0.25000000  0.14108319  1
  Bi  Bi135  1  0.50000000  -0.00000000  0.14108319  1
  Bi  Bi136  1  0.25000000  0.75000000  0.14108319  1
  Bi  Bi137  1  0.25000000  0.50000000  0.14108319  1
  Bi  Bi138  1  0.25000000  0.25000000  0.14108319  1
  Bi  Bi139  1  0.25000000  -0.00000000  0.14108319  1
  Bi  Bi140  1  -0.00000000  0.75000000  0.14108319  1
  Bi  Bi141  1  -0.00000000  0.50000000  0.14108319  1
  Bi  Bi142  1  -0.00000000  0.25000000  0.14108319  1
  Bi  Bi143  1  -0.00000000  -0.00000000  0.14108319  1
  Bi  Bi144  1  0.62500000  0.62500000  0.64108319  1
  Bi  Bi145  1  0.62500000  0.37500000  0.64108319  1
  Bi  Bi146  1  0.62500000  0.12500000  0.64108319  1
  Bi  Bi147  1  0.62500000  -0.12500000  0.64108319  1
  Bi  Bi148  1  0.37500000  0.62500000  0.64108319  1
  Bi  Bi149  1  0.37500000  0.37500000  0.64108319  1
  Bi  Bi150  1  0.37500000  0.12500000  0.64108319  1
  Bi  Bi151  1  0.37500000  -0.12500000  0.64108319  1
  Bi  Bi152  1  0.12500000  0.62500000  0.64108319  1
  Bi  Bi153  1  0.12500000  0.37500000  0.64108319  1
  Bi  Bi154  1  0.12500000  0.12500000  0.64108319  1
  Bi  Bi155  1  0.12500000  -0.12500000  0.64108319  1
  Bi  Bi156  1  -0.12500000  0.62500000  0.64108319  1
  Bi  Bi157  1  -0.12500000  0.37500000  0.64108319  1
  Bi  Bi158  1  -0.12500000  0.12500000  0.64108319  1
  Bi  Bi159  1  -0.12500000  -0.12500000  0.64108319  1
  Bi  Bi160  1  0.75000000  0.75000000  0.85891681  1
  Bi  Bi161  1  0.75000000  0.50000000  0.85891681  1
  Bi  Bi162  1  0.75000000  0.25000000  0.85891681  1
  Bi  Bi163  1  0.75000000  -0.00000000  0.85891681  1
  Bi  Bi164  1  0.50000000  0.75000000  0.85891681  1
  Bi  Bi165  1  0.50000000  0.50000000  0.85891681  1
  Bi  Bi166  1  0.50000000  0.25000000  0.85891681  1
  Bi  Bi167  1  0.50000000  -0.00000000  0.85891681  1
  Bi  Bi168  1  0.25000000  0.75000000  0.85891681  1
  Bi  Bi169  1  0.25000000  0.50000000  0.85891681  1
  Bi  Bi170  1  0.25000000  0.25000000  0.85891681  1
  Bi  Bi171  1  0.25000000  -0.00000000  0.85891681  1
  Bi  Bi172  1  -0.00000000  0.75000000  0.85891681  1
  Bi  Bi173  1  -0.00000000  0.50000000  0.85891681  1
  Bi  Bi174  1  -0.00000000  0.25000000  0.85891681  1
  Bi  Bi175  1  -0.00000000  -0.00000000  0.85891681  1
  Bi  Bi176  1  0.62500000  0.62500000  1.35891681  1
  Bi  Bi177  1  0.62500000  0.37500000  1.35891681  1
  Bi  Bi178  1  0.62500000  0.12500000  1.35891681  1
  Bi  Bi179  1  0.62500000  -0.12500000  1.35891681  1
  Bi  Bi180  1  0.37500000  0.62500000  1.35891681  1
  Bi  Bi181  1  0.37500000  0.37500000  1.35891681  1
  Bi  Bi182  1  0.37500000  0.12500000  1.35891681  1
  Bi  Bi183  1  0.37500000  -0.12500000  1.35891681  1
  Bi  Bi184  1  0.12500000  0.62500000  1.35891681  1
  Bi  Bi185  1  0.12500000  0.37500000  1.35891681  1
  Bi  Bi186  1  0.12500000  0.12500000  1.35891681  1
  Bi  Bi187  1  0.12500000  -0.12500000  1.35891681  1
  Bi  Bi188  1  -0.12500000  0.62500000  1.35891681  1
  Bi  Bi189  1  -0.12500000  0.37500000  1.35891681  1
  Bi  Bi190  1  -0.12500000  0.12500000  1.35891681  1
  Bi  Bi191  1  -0.12500000  -0.12500000  1.35891681  1
  O  O192  1  0.75000000  0.75000000  0.50000000  1
  O  O193  1  0.75000000  0.50000000  0.50000000  1
  O  O194  1  0.75000000  0.25000000  0.50000000  1
  O  O195  1  0.75000000  -0.00000000  0.50000000  1
  O  O196  1  0.50000000  0.75000000  0.50000000  1
  O  O197  1  0.50000000  0.50000000  0.50000000  1
  O  O198  1  0.50000000  0.25000000  0.50000000  1
  O  O199  1  0.50000000  -0.00000000  0.50000000  1
  O  O200  1  0.25000000  0.75000000  0.50000000  1
  O  O201  1  0.25000000  0.50000000  0.50000000  1
  O  O202  1  0.25000000  0.25000000  0.50000000  1
  O  O203  1  0.25000000  -0.00000000  0.50000000  1
  O  O204  1  -0.00000000  0.75000000  0.50000000  1
  O  O205  1  -0.00000000  0.50000000  0.50000000  1
  O  O206  1  -0.00000000  0.25000000  0.50000000  1
  O  O207  1  -0.00000000  -0.00000000  0.50000000  1
  O  O208  1  0.62500000  0.62500000  1.00000000  1
  O  O209  1  0.62500000  0.37500000  1.00000000  1
  O  O210  1  0.62500000  0.12500000  1.00000000  1
  O  O211  1  0.62500000  -0.12500000  1.00000000  1
  O  O212  1  0.37500000  0.62500000  1.00000000  1
  O  O213  1  0.37500000  0.37500000  1.00000000  1
  O  O214  1  0.37500000  0.12500000  1.00000000  1
  O  O215  1  0.37500000  -0.12500000  1.00000000  1
  O  O216  1  0.12500000  0.62500000  1.00000000  1
  O  O217  1  0.12500000  0.37500000  1.00000000  1
  O  O218  1  0.12500000  0.12500000  1.00000000  1
  O  O219  1  0.12500000  -0.12500000  1.00000000  1
  O  O220  1  -0.12500000  0.62500000  1.00000000  1
  O  O221  1  -0.12500000  0.37500000  1.00000000  1
  O  O222  1  -0.12500000  0.12500000  1.00000000  1
  O  O223  1  -0.12500000  -0.12500000  1.00000000  1
