# generated using pymatgen
data_K3BiO4
_symmetry_space_group_name_H-M   'P 1'
_cell_length_a   12.99752832
_cell_length_b   13.31030192
_cell_length_c   15.51498913
_cell_angle_alpha   100.88708293
_cell_angle_beta   97.84696728
_cell_angle_gamma   105.88335342
_symmetry_Int_Tables_number   1
_chemical_formula_structural   K3BiO4
_chemical_formula_sum   'K48 Bi16 O64'
_cell_volume   2484.31895413
_cell_formula_units_Z   16
loop_
 _symmetry_equiv_pos_site_id
 _symmetry_equiv_pos_as_xyz
  1  'x, y, z'
loop_
 _atom_site_type_symbol
 _atom_site_label
 _atom_site_symmetry_multiplicity
 _atom_site_fract_x
 _atom_site_fract_y
 _atom_site_fract_z
 _atom_site_occupancy
  K  K0  1  0.33342158  0.39020894  0.49157211  1
  K  K1  1  0.33342158  0.39020894  0.99157211  1
  K  K2  1  0.33342158  0.89020894  0.49157211  1
  K  K3  1  0.33342158  0.89020894  0.99157211  1
  K  K4  1  0.83342158  0.39020894  0.49157211  1
  K  K5  1  0.83342158  0.39020894  0.99157211  1
  K  K6  1  0.83342158  0.89020894  0.49157211  1
  K  K7  1  0.83342158  0.89020894  0.99157211  1
  K  K8  1  0.41864810  0.11673538  0.41685144  1
  K  K9  1  0.41864810  0.11673538  0.91685144  1
  K  K10  1  0.41864810  0.61673538  0.41685144  1
  K  K11  1  0.41864810  0.61673538  0.91685144  1
  K  K12  1  0.91864810  0.11673538  0.41685144  1
  K  K13  1  0.91864810  0.11673538  0.91685144  1
  K  K14  1  0.91864810  0.61673538  0.41685144  1
  K  K15  1  0.91864810  0.61673538  0.91685144  1
  K  K16  1  0.32120546  0.38589302  0.23505781  1
  K  K17  1  0.32120546  0.38589302  0.73505781  1
  K  K18  1  0.32120546  0.88589302  0.23505781  1
  K  K19  1  0.32120546  0.88589302  0.73505781  1
  K  K20  1  0.82120546  0.38589302  0.23505781  1
  K  K21  1  0.82120546  0.38589302  0.73505781  1
  K  K22  1  0.82120546  0.88589302  0.23505781  1
  K  K23  1  0.82120546  0.88589302  0.73505781  1
  K  K24  1  0.17879454  0.11410698  0.26494219  1
  K  K25  1  0.17879454  0.11410698  0.76494219  1
  K  K26  1  0.17879454  0.61410698  0.26494219  1
  K  K27  1  0.17879454  0.61410698  0.76494219  1
  K  K28  1  0.67879454  0.11410698  0.26494219  1
  K  K29  1  0.67879454  0.11410698  0.76494219  1
  K  K30  1  0.67879454  0.61410698  0.26494219  1
  K  K31  1  0.67879454  0.61410698  0.76494219  1
  K  K32  1  0.16657842  0.10979106  0.00842789  1
  K  K33  1  0.16657842  0.10979106  0.50842789  1
  K  K34  1  0.16657842  0.60979106  0.00842789  1
  K  K35  1  0.16657842  0.60979106  0.50842789  1
  K  K36  1  0.66657842  0.10979106  0.00842789  1
  K  K37  1  0.66657842  0.10979106  0.50842789  1
  K  K38  1  0.66657842  0.60979106  0.00842789  1
  K  K39  1  0.66657842  0.60979106  0.50842789  1
  K  K40  1  0.08135190  0.38326462  0.08314856  1
  K  K41  1  0.08135190  0.38326462  0.58314856  1
  K  K42  1  0.08135190  0.88326462  0.08314856  1
  K  K43  1  0.08135190  0.88326462  0.58314856  1
  K  K44  1  0.58135190  0.38326462  0.08314856  1
  K  K45  1  0.58135190  0.38326462  0.58314856  1
  K  K46  1  0.58135190  0.88326462  0.08314856  1
  K  K47  1  0.58135190  0.88326462  0.58314856  1
  Bi  Bi48  1  0.42526659  0.15137383  0.15677694  1
  Bi  Bi49  1  0.42526659  0.15137383  0.65677694  1
  Bi  Bi50  1  0.42526659  0.65137383  0.15677694  1
  Bi  Bi51  1  0.42526659  0.65137383  0.65677694  1
  Bi  Bi52  1  0.92526659  0.15137383  0.15677694  1
  Bi  Bi53  1  0.92526659  0.15137383  0.65677694  1
  Bi  Bi54  1  0.92526659  0.65137383  0.15677694  1
  Bi  Bi55  1  0.92526659  0.65137383  0.65677694  1
  Bi  Bi56  1  0.07473341  0.34862617  0.34322306  1
  Bi  Bi57  1  0.07473341  0.34862617  0.84322306  1
  Bi  Bi58  1  0.07473341  0.84862617  0.34322306  1
  Bi  Bi59  1  0.07473341  0.84862617  0.84322306  1
  Bi  Bi60  1  0.57473341  0.34862617  0.34322306  1
  Bi  Bi61  1  0.57473341  0.34862617  0.84322306  1
  Bi  Bi62  1  0.57473341  0.84862617  0.34322306  1
  Bi  Bi63  1  0.57473341  0.84862617  0.84322306  1
  O  O64  1  0.48764400  0.44714644  0.38756616  1
  O  O65  1  0.48764400  0.44714644  0.88756616  1
  O  O66  1  0.48764400  0.94714644  0.38756616  1
  O  O67  1  0.48764400  0.94714644  0.88756616  1
  O  O68  1  0.98764400  0.44714644  0.38756616  1
  O  O69  1  0.98764400  0.44714644  0.88756616  1
  O  O70  1  0.98764400  0.94714644  0.38756616  1
  O  O71  1  0.98764400  0.94714644  0.88756616  1
  O  O72  1  0.01235600  0.05285356  0.11243384  1
  O  O73  1  0.01235600  0.05285356  0.61243384  1
  O  O74  1  0.01235600  0.55285356  0.11243384  1
  O  O75  1  0.01235600  0.55285356  0.61243384  1
  O  O76  1  0.51235600  0.05285356  0.11243384  1
  O  O77  1  0.51235600  0.05285356  0.61243384  1
  O  O78  1  0.51235600  0.55285356  0.11243384  1
  O  O79  1  0.51235600  0.55285356  0.61243384  1
  O  O80  1  0.11803706  0.26220770  0.42964653  1
  O  O81  1  0.11803706  0.26220770  0.92964653  1
  O  O82  1  0.11803706  0.76220770  0.42964653  1
  O  O83  1  0.11803706  0.76220770  0.92964653  1
  O  O84  1  0.61803706  0.26220770  0.42964653  1
  O  O85  1  0.61803706  0.26220770  0.92964653  1
  O  O86  1  0.61803706  0.76220770  0.42964653  1
  O  O87  1  0.61803706  0.76220770  0.92964653  1
  O  O88  1  0.38196294  0.23779230  0.07035347  1
  O  O89  1  0.38196294  0.23779230  0.57035347  1
  O  O90  1  0.38196294  0.73779230  0.07035347  1
  O  O91  1  0.38196294  0.73779230  0.57035347  1
  O  O92  1  0.88196294  0.23779230  0.07035347  1
  O  O93  1  0.88196294  0.23779230  0.57035347  1
  O  O94  1  0.88196294  0.73779230  0.07035347  1
  O  O95  1  0.88196294  0.73779230  0.57035347  1
  O  O96  1  0.22032741  0.47072758  0.36358504  1
  O  O97  1  0.22032741  0.47072758  0.86358504  1
  O  O98  1  0.22032741  0.97072758  0.36358504  1
  O  O99  1  0.22032741  0.97072758  0.86358504  1
  O  O100  1  0.72032741  0.47072758  0.36358504  1
  O  O101  1  0.72032741  0.47072758  0.86358504  1
  O  O102  1  0.72032741  0.97072758  0.36358504  1
  O  O103  1  0.72032741  0.97072758  0.86358504  1
  O  O104  1  0.27967259  0.02927242  0.13641496  1
  O  O105  1  0.27967259  0.02927242  0.63641496  1
  O  O106  1  0.27967259  0.52927242  0.13641496  1
  O  O107  1  0.27967259  0.52927242  0.63641496  1
  O  O108  1  0.77967259  0.02927242  0.13641496  1
  O  O109  1  0.77967259  0.02927242  0.63641496  1
  O  O110  1  0.77967259  0.52927242  0.13641496  1
  O  O111  1  0.77967259  0.52927242  0.63641496  1
  O  O112  1  0.09159877  0.27639165  0.21385518  1
  O  O113  1  0.09159877  0.27639165  0.71385518  1
  O  O114  1  0.09159877  0.77639165  0.21385518  1
  O  O115  1  0.09159877  0.77639165  0.71385518  1
  O  O116  1  0.59159877  0.27639165  0.21385518  1
  O  O117  1  0.59159877  0.27639165  0.71385518  1
  O  O118  1  0.59159877  0.77639165  0.21385518  1
  O  O119  1  0.59159877  0.77639165  0.71385518  1
  O  O120  1  0.40840123  0.22360835  0.28614482  1
  O  O121  1  0.40840123  0.22360835  0.78614482  1
  O  O122  1  0.40840123  0.72360835  0.28614482  1
  O  O123  1  0.40840123  0.72360835  0.78614482  1
  O  O124  1  0.90840123  0.22360835  0.28614482  1
  O  O125  1  0.90840123  0.22360835  0.78614482  1
  O  O126  1  0.90840123  0.72360835  0.28614482  1
  O  O127  1  0.90840123  0.72360835  0.78614482  1
