# generated using pymatgen
data_Ba4PdO6
_symmetry_space_group_name_H-M   'P 1'
_cell_length_a   10.18684112
_cell_length_b   10.18684112
_cell_length_c   12.67590266
_cell_angle_alpha   90.00000000
_cell_angle_beta   90.00000000
_cell_angle_gamma   120.00000000
_symmetry_Int_Tables_number   1
_chemical_formula_structural   Ba4PdO6
_chemical_formula_sum   'Ba24 Pd6 O36'
_cell_volume   1139.17013853
_cell_formula_units_Z   6
loop_
 _symmetry_equiv_pos_site_id
 _symmetry_equiv_pos_as_xyz
  1  'x, y, z'
loop_
 _atom_site_type_symbol
 _atom_site_label
 _atom_site_symmetry_multiplicity
 _atom_site_fract_x
 _atom_site_fract_y
 _atom_site_fract_z
 _atom_site_occupancy
  Ba  Ba0  1  0.03525660  0.33333333  0.58333333  1
  Ba  Ba1  1  0.70192327  0.66666667  0.91666667  1
  Ba  Ba2  1  0.36858994  1.00000000  1.25000000  1
  Ba  Ba3  1  0.33333333  0.29807673  0.41666667  1
  Ba  Ba4  1  1.00000000  0.63141006  0.75000000  1
  Ba  Ba5  1  0.66666667  0.96474340  1.08333333  1
  Ba  Ba6  1  -0.29807673  0.03525660  0.41666667  1
  Ba  Ba7  1  0.36858994  0.36858994  0.75000000  1
  Ba  Ba8  1  0.03525660  0.70192327  1.08333333  1
  Ba  Ba9  1  -0.00000000  -0.00000000  0.25000000  1
  Ba  Ba10  1  0.66666667  0.33333333  0.58333333  1
  Ba  Ba11  1  0.33333333  0.66666667  0.91666667  1
  Ba  Ba12  1  0.00000000  0.00000000  0.75000000  1
  Ba  Ba13  1  0.66666667  0.33333333  1.08333333  1
  Ba  Ba14  1  0.33333333  0.66666667  1.41666667  1
  Ba  Ba15  1  0.29807673  -0.03525660  0.58333333  1
  Ba  Ba16  1  0.96474340  0.29807673  0.91666667  1
  Ba  Ba17  1  0.63141006  0.63141006  1.25000000  1
  Ba  Ba18  1  -0.33333333  -0.29807673  0.58333333  1
  Ba  Ba19  1  0.33333333  0.03525660  0.91666667  1
  Ba  Ba20  1  -0.00000000  0.36858994  1.25000000  1
  Ba  Ba21  1  -0.03525660  -0.33333333  0.41666667  1
  Ba  Ba22  1  0.63141006  -0.00000000  0.75000000  1
  Ba  Ba23  1  0.29807673  0.33333333  1.08333333  1
  Pd  Pd24  1  0.00000000  0.00000000  0.50000000  1
  Pd  Pd25  1  0.66666667  0.33333333  0.83333333  1
  Pd  Pd26  1  0.33333333  0.66666667  1.16666667  1
  Pd  Pd27  1  -0.00000000  -0.00000000  0.00000000  1
  Pd  Pd28  1  0.66666667  0.33333333  0.33333333  1
  Pd  Pd29  1  0.33333333  0.66666667  0.66666667  1
  O  O30  1  0.15616956  -0.02011136  0.40600215  1
  O  O31  1  0.82283623  0.31322198  0.73933548  1
  O  O32  1  0.48950289  0.64655531  1.07266881  1
  O  O33  1  0.17628092  0.15616956  0.59399785  1
  O  O34  1  0.84294758  0.48950289  0.92733119  1
  O  O35  1  0.50961425  0.82283623  1.26066452  1
  O  O36  1  0.51049711  0.15705242  0.42733119  1
  O  O37  1  1.17716377  0.49038575  0.76066452  1
  O  O38  1  0.84383044  0.82371908  1.09399785  1
  O  O39  1  0.15705242  -0.35344469  0.57266881  1
  O  O40  1  0.82371908  -0.02011136  0.90600215  1
  O  O41  1  0.49038575  0.31322198  1.23933548  1
  O  O42  1  -0.02011136  -0.17628092  0.59399785  1
  O  O43  1  0.64655531  0.15705242  0.92733119  1
  O  O44  1  0.31322198  0.49038575  1.26066452  1
  O  O45  1  0.35344469  0.51049711  0.57266881  1
  O  O46  1  1.02011136  0.84383044  0.90600215  1
  O  O47  1  0.68677802  1.17716377  1.23933548  1
  O  O48  1  -0.35344469  -0.51049711  0.42733119  1
  O  O49  1  0.31322198  -0.17716377  0.76066452  1
  O  O50  1  -0.02011136  0.15616956  1.09399785  1
  O  O51  1  -0.15705242  0.35344469  0.42733119  1
  O  O52  1  0.50961425  0.68677802  0.76066452  1
  O  O53  1  0.17628092  1.02011136  1.09399785  1
  O  O54  1  0.02011136  0.17628092  0.40600215  1
  O  O55  1  0.68677802  0.50961425  0.73933548  1
  O  O56  1  0.35344469  0.84294758  1.07266881  1
  O  O57  1  -0.51049711  -0.15705242  0.57266881  1
  O  O58  1  0.15616956  0.17628092  0.90600215  1
  O  O59  1  -0.17716377  0.50961425  1.23933548  1
  O  O60  1  -0.17628092  -0.15616956  0.40600215  1
  O  O61  1  0.49038575  0.17716377  0.73933548  1
  O  O62  1  0.15705242  0.51049711  1.07266881  1
  O  O63  1  -0.15616956  0.02011136  0.59399785  1
  O  O64  1  0.51049711  0.35344469  0.92733119  1
  O  O65  1  0.17716377  0.68677802  1.26066452  1
