# generated using pymatgen
data_Li6Zr2O7
_symmetry_space_group_name_H-M   'P 1'
_cell_length_a   10.40588058
_cell_length_b   11.94531405
_cell_length_c   10.16683618
_cell_angle_alpha   90.00000000
_cell_angle_beta   100.26379461
_cell_angle_gamma   90.00000000
_symmetry_Int_Tables_number   1
_chemical_formula_structural   Li6Zr2O7
_chemical_formula_sum   'Li48 Zr16 O56'
_cell_volume   1243.53030841
_cell_formula_units_Z   8
loop_
 _symmetry_equiv_pos_site_id
 _symmetry_equiv_pos_as_xyz
  1  'x, y, z'
loop_
 _atom_site_type_symbol
 _atom_site_label
 _atom_site_symmetry_multiplicity
 _atom_site_fract_x
 _atom_site_fract_y
 _atom_site_fract_z
 _atom_site_occupancy
  Li  Li0  1  0.56125304  -0.07212936  0.08665497  1
  Li  Li1  1  0.56125304  0.42787064  0.08665497  1
  Li  Li2  1  1.06125304  0.17787064  0.08665497  1
  Li  Li3  1  1.06125304  0.67787064  0.08665497  1
  Li  Li4  1  0.43874696  -0.07212936  0.41334503  1
  Li  Li5  1  0.43874696  0.42787064  0.41334503  1
  Li  Li6  1  0.93874696  0.17787064  0.41334503  1
  Li  Li7  1  0.93874696  0.67787064  0.41334503  1
  Li  Li8  1  0.43874696  0.07212936  0.91334503  1
  Li  Li9  1  0.43874696  0.57212936  0.91334503  1
  Li  Li10  1  0.93874696  0.32212936  0.91334503  1
  Li  Li11  1  0.93874696  0.82212936  0.91334503  1
  Li  Li12  1  0.43317665  0.20004511  0.39730022  1
  Li  Li13  1  0.43317665  0.70004511  0.39730022  1
  Li  Li14  1  0.93317665  0.45004511  0.39730022  1
  Li  Li15  1  0.93317665  0.95004511  0.39730022  1
  Li  Li16  1  0.29360207  -0.06455489  0.60571887  1
  Li  Li17  1  0.29360207  0.43544511  0.60571887  1
  Li  Li18  1  0.79360207  0.18544511  0.60571887  1
  Li  Li19  1  0.79360207  0.68544511  0.60571887  1
  Li  Li20  1  0.70639793  -0.06455489  0.89428113  1
  Li  Li21  1  0.70639793  0.43544511  0.89428113  1
  Li  Li22  1  1.20639793  0.18544511  0.89428113  1
  Li  Li23  1  1.20639793  0.68544511  0.89428113  1
  Li  Li24  1  0.70639793  0.06455489  0.39428113  1
  Li  Li25  1  0.70639793  0.56455489  0.39428113  1
  Li  Li26  1  1.20639793  0.31455489  0.39428113  1
  Li  Li27  1  1.20639793  0.81455489  0.39428113  1
  Li  Li28  1  0.29360207  0.06455489  0.10571887  1
  Li  Li29  1  0.29360207  0.56455489  0.10571887  1
  Li  Li30  1  0.79360207  0.31455489  0.10571887  1
  Li  Li31  1  0.79360207  0.81455489  0.10571887  1
  Li  Li32  1  0.43317665  -0.20004511  0.89730022  1
  Li  Li33  1  0.43317665  0.29995489  0.89730022  1
  Li  Li34  1  0.93317665  0.04995489  0.89730022  1
  Li  Li35  1  0.93317665  0.54995489  0.89730022  1
  Li  Li36  1  0.56682335  -0.20004511  0.60269978  1
  Li  Li37  1  0.56682335  0.29995489  0.60269978  1
  Li  Li38  1  1.06682335  0.04995489  0.60269978  1
  Li  Li39  1  1.06682335  0.54995489  0.60269978  1
  Li  Li40  1  0.56682335  0.20004511  0.10269978  1
  Li  Li41  1  0.56682335  0.70004511  0.10269978  1
  Li  Li42  1  1.06682335  0.45004511  0.10269978  1
  Li  Li43  1  1.06682335  0.95004511  0.10269978  1
  Li  Li44  1  0.56125304  0.07212936  0.58665497  1
  Li  Li45  1  0.56125304  0.57212936  0.58665497  1
  Li  Li46  1  1.06125304  0.32212936  0.58665497  1
  Li  Li47  1  1.06125304  0.82212936  0.58665497  1
  Zr  Zr48  1  0.18360373  0.06024439  0.36543660  1
  Zr  Zr49  1  0.18360373  0.56024439  0.36543660  1
  Zr  Zr50  1  0.68360373  0.31024439  0.36543660  1
  Zr  Zr51  1  0.68360373  0.81024439  0.36543660  1
  Zr  Zr52  1  0.81639627  0.06024439  0.13456340  1
  Zr  Zr53  1  0.81639627  0.56024439  0.13456340  1
  Zr  Zr54  1  1.31639627  0.31024439  0.13456340  1
  Zr  Zr55  1  1.31639627  0.81024439  0.13456340  1
  Zr  Zr56  1  0.81639627  -0.06024439  0.63456340  1
  Zr  Zr57  1  0.81639627  0.43975561  0.63456340  1
  Zr  Zr58  1  1.31639627  0.18975561  0.63456340  1
  Zr  Zr59  1  1.31639627  0.68975561  0.63456340  1
  Zr  Zr60  1  0.18360373  -0.06024439  0.86543660  1
  Zr  Zr61  1  0.18360373  0.43975561  0.86543660  1
  Zr  Zr62  1  0.68360373  0.18975561  0.86543660  1
  Zr  Zr63  1  0.68360373  0.68975561  0.86543660  1
  O  O64  1  0.75223099  0.05714435  0.75568063  1
  O  O65  1  0.75223099  0.55714435  0.75568063  1
  O  O66  1  1.25223099  0.30714435  0.75568063  1
  O  O67  1  1.25223099  0.80714435  0.75568063  1
  O  O68  1  0.24776901  0.05714435  0.74431937  1
  O  O69  1  0.24776901  0.55714435  0.74431937  1
  O  O70  1  0.74776901  0.30714435  0.74431937  1
  O  O71  1  0.74776901  0.80714435  0.74431937  1
  O  O72  1  0.24776901  -0.05714435  0.24431937  1
  O  O73  1  0.24776901  0.44285565  0.24431937  1
  O  O74  1  0.74776901  0.19285565  0.24431937  1
  O  O75  1  0.74776901  0.69285565  0.24431937  1
  O  O76  1  0.75223099  -0.05714435  0.25568063  1
  O  O77  1  0.75223099  0.44285565  0.25568063  1
  O  O78  1  1.25223099  0.19285565  0.25568063  1
  O  O79  1  1.25223099  0.69285565  0.25568063  1
  O  O80  1  0.50000000  0.17333186  0.75000000  1
  O  O81  1  0.50000000  0.67333186  0.75000000  1
  O  O82  1  1.00000000  0.42333186  0.75000000  1
  O  O83  1  1.00000000  0.92333186  0.75000000  1
  O  O84  1  0.50000000  -0.17333186  0.25000000  1
  O  O85  1  0.50000000  0.32666814  0.25000000  1
  O  O86  1  1.00000000  0.07666814  0.25000000  1
  O  O87  1  1.00000000  0.57666814  0.25000000  1
  O  O88  1  0.63260246  0.06593702  0.00205852  1
  O  O89  1  0.63260246  0.56593702  0.00205852  1
  O  O90  1  1.13260246  0.31593702  0.00205852  1
  O  O91  1  1.13260246  0.81593702  0.00205852  1
  O  O92  1  0.36739754  0.06593702  0.49794148  1
  O  O93  1  0.36739754  0.56593702  0.49794148  1
  O  O94  1  0.86739754  0.31593702  0.49794148  1
  O  O95  1  0.86739754  0.81593702  0.49794148  1
  O  O96  1  0.36739754  -0.06593702  0.99794148  1
  O  O97  1  0.36739754  0.43406298  0.99794148  1
  O  O98  1  0.86739754  0.18406298  0.99794148  1
  O  O99  1  0.86739754  0.68406298  0.99794148  1
  O  O100  1  0.63260246  -0.06593702  0.50205852  1
  O  O101  1  0.63260246  0.43406298  0.50205852  1
  O  O102  1  1.13260246  0.18406298  0.50205852  1
  O  O103  1  1.13260246  0.68406298  0.50205852  1
  O  O104  1  0.37852262  -0.18843231  0.52110391  1
  O  O105  1  0.37852262  0.31156769  0.52110391  1
  O  O106  1  0.87852262  0.06156769  0.52110391  1
  O  O107  1  0.87852262  0.56156769  0.52110391  1
  O  O108  1  0.62147738  -0.18843231  0.97889609  1
  O  O109  1  0.62147738  0.31156769  0.97889609  1
  O  O110  1  1.12147738  0.06156769  0.97889609  1
  O  O111  1  1.12147738  0.56156769  0.97889609  1
  O  O112  1  0.62147738  0.18843231  0.47889609  1
  O  O113  1  0.62147738  0.68843231  0.47889609  1
  O  O114  1  1.12147738  0.43843231  0.47889609  1
  O  O115  1  1.12147738  0.93843231  0.47889609  1
  O  O116  1  0.37852262  0.18843231  0.02110391  1
  O  O117  1  0.37852262  0.68843231  0.02110391  1
  O  O118  1  0.87852262  0.43843231  0.02110391  1
  O  O119  1  0.87852262  0.93843231  0.02110391  1
