# generated using pymatgen
data_SrSn(BO3)2
_symmetry_space_group_name_H-M   'P 1'
_cell_length_a   14.86960938
_cell_length_b   14.86960938
_cell_length_c   16.82294509
_cell_angle_alpha   90.00000000
_cell_angle_beta   90.00000000
_cell_angle_gamma   120.00000000
_symmetry_Int_Tables_number   1
_chemical_formula_structural   SrSn(BO3)2
_chemical_formula_sum   'Sr27 Sn27 B54 O162'
_cell_volume   3221.30449731
_cell_formula_units_Z   27
loop_
 _symmetry_equiv_pos_site_id
 _symmetry_equiv_pos_as_xyz
  1  'x, y, z'
loop_
 _atom_site_type_symbol
 _atom_site_label
 _atom_site_symmetry_multiplicity
 _atom_site_fract_x
 _atom_site_fract_y
 _atom_site_fract_z
 _atom_site_occupancy
  Sr  Sr0  1  -0.00000000  -0.00000000  -0.00000000  1
  Sr  Sr1  1  0.00000000  0.33333333  -0.00000000  1
  Sr  Sr2  1  0.00000000  0.66666667  -0.00000000  1
  Sr  Sr3  1  0.33333333  -0.00000000  -0.00000000  1
  Sr  Sr4  1  0.33333333  0.33333333  -0.00000000  1
  Sr  Sr5  1  0.33333333  0.66666667  -0.00000000  1
  Sr  Sr6  1  0.66666667  -0.00000000  -0.00000000  1
  Sr  Sr7  1  0.66666667  0.33333333  -0.00000000  1
  Sr  Sr8  1  0.66666667  0.66666667  -0.00000000  1
  Sr  Sr9  1  0.22222222  0.11111111  0.33333333  1
  Sr  Sr10  1  0.22222222  0.44444444  0.33333333  1
  Sr  Sr11  1  0.22222222  0.77777778  0.33333333  1
  Sr  Sr12  1  0.55555556  0.11111111  0.33333333  1
  Sr  Sr13  1  0.55555556  0.44444444  0.33333333  1
  Sr  Sr14  1  0.55555556  0.77777778  0.33333333  1
  Sr  Sr15  1  0.88888889  0.11111111  0.33333333  1
  Sr  Sr16  1  0.88888889  0.44444444  0.33333333  1
  Sr  Sr17  1  0.88888889  0.77777778  0.33333333  1
  Sr  Sr18  1  0.11111111  0.22222222  0.66666667  1
  Sr  Sr19  1  0.11111111  0.55555556  0.66666667  1
  Sr  Sr20  1  0.11111111  0.88888889  0.66666667  1
  Sr  Sr21  1  0.44444444  0.22222222  0.66666667  1
  Sr  Sr22  1  0.44444444  0.55555556  0.66666667  1
  Sr  Sr23  1  0.44444444  0.88888889  0.66666667  1
  Sr  Sr24  1  0.77777778  0.22222222  0.66666667  1
  Sr  Sr25  1  0.77777778  0.55555556  0.66666667  1
  Sr  Sr26  1  0.77777778  0.88888889  0.66666667  1
  Sn  Sn27  1  -0.00000000  -0.00000000  0.50000000  1
  Sn  Sn28  1  -0.00000000  0.33333333  0.50000000  1
  Sn  Sn29  1  -0.00000000  0.66666667  0.50000000  1
  Sn  Sn30  1  0.33333333  -0.00000000  0.50000000  1
  Sn  Sn31  1  0.33333333  0.33333333  0.50000000  1
  Sn  Sn32  1  0.33333333  0.66666667  0.50000000  1
  Sn  Sn33  1  0.66666667  -0.00000000  0.50000000  1
  Sn  Sn34  1  0.66666667  0.33333333  0.50000000  1
  Sn  Sn35  1  0.66666667  0.66666667  0.50000000  1
  Sn  Sn36  1  0.22222222  0.11111111  0.83333333  1
  Sn  Sn37  1  0.22222222  0.44444444  0.83333333  1
  Sn  Sn38  1  0.22222222  0.77777778  0.83333333  1
  Sn  Sn39  1  0.55555556  0.11111111  0.83333333  1
  Sn  Sn40  1  0.55555556  0.44444444  0.83333333  1
  Sn  Sn41  1  0.55555556  0.77777778  0.83333333  1
  Sn  Sn42  1  0.88888889  0.11111111  0.83333333  1
  Sn  Sn43  1  0.88888889  0.44444444  0.83333333  1
  Sn  Sn44  1  0.88888889  0.77777778  0.83333333  1
  Sn  Sn45  1  0.11111111  0.22222222  1.16666667  1
  Sn  Sn46  1  0.11111111  0.55555556  1.16666667  1
  Sn  Sn47  1  0.11111111  0.88888889  1.16666667  1
  Sn  Sn48  1  0.44444444  0.22222222  1.16666667  1
  Sn  Sn49  1  0.44444444  0.55555556  1.16666667  1
  Sn  Sn50  1  0.44444444  0.88888889  1.16666667  1
  Sn  Sn51  1  0.77777778  0.22222222  1.16666667  1
  Sn  Sn52  1  0.77777778  0.55555556  1.16666667  1
  Sn  Sn53  1  0.77777778  0.88888889  1.16666667  1
  B  B54  1  -0.00000000  -0.00000000  0.76490811  1
  B  B55  1  0.00000000  0.33333333  0.76490811  1
  B  B56  1  0.00000000  0.66666667  0.76490811  1
  B  B57  1  0.33333333  -0.00000000  0.76490811  1
  B  B58  1  0.33333333  0.33333333  0.76490811  1
  B  B59  1  0.33333333  0.66666667  0.76490811  1
  B  B60  1  0.66666667  -0.00000000  0.76490811  1
  B  B61  1  0.66666667  0.33333333  0.76490811  1
  B  B62  1  0.66666667  0.66666667  0.76490811  1
  B  B63  1  0.22222222  0.11111111  1.09824145  1
  B  B64  1  0.22222222  0.44444444  1.09824145  1
  B  B65  1  0.22222222  0.77777778  1.09824145  1
  B  B66  1  0.55555556  0.11111111  1.09824145  1
  B  B67  1  0.55555556  0.44444444  1.09824145  1
  B  B68  1  0.55555556  0.77777778  1.09824145  1
  B  B69  1  0.88888889  0.11111111  1.09824145  1
  B  B70  1  0.88888889  0.44444444  1.09824145  1
  B  B71  1  0.88888889  0.77777778  1.09824145  1
  B  B72  1  0.11111111  0.22222222  1.43157478  1
  B  B73  1  0.11111111  0.55555556  1.43157478  1
  B  B74  1  0.11111111  0.88888889  1.43157478  1
  B  B75  1  0.44444444  0.22222222  1.43157478  1
  B  B76  1  0.44444444  0.55555556  1.43157478  1
  B  B77  1  0.44444444  0.88888889  1.43157478  1
  B  B78  1  0.77777778  0.22222222  1.43157478  1
  B  B79  1  0.77777778  0.55555556  1.43157478  1
  B  B80  1  0.77777778  0.88888889  1.43157478  1
  B  B81  1  0.00000000  0.00000000  0.23509189  1
  B  B82  1  0.00000000  0.33333333  0.23509189  1
  B  B83  1  0.00000000  0.66666667  0.23509189  1
  B  B84  1  0.33333333  0.00000000  0.23509189  1
  B  B85  1  0.33333333  0.33333333  0.23509189  1
  B  B86  1  0.33333333  0.66666667  0.23509189  1
  B  B87  1  0.66666667  0.00000000  0.23509189  1
  B  B88  1  0.66666667  0.33333333  0.23509189  1
  B  B89  1  0.66666667  0.66666667  0.23509189  1
  B  B90  1  0.22222222  0.11111111  0.56842522  1
  B  B91  1  0.22222222  0.44444444  0.56842522  1
  B  B92  1  0.22222222  0.77777778  0.56842522  1
  B  B93  1  0.55555556  0.11111111  0.56842522  1
  B  B94  1  0.55555556  0.44444444  0.56842522  1
  B  B95  1  0.55555556  0.77777778  0.56842522  1
  B  B96  1  0.88888889  0.11111111  0.56842522  1
  B  B97  1  0.88888889  0.44444444  0.56842522  1
  B  B98  1  0.88888889  0.77777778  0.56842522  1
  B  B99  1  0.11111111  0.22222222  0.90175855  1
  B  B100  1  0.11111111  0.55555556  0.90175855  1
  B  B101  1  0.11111111  0.88888889  0.90175855  1
  B  B102  1  0.44444444  0.22222222  0.90175855  1
  B  B103  1  0.44444444  0.55555556  0.90175855  1
  B  B104  1  0.44444444  0.88888889  0.90175855  1
  B  B105  1  0.77777778  0.22222222  0.90175855  1
  B  B106  1  0.77777778  0.55555556  0.90175855  1
  B  B107  1  0.77777778  0.88888889  0.90175855  1
  O  O108  1  0.02594200  0.12318179  0.42791592  1
  O  O109  1  0.02594200  0.45651513  0.42791592  1
  O  O110  1  0.02594200  0.78984846  0.42791592  1
  O  O111  1  0.35927533  0.12318179  0.42791592  1
  O  O112  1  0.35927533  0.45651513  0.42791592  1
  O  O113  1  0.35927533  0.78984846  0.42791592  1
  O  O114  1  0.69260867  0.12318179  0.42791592  1
  O  O115  1  0.69260867  0.45651513  0.42791592  1
  O  O116  1  0.69260867  0.78984846  0.42791592  1
  O  O117  1  0.24816422  0.23429290  0.76124925  1
  O  O118  1  0.24816422  0.56762624  0.76124925  1
  O  O119  1  0.24816422  0.90095957  0.76124925  1
  O  O120  1  0.58149755  0.23429290  0.76124925  1
  O  O121  1  0.58149755  0.56762624  0.76124925  1
  O  O122  1  0.58149755  0.90095957  0.76124925  1
  O  O123  1  0.91483089  0.23429290  0.76124925  1
  O  O124  1  0.91483089  0.56762624  0.76124925  1
  O  O125  1  0.91483089  0.90095957  0.76124925  1
  O  O126  1  0.13705311  0.34540401  1.09458259  1
  O  O127  1  0.13705311  0.67873735  1.09458259  1
  O  O128  1  0.13705311  1.01207068  1.09458259  1
  O  O129  1  0.47038644  0.34540401  1.09458259  1
  O  O130  1  0.47038644  0.67873735  1.09458259  1
  O  O131  1  0.47038644  1.01207068  1.09458259  1
  O  O132  1  0.80371978  0.34540401  1.09458259  1
  O  O133  1  0.80371978  0.67873735  1.09458259  1
  O  O134  1  0.80371978  1.01207068  1.09458259  1
  O  O135  1  0.09723979  -0.02594200  0.42791592  1
  O  O136  1  0.09723979  0.30739133  0.42791592  1
  O  O137  1  0.09723979  0.64072467  0.42791592  1
  O  O138  1  0.43057313  -0.02594200  0.42791592  1
  O  O139  1  0.43057313  0.30739133  0.42791592  1
  O  O140  1  0.43057313  0.64072467  0.42791592  1
  O  O141  1  0.76390646  -0.02594200  0.42791592  1
  O  O142  1  0.76390646  0.30739133  0.42791592  1
  O  O143  1  0.76390646  0.64072467  0.42791592  1
  O  O144  1  0.31946202  0.08516911  0.76124925  1
  O  O145  1  0.31946202  0.41850245  0.76124925  1
  O  O146  1  0.31946202  0.75183578  0.76124925  1
  O  O147  1  0.65279535  0.08516911  0.76124925  1
  O  O148  1  0.65279535  0.41850245  0.76124925  1
  O  O149  1  0.65279535  0.75183578  0.76124925  1
  O  O150  1  0.98612868  0.08516911  0.76124925  1
  O  O151  1  0.98612868  0.41850245  0.76124925  1
  O  O152  1  0.98612868  0.75183578  0.76124925  1
  O  O153  1  0.20835091  0.19628022  1.09458259  1
  O  O154  1  0.20835091  0.52961356  1.09458259  1
  O  O155  1  0.20835091  0.86294689  1.09458259  1
  O  O156  1  0.54168424  0.19628022  1.09458259  1
  O  O157  1  0.54168424  0.52961356  1.09458259  1
  O  O158  1  0.54168424  0.86294689  1.09458259  1
  O  O159  1  0.87501757  0.19628022  1.09458259  1
  O  O160  1  0.87501757  0.52961356  1.09458259  1
  O  O161  1  0.87501757  0.86294689  1.09458259  1
  O  O162  1  0.12318179  0.09723979  0.57208408  1
  O  O163  1  0.12318179  0.43057313  0.57208408  1
  O  O164  1  0.12318179  0.76390646  0.57208408  1
  O  O165  1  0.45651513  0.09723979  0.57208408  1
  O  O166  1  0.45651513  0.43057313  0.57208408  1
  O  O167  1  0.45651513  0.76390646  0.57208408  1
  O  O168  1  0.78984846  0.09723979  0.57208408  1
  O  O169  1  0.78984846  0.43057313  0.57208408  1
  O  O170  1  0.78984846  0.76390646  0.57208408  1
  O  O171  1  0.34540401  0.20835091  0.90541741  1
  O  O172  1  0.34540401  0.54168424  0.90541741  1
  O  O173  1  0.34540401  0.87501757  0.90541741  1
  O  O174  1  0.67873735  0.20835091  0.90541741  1
  O  O175  1  0.67873735  0.54168424  0.90541741  1
  O  O176  1  0.67873735  0.87501757  0.90541741  1
  O  O177  1  1.01207068  0.20835091  0.90541741  1
  O  O178  1  1.01207068  0.54168424  0.90541741  1
  O  O179  1  1.01207068  0.87501757  0.90541741  1
  O  O180  1  0.23429290  0.31946202  1.23875075  1
  O  O181  1  0.23429290  0.65279535  1.23875075  1
  O  O182  1  0.23429290  0.98612868  1.23875075  1
  O  O183  1  0.56762624  0.31946202  1.23875075  1
  O  O184  1  0.56762624  0.65279535  1.23875075  1
  O  O185  1  0.56762624  0.98612868  1.23875075  1
  O  O186  1  0.90095957  0.31946202  1.23875075  1
  O  O187  1  0.90095957  0.65279535  1.23875075  1
  O  O188  1  0.90095957  0.98612868  1.23875075  1
  O  O189  1  -0.02594200  -0.12318179  0.57208408  1
  O  O190  1  -0.02594200  0.21015154  0.57208408  1
  O  O191  1  -0.02594200  0.54348487  0.57208408  1
  O  O192  1  0.30739133  -0.12318179  0.57208408  1
  O  O193  1  0.30739133  0.21015154  0.57208408  1
  O  O194  1  0.30739133  0.54348487  0.57208408  1
  O  O195  1  0.64072467  -0.12318179  0.57208408  1
  O  O196  1  0.64072467  0.21015154  0.57208408  1
  O  O197  1  0.64072467  0.54348487  0.57208408  1
  O  O198  1  0.19628022  -0.01207068  0.90541741  1
  O  O199  1  0.19628022  0.32126265  0.90541741  1
  O  O200  1  0.19628022  0.65459599  0.90541741  1
  O  O201  1  0.52961356  -0.01207068  0.90541741  1
  O  O202  1  0.52961356  0.32126265  0.90541741  1
  O  O203  1  0.52961356  0.65459599  0.90541741  1
  O  O204  1  0.86294689  -0.01207068  0.90541741  1
  O  O205  1  0.86294689  0.32126265  0.90541741  1
  O  O206  1  0.86294689  0.65459599  0.90541741  1
  O  O207  1  0.08516911  0.09904043  1.23875075  1
  O  O208  1  0.08516911  0.43237376  1.23875075  1
  O  O209  1  0.08516911  0.76570710  1.23875075  1
  O  O210  1  0.41850245  0.09904043  1.23875075  1
  O  O211  1  0.41850245  0.43237376  1.23875075  1
  O  O212  1  0.41850245  0.76570710  1.23875075  1
  O  O213  1  0.75183578  0.09904043  1.23875075  1
  O  O214  1  0.75183578  0.43237376  1.23875075  1
  O  O215  1  0.75183578  0.76570710  1.23875075  1
  O  O216  1  -0.09723979  0.02594200  0.57208408  1
  O  O217  1  -0.09723979  0.35927533  0.57208408  1
  O  O218  1  -0.09723979  0.69260867  0.57208408  1
  O  O219  1  0.23609354  0.02594200  0.57208408  1
  O  O220  1  0.23609354  0.35927533  0.57208408  1
  O  O221  1  0.23609354  0.69260867  0.57208408  1
  O  O222  1  0.56942687  0.02594200  0.57208408  1
  O  O223  1  0.56942687  0.35927533  0.57208408  1
  O  O224  1  0.56942687  0.69260867  0.57208408  1
  O  O225  1  0.12498243  0.13705311  0.90541741  1
  O  O226  1  0.12498243  0.47038644  0.90541741  1
  O  O227  1  0.12498243  0.80371978  0.90541741  1
  O  O228  1  0.45831576  0.13705311  0.90541741  1
  O  O229  1  0.45831576  0.47038644  0.90541741  1
  O  O230  1  0.45831576  0.80371978  0.90541741  1
  O  O231  1  0.79164909  0.13705311  0.90541741  1
  O  O232  1  0.79164909  0.47038644  0.90541741  1
  O  O233  1  0.79164909  0.80371978  0.90541741  1
  O  O234  1  0.01387132  0.24816422  1.23875075  1
  O  O235  1  0.01387132  0.58149755  1.23875075  1
  O  O236  1  0.01387132  0.91483089  1.23875075  1
  O  O237  1  0.34720465  0.24816422  1.23875075  1
  O  O238  1  0.34720465  0.58149755  1.23875075  1
  O  O239  1  0.34720465  0.91483089  1.23875075  1
  O  O240  1  0.68053798  0.24816422  1.23875075  1
  O  O241  1  0.68053798  0.58149755  1.23875075  1
  O  O242  1  0.68053798  0.91483089  1.23875075  1
  O  O243  1  -0.12318179  -0.09723979  0.42791592  1
  O  O244  1  -0.12318179  0.23609354  0.42791592  1
  O  O245  1  -0.12318179  0.56942687  0.42791592  1
  O  O246  1  0.21015154  -0.09723979  0.42791592  1
  O  O247  1  0.21015154  0.23609354  0.42791592  1
  O  O248  1  0.21015154  0.56942687  0.42791592  1
  O  O249  1  0.54348487  -0.09723979  0.42791592  1
  O  O250  1  0.54348487  0.23609354  0.42791592  1
  O  O251  1  0.54348487  0.56942687  0.42791592  1
  O  O252  1  0.09904043  0.01387132  0.76124925  1
  O  O253  1  0.09904043  0.34720465  0.76124925  1
  O  O254  1  0.09904043  0.68053798  0.76124925  1
  O  O255  1  0.43237376  0.01387132  0.76124925  1
  O  O256  1  0.43237376  0.34720465  0.76124925  1
  O  O257  1  0.43237376  0.68053798  0.76124925  1
  O  O258  1  0.76570710  0.01387132  0.76124925  1
  O  O259  1  0.76570710  0.34720465  0.76124925  1
  O  O260  1  0.76570710  0.68053798  0.76124925  1
  O  O261  1  -0.01207068  0.12498243  1.09458259  1
  O  O262  1  -0.01207068  0.45831576  1.09458259  1
  O  O263  1  -0.01207068  0.79164909  1.09458259  1
  O  O264  1  0.32126265  0.12498243  1.09458259  1
  O  O265  1  0.32126265  0.45831576  1.09458259  1
  O  O266  1  0.32126265  0.79164909  1.09458259  1
  O  O267  1  0.65459599  0.12498243  1.09458259  1
  O  O268  1  0.65459599  0.45831576  1.09458259  1
  O  O269  1  0.65459599  0.79164909  1.09458259  1
