# generated using pymatgen
data_Sr2ScNbO6
_symmetry_space_group_name_H-M   'P 1'
_cell_length_a   11.36943261
_cell_length_b   11.40751925
_cell_length_c   9.84580760
_cell_angle_alpha   90.00000000
_cell_angle_beta   125.31422075
_cell_angle_gamma   90.00000000
_symmetry_Int_Tables_number   1
_chemical_formula_structural   Sr2ScNbO6
_chemical_formula_sum   'Sr16 Sc8 Nb8 O48'
_cell_volume   1042.00160455
_cell_formula_units_Z   8
loop_
 _symmetry_equiv_pos_site_id
 _symmetry_equiv_pos_as_xyz
  1  'x, y, z'
loop_
 _atom_site_type_symbol
 _atom_site_label
 _atom_site_symmetry_multiplicity
 _atom_site_fract_x
 _atom_site_fract_y
 _atom_site_fract_z
 _atom_site_occupancy
  Sr  Sr0  1  0.12216696  0.23686474  0.24973210  1
  Sr  Sr1  1  0.12216696  0.73686474  0.24973210  1
  Sr  Sr2  1  0.62216696  0.23686474  0.24973210  1
  Sr  Sr3  1  0.62216696  0.73686474  0.24973210  1
  Sr  Sr4  1  0.37783304  0.26313526  0.75026790  1
  Sr  Sr5  1  0.37783304  0.76313526  0.75026790  1
  Sr  Sr6  1  0.87783304  0.26313526  0.75026790  1
  Sr  Sr7  1  0.87783304  0.76313526  0.75026790  1
  Sr  Sr8  1  0.37783304  0.48686474  0.25026790  1
  Sr  Sr9  1  0.37783304  0.98686474  0.25026790  1
  Sr  Sr10  1  0.87783304  0.48686474  0.25026790  1
  Sr  Sr11  1  0.87783304  0.98686474  0.25026790  1
  Sr  Sr12  1  0.12216696  0.01313526  0.74973210  1
  Sr  Sr13  1  0.12216696  0.51313526  0.74973210  1
  Sr  Sr14  1  0.62216696  0.01313526  0.74973210  1
  Sr  Sr15  1  0.62216696  0.51313526  0.74973210  1
  Sc  Sc16  1  0.00000000  0.00000000  0.00000000  1
  Sc  Sc17  1  0.00000000  0.50000000  0.00000000  1
  Sc  Sc18  1  0.50000000  0.00000000  0.00000000  1
  Sc  Sc19  1  0.50000000  0.50000000  0.00000000  1
  Sc  Sc20  1  -0.00000000  0.25000000  0.50000000  1
  Sc  Sc21  1  -0.00000000  0.75000000  0.50000000  1
  Sc  Sc22  1  0.50000000  0.25000000  0.50000000  1
  Sc  Sc23  1  0.50000000  0.75000000  0.50000000  1
  Nb  Nb24  1  0.25000000  0.00000000  0.50000000  1
  Nb  Nb25  1  0.25000000  0.50000000  0.50000000  1
  Nb  Nb26  1  0.75000000  0.00000000  0.50000000  1
  Nb  Nb27  1  0.75000000  0.50000000  0.50000000  1
  Nb  Nb28  1  0.25000000  0.25000000  0.00000000  1
  Nb  Nb29  1  0.25000000  0.75000000  0.00000000  1
  Nb  Nb30  1  0.75000000  0.25000000  0.00000000  1
  Nb  Nb31  1  0.75000000  0.75000000  0.00000000  1
  O  O32  1  0.40430232  0.35759891  0.03384195  1
  O  O33  1  0.40430232  0.85759891  0.03384195  1
  O  O34  1  0.90430232  0.35759891  0.03384195  1
  O  O35  1  0.90430232  0.85759891  0.03384195  1
  O  O36  1  0.09569768  0.14240109  0.96615805  1
  O  O37  1  0.09569768  0.64240109  0.96615805  1
  O  O38  1  0.59569768  0.14240109  0.96615805  1
  O  O39  1  0.59569768  0.64240109  0.96615805  1
  O  O40  1  0.09569768  0.10759891  0.46615805  1
  O  O41  1  0.09569768  0.60759891  0.46615805  1
  O  O42  1  0.59569768  0.10759891  0.46615805  1
  O  O43  1  0.59569768  0.60759891  0.46615805  1
  O  O44  1  0.40430232  0.39240109  0.53384195  1
  O  O45  1  0.40430232  0.89240109  0.53384195  1
  O  O46  1  0.90430232  0.39240109  0.53384195  1
  O  O47  1  0.90430232  0.89240109  0.53384195  1
  O  O48  1  0.16018743  0.00644554  0.25504826  1
  O  O49  1  0.16018743  0.50644554  0.25504826  1
  O  O50  1  0.66018743  0.00644554  0.25504826  1
  O  O51  1  0.66018743  0.50644554  0.25504826  1
  O  O52  1  0.33981257  0.49355446  0.74495174  1
  O  O53  1  0.33981257  0.99355446  0.74495174  1
  O  O54  1  0.83981257  0.49355446  0.74495174  1
  O  O55  1  0.83981257  0.99355446  0.74495174  1
  O  O56  1  0.33981257  0.25644554  0.24495174  1
  O  O57  1  0.33981257  0.75644554  0.24495174  1
  O  O58  1  0.83981257  0.25644554  0.24495174  1
  O  O59  1  0.83981257  0.75644554  0.24495174  1
  O  O60  1  0.16018743  0.24355446  0.75504826  1
  O  O61  1  0.16018743  0.74355446  0.75504826  1
  O  O62  1  0.66018743  0.24355446  0.75504826  1
  O  O63  1  0.66018743  0.74355446  0.75504826  1
  O  O64  1  0.37469385  0.11221410  0.03490906  1
  O  O65  1  0.37469385  0.61221410  0.03490906  1
  O  O66  1  0.87469385  0.11221410  0.03490906  1
  O  O67  1  0.87469385  0.61221410  0.03490906  1
  O  O68  1  0.12530615  0.38778590  0.96509094  1
  O  O69  1  0.12530615  0.88778590  0.96509094  1
  O  O70  1  0.62530615  0.38778590  0.96509094  1
  O  O71  1  0.62530615  0.88778590  0.96509094  1
  O  O72  1  0.12530615  0.36221410  0.46509094  1
  O  O73  1  0.12530615  0.86221410  0.46509094  1
  O  O74  1  0.62530615  0.36221410  0.46509094  1
  O  O75  1  0.62530615  0.86221410  0.46509094  1
  O  O76  1  0.37469385  0.13778590  0.53490906  1
  O  O77  1  0.37469385  0.63778590  0.53490906  1
  O  O78  1  0.87469385  0.13778590  0.53490906  1
  O  O79  1  0.87469385  0.63778590  0.53490906  1
