# generated using pymatgen
data_KLi6TaO6
_symmetry_space_group_name_H-M   'P 1'
_cell_length_a   16.42159040
_cell_length_b   16.42159040
_cell_length_c   14.42150989
_cell_angle_alpha   90.00000000
_cell_angle_beta   90.00000000
_cell_angle_gamma   120.00000000
_symmetry_Int_Tables_number   1
_chemical_formula_structural   KLi6TaO6
_chemical_formula_sum   'K24 Li144 Ta24 O144'
_cell_volume   3367.99776575
_cell_formula_units_Z   24
loop_
 _symmetry_equiv_pos_site_id
 _symmetry_equiv_pos_as_xyz
  1  'x, y, z'
loop_
 _atom_site_type_symbol
 _atom_site_label
 _atom_site_symmetry_multiplicity
 _atom_site_fract_x
 _atom_site_fract_y
 _atom_site_fract_z
 _atom_site_occupancy
  K  K0  1  0.00000000  0.00000000  0.25000000  1
  K  K1  1  0.00000000  0.00000000  0.75000000  1
  K  K2  1  -0.00000000  0.50000000  0.25000000  1
  K  K3  1  -0.00000000  0.50000000  0.75000000  1
  K  K4  1  0.50000000  0.00000000  0.25000000  1
  K  K5  1  0.50000000  0.00000000  0.75000000  1
  K  K6  1  0.50000000  0.50000000  0.25000000  1
  K  K7  1  0.50000000  0.50000000  0.75000000  1
  K  K8  1  0.33333333  0.16666667  0.41666667  1
  K  K9  1  0.33333333  0.16666667  0.91666667  1
  K  K10  1  0.33333333  0.66666667  0.41666667  1
  K  K11  1  0.33333333  0.66666667  0.91666667  1
  K  K12  1  0.83333333  0.16666667  0.41666667  1
  K  K13  1  0.83333333  0.16666667  0.91666667  1
  K  K14  1  0.83333333  0.66666667  0.41666667  1
  K  K15  1  0.83333333  0.66666667  0.91666667  1
  K  K16  1  0.16666667  0.33333333  0.58333333  1
  K  K17  1  0.16666667  0.33333333  1.08333333  1
  K  K18  1  0.16666667  0.83333333  0.58333333  1
  K  K19  1  0.16666667  0.83333333  1.08333333  1
  K  K20  1  0.66666667  0.33333333  0.58333333  1
  K  K21  1  0.66666667  0.33333333  1.08333333  1
  K  K22  1  0.66666667  0.83333333  0.58333333  1
  K  K23  1  0.66666667  0.83333333  1.08333333  1
  Li  Li24  1  0.00502656  0.16666667  0.16666667  1
  Li  Li25  1  0.00502656  0.16666667  0.66666667  1
  Li  Li26  1  0.00502656  0.66666667  0.16666667  1
  Li  Li27  1  0.00502656  0.66666667  0.66666667  1
  Li  Li28  1  0.50502656  0.16666667  0.16666667  1
  Li  Li29  1  0.50502656  0.16666667  0.66666667  1
  Li  Li30  1  0.50502656  0.66666667  0.16666667  1
  Li  Li31  1  0.50502656  0.66666667  0.66666667  1
  Li  Li32  1  0.33835990  0.33333333  0.33333333  1
  Li  Li33  1  0.33835990  0.33333333  0.83333333  1
  Li  Li34  1  0.33835990  0.83333333  0.33333333  1
  Li  Li35  1  0.33835990  0.83333333  0.83333333  1
  Li  Li36  1  0.83835990  0.33333333  0.33333333  1
  Li  Li37  1  0.83835990  0.33333333  0.83333333  1
  Li  Li38  1  0.83835990  0.83333333  0.33333333  1
  Li  Li39  1  0.83835990  0.83333333  0.83333333  1
  Li  Li40  1  0.17169323  0.50000000  0.50000000  1
  Li  Li41  1  0.17169323  0.50000000  1.00000000  1
  Li  Li42  1  0.17169323  1.00000000  0.50000000  1
  Li  Li43  1  0.17169323  1.00000000  1.00000000  1
  Li  Li44  1  0.67169323  0.50000000  0.50000000  1
  Li  Li45  1  0.67169323  0.50000000  1.00000000  1
  Li  Li46  1  0.67169323  1.00000000  0.50000000  1
  Li  Li47  1  0.67169323  1.00000000  1.00000000  1
  Li  Li48  1  -0.16666667  -0.16164010  0.16666667  1
  Li  Li49  1  -0.16666667  -0.16164010  0.66666667  1
  Li  Li50  1  -0.16666667  0.33835990  0.16666667  1
  Li  Li51  1  -0.16666667  0.33835990  0.66666667  1
  Li  Li52  1  0.33333333  -0.16164010  0.16666667  1
  Li  Li53  1  0.33333333  -0.16164010  0.66666667  1
  Li  Li54  1  0.33333333  0.33835990  0.16666667  1
  Li  Li55  1  0.33333333  0.33835990  0.66666667  1
  Li  Li56  1  0.16666667  0.00502656  0.33333333  1
  Li  Li57  1  0.16666667  0.00502656  0.83333333  1
  Li  Li58  1  0.16666667  0.50502656  0.33333333  1
  Li  Li59  1  0.16666667  0.50502656  0.83333333  1
  Li  Li60  1  0.66666667  0.00502656  0.33333333  1
  Li  Li61  1  0.66666667  0.00502656  0.83333333  1
  Li  Li62  1  0.66666667  0.50502656  0.33333333  1
  Li  Li63  1  0.66666667  0.50502656  0.83333333  1
  Li  Li64  1  -0.00000000  0.17169323  0.50000000  1
  Li  Li65  1  -0.00000000  0.17169323  1.00000000  1
  Li  Li66  1  -0.00000000  0.67169323  0.50000000  1
  Li  Li67  1  -0.00000000  0.67169323  1.00000000  1
  Li  Li68  1  0.50000000  0.17169323  0.50000000  1
  Li  Li69  1  0.50000000  0.17169323  1.00000000  1
  Li  Li70  1  0.50000000  0.67169323  0.50000000  1
  Li  Li71  1  0.50000000  0.67169323  1.00000000  1
  Li  Li72  1  0.00502656  -0.16164010  0.16666667  1
  Li  Li73  1  0.00502656  -0.16164010  0.66666667  1
  Li  Li74  1  0.00502656  0.33835990  0.16666667  1
  Li  Li75  1  0.00502656  0.33835990  0.66666667  1
  Li  Li76  1  0.50502656  -0.16164010  0.16666667  1
  Li  Li77  1  0.50502656  -0.16164010  0.66666667  1
  Li  Li78  1  0.50502656  0.33835990  0.16666667  1
  Li  Li79  1  0.50502656  0.33835990  0.66666667  1
  Li  Li80  1  0.33835990  0.00502656  0.33333333  1
  Li  Li81  1  0.33835990  0.00502656  0.83333333  1
  Li  Li82  1  0.33835990  0.50502656  0.33333333  1
  Li  Li83  1  0.33835990  0.50502656  0.83333333  1
  Li  Li84  1  0.83835990  0.00502656  0.33333333  1
  Li  Li85  1  0.83835990  0.00502656  0.83333333  1
  Li  Li86  1  0.83835990  0.50502656  0.33333333  1
  Li  Li87  1  0.83835990  0.50502656  0.83333333  1
  Li  Li88  1  0.17169323  0.17169323  0.50000000  1
  Li  Li89  1  0.17169323  0.17169323  1.00000000  1
  Li  Li90  1  0.17169323  0.67169323  0.50000000  1
  Li  Li91  1  0.17169323  0.67169323  1.00000000  1
  Li  Li92  1  0.67169323  0.17169323  0.50000000  1
  Li  Li93  1  0.67169323  0.17169323  1.00000000  1
  Li  Li94  1  0.67169323  0.67169323  0.50000000  1
  Li  Li95  1  0.67169323  0.67169323  1.00000000  1
  Li  Li96  1  -0.16666667  -0.00502656  0.16666667  1
  Li  Li97  1  -0.16666667  -0.00502656  0.66666667  1
  Li  Li98  1  -0.16666667  0.49497344  0.16666667  1
  Li  Li99  1  -0.16666667  0.49497344  0.66666667  1
  Li  Li100  1  0.33333333  -0.00502656  0.16666667  1
  Li  Li101  1  0.33333333  -0.00502656  0.66666667  1
  Li  Li102  1  0.33333333  0.49497344  0.16666667  1
  Li  Li103  1  0.33333333  0.49497344  0.66666667  1
  Li  Li104  1  0.16666667  0.16164010  0.33333333  1
  Li  Li105  1  0.16666667  0.16164010  0.83333333  1
  Li  Li106  1  0.16666667  0.66164010  0.33333333  1
  Li  Li107  1  0.16666667  0.66164010  0.83333333  1
  Li  Li108  1  0.66666667  0.16164010  0.33333333  1
  Li  Li109  1  0.66666667  0.16164010  0.83333333  1
  Li  Li110  1  0.66666667  0.66164010  0.33333333  1
  Li  Li111  1  0.66666667  0.66164010  0.83333333  1
  Li  Li112  1  -0.00000000  0.32830677  0.50000000  1
  Li  Li113  1  -0.00000000  0.32830677  1.00000000  1
  Li  Li114  1  -0.00000000  0.82830677  0.50000000  1
  Li  Li115  1  -0.00000000  0.82830677  1.00000000  1
  Li  Li116  1  0.50000000  0.32830677  0.50000000  1
  Li  Li117  1  0.50000000  0.32830677  1.00000000  1
  Li  Li118  1  0.50000000  0.82830677  0.50000000  1
  Li  Li119  1  0.50000000  0.82830677  1.00000000  1
  Li  Li120  1  0.16164010  0.16666667  0.16666667  1
  Li  Li121  1  0.16164010  0.16666667  0.66666667  1
  Li  Li122  1  0.16164010  0.66666667  0.16666667  1
  Li  Li123  1  0.16164010  0.66666667  0.66666667  1
  Li  Li124  1  0.66164010  0.16666667  0.16666667  1
  Li  Li125  1  0.66164010  0.16666667  0.66666667  1
  Li  Li126  1  0.66164010  0.66666667  0.16666667  1
  Li  Li127  1  0.66164010  0.66666667  0.66666667  1
  Li  Li128  1  0.49497344  0.33333333  0.33333333  1
  Li  Li129  1  0.49497344  0.33333333  0.83333333  1
  Li  Li130  1  0.49497344  0.83333333  0.33333333  1
  Li  Li131  1  0.49497344  0.83333333  0.83333333  1
  Li  Li132  1  0.99497344  0.33333333  0.33333333  1
  Li  Li133  1  0.99497344  0.33333333  0.83333333  1
  Li  Li134  1  0.99497344  0.83333333  0.33333333  1
  Li  Li135  1  0.99497344  0.83333333  0.83333333  1
  Li  Li136  1  0.32830677  0.50000000  0.50000000  1
  Li  Li137  1  0.32830677  0.50000000  1.00000000  1
  Li  Li138  1  0.32830677  1.00000000  0.50000000  1
  Li  Li139  1  0.32830677  1.00000000  1.00000000  1
  Li  Li140  1  0.82830677  0.50000000  0.50000000  1
  Li  Li141  1  0.82830677  0.50000000  1.00000000  1
  Li  Li142  1  0.82830677  1.00000000  0.50000000  1
  Li  Li143  1  0.82830677  1.00000000  1.00000000  1
  Li  Li144  1  0.16164010  -0.00502656  0.16666667  1
  Li  Li145  1  0.16164010  -0.00502656  0.66666667  1
  Li  Li146  1  0.16164010  0.49497344  0.16666667  1
  Li  Li147  1  0.16164010  0.49497344  0.66666667  1
  Li  Li148  1  0.66164010  -0.00502656  0.16666667  1
  Li  Li149  1  0.66164010  -0.00502656  0.66666667  1
  Li  Li150  1  0.66164010  0.49497344  0.16666667  1
  Li  Li151  1  0.66164010  0.49497344  0.66666667  1
  Li  Li152  1  0.49497344  0.16164010  0.33333333  1
  Li  Li153  1  0.49497344  0.16164010  0.83333333  1
  Li  Li154  1  0.49497344  0.66164010  0.33333333  1
  Li  Li155  1  0.49497344  0.66164010  0.83333333  1
  Li  Li156  1  0.99497344  0.16164010  0.33333333  1
  Li  Li157  1  0.99497344  0.16164010  0.83333333  1
  Li  Li158  1  0.99497344  0.66164010  0.33333333  1
  Li  Li159  1  0.99497344  0.66164010  0.83333333  1
  Li  Li160  1  0.32830677  0.32830677  0.50000000  1
  Li  Li161  1  0.32830677  0.32830677  1.00000000  1
  Li  Li162  1  0.32830677  0.82830677  0.50000000  1
  Li  Li163  1  0.32830677  0.82830677  1.00000000  1
  Li  Li164  1  0.82830677  0.32830677  0.50000000  1
  Li  Li165  1  0.82830677  0.32830677  1.00000000  1
  Li  Li166  1  0.82830677  0.82830677  0.50000000  1
  Li  Li167  1  0.82830677  0.82830677  1.00000000  1
  Ta  Ta168  1  -0.00000000  -0.00000000  -0.00000000  1
  Ta  Ta169  1  -0.00000000  -0.00000000  0.50000000  1
  Ta  Ta170  1  -0.00000000  0.50000000  -0.00000000  1
  Ta  Ta171  1  -0.00000000  0.50000000  0.50000000  1
  Ta  Ta172  1  0.50000000  -0.00000000  -0.00000000  1
  Ta  Ta173  1  0.50000000  -0.00000000  0.50000000  1
  Ta  Ta174  1  0.50000000  0.50000000  -0.00000000  1
  Ta  Ta175  1  0.50000000  0.50000000  0.50000000  1
  Ta  Ta176  1  0.33333333  0.16666667  0.16666667  1
  Ta  Ta177  1  0.33333333  0.16666667  0.66666667  1
  Ta  Ta178  1  0.33333333  0.66666667  0.16666667  1
  Ta  Ta179  1  0.33333333  0.66666667  0.66666667  1
  Ta  Ta180  1  0.83333333  0.16666667  0.16666667  1
  Ta  Ta181  1  0.83333333  0.16666667  0.66666667  1
  Ta  Ta182  1  0.83333333  0.66666667  0.16666667  1
  Ta  Ta183  1  0.83333333  0.66666667  0.66666667  1
  Ta  Ta184  1  0.16666667  0.33333333  0.33333333  1
  Ta  Ta185  1  0.16666667  0.33333333  0.83333333  1
  Ta  Ta186  1  0.16666667  0.83333333  0.33333333  1
  Ta  Ta187  1  0.16666667  0.83333333  0.83333333  1
  Ta  Ta188  1  0.66666667  0.33333333  0.33333333  1
  Ta  Ta189  1  0.66666667  0.33333333  0.83333333  1
  Ta  Ta190  1  0.66666667  0.83333333  0.33333333  1
  Ta  Ta191  1  0.66666667  0.83333333  0.83333333  1
  O  O192  1  -0.10741298  -0.21482597  0.24329502  1
  O  O193  1  -0.10741298  -0.21482597  0.74329502  1
  O  O194  1  -0.10741298  0.28517403  0.24329502  1
  O  O195  1  -0.10741298  0.28517403  0.74329502  1
  O  O196  1  0.39258702  -0.21482597  0.24329502  1
  O  O197  1  0.39258702  -0.21482597  0.74329502  1
  O  O198  1  0.39258702  0.28517403  0.24329502  1
  O  O199  1  0.39258702  0.28517403  0.74329502  1
  O  O200  1  0.22592035  -0.04815930  0.40996168  1
  O  O201  1  0.22592035  -0.04815930  0.90996168  1
  O  O202  1  0.22592035  0.45184070  0.40996168  1
  O  O203  1  0.22592035  0.45184070  0.90996168  1
  O  O204  1  0.72592035  -0.04815930  0.40996168  1
  O  O205  1  0.72592035  -0.04815930  0.90996168  1
  O  O206  1  0.72592035  0.45184070  0.40996168  1
  O  O207  1  0.72592035  0.45184070  0.90996168  1
  O  O208  1  0.05925368  0.11850737  0.57662835  1
  O  O209  1  0.05925368  0.11850737  1.07662835  1
  O  O210  1  0.05925368  0.61850737  0.57662835  1
  O  O211  1  0.05925368  0.61850737  1.07662835  1
  O  O212  1  0.55925368  0.11850737  0.57662835  1
  O  O213  1  0.55925368  0.11850737  1.07662835  1
  O  O214  1  0.55925368  0.61850737  0.57662835  1
  O  O215  1  0.55925368  0.61850737  1.07662835  1
  O  O216  1  -0.10741298  0.10741298  0.24329502  1
  O  O217  1  -0.10741298  0.10741298  0.74329502  1
  O  O218  1  -0.10741298  0.60741298  0.24329502  1
  O  O219  1  -0.10741298  0.60741298  0.74329502  1
  O  O220  1  0.39258702  0.10741298  0.24329502  1
  O  O221  1  0.39258702  0.10741298  0.74329502  1
  O  O222  1  0.39258702  0.60741298  0.24329502  1
  O  O223  1  0.39258702  0.60741298  0.74329502  1
  O  O224  1  0.22592035  0.27407965  0.40996168  1
  O  O225  1  0.22592035  0.27407965  0.90996168  1
  O  O226  1  0.22592035  0.77407965  0.40996168  1
  O  O227  1  0.22592035  0.77407965  0.90996168  1
  O  O228  1  0.72592035  0.27407965  0.40996168  1
  O  O229  1  0.72592035  0.27407965  0.90996168  1
  O  O230  1  0.72592035  0.77407965  0.40996168  1
  O  O231  1  0.72592035  0.77407965  0.90996168  1
  O  O232  1  0.05925368  0.44074632  0.57662835  1
  O  O233  1  0.05925368  0.44074632  1.07662835  1
  O  O234  1  0.05925368  0.94074632  0.57662835  1
  O  O235  1  0.05925368  0.94074632  1.07662835  1
  O  O236  1  0.55925368  0.44074632  0.57662835  1
  O  O237  1  0.55925368  0.44074632  1.07662835  1
  O  O238  1  0.55925368  0.94074632  0.57662835  1
  O  O239  1  0.55925368  0.94074632  1.07662835  1
  O  O240  1  0.10741298  0.21482597  0.25670498  1
  O  O241  1  0.10741298  0.21482597  0.75670498  1
  O  O242  1  0.10741298  0.71482597  0.25670498  1
  O  O243  1  0.10741298  0.71482597  0.75670498  1
  O  O244  1  0.60741298  0.21482597  0.25670498  1
  O  O245  1  0.60741298  0.21482597  0.75670498  1
  O  O246  1  0.60741298  0.71482597  0.25670498  1
  O  O247  1  0.60741298  0.71482597  0.75670498  1
  O  O248  1  0.44074632  0.38149263  0.42337165  1
  O  O249  1  0.44074632  0.38149263  0.92337165  1
  O  O250  1  0.44074632  0.88149263  0.42337165  1
  O  O251  1  0.44074632  0.88149263  0.92337165  1
  O  O252  1  0.94074632  0.38149263  0.42337165  1
  O  O253  1  0.94074632  0.38149263  0.92337165  1
  O  O254  1  0.94074632  0.88149263  0.42337165  1
  O  O255  1  0.94074632  0.88149263  0.92337165  1
  O  O256  1  0.27407965  0.54815930  0.59003832  1
  O  O257  1  0.27407965  0.54815930  1.09003832  1
  O  O258  1  0.27407965  1.04815930  0.59003832  1
  O  O259  1  0.27407965  1.04815930  1.09003832  1
  O  O260  1  0.77407965  0.54815930  0.59003832  1
  O  O261  1  0.77407965  0.54815930  1.09003832  1
  O  O262  1  0.77407965  1.04815930  0.59003832  1
  O  O263  1  0.77407965  1.04815930  1.09003832  1
  O  O264  1  0.10741298  -0.10741298  0.25670498  1
  O  O265  1  0.10741298  -0.10741298  0.75670498  1
  O  O266  1  0.10741298  0.39258702  0.25670498  1
  O  O267  1  0.10741298  0.39258702  0.75670498  1
  O  O268  1  0.60741298  -0.10741298  0.25670498  1
  O  O269  1  0.60741298  -0.10741298  0.75670498  1
  O  O270  1  0.60741298  0.39258702  0.25670498  1
  O  O271  1  0.60741298  0.39258702  0.75670498  1
  O  O272  1  0.44074632  0.05925368  0.42337165  1
  O  O273  1  0.44074632  0.05925368  0.92337165  1
  O  O274  1  0.44074632  0.55925368  0.42337165  1
  O  O275  1  0.44074632  0.55925368  0.92337165  1
  O  O276  1  0.94074632  0.05925368  0.42337165  1
  O  O277  1  0.94074632  0.05925368  0.92337165  1
  O  O278  1  0.94074632  0.55925368  0.42337165  1
  O  O279  1  0.94074632  0.55925368  0.92337165  1
  O  O280  1  0.27407965  0.22592035  0.59003832  1
  O  O281  1  0.27407965  0.22592035  1.09003832  1
  O  O282  1  0.27407965  0.72592035  0.59003832  1
  O  O283  1  0.27407965  0.72592035  1.09003832  1
  O  O284  1  0.77407965  0.22592035  0.59003832  1
  O  O285  1  0.77407965  0.22592035  1.09003832  1
  O  O286  1  0.77407965  0.72592035  0.59003832  1
  O  O287  1  0.77407965  0.72592035  1.09003832  1
  O  O288  1  -0.21482597  -0.10741298  0.25670498  1
  O  O289  1  -0.21482597  -0.10741298  0.75670498  1
  O  O290  1  -0.21482597  0.39258702  0.25670498  1
  O  O291  1  -0.21482597  0.39258702  0.75670498  1
  O  O292  1  0.28517403  -0.10741298  0.25670498  1
  O  O293  1  0.28517403  -0.10741298  0.75670498  1
  O  O294  1  0.28517403  0.39258702  0.25670498  1
  O  O295  1  0.28517403  0.39258702  0.75670498  1
  O  O296  1  0.11850737  0.05925368  0.42337165  1
  O  O297  1  0.11850737  0.05925368  0.92337165  1
  O  O298  1  0.11850737  0.55925368  0.42337165  1
  O  O299  1  0.11850737  0.55925368  0.92337165  1
  O  O300  1  0.61850737  0.05925368  0.42337165  1
  O  O301  1  0.61850737  0.05925368  0.92337165  1
  O  O302  1  0.61850737  0.55925368  0.42337165  1
  O  O303  1  0.61850737  0.55925368  0.92337165  1
  O  O304  1  -0.04815930  0.22592035  0.59003832  1
  O  O305  1  -0.04815930  0.22592035  1.09003832  1
  O  O306  1  -0.04815930  0.72592035  0.59003832  1
  O  O307  1  -0.04815930  0.72592035  1.09003832  1
  O  O308  1  0.45184070  0.22592035  0.59003832  1
  O  O309  1  0.45184070  0.22592035  1.09003832  1
  O  O310  1  0.45184070  0.72592035  0.59003832  1
  O  O311  1  0.45184070  0.72592035  1.09003832  1
  O  O312  1  0.21482597  0.10741298  0.24329502  1
  O  O313  1  0.21482597  0.10741298  0.74329502  1
  O  O314  1  0.21482597  0.60741298  0.24329502  1
  O  O315  1  0.21482597  0.60741298  0.74329502  1
  O  O316  1  0.71482597  0.10741298  0.24329502  1
  O  O317  1  0.71482597  0.10741298  0.74329502  1
  O  O318  1  0.71482597  0.60741298  0.24329502  1
  O  O319  1  0.71482597  0.60741298  0.74329502  1
  O  O320  1  0.54815930  0.27407965  0.40996168  1
  O  O321  1  0.54815930  0.27407965  0.90996168  1
  O  O322  1  0.54815930  0.77407965  0.40996168  1
  O  O323  1  0.54815930  0.77407965  0.90996168  1
  O  O324  1  1.04815930  0.27407965  0.40996168  1
  O  O325  1  1.04815930  0.27407965  0.90996168  1
  O  O326  1  1.04815930  0.77407965  0.40996168  1
  O  O327  1  1.04815930  0.77407965  0.90996168  1
  O  O328  1  0.38149263  0.44074632  0.57662835  1
  O  O329  1  0.38149263  0.44074632  1.07662835  1
  O  O330  1  0.38149263  0.94074632  0.57662835  1
  O  O331  1  0.38149263  0.94074632  1.07662835  1
  O  O332  1  0.88149263  0.44074632  0.57662835  1
  O  O333  1  0.88149263  0.44074632  1.07662835  1
  O  O334  1  0.88149263  0.94074632  0.57662835  1
  O  O335  1  0.88149263  0.94074632  1.07662835  1
