# generated using pymatgen
data_Cs2BeO2
_symmetry_space_group_name_H-M   'P 1'
_cell_length_a   24.50981549
_cell_length_b   24.09276370
_cell_length_c   23.58375220
_cell_angle_alpha   90.00000000
_cell_angle_beta   131.92329476
_cell_angle_gamma   90.00000000
_symmetry_Int_Tables_number   1
_chemical_formula_structural   Cs2BeO2
_chemical_formula_sum   'Cs192 Be96 O192'
_cell_volume   10361.81487534
_cell_formula_units_Z   96
loop_
 _symmetry_equiv_pos_site_id
 _symmetry_equiv_pos_as_xyz
  1  'x, y, z'
loop_
 _atom_site_type_symbol
 _atom_site_label
 _atom_site_symmetry_multiplicity
 _atom_site_fract_x
 _atom_site_fract_y
 _atom_site_fract_z
 _atom_site_occupancy
  Cs  Cs0  1  0.29402588  0.23991025  0.38788497  1
  Cs  Cs1  1  0.29402588  0.23991025  0.88788497  1
  Cs  Cs2  1  0.29402588  0.48991025  0.38788497  1
  Cs  Cs3  1  0.29402588  0.48991025  0.88788497  1
  Cs  Cs4  1  0.29402588  0.73991025  0.38788497  1
  Cs  Cs5  1  0.29402588  0.73991025  0.88788497  1
  Cs  Cs6  1  0.29402588  0.98991025  0.38788497  1
  Cs  Cs7  1  0.29402588  0.98991025  0.88788497  1
  Cs  Cs8  1  0.62735922  0.23991025  0.38788497  1
  Cs  Cs9  1  0.62735922  0.23991025  0.88788497  1
  Cs  Cs10  1  0.62735922  0.48991025  0.38788497  1
  Cs  Cs11  1  0.62735922  0.48991025  0.88788497  1
  Cs  Cs12  1  0.62735922  0.73991025  0.38788497  1
  Cs  Cs13  1  0.62735922  0.73991025  0.88788497  1
  Cs  Cs14  1  0.62735922  0.98991025  0.38788497  1
  Cs  Cs15  1  0.62735922  0.98991025  0.88788497  1
  Cs  Cs16  1  0.96069255  0.23991025  0.38788497  1
  Cs  Cs17  1  0.96069255  0.23991025  0.88788497  1
  Cs  Cs18  1  0.96069255  0.48991025  0.38788497  1
  Cs  Cs19  1  0.96069255  0.48991025  0.88788497  1
  Cs  Cs20  1  0.96069255  0.73991025  0.38788497  1
  Cs  Cs21  1  0.96069255  0.73991025  0.88788497  1
  Cs  Cs22  1  0.96069255  0.98991025  0.38788497  1
  Cs  Cs23  1  0.96069255  0.98991025  0.88788497  1
  Cs  Cs24  1  0.10102036  0.14767378  0.06056143  1
  Cs  Cs25  1  0.10102036  0.14767378  0.56056143  1
  Cs  Cs26  1  0.10102036  0.39767378  0.06056143  1
  Cs  Cs27  1  0.10102036  0.39767378  0.56056143  1
  Cs  Cs28  1  0.10102036  0.64767378  0.06056143  1
  Cs  Cs29  1  0.10102036  0.64767378  0.56056143  1
  Cs  Cs30  1  0.10102036  0.89767378  0.06056143  1
  Cs  Cs31  1  0.10102036  0.89767378  0.56056143  1
  Cs  Cs32  1  0.43435369  0.14767378  0.06056143  1
  Cs  Cs33  1  0.43435369  0.14767378  0.56056143  1
  Cs  Cs34  1  0.43435369  0.39767378  0.06056143  1
  Cs  Cs35  1  0.43435369  0.39767378  0.56056143  1
  Cs  Cs36  1  0.43435369  0.64767378  0.06056143  1
  Cs  Cs37  1  0.43435369  0.64767378  0.56056143  1
  Cs  Cs38  1  0.43435369  0.89767378  0.06056143  1
  Cs  Cs39  1  0.43435369  0.89767378  0.56056143  1
  Cs  Cs40  1  0.76768702  0.14767378  0.06056143  1
  Cs  Cs41  1  0.76768702  0.14767378  0.56056143  1
  Cs  Cs42  1  0.76768702  0.39767378  0.06056143  1
  Cs  Cs43  1  0.76768702  0.39767378  0.56056143  1
  Cs  Cs44  1  0.76768702  0.64767378  0.06056143  1
  Cs  Cs45  1  0.76768702  0.64767378  0.56056143  1
  Cs  Cs46  1  0.76768702  0.89767378  0.06056143  1
  Cs  Cs47  1  0.76768702  0.89767378  0.56056143  1
  Cs  Cs48  1  0.23231298  0.02267378  0.18943857  1
  Cs  Cs49  1  0.23231298  0.02267378  0.68943857  1
  Cs  Cs50  1  0.23231298  0.27267378  0.18943857  1
  Cs  Cs51  1  0.23231298  0.27267378  0.68943857  1
  Cs  Cs52  1  0.23231298  0.52267378  0.18943857  1
  Cs  Cs53  1  0.23231298  0.52267378  0.68943857  1
  Cs  Cs54  1  0.23231298  0.77267378  0.18943857  1
  Cs  Cs55  1  0.23231298  0.77267378  0.68943857  1
  Cs  Cs56  1  0.56564631  0.02267378  0.18943857  1
  Cs  Cs57  1  0.56564631  0.02267378  0.68943857  1
  Cs  Cs58  1  0.56564631  0.27267378  0.18943857  1
  Cs  Cs59  1  0.56564631  0.27267378  0.68943857  1
  Cs  Cs60  1  0.56564631  0.52267378  0.18943857  1
  Cs  Cs61  1  0.56564631  0.52267378  0.68943857  1
  Cs  Cs62  1  0.56564631  0.77267378  0.18943857  1
  Cs  Cs63  1  0.56564631  0.77267378  0.68943857  1
  Cs  Cs64  1  0.89897964  0.02267378  0.18943857  1
  Cs  Cs65  1  0.89897964  0.02267378  0.68943857  1
  Cs  Cs66  1  0.89897964  0.27267378  0.18943857  1
  Cs  Cs67  1  0.89897964  0.27267378  0.68943857  1
  Cs  Cs68  1  0.89897964  0.52267378  0.18943857  1
  Cs  Cs69  1  0.89897964  0.52267378  0.68943857  1
  Cs  Cs70  1  0.89897964  0.77267378  0.18943857  1
  Cs  Cs71  1  0.89897964  0.77267378  0.68943857  1
  Cs  Cs72  1  0.03930745  0.11491025  0.36211503  1
  Cs  Cs73  1  0.03930745  0.11491025  0.86211503  1
  Cs  Cs74  1  0.03930745  0.36491025  0.36211503  1
  Cs  Cs75  1  0.03930745  0.36491025  0.86211503  1
  Cs  Cs76  1  0.03930745  0.61491025  0.36211503  1
  Cs  Cs77  1  0.03930745  0.61491025  0.86211503  1
  Cs  Cs78  1  0.03930745  0.86491025  0.36211503  1
  Cs  Cs79  1  0.03930745  0.86491025  0.86211503  1
  Cs  Cs80  1  0.37264078  0.11491025  0.36211503  1
  Cs  Cs81  1  0.37264078  0.11491025  0.86211503  1
  Cs  Cs82  1  0.37264078  0.36491025  0.36211503  1
  Cs  Cs83  1  0.37264078  0.36491025  0.86211503  1
  Cs  Cs84  1  0.37264078  0.61491025  0.36211503  1
  Cs  Cs85  1  0.37264078  0.61491025  0.86211503  1
  Cs  Cs86  1  0.37264078  0.86491025  0.36211503  1
  Cs  Cs87  1  0.37264078  0.86491025  0.86211503  1
  Cs  Cs88  1  0.70597412  0.11491025  0.36211503  1
  Cs  Cs89  1  0.70597412  0.11491025  0.86211503  1
  Cs  Cs90  1  0.70597412  0.36491025  0.36211503  1
  Cs  Cs91  1  0.70597412  0.36491025  0.86211503  1
  Cs  Cs92  1  0.70597412  0.61491025  0.36211503  1
  Cs  Cs93  1  0.70597412  0.61491025  0.86211503  1
  Cs  Cs94  1  0.70597412  0.86491025  0.36211503  1
  Cs  Cs95  1  0.70597412  0.86491025  0.86211503  1
  Cs  Cs96  1  0.29402588  0.13508975  0.13788497  1
  Cs  Cs97  1  0.29402588  0.13508975  0.63788497  1
  Cs  Cs98  1  0.29402588  0.38508975  0.13788497  1
  Cs  Cs99  1  0.29402588  0.38508975  0.63788497  1
  Cs  Cs100  1  0.29402588  0.63508975  0.13788497  1
  Cs  Cs101  1  0.29402588  0.63508975  0.63788497  1
  Cs  Cs102  1  0.29402588  0.88508975  0.13788497  1
  Cs  Cs103  1  0.29402588  0.88508975  0.63788497  1
  Cs  Cs104  1  0.62735922  0.13508975  0.13788497  1
  Cs  Cs105  1  0.62735922  0.13508975  0.63788497  1
  Cs  Cs106  1  0.62735922  0.38508975  0.13788497  1
  Cs  Cs107  1  0.62735922  0.38508975  0.63788497  1
  Cs  Cs108  1  0.62735922  0.63508975  0.13788497  1
  Cs  Cs109  1  0.62735922  0.63508975  0.63788497  1
  Cs  Cs110  1  0.62735922  0.88508975  0.13788497  1
  Cs  Cs111  1  0.62735922  0.88508975  0.63788497  1
  Cs  Cs112  1  0.96069255  0.13508975  0.13788497  1
  Cs  Cs113  1  0.96069255  0.13508975  0.63788497  1
  Cs  Cs114  1  0.96069255  0.38508975  0.13788497  1
  Cs  Cs115  1  0.96069255  0.38508975  0.63788497  1
  Cs  Cs116  1  0.96069255  0.63508975  0.13788497  1
  Cs  Cs117  1  0.96069255  0.63508975  0.63788497  1
  Cs  Cs118  1  0.96069255  0.88508975  0.13788497  1
  Cs  Cs119  1  0.96069255  0.88508975  0.63788497  1
  Cs  Cs120  1  0.10102036  0.22732622  0.31056143  1
  Cs  Cs121  1  0.10102036  0.22732622  0.81056143  1
  Cs  Cs122  1  0.10102036  0.47732622  0.31056143  1
  Cs  Cs123  1  0.10102036  0.47732622  0.81056143  1
  Cs  Cs124  1  0.10102036  0.72732622  0.31056143  1
  Cs  Cs125  1  0.10102036  0.72732622  0.81056143  1
  Cs  Cs126  1  0.10102036  0.97732622  0.31056143  1
  Cs  Cs127  1  0.10102036  0.97732622  0.81056143  1
  Cs  Cs128  1  0.43435369  0.22732622  0.31056143  1
  Cs  Cs129  1  0.43435369  0.22732622  0.81056143  1
  Cs  Cs130  1  0.43435369  0.47732622  0.31056143  1
  Cs  Cs131  1  0.43435369  0.47732622  0.81056143  1
  Cs  Cs132  1  0.43435369  0.72732622  0.31056143  1
  Cs  Cs133  1  0.43435369  0.72732622  0.81056143  1
  Cs  Cs134  1  0.43435369  0.97732622  0.31056143  1
  Cs  Cs135  1  0.43435369  0.97732622  0.81056143  1
  Cs  Cs136  1  0.76768702  0.22732622  0.31056143  1
  Cs  Cs137  1  0.76768702  0.22732622  0.81056143  1
  Cs  Cs138  1  0.76768702  0.47732622  0.31056143  1
  Cs  Cs139  1  0.76768702  0.47732622  0.81056143  1
  Cs  Cs140  1  0.76768702  0.72732622  0.31056143  1
  Cs  Cs141  1  0.76768702  0.72732622  0.81056143  1
  Cs  Cs142  1  0.76768702  0.97732622  0.31056143  1
  Cs  Cs143  1  0.76768702  0.97732622  0.81056143  1
  Cs  Cs144  1  0.23231298  0.10232622  0.43943857  1
  Cs  Cs145  1  0.23231298  0.10232622  0.93943857  1
  Cs  Cs146  1  0.23231298  0.35232622  0.43943857  1
  Cs  Cs147  1  0.23231298  0.35232622  0.93943857  1
  Cs  Cs148  1  0.23231298  0.60232622  0.43943857  1
  Cs  Cs149  1  0.23231298  0.60232622  0.93943857  1
  Cs  Cs150  1  0.23231298  0.85232622  0.43943857  1
  Cs  Cs151  1  0.23231298  0.85232622  0.93943857  1
  Cs  Cs152  1  0.56564631  0.10232622  0.43943857  1
  Cs  Cs153  1  0.56564631  0.10232622  0.93943857  1
  Cs  Cs154  1  0.56564631  0.35232622  0.43943857  1
  Cs  Cs155  1  0.56564631  0.35232622  0.93943857  1
  Cs  Cs156  1  0.56564631  0.60232622  0.43943857  1
  Cs  Cs157  1  0.56564631  0.60232622  0.93943857  1
  Cs  Cs158  1  0.56564631  0.85232622  0.43943857  1
  Cs  Cs159  1  0.56564631  0.85232622  0.93943857  1
  Cs  Cs160  1  0.89897964  0.10232622  0.43943857  1
  Cs  Cs161  1  0.89897964  0.10232622  0.93943857  1
  Cs  Cs162  1  0.89897964  0.35232622  0.43943857  1
  Cs  Cs163  1  0.89897964  0.35232622  0.93943857  1
  Cs  Cs164  1  0.89897964  0.60232622  0.43943857  1
  Cs  Cs165  1  0.89897964  0.60232622  0.93943857  1
  Cs  Cs166  1  0.89897964  0.85232622  0.43943857  1
  Cs  Cs167  1  0.89897964  0.85232622  0.93943857  1
  Cs  Cs168  1  0.03930745  0.01008975  0.11211503  1
  Cs  Cs169  1  0.03930745  0.01008975  0.61211503  1
  Cs  Cs170  1  0.03930745  0.26008975  0.11211503  1
  Cs  Cs171  1  0.03930745  0.26008975  0.61211503  1
  Cs  Cs172  1  0.03930745  0.51008975  0.11211503  1
  Cs  Cs173  1  0.03930745  0.51008975  0.61211503  1
  Cs  Cs174  1  0.03930745  0.76008975  0.11211503  1
  Cs  Cs175  1  0.03930745  0.76008975  0.61211503  1
  Cs  Cs176  1  0.37264078  0.01008975  0.11211503  1
  Cs  Cs177  1  0.37264078  0.01008975  0.61211503  1
  Cs  Cs178  1  0.37264078  0.26008975  0.11211503  1
  Cs  Cs179  1  0.37264078  0.26008975  0.61211503  1
  Cs  Cs180  1  0.37264078  0.51008975  0.11211503  1
  Cs  Cs181  1  0.37264078  0.51008975  0.61211503  1
  Cs  Cs182  1  0.37264078  0.76008975  0.11211503  1
  Cs  Cs183  1  0.37264078  0.76008975  0.61211503  1
  Cs  Cs184  1  0.70597412  0.01008975  0.11211503  1
  Cs  Cs185  1  0.70597412  0.01008975  0.61211503  1
  Cs  Cs186  1  0.70597412  0.26008975  0.11211503  1
  Cs  Cs187  1  0.70597412  0.26008975  0.61211503  1
  Cs  Cs188  1  0.70597412  0.51008975  0.11211503  1
  Cs  Cs189  1  0.70597412  0.51008975  0.61211503  1
  Cs  Cs190  1  0.70597412  0.76008975  0.11211503  1
  Cs  Cs191  1  0.70597412  0.76008975  0.61211503  1
  Be  Be192  1  0.19732821  0.13917798  0.23790104  1
  Be  Be193  1  0.19732821  0.13917798  0.73790104  1
  Be  Be194  1  0.19732821  0.38917798  0.23790104  1
  Be  Be195  1  0.19732821  0.38917798  0.73790104  1
  Be  Be196  1  0.19732821  0.63917798  0.23790104  1
  Be  Be197  1  0.19732821  0.63917798  0.73790104  1
  Be  Be198  1  0.19732821  0.88917798  0.23790104  1
  Be  Be199  1  0.19732821  0.88917798  0.73790104  1
  Be  Be200  1  0.53066154  0.13917798  0.23790104  1
  Be  Be201  1  0.53066154  0.13917798  0.73790104  1
  Be  Be202  1  0.53066154  0.38917798  0.23790104  1
  Be  Be203  1  0.53066154  0.38917798  0.73790104  1
  Be  Be204  1  0.53066154  0.63917798  0.23790104  1
  Be  Be205  1  0.53066154  0.63917798  0.73790104  1
  Be  Be206  1  0.53066154  0.88917798  0.23790104  1
  Be  Be207  1  0.53066154  0.88917798  0.73790104  1
  Be  Be208  1  0.86399488  0.13917798  0.23790104  1
  Be  Be209  1  0.86399488  0.13917798  0.73790104  1
  Be  Be210  1  0.86399488  0.38917798  0.23790104  1
  Be  Be211  1  0.86399488  0.38917798  0.73790104  1
  Be  Be212  1  0.86399488  0.63917798  0.23790104  1
  Be  Be213  1  0.86399488  0.63917798  0.73790104  1
  Be  Be214  1  0.86399488  0.88917798  0.23790104  1
  Be  Be215  1  0.86399488  0.88917798  0.73790104  1
  Be  Be216  1  0.13600512  0.01417798  0.01209896  1
  Be  Be217  1  0.13600512  0.01417798  0.51209896  1
  Be  Be218  1  0.13600512  0.26417798  0.01209896  1
  Be  Be219  1  0.13600512  0.26417798  0.51209896  1
  Be  Be220  1  0.13600512  0.51417798  0.01209896  1
  Be  Be221  1  0.13600512  0.51417798  0.51209896  1
  Be  Be222  1  0.13600512  0.76417798  0.01209896  1
  Be  Be223  1  0.13600512  0.76417798  0.51209896  1
  Be  Be224  1  0.46933846  0.01417798  0.01209896  1
  Be  Be225  1  0.46933846  0.01417798  0.51209896  1
  Be  Be226  1  0.46933846  0.26417798  0.01209896  1
  Be  Be227  1  0.46933846  0.26417798  0.51209896  1
  Be  Be228  1  0.46933846  0.51417798  0.01209896  1
  Be  Be229  1  0.46933846  0.51417798  0.51209896  1
  Be  Be230  1  0.46933846  0.76417798  0.01209896  1
  Be  Be231  1  0.46933846  0.76417798  0.51209896  1
  Be  Be232  1  0.80267179  0.01417798  0.01209896  1
  Be  Be233  1  0.80267179  0.01417798  0.51209896  1
  Be  Be234  1  0.80267179  0.26417798  0.01209896  1
  Be  Be235  1  0.80267179  0.26417798  0.51209896  1
  Be  Be236  1  0.80267179  0.51417798  0.01209896  1
  Be  Be237  1  0.80267179  0.51417798  0.51209896  1
  Be  Be238  1  0.80267179  0.76417798  0.01209896  1
  Be  Be239  1  0.80267179  0.76417798  0.51209896  1
  Be  Be240  1  0.19732821  0.23582202  0.48790104  1
  Be  Be241  1  0.19732821  0.23582202  0.98790104  1
  Be  Be242  1  0.19732821  0.48582202  0.48790104  1
  Be  Be243  1  0.19732821  0.48582202  0.98790104  1
  Be  Be244  1  0.19732821  0.73582202  0.48790104  1
  Be  Be245  1  0.19732821  0.73582202  0.98790104  1
  Be  Be246  1  0.19732821  0.98582202  0.48790104  1
  Be  Be247  1  0.19732821  0.98582202  0.98790104  1
  Be  Be248  1  0.53066154  0.23582202  0.48790104  1
  Be  Be249  1  0.53066154  0.23582202  0.98790104  1
  Be  Be250  1  0.53066154  0.48582202  0.48790104  1
  Be  Be251  1  0.53066154  0.48582202  0.98790104  1
  Be  Be252  1  0.53066154  0.73582202  0.48790104  1
  Be  Be253  1  0.53066154  0.73582202  0.98790104  1
  Be  Be254  1  0.53066154  0.98582202  0.48790104  1
  Be  Be255  1  0.53066154  0.98582202  0.98790104  1
  Be  Be256  1  0.86399488  0.23582202  0.48790104  1
  Be  Be257  1  0.86399488  0.23582202  0.98790104  1
  Be  Be258  1  0.86399488  0.48582202  0.48790104  1
  Be  Be259  1  0.86399488  0.48582202  0.98790104  1
  Be  Be260  1  0.86399488  0.73582202  0.48790104  1
  Be  Be261  1  0.86399488  0.73582202  0.98790104  1
  Be  Be262  1  0.86399488  0.98582202  0.48790104  1
  Be  Be263  1  0.86399488  0.98582202  0.98790104  1
  Be  Be264  1  0.13600512  0.11082202  0.26209896  1
  Be  Be265  1  0.13600512  0.11082202  0.76209896  1
  Be  Be266  1  0.13600512  0.36082202  0.26209896  1
  Be  Be267  1  0.13600512  0.36082202  0.76209896  1
  Be  Be268  1  0.13600512  0.61082202  0.26209896  1
  Be  Be269  1  0.13600512  0.61082202  0.76209896  1
  Be  Be270  1  0.13600512  0.86082202  0.26209896  1
  Be  Be271  1  0.13600512  0.86082202  0.76209896  1
  Be  Be272  1  0.46933846  0.11082202  0.26209896  1
  Be  Be273  1  0.46933846  0.11082202  0.76209896  1
  Be  Be274  1  0.46933846  0.36082202  0.26209896  1
  Be  Be275  1  0.46933846  0.36082202  0.76209896  1
  Be  Be276  1  0.46933846  0.61082202  0.26209896  1
  Be  Be277  1  0.46933846  0.61082202  0.76209896  1
  Be  Be278  1  0.46933846  0.86082202  0.26209896  1
  Be  Be279  1  0.46933846  0.86082202  0.76209896  1
  Be  Be280  1  0.80267179  0.11082202  0.26209896  1
  Be  Be281  1  0.80267179  0.11082202  0.76209896  1
  Be  Be282  1  0.80267179  0.36082202  0.26209896  1
  Be  Be283  1  0.80267179  0.36082202  0.76209896  1
  Be  Be284  1  0.80267179  0.61082202  0.26209896  1
  Be  Be285  1  0.80267179  0.61082202  0.76209896  1
  Be  Be286  1  0.80267179  0.86082202  0.26209896  1
  Be  Be287  1  0.80267179  0.86082202  0.76209896  1
  O  O288  1  0.22201768  0.10385040  0.30917305  1
  O  O289  1  0.22201768  0.10385040  0.80917305  1
  O  O290  1  0.22201768  0.35385040  0.30917305  1
  O  O291  1  0.22201768  0.35385040  0.80917305  1
  O  O292  1  0.22201768  0.60385040  0.30917305  1
  O  O293  1  0.22201768  0.60385040  0.80917305  1
  O  O294  1  0.22201768  0.85385040  0.30917305  1
  O  O295  1  0.22201768  0.85385040  0.80917305  1
  O  O296  1  0.55535101  0.10385040  0.30917305  1
  O  O297  1  0.55535101  0.10385040  0.80917305  1
  O  O298  1  0.55535101  0.35385040  0.30917305  1
  O  O299  1  0.55535101  0.35385040  0.80917305  1
  O  O300  1  0.55535101  0.60385040  0.30917305  1
  O  O301  1  0.55535101  0.60385040  0.80917305  1
  O  O302  1  0.55535101  0.85385040  0.30917305  1
  O  O303  1  0.55535101  0.85385040  0.80917305  1
  O  O304  1  0.88868435  0.10385040  0.30917305  1
  O  O305  1  0.88868435  0.10385040  0.80917305  1
  O  O306  1  0.88868435  0.35385040  0.30917305  1
  O  O307  1  0.88868435  0.35385040  0.80917305  1
  O  O308  1  0.88868435  0.60385040  0.30917305  1
  O  O309  1  0.88868435  0.60385040  0.80917305  1
  O  O310  1  0.88868435  0.85385040  0.30917305  1
  O  O311  1  0.88868435  0.85385040  0.80917305  1
  O  O312  1  0.09192818  0.03121800  0.03267496  1
  O  O313  1  0.09192818  0.03121800  0.53267496  1
  O  O314  1  0.09192818  0.28121800  0.03267496  1
  O  O315  1  0.09192818  0.28121800  0.53267496  1
  O  O316  1  0.09192818  0.53121800  0.03267496  1
  O  O317  1  0.09192818  0.53121800  0.53267496  1
  O  O318  1  0.09192818  0.78121800  0.03267496  1
  O  O319  1  0.09192818  0.78121800  0.53267496  1
  O  O320  1  0.42526151  0.03121800  0.03267496  1
  O  O321  1  0.42526151  0.03121800  0.53267496  1
  O  O322  1  0.42526151  0.28121800  0.03267496  1
  O  O323  1  0.42526151  0.28121800  0.53267496  1
  O  O324  1  0.42526151  0.53121800  0.03267496  1
  O  O325  1  0.42526151  0.53121800  0.53267496  1
  O  O326  1  0.42526151  0.78121800  0.03267496  1
  O  O327  1  0.42526151  0.78121800  0.53267496  1
  O  O328  1  0.75859485  0.03121800  0.03267496  1
  O  O329  1  0.75859485  0.03121800  0.53267496  1
  O  O330  1  0.75859485  0.28121800  0.03267496  1
  O  O331  1  0.75859485  0.28121800  0.53267496  1
  O  O332  1  0.75859485  0.53121800  0.03267496  1
  O  O333  1  0.75859485  0.53121800  0.53267496  1
  O  O334  1  0.75859485  0.78121800  0.03267496  1
  O  O335  1  0.75859485  0.78121800  0.53267496  1
  O  O336  1  0.24140515  0.15621800  0.21732504  1
  O  O337  1  0.24140515  0.15621800  0.71732504  1
  O  O338  1  0.24140515  0.40621800  0.21732504  1
  O  O339  1  0.24140515  0.40621800  0.71732504  1
  O  O340  1  0.24140515  0.65621800  0.21732504  1
  O  O341  1  0.24140515  0.65621800  0.71732504  1
  O  O342  1  0.24140515  0.90621800  0.21732504  1
  O  O343  1  0.24140515  0.90621800  0.71732504  1
  O  O344  1  0.57473849  0.15621800  0.21732504  1
  O  O345  1  0.57473849  0.15621800  0.71732504  1
  O  O346  1  0.57473849  0.40621800  0.21732504  1
  O  O347  1  0.57473849  0.40621800  0.71732504  1
  O  O348  1  0.57473849  0.65621800  0.21732504  1
  O  O349  1  0.57473849  0.65621800  0.71732504  1
  O  O350  1  0.57473849  0.90621800  0.21732504  1
  O  O351  1  0.57473849  0.90621800  0.71732504  1
  O  O352  1  0.90807182  0.15621800  0.21732504  1
  O  O353  1  0.90807182  0.15621800  0.71732504  1
  O  O354  1  0.90807182  0.40621800  0.21732504  1
  O  O355  1  0.90807182  0.40621800  0.71732504  1
  O  O356  1  0.90807182  0.65621800  0.21732504  1
  O  O357  1  0.90807182  0.65621800  0.71732504  1
  O  O358  1  0.90807182  0.90621800  0.21732504  1
  O  O359  1  0.90807182  0.90621800  0.71732504  1
  O  O360  1  0.11131565  0.22885040  0.44082695  1
  O  O361  1  0.11131565  0.22885040  0.94082695  1
  O  O362  1  0.11131565  0.47885040  0.44082695  1
  O  O363  1  0.11131565  0.47885040  0.94082695  1
  O  O364  1  0.11131565  0.72885040  0.44082695  1
  O  O365  1  0.11131565  0.72885040  0.94082695  1
  O  O366  1  0.11131565  0.97885040  0.44082695  1
  O  O367  1  0.11131565  0.97885040  0.94082695  1
  O  O368  1  0.44464899  0.22885040  0.44082695  1
  O  O369  1  0.44464899  0.22885040  0.94082695  1
  O  O370  1  0.44464899  0.47885040  0.44082695  1
  O  O371  1  0.44464899  0.47885040  0.94082695  1
  O  O372  1  0.44464899  0.72885040  0.44082695  1
  O  O373  1  0.44464899  0.72885040  0.94082695  1
  O  O374  1  0.44464899  0.97885040  0.44082695  1
  O  O375  1  0.44464899  0.97885040  0.94082695  1
  O  O376  1  0.77798232  0.22885040  0.44082695  1
  O  O377  1  0.77798232  0.22885040  0.94082695  1
  O  O378  1  0.77798232  0.47885040  0.44082695  1
  O  O379  1  0.77798232  0.47885040  0.94082695  1
  O  O380  1  0.77798232  0.72885040  0.44082695  1
  O  O381  1  0.77798232  0.72885040  0.94082695  1
  O  O382  1  0.77798232  0.97885040  0.44082695  1
  O  O383  1  0.77798232  0.97885040  0.94082695  1
  O  O384  1  0.22201768  0.02114960  0.05917305  1
  O  O385  1  0.22201768  0.02114960  0.55917305  1
  O  O386  1  0.22201768  0.27114960  0.05917305  1
  O  O387  1  0.22201768  0.27114960  0.55917305  1
  O  O388  1  0.22201768  0.52114960  0.05917305  1
  O  O389  1  0.22201768  0.52114960  0.55917305  1
  O  O390  1  0.22201768  0.77114960  0.05917305  1
  O  O391  1  0.22201768  0.77114960  0.55917305  1
  O  O392  1  0.55535101  0.02114960  0.05917305  1
  O  O393  1  0.55535101  0.02114960  0.55917305  1
  O  O394  1  0.55535101  0.27114960  0.05917305  1
  O  O395  1  0.55535101  0.27114960  0.55917305  1
  O  O396  1  0.55535101  0.52114960  0.05917305  1
  O  O397  1  0.55535101  0.52114960  0.55917305  1
  O  O398  1  0.55535101  0.77114960  0.05917305  1
  O  O399  1  0.55535101  0.77114960  0.55917305  1
  O  O400  1  0.88868435  0.02114960  0.05917305  1
  O  O401  1  0.88868435  0.02114960  0.55917305  1
  O  O402  1  0.88868435  0.27114960  0.05917305  1
  O  O403  1  0.88868435  0.27114960  0.55917305  1
  O  O404  1  0.88868435  0.52114960  0.05917305  1
  O  O405  1  0.88868435  0.52114960  0.55917305  1
  O  O406  1  0.88868435  0.77114960  0.05917305  1
  O  O407  1  0.88868435  0.77114960  0.55917305  1
  O  O408  1  0.09192818  0.09378200  0.28267496  1
  O  O409  1  0.09192818  0.09378200  0.78267496  1
  O  O410  1  0.09192818  0.34378200  0.28267496  1
  O  O411  1  0.09192818  0.34378200  0.78267496  1
  O  O412  1  0.09192818  0.59378200  0.28267496  1
  O  O413  1  0.09192818  0.59378200  0.78267496  1
  O  O414  1  0.09192818  0.84378200  0.28267496  1
  O  O415  1  0.09192818  0.84378200  0.78267496  1
  O  O416  1  0.42526151  0.09378200  0.28267496  1
  O  O417  1  0.42526151  0.09378200  0.78267496  1
  O  O418  1  0.42526151  0.34378200  0.28267496  1
  O  O419  1  0.42526151  0.34378200  0.78267496  1
  O  O420  1  0.42526151  0.59378200  0.28267496  1
  O  O421  1  0.42526151  0.59378200  0.78267496  1
  O  O422  1  0.42526151  0.84378200  0.28267496  1
  O  O423  1  0.42526151  0.84378200  0.78267496  1
  O  O424  1  0.75859485  0.09378200  0.28267496  1
  O  O425  1  0.75859485  0.09378200  0.78267496  1
  O  O426  1  0.75859485  0.34378200  0.28267496  1
  O  O427  1  0.75859485  0.34378200  0.78267496  1
  O  O428  1  0.75859485  0.59378200  0.28267496  1
  O  O429  1  0.75859485  0.59378200  0.78267496  1
  O  O430  1  0.75859485  0.84378200  0.28267496  1
  O  O431  1  0.75859485  0.84378200  0.78267496  1
  O  O432  1  0.24140515  0.21878200  0.46732504  1
  O  O433  1  0.24140515  0.21878200  0.96732504  1
  O  O434  1  0.24140515  0.46878200  0.46732504  1
  O  O435  1  0.24140515  0.46878200  0.96732504  1
  O  O436  1  0.24140515  0.71878200  0.46732504  1
  O  O437  1  0.24140515  0.71878200  0.96732504  1
  O  O438  1  0.24140515  0.96878200  0.46732504  1
  O  O439  1  0.24140515  0.96878200  0.96732504  1
  O  O440  1  0.57473849  0.21878200  0.46732504  1
  O  O441  1  0.57473849  0.21878200  0.96732504  1
  O  O442  1  0.57473849  0.46878200  0.46732504  1
  O  O443  1  0.57473849  0.46878200  0.96732504  1
  O  O444  1  0.57473849  0.71878200  0.46732504  1
  O  O445  1  0.57473849  0.71878200  0.96732504  1
  O  O446  1  0.57473849  0.96878200  0.46732504  1
  O  O447  1  0.57473849  0.96878200  0.96732504  1
  O  O448  1  0.90807182  0.21878200  0.46732504  1
  O  O449  1  0.90807182  0.21878200  0.96732504  1
  O  O450  1  0.90807182  0.46878200  0.46732504  1
  O  O451  1  0.90807182  0.46878200  0.96732504  1
  O  O452  1  0.90807182  0.71878200  0.46732504  1
  O  O453  1  0.90807182  0.71878200  0.96732504  1
  O  O454  1  0.90807182  0.96878200  0.46732504  1
  O  O455  1  0.90807182  0.96878200  0.96732504  1
  O  O456  1  0.11131565  0.14614960  0.19082695  1
  O  O457  1  0.11131565  0.14614960  0.69082695  1
  O  O458  1  0.11131565  0.39614960  0.19082695  1
  O  O459  1  0.11131565  0.39614960  0.69082695  1
  O  O460  1  0.11131565  0.64614960  0.19082695  1
  O  O461  1  0.11131565  0.64614960  0.69082695  1
  O  O462  1  0.11131565  0.89614960  0.19082695  1
  O  O463  1  0.11131565  0.89614960  0.69082695  1
  O  O464  1  0.44464899  0.14614960  0.19082695  1
  O  O465  1  0.44464899  0.14614960  0.69082695  1
  O  O466  1  0.44464899  0.39614960  0.19082695  1
  O  O467  1  0.44464899  0.39614960  0.69082695  1
  O  O468  1  0.44464899  0.64614960  0.19082695  1
  O  O469  1  0.44464899  0.64614960  0.69082695  1
  O  O470  1  0.44464899  0.89614960  0.19082695  1
  O  O471  1  0.44464899  0.89614960  0.69082695  1
  O  O472  1  0.77798232  0.14614960  0.19082695  1
  O  O473  1  0.77798232  0.14614960  0.69082695  1
  O  O474  1  0.77798232  0.39614960  0.19082695  1
  O  O475  1  0.77798232  0.39614960  0.69082695  1
  O  O476  1  0.77798232  0.64614960  0.19082695  1
  O  O477  1  0.77798232  0.64614960  0.69082695  1
  O  O478  1  0.77798232  0.89614960  0.19082695  1
  O  O479  1  0.77798232  0.89614960  0.69082695  1
