# generated using pymatgen
data_Mg(ReO4)2
_symmetry_space_group_name_H-M   'P 1'
_cell_length_a   17.26197461
_cell_length_b   17.26197461
_cell_length_c   19.28925341
_cell_angle_alpha   90.00000000
_cell_angle_beta   90.00000000
_cell_angle_gamma   120.00000000
_symmetry_Int_Tables_number   1
_chemical_formula_structural   Mg(ReO4)2
_chemical_formula_sum   'Mg27 Re54 O216'
_cell_volume   4977.68027076
_cell_formula_units_Z   27
loop_
 _symmetry_equiv_pos_site_id
 _symmetry_equiv_pos_as_xyz
  1  'x, y, z'
loop_
 _atom_site_type_symbol
 _atom_site_label
 _atom_site_symmetry_multiplicity
 _atom_site_fract_x
 _atom_site_fract_y
 _atom_site_fract_z
 _atom_site_occupancy
  Mg  Mg0  1  0.00000000  0.00000000  0.00000000  1
  Mg  Mg1  1  0.00000000  0.00000000  0.33333333  1
  Mg  Mg2  1  0.00000000  0.00000000  0.66666667  1
  Mg  Mg3  1  -0.00000000  0.33333333  0.00000000  1
  Mg  Mg4  1  -0.00000000  0.33333333  0.33333333  1
  Mg  Mg5  1  -0.00000000  0.33333333  0.66666667  1
  Mg  Mg6  1  -0.00000000  0.66666667  0.00000000  1
  Mg  Mg7  1  -0.00000000  0.66666667  0.33333333  1
  Mg  Mg8  1  -0.00000000  0.66666667  0.66666667  1
  Mg  Mg9  1  0.33333333  0.00000000  0.00000000  1
  Mg  Mg10  1  0.33333333  0.00000000  0.33333333  1
  Mg  Mg11  1  0.33333333  0.00000000  0.66666667  1
  Mg  Mg12  1  0.33333333  0.33333333  0.00000000  1
  Mg  Mg13  1  0.33333333  0.33333333  0.33333333  1
  Mg  Mg14  1  0.33333333  0.33333333  0.66666667  1
  Mg  Mg15  1  0.33333333  0.66666667  0.00000000  1
  Mg  Mg16  1  0.33333333  0.66666667  0.33333333  1
  Mg  Mg17  1  0.33333333  0.66666667  0.66666667  1
  Mg  Mg18  1  0.66666667  0.00000000  0.00000000  1
  Mg  Mg19  1  0.66666667  0.00000000  0.33333333  1
  Mg  Mg20  1  0.66666667  0.00000000  0.66666667  1
  Mg  Mg21  1  0.66666667  0.33333333  0.00000000  1
  Mg  Mg22  1  0.66666667  0.33333333  0.33333333  1
  Mg  Mg23  1  0.66666667  0.33333333  0.66666667  1
  Mg  Mg24  1  0.66666667  0.66666667  0.00000000  1
  Mg  Mg25  1  0.66666667  0.66666667  0.33333333  1
  Mg  Mg26  1  0.66666667  0.66666667  0.66666667  1
  Re  Re27  1  0.11111111  0.22222222  0.09156509  1
  Re  Re28  1  0.11111111  0.22222222  0.42489843  1
  Re  Re29  1  0.11111111  0.22222222  0.75823176  1
  Re  Re30  1  0.11111111  0.55555556  0.09156509  1
  Re  Re31  1  0.11111111  0.55555556  0.42489843  1
  Re  Re32  1  0.11111111  0.55555556  0.75823176  1
  Re  Re33  1  0.11111111  0.88888889  0.09156509  1
  Re  Re34  1  0.11111111  0.88888889  0.42489843  1
  Re  Re35  1  0.11111111  0.88888889  0.75823176  1
  Re  Re36  1  0.44444444  0.22222222  0.09156509  1
  Re  Re37  1  0.44444444  0.22222222  0.42489843  1
  Re  Re38  1  0.44444444  0.22222222  0.75823176  1
  Re  Re39  1  0.44444444  0.55555556  0.09156509  1
  Re  Re40  1  0.44444444  0.55555556  0.42489843  1
  Re  Re41  1  0.44444444  0.55555556  0.75823176  1
  Re  Re42  1  0.44444444  0.88888889  0.09156509  1
  Re  Re43  1  0.44444444  0.88888889  0.42489843  1
  Re  Re44  1  0.44444444  0.88888889  0.75823176  1
  Re  Re45  1  0.77777778  0.22222222  0.09156509  1
  Re  Re46  1  0.77777778  0.22222222  0.42489843  1
  Re  Re47  1  0.77777778  0.22222222  0.75823176  1
  Re  Re48  1  0.77777778  0.55555556  0.09156509  1
  Re  Re49  1  0.77777778  0.55555556  0.42489843  1
  Re  Re50  1  0.77777778  0.55555556  0.75823176  1
  Re  Re51  1  0.77777778  0.88888889  0.09156509  1
  Re  Re52  1  0.77777778  0.88888889  0.42489843  1
  Re  Re53  1  0.77777778  0.88888889  0.75823176  1
  Re  Re54  1  0.22222222  0.11111111  0.24176824  1
  Re  Re55  1  0.22222222  0.11111111  0.57510157  1
  Re  Re56  1  0.22222222  0.11111111  0.90843491  1
  Re  Re57  1  0.22222222  0.44444444  0.24176824  1
  Re  Re58  1  0.22222222  0.44444444  0.57510157  1
  Re  Re59  1  0.22222222  0.44444444  0.90843491  1
  Re  Re60  1  0.22222222  0.77777778  0.24176824  1
  Re  Re61  1  0.22222222  0.77777778  0.57510157  1
  Re  Re62  1  0.22222222  0.77777778  0.90843491  1
  Re  Re63  1  0.55555556  0.11111111  0.24176824  1
  Re  Re64  1  0.55555556  0.11111111  0.57510157  1
  Re  Re65  1  0.55555556  0.11111111  0.90843491  1
  Re  Re66  1  0.55555556  0.44444444  0.24176824  1
  Re  Re67  1  0.55555556  0.44444444  0.57510157  1
  Re  Re68  1  0.55555556  0.44444444  0.90843491  1
  Re  Re69  1  0.55555556  0.77777778  0.24176824  1
  Re  Re70  1  0.55555556  0.77777778  0.57510157  1
  Re  Re71  1  0.55555556  0.77777778  0.90843491  1
  Re  Re72  1  0.88888889  0.11111111  0.24176824  1
  Re  Re73  1  0.88888889  0.11111111  0.57510157  1
  Re  Re74  1  0.88888889  0.11111111  0.90843491  1
  Re  Re75  1  0.88888889  0.44444444  0.24176824  1
  Re  Re76  1  0.88888889  0.44444444  0.57510157  1
  Re  Re77  1  0.88888889  0.44444444  0.90843491  1
  Re  Re78  1  0.88888889  0.77777778  0.24176824  1
  Re  Re79  1  0.88888889  0.77777778  0.57510157  1
  Re  Re80  1  0.88888889  0.77777778  0.90843491  1
  O  O81  1  0.05607603  0.27725730  0.06135788  1
  O  O82  1  0.05607603  0.27725730  0.39469121  1
  O  O83  1  0.05607603  0.27725730  0.72802454  1
  O  O84  1  0.05607603  0.61059064  0.06135788  1
  O  O85  1  0.05607603  0.61059064  0.39469121  1
  O  O86  1  0.05607603  0.61059064  0.72802454  1
  O  O87  1  0.05607603  0.94392397  0.06135788  1
  O  O88  1  0.05607603  0.94392397  0.39469121  1
  O  O89  1  0.05607603  0.94392397  0.72802454  1
  O  O90  1  0.38940936  0.27725730  0.06135788  1
  O  O91  1  0.38940936  0.27725730  0.39469121  1
  O  O92  1  0.38940936  0.27725730  0.72802454  1
  O  O93  1  0.38940936  0.61059064  0.06135788  1
  O  O94  1  0.38940936  0.61059064  0.39469121  1
  O  O95  1  0.38940936  0.61059064  0.72802454  1
  O  O96  1  0.38940936  0.94392397  0.06135788  1
  O  O97  1  0.38940936  0.94392397  0.39469121  1
  O  O98  1  0.38940936  0.94392397  0.72802454  1
  O  O99  1  0.72274270  0.27725730  0.06135788  1
  O  O100  1  0.72274270  0.27725730  0.39469121  1
  O  O101  1  0.72274270  0.27725730  0.72802454  1
  O  O102  1  0.72274270  0.61059064  0.06135788  1
  O  O103  1  0.72274270  0.61059064  0.39469121  1
  O  O104  1  0.72274270  0.61059064  0.72802454  1
  O  O105  1  0.72274270  0.94392397  0.06135788  1
  O  O106  1  0.72274270  0.94392397  0.39469121  1
  O  O107  1  0.72274270  0.94392397  0.72802454  1
  O  O108  1  0.05607603  0.11215206  0.06135788  1
  O  O109  1  0.05607603  0.11215206  0.39469121  1
  O  O110  1  0.05607603  0.11215206  0.72802454  1
  O  O111  1  0.05607603  0.44548539  0.06135788  1
  O  O112  1  0.05607603  0.44548539  0.39469121  1
  O  O113  1  0.05607603  0.44548539  0.72802454  1
  O  O114  1  0.05607603  0.77881872  0.06135788  1
  O  O115  1  0.05607603  0.77881872  0.39469121  1
  O  O116  1  0.05607603  0.77881872  0.72802454  1
  O  O117  1  0.38940936  0.11215206  0.06135788  1
  O  O118  1  0.38940936  0.11215206  0.39469121  1
  O  O119  1  0.38940936  0.11215206  0.72802454  1
  O  O120  1  0.38940936  0.44548539  0.06135788  1
  O  O121  1  0.38940936  0.44548539  0.39469121  1
  O  O122  1  0.38940936  0.44548539  0.72802454  1
  O  O123  1  0.38940936  0.77881872  0.06135788  1
  O  O124  1  0.38940936  0.77881872  0.39469121  1
  O  O125  1  0.38940936  0.77881872  0.72802454  1
  O  O126  1  0.72274270  0.11215206  0.06135788  1
  O  O127  1  0.72274270  0.11215206  0.39469121  1
  O  O128  1  0.72274270  0.11215206  0.72802454  1
  O  O129  1  0.72274270  0.44548539  0.06135788  1
  O  O130  1  0.72274270  0.44548539  0.39469121  1
  O  O131  1  0.72274270  0.44548539  0.72802454  1
  O  O132  1  0.72274270  0.77881872  0.06135788  1
  O  O133  1  0.72274270  0.77881872  0.39469121  1
  O  O134  1  0.72274270  0.77881872  0.72802454  1
  O  O135  1  0.11111111  0.22222222  0.18111618  1
  O  O136  1  0.11111111  0.22222222  0.51444952  1
  O  O137  1  0.11111111  0.22222222  0.84778285  1
  O  O138  1  0.11111111  0.55555556  0.18111618  1
  O  O139  1  0.11111111  0.55555556  0.51444952  1
  O  O140  1  0.11111111  0.55555556  0.84778285  1
  O  O141  1  0.11111111  0.88888889  0.18111618  1
  O  O142  1  0.11111111  0.88888889  0.51444952  1
  O  O143  1  0.11111111  0.88888889  0.84778285  1
  O  O144  1  0.44444444  0.22222222  0.18111618  1
  O  O145  1  0.44444444  0.22222222  0.51444952  1
  O  O146  1  0.44444444  0.22222222  0.84778285  1
  O  O147  1  0.44444444  0.55555556  0.18111618  1
  O  O148  1  0.44444444  0.55555556  0.51444952  1
  O  O149  1  0.44444444  0.55555556  0.84778285  1
  O  O150  1  0.44444444  0.88888889  0.18111618  1
  O  O151  1  0.44444444  0.88888889  0.51444952  1
  O  O152  1  0.44444444  0.88888889  0.84778285  1
  O  O153  1  0.77777778  0.22222222  0.18111618  1
  O  O154  1  0.77777778  0.22222222  0.51444952  1
  O  O155  1  0.77777778  0.22222222  0.84778285  1
  O  O156  1  0.77777778  0.55555556  0.18111618  1
  O  O157  1  0.77777778  0.55555556  0.51444952  1
  O  O158  1  0.77777778  0.55555556  0.84778285  1
  O  O159  1  0.77777778  0.88888889  0.18111618  1
  O  O160  1  0.77777778  0.88888889  0.51444952  1
  O  O161  1  0.77777778  0.88888889  0.84778285  1
  O  O162  1  0.11215206  0.05607603  0.27197546  1
  O  O163  1  0.11215206  0.05607603  0.60530879  1
  O  O164  1  0.11215206  0.05607603  0.93864212  1
  O  O165  1  0.11215206  0.38940936  0.27197546  1
  O  O166  1  0.11215206  0.38940936  0.60530879  1
  O  O167  1  0.11215206  0.38940936  0.93864212  1
  O  O168  1  0.11215206  0.72274270  0.27197546  1
  O  O169  1  0.11215206  0.72274270  0.60530879  1
  O  O170  1  0.11215206  0.72274270  0.93864212  1
  O  O171  1  0.44548539  0.05607603  0.27197546  1
  O  O172  1  0.44548539  0.05607603  0.60530879  1
  O  O173  1  0.44548539  0.05607603  0.93864212  1
  O  O174  1  0.44548539  0.38940936  0.27197546  1
  O  O175  1  0.44548539  0.38940936  0.60530879  1
  O  O176  1  0.44548539  0.38940936  0.93864212  1
  O  O177  1  0.44548539  0.72274270  0.27197546  1
  O  O178  1  0.44548539  0.72274270  0.60530879  1
  O  O179  1  0.44548539  0.72274270  0.93864212  1
  O  O180  1  0.77881872  0.05607603  0.27197546  1
  O  O181  1  0.77881872  0.05607603  0.60530879  1
  O  O182  1  0.77881872  0.05607603  0.93864212  1
  O  O183  1  0.77881872  0.38940936  0.27197546  1
  O  O184  1  0.77881872  0.38940936  0.60530879  1
  O  O185  1  0.77881872  0.38940936  0.93864212  1
  O  O186  1  0.77881872  0.72274270  0.27197546  1
  O  O187  1  0.77881872  0.72274270  0.60530879  1
  O  O188  1  0.77881872  0.72274270  0.93864212  1
  O  O189  1  0.22118128  0.27725730  0.06135788  1
  O  O190  1  0.22118128  0.27725730  0.39469121  1
  O  O191  1  0.22118128  0.27725730  0.72802454  1
  O  O192  1  0.22118128  0.61059064  0.06135788  1
  O  O193  1  0.22118128  0.61059064  0.39469121  1
  O  O194  1  0.22118128  0.61059064  0.72802454  1
  O  O195  1  0.22118128  0.94392397  0.06135788  1
  O  O196  1  0.22118128  0.94392397  0.39469121  1
  O  O197  1  0.22118128  0.94392397  0.72802454  1
  O  O198  1  0.55451461  0.27725730  0.06135788  1
  O  O199  1  0.55451461  0.27725730  0.39469121  1
  O  O200  1  0.55451461  0.27725730  0.72802454  1
  O  O201  1  0.55451461  0.61059064  0.06135788  1
  O  O202  1  0.55451461  0.61059064  0.39469121  1
  O  O203  1  0.55451461  0.61059064  0.72802454  1
  O  O204  1  0.55451461  0.94392397  0.06135788  1
  O  O205  1  0.55451461  0.94392397  0.39469121  1
  O  O206  1  0.55451461  0.94392397  0.72802454  1
  O  O207  1  0.88784794  0.27725730  0.06135788  1
  O  O208  1  0.88784794  0.27725730  0.39469121  1
  O  O209  1  0.88784794  0.27725730  0.72802454  1
  O  O210  1  0.88784794  0.61059064  0.06135788  1
  O  O211  1  0.88784794  0.61059064  0.39469121  1
  O  O212  1  0.88784794  0.61059064  0.72802454  1
  O  O213  1  0.88784794  0.94392397  0.06135788  1
  O  O214  1  0.88784794  0.94392397  0.39469121  1
  O  O215  1  0.88784794  0.94392397  0.72802454  1
  O  O216  1  0.22222222  0.11111111  0.15221715  1
  O  O217  1  0.22222222  0.11111111  0.48555048  1
  O  O218  1  0.22222222  0.11111111  0.81888382  1
  O  O219  1  0.22222222  0.44444444  0.15221715  1
  O  O220  1  0.22222222  0.44444444  0.48555048  1
  O  O221  1  0.22222222  0.44444444  0.81888382  1
  O  O222  1  0.22222222  0.77777778  0.15221715  1
  O  O223  1  0.22222222  0.77777778  0.48555048  1
  O  O224  1  0.22222222  0.77777778  0.81888382  1
  O  O225  1  0.55555556  0.11111111  0.15221715  1
  O  O226  1  0.55555556  0.11111111  0.48555048  1
  O  O227  1  0.55555556  0.11111111  0.81888382  1
  O  O228  1  0.55555556  0.44444444  0.15221715  1
  O  O229  1  0.55555556  0.44444444  0.48555048  1
  O  O230  1  0.55555556  0.44444444  0.81888382  1
  O  O231  1  0.55555556  0.77777778  0.15221715  1
  O  O232  1  0.55555556  0.77777778  0.48555048  1
  O  O233  1  0.55555556  0.77777778  0.81888382  1
  O  O234  1  0.88888889  0.11111111  0.15221715  1
  O  O235  1  0.88888889  0.11111111  0.48555048  1
  O  O236  1  0.88888889  0.11111111  0.81888382  1
  O  O237  1  0.88888889  0.44444444  0.15221715  1
  O  O238  1  0.88888889  0.44444444  0.48555048  1
  O  O239  1  0.88888889  0.44444444  0.81888382  1
  O  O240  1  0.88888889  0.77777778  0.15221715  1
  O  O241  1  0.88888889  0.77777778  0.48555048  1
  O  O242  1  0.88888889  0.77777778  0.81888382  1
  O  O243  1  0.27725730  0.22118128  0.27197546  1
  O  O244  1  0.27725730  0.22118128  0.60530879  1
  O  O245  1  0.27725730  0.22118128  0.93864212  1
  O  O246  1  0.27725730  0.55451461  0.27197546  1
  O  O247  1  0.27725730  0.55451461  0.60530879  1
  O  O248  1  0.27725730  0.55451461  0.93864212  1
  O  O249  1  0.27725730  0.88784794  0.27197546  1
  O  O250  1  0.27725730  0.88784794  0.60530879  1
  O  O251  1  0.27725730  0.88784794  0.93864212  1
  O  O252  1  0.61059064  0.22118128  0.27197546  1
  O  O253  1  0.61059064  0.22118128  0.60530879  1
  O  O254  1  0.61059064  0.22118128  0.93864212  1
  O  O255  1  0.61059064  0.55451461  0.27197546  1
  O  O256  1  0.61059064  0.55451461  0.60530879  1
  O  O257  1  0.61059064  0.55451461  0.93864212  1
  O  O258  1  0.61059064  0.88784794  0.27197546  1
  O  O259  1  0.61059064  0.88784794  0.60530879  1
  O  O260  1  0.61059064  0.88784794  0.93864212  1
  O  O261  1  0.94392397  0.22118128  0.27197546  1
  O  O262  1  0.94392397  0.22118128  0.60530879  1
  O  O263  1  0.94392397  0.22118128  0.93864212  1
  O  O264  1  0.94392397  0.55451461  0.27197546  1
  O  O265  1  0.94392397  0.55451461  0.60530879  1
  O  O266  1  0.94392397  0.55451461  0.93864212  1
  O  O267  1  0.94392397  0.88784794  0.27197546  1
  O  O268  1  0.94392397  0.88784794  0.60530879  1
  O  O269  1  0.94392397  0.88784794  0.93864212  1
  O  O270  1  0.27725730  0.05607603  0.27197546  1
  O  O271  1  0.27725730  0.05607603  0.60530879  1
  O  O272  1  0.27725730  0.05607603  0.93864212  1
  O  O273  1  0.27725730  0.38940936  0.27197546  1
  O  O274  1  0.27725730  0.38940936  0.60530879  1
  O  O275  1  0.27725730  0.38940936  0.93864212  1
  O  O276  1  0.27725730  0.72274270  0.27197546  1
  O  O277  1  0.27725730  0.72274270  0.60530879  1
  O  O278  1  0.27725730  0.72274270  0.93864212  1
  O  O279  1  0.61059064  0.05607603  0.27197546  1
  O  O280  1  0.61059064  0.05607603  0.60530879  1
  O  O281  1  0.61059064  0.05607603  0.93864212  1
  O  O282  1  0.61059064  0.38940936  0.27197546  1
  O  O283  1  0.61059064  0.38940936  0.60530879  1
  O  O284  1  0.61059064  0.38940936  0.93864212  1
  O  O285  1  0.61059064  0.72274270  0.27197546  1
  O  O286  1  0.61059064  0.72274270  0.60530879  1
  O  O287  1  0.61059064  0.72274270  0.93864212  1
  O  O288  1  0.94392397  0.05607603  0.27197546  1
  O  O289  1  0.94392397  0.05607603  0.60530879  1
  O  O290  1  0.94392397  0.05607603  0.93864212  1
  O  O291  1  0.94392397  0.38940936  0.27197546  1
  O  O292  1  0.94392397  0.38940936  0.60530879  1
  O  O293  1  0.94392397  0.38940936  0.93864212  1
  O  O294  1  0.94392397  0.72274270  0.27197546  1
  O  O295  1  0.94392397  0.72274270  0.60530879  1
  O  O296  1  0.94392397  0.72274270  0.93864212  1
