# generated using pymatgen
data_Na4GeO4
_symmetry_space_group_name_H-M   'P 1'
_cell_length_a   16.94820405
_cell_length_b   16.98583895
_cell_length_c   17.10449983
_cell_angle_alpha   81.54045518
_cell_angle_beta   71.26319963
_cell_angle_gamma   68.33802058
_symmetry_Int_Tables_number   1
_chemical_formula_structural   Na4GeO4
_chemical_formula_sum   'Na144 Ge36 O144'
_cell_volume   4331.48461800
_cell_formula_units_Z   36
loop_
 _symmetry_equiv_pos_site_id
 _symmetry_equiv_pos_as_xyz
  1  'x, y, z'
loop_
 _atom_site_type_symbol
 _atom_site_label
 _atom_site_symmetry_multiplicity
 _atom_site_fract_x
 _atom_site_fract_y
 _atom_site_fract_z
 _atom_site_occupancy
  Na  Na0  1  0.32647744  0.07825490  0.03304526  1
  Na  Na1  1  0.32647744  0.07825490  0.53304526  1
  Na  Na2  1  0.32647744  0.41158823  0.03304526  1
  Na  Na3  1  0.32647744  0.41158823  0.53304526  1
  Na  Na4  1  0.32647744  0.74492157  0.03304526  1
  Na  Na5  1  0.32647744  0.74492157  0.53304526  1
  Na  Na6  1  0.65981077  0.07825490  0.03304526  1
  Na  Na7  1  0.65981077  0.07825490  0.53304526  1
  Na  Na8  1  0.65981077  0.41158823  0.03304526  1
  Na  Na9  1  0.65981077  0.41158823  0.53304526  1
  Na  Na10  1  0.65981077  0.74492157  0.03304526  1
  Na  Na11  1  0.65981077  0.74492157  0.53304526  1
  Na  Na12  1  0.99314411  0.07825490  0.03304526  1
  Na  Na13  1  0.99314411  0.07825490  0.53304526  1
  Na  Na14  1  0.99314411  0.41158823  0.03304526  1
  Na  Na15  1  0.99314411  0.41158823  0.53304526  1
  Na  Na16  1  0.99314411  0.74492157  0.03304526  1
  Na  Na17  1  0.99314411  0.74492157  0.53304526  1
  Na  Na18  1  0.14850492  0.24773204  0.05064499  1
  Na  Na19  1  0.14850492  0.24773204  0.55064499  1
  Na  Na20  1  0.14850492  0.58106537  0.05064499  1
  Na  Na21  1  0.14850492  0.58106537  0.55064499  1
  Na  Na22  1  0.14850492  0.91439870  0.05064499  1
  Na  Na23  1  0.14850492  0.91439870  0.55064499  1
  Na  Na24  1  0.48183825  0.24773204  0.05064499  1
  Na  Na25  1  0.48183825  0.24773204  0.55064499  1
  Na  Na26  1  0.48183825  0.58106537  0.05064499  1
  Na  Na27  1  0.48183825  0.58106537  0.55064499  1
  Na  Na28  1  0.48183825  0.91439870  0.05064499  1
  Na  Na29  1  0.48183825  0.91439870  0.55064499  1
  Na  Na30  1  0.81517159  0.24773204  0.05064499  1
  Na  Na31  1  0.81517159  0.24773204  0.55064499  1
  Na  Na32  1  0.81517159  0.58106537  0.05064499  1
  Na  Na33  1  0.81517159  0.58106537  0.55064499  1
  Na  Na34  1  0.81517159  0.91439870  0.05064499  1
  Na  Na35  1  0.81517159  0.91439870  0.55064499  1
  Na  Na36  1  0.29671710  0.25743310  0.15881888  1
  Na  Na37  1  0.29671710  0.25743310  0.65881888  1
  Na  Na38  1  0.29671710  0.59076644  0.15881888  1
  Na  Na39  1  0.29671710  0.59076644  0.65881888  1
  Na  Na40  1  0.29671710  0.92409977  0.15881888  1
  Na  Na41  1  0.29671710  0.92409977  0.65881888  1
  Na  Na42  1  0.63005044  0.25743310  0.15881888  1
  Na  Na43  1  0.63005044  0.25743310  0.65881888  1
  Na  Na44  1  0.63005044  0.59076644  0.15881888  1
  Na  Na45  1  0.63005044  0.59076644  0.65881888  1
  Na  Na46  1  0.63005044  0.92409977  0.15881888  1
  Na  Na47  1  0.63005044  0.92409977  0.65881888  1
  Na  Na48  1  0.96338377  0.25743310  0.15881888  1
  Na  Na49  1  0.96338377  0.25743310  0.65881888  1
  Na  Na50  1  0.96338377  0.59076644  0.15881888  1
  Na  Na51  1  0.96338377  0.59076644  0.65881888  1
  Na  Na52  1  0.96338377  0.92409977  0.15881888  1
  Na  Na53  1  0.96338377  0.92409977  0.65881888  1
  Na  Na54  1  0.08604300  0.24805471  0.25554845  1
  Na  Na55  1  0.08604300  0.24805471  0.75554845  1
  Na  Na56  1  0.08604300  0.58138804  0.25554845  1
  Na  Na57  1  0.08604300  0.58138804  0.75554845  1
  Na  Na58  1  0.08604300  0.91472138  0.25554845  1
  Na  Na59  1  0.08604300  0.91472138  0.75554845  1
  Na  Na60  1  0.41937633  0.24805471  0.25554845  1
  Na  Na61  1  0.41937633  0.24805471  0.75554845  1
  Na  Na62  1  0.41937633  0.58138804  0.25554845  1
  Na  Na63  1  0.41937633  0.58138804  0.75554845  1
  Na  Na64  1  0.41937633  0.91472138  0.25554845  1
  Na  Na65  1  0.41937633  0.91472138  0.75554845  1
  Na  Na66  1  0.75270967  0.24805471  0.25554845  1
  Na  Na67  1  0.75270967  0.24805471  0.75554845  1
  Na  Na68  1  0.75270967  0.58138804  0.25554845  1
  Na  Na69  1  0.75270967  0.58138804  0.75554845  1
  Na  Na70  1  0.75270967  0.91472138  0.25554845  1
  Na  Na71  1  0.75270967  0.91472138  0.75554845  1
  Na  Na72  1  0.24729033  0.08527862  0.24445155  1
  Na  Na73  1  0.24729033  0.08527862  0.74445155  1
  Na  Na74  1  0.24729033  0.41861196  0.24445155  1
  Na  Na75  1  0.24729033  0.41861196  0.74445155  1
  Na  Na76  1  0.24729033  0.75194529  0.24445155  1
  Na  Na77  1  0.24729033  0.75194529  0.74445155  1
  Na  Na78  1  0.58062367  0.08527862  0.24445155  1
  Na  Na79  1  0.58062367  0.08527862  0.74445155  1
  Na  Na80  1  0.58062367  0.41861196  0.24445155  1
  Na  Na81  1  0.58062367  0.41861196  0.74445155  1
  Na  Na82  1  0.58062367  0.75194529  0.24445155  1
  Na  Na83  1  0.58062367  0.75194529  0.74445155  1
  Na  Na84  1  0.91395700  0.08527862  0.24445155  1
  Na  Na85  1  0.91395700  0.08527862  0.74445155  1
  Na  Na86  1  0.91395700  0.41861196  0.24445155  1
  Na  Na87  1  0.91395700  0.41861196  0.74445155  1
  Na  Na88  1  0.91395700  0.75194529  0.24445155  1
  Na  Na89  1  0.91395700  0.75194529  0.74445155  1
  Na  Na90  1  0.18482841  0.08560130  0.44935501  1
  Na  Na91  1  0.18482841  0.08560130  0.94935501  1
  Na  Na92  1  0.18482841  0.41893463  0.44935501  1
  Na  Na93  1  0.18482841  0.41893463  0.94935501  1
  Na  Na94  1  0.18482841  0.75226796  0.44935501  1
  Na  Na95  1  0.18482841  0.75226796  0.94935501  1
  Na  Na96  1  0.51816175  0.08560130  0.44935501  1
  Na  Na97  1  0.51816175  0.08560130  0.94935501  1
  Na  Na98  1  0.51816175  0.41893463  0.44935501  1
  Na  Na99  1  0.51816175  0.41893463  0.94935501  1
  Na  Na100  1  0.51816175  0.75226796  0.44935501  1
  Na  Na101  1  0.51816175  0.75226796  0.94935501  1
  Na  Na102  1  0.85149508  0.08560130  0.44935501  1
  Na  Na103  1  0.85149508  0.08560130  0.94935501  1
  Na  Na104  1  0.85149508  0.41893463  0.44935501  1
  Na  Na105  1  0.85149508  0.41893463  0.94935501  1
  Na  Na106  1  0.85149508  0.75226796  0.44935501  1
  Na  Na107  1  0.85149508  0.75226796  0.94935501  1
  Na  Na108  1  0.00685589  0.25507843  0.46695474  1
  Na  Na109  1  0.00685589  0.25507843  0.96695474  1
  Na  Na110  1  0.00685589  0.58841177  0.46695474  1
  Na  Na111  1  0.00685589  0.58841177  0.96695474  1
  Na  Na112  1  0.00685589  0.92174510  0.46695474  1
  Na  Na113  1  0.00685589  0.92174510  0.96695474  1
  Na  Na114  1  0.34018923  0.25507843  0.46695474  1
  Na  Na115  1  0.34018923  0.25507843  0.96695474  1
  Na  Na116  1  0.34018923  0.58841177  0.46695474  1
  Na  Na117  1  0.34018923  0.58841177  0.96695474  1
  Na  Na118  1  0.34018923  0.92174510  0.46695474  1
  Na  Na119  1  0.34018923  0.92174510  0.96695474  1
  Na  Na120  1  0.67352256  0.25507843  0.46695474  1
  Na  Na121  1  0.67352256  0.25507843  0.96695474  1
  Na  Na122  1  0.67352256  0.58841177  0.46695474  1
  Na  Na123  1  0.67352256  0.58841177  0.96695474  1
  Na  Na124  1  0.67352256  0.92174510  0.46695474  1
  Na  Na125  1  0.67352256  0.92174510  0.96695474  1
  Na  Na126  1  0.03661623  0.07590023  0.34118112  1
  Na  Na127  1  0.03661623  0.07590023  0.84118112  1
  Na  Na128  1  0.03661623  0.40923356  0.34118112  1
  Na  Na129  1  0.03661623  0.40923356  0.84118112  1
  Na  Na130  1  0.03661623  0.74256690  0.34118112  1
  Na  Na131  1  0.03661623  0.74256690  0.84118112  1
  Na  Na132  1  0.36994956  0.07590023  0.34118112  1
  Na  Na133  1  0.36994956  0.07590023  0.84118112  1
  Na  Na134  1  0.36994956  0.40923356  0.34118112  1
  Na  Na135  1  0.36994956  0.40923356  0.84118112  1
  Na  Na136  1  0.36994956  0.74256690  0.34118112  1
  Na  Na137  1  0.36994956  0.74256690  0.84118112  1
  Na  Na138  1  0.70328290  0.07590023  0.34118112  1
  Na  Na139  1  0.70328290  0.07590023  0.84118112  1
  Na  Na140  1  0.70328290  0.40923356  0.34118112  1
  Na  Na141  1  0.70328290  0.40923356  0.84118112  1
  Na  Na142  1  0.70328290  0.74256690  0.34118112  1
  Na  Na143  1  0.70328290  0.74256690  0.84118112  1
  Ge  Ge144  1  0.11419396  0.07357977  0.12810177  1
  Ge  Ge145  1  0.11419396  0.07357977  0.62810177  1
  Ge  Ge146  1  0.11419396  0.40691310  0.12810177  1
  Ge  Ge147  1  0.11419396  0.40691310  0.62810177  1
  Ge  Ge148  1  0.11419396  0.74024644  0.12810177  1
  Ge  Ge149  1  0.11419396  0.74024644  0.62810177  1
  Ge  Ge150  1  0.44752729  0.07357977  0.12810177  1
  Ge  Ge151  1  0.44752729  0.07357977  0.62810177  1
  Ge  Ge152  1  0.44752729  0.40691310  0.12810177  1
  Ge  Ge153  1  0.44752729  0.40691310  0.62810177  1
  Ge  Ge154  1  0.44752729  0.74024644  0.12810177  1
  Ge  Ge155  1  0.44752729  0.74024644  0.62810177  1
  Ge  Ge156  1  0.78086063  0.07357977  0.12810177  1
  Ge  Ge157  1  0.78086063  0.07357977  0.62810177  1
  Ge  Ge158  1  0.78086063  0.40691310  0.12810177  1
  Ge  Ge159  1  0.78086063  0.40691310  0.62810177  1
  Ge  Ge160  1  0.78086063  0.74024644  0.12810177  1
  Ge  Ge161  1  0.78086063  0.74024644  0.62810177  1
  Ge  Ge162  1  0.21913937  0.25975356  0.37189823  1
  Ge  Ge163  1  0.21913937  0.25975356  0.87189823  1
  Ge  Ge164  1  0.21913937  0.59308690  0.37189823  1
  Ge  Ge165  1  0.21913937  0.59308690  0.87189823  1
  Ge  Ge166  1  0.21913937  0.92642023  0.37189823  1
  Ge  Ge167  1  0.21913937  0.92642023  0.87189823  1
  Ge  Ge168  1  0.55247271  0.25975356  0.37189823  1
  Ge  Ge169  1  0.55247271  0.25975356  0.87189823  1
  Ge  Ge170  1  0.55247271  0.59308690  0.37189823  1
  Ge  Ge171  1  0.55247271  0.59308690  0.87189823  1
  Ge  Ge172  1  0.55247271  0.92642023  0.37189823  1
  Ge  Ge173  1  0.55247271  0.92642023  0.87189823  1
  Ge  Ge174  1  0.88580604  0.25975356  0.37189823  1
  Ge  Ge175  1  0.88580604  0.25975356  0.87189823  1
  Ge  Ge176  1  0.88580604  0.59308690  0.37189823  1
  Ge  Ge177  1  0.88580604  0.59308690  0.87189823  1
  Ge  Ge178  1  0.88580604  0.92642023  0.37189823  1
  Ge  Ge179  1  0.88580604  0.92642023  0.87189823  1
  O  O180  1  0.11089964  0.32463134  0.43202582  1
  O  O181  1  0.11089964  0.32463134  0.93202582  1
  O  O182  1  0.11089964  0.65796467  0.43202582  1
  O  O183  1  0.11089964  0.65796467  0.93202582  1
  O  O184  1  0.11089964  0.99129800  0.43202582  1
  O  O185  1  0.11089964  0.99129800  0.93202582  1
  O  O186  1  0.44423298  0.32463134  0.43202582  1
  O  O187  1  0.44423298  0.32463134  0.93202582  1
  O  O188  1  0.44423298  0.65796467  0.43202582  1
  O  O189  1  0.44423298  0.65796467  0.93202582  1
  O  O190  1  0.44423298  0.99129800  0.43202582  1
  O  O191  1  0.44423298  0.99129800  0.93202582  1
  O  O192  1  0.77756631  0.32463134  0.43202582  1
  O  O193  1  0.77756631  0.32463134  0.93202582  1
  O  O194  1  0.77756631  0.65796467  0.43202582  1
  O  O195  1  0.77756631  0.65796467  0.93202582  1
  O  O196  1  0.77756631  0.99129800  0.43202582  1
  O  O197  1  0.77756631  0.99129800  0.93202582  1
  O  O198  1  0.26577258  0.17414483  0.43858696  1
  O  O199  1  0.26577258  0.17414483  0.93858696  1
  O  O200  1  0.26577258  0.50747817  0.43858696  1
  O  O201  1  0.26577258  0.50747817  0.93858696  1
  O  O202  1  0.26577258  0.84081150  0.43858696  1
  O  O203  1  0.26577258  0.84081150  0.93858696  1
  O  O204  1  0.59910592  0.17414483  0.43858696  1
  O  O205  1  0.59910592  0.17414483  0.93858696  1
  O  O206  1  0.59910592  0.50747817  0.43858696  1
  O  O207  1  0.59910592  0.50747817  0.93858696  1
  O  O208  1  0.59910592  0.84081150  0.43858696  1
  O  O209  1  0.59910592  0.84081150  0.93858696  1
  O  O210  1  0.93243925  0.17414483  0.43858696  1
  O  O211  1  0.93243925  0.17414483  0.93858696  1
  O  O212  1  0.93243925  0.50747817  0.43858696  1
  O  O213  1  0.93243925  0.50747817  0.93858696  1
  O  O214  1  0.93243925  0.84081150  0.43858696  1
  O  O215  1  0.93243925  0.84081150  0.93858696  1
  O  O216  1  0.06756075  0.15918850  0.06141304  1
  O  O217  1  0.06756075  0.15918850  0.56141304  1
  O  O218  1  0.06756075  0.49252183  0.06141304  1
  O  O219  1  0.06756075  0.49252183  0.56141304  1
  O  O220  1  0.06756075  0.82585517  0.06141304  1
  O  O221  1  0.06756075  0.82585517  0.56141304  1
  O  O222  1  0.40089408  0.15918850  0.06141304  1
  O  O223  1  0.40089408  0.15918850  0.56141304  1
  O  O224  1  0.40089408  0.49252183  0.06141304  1
  O  O225  1  0.40089408  0.49252183  0.56141304  1
  O  O226  1  0.40089408  0.82585517  0.06141304  1
  O  O227  1  0.40089408  0.82585517  0.56141304  1
  O  O228  1  0.73422742  0.15918850  0.06141304  1
  O  O229  1  0.73422742  0.15918850  0.56141304  1
  O  O230  1  0.73422742  0.49252183  0.06141304  1
  O  O231  1  0.73422742  0.49252183  0.56141304  1
  O  O232  1  0.73422742  0.82585517  0.06141304  1
  O  O233  1  0.73422742  0.82585517  0.56141304  1
  O  O234  1  0.28829870  0.32431944  0.34765686  1
  O  O235  1  0.28829870  0.32431944  0.84765686  1
  O  O236  1  0.28829870  0.65765277  0.34765686  1
  O  O237  1  0.28829870  0.65765277  0.84765686  1
  O  O238  1  0.28829870  0.99098610  0.34765686  1
  O  O239  1  0.28829870  0.99098610  0.84765686  1
  O  O240  1  0.62163203  0.32431944  0.34765686  1
  O  O241  1  0.62163203  0.32431944  0.84765686  1
  O  O242  1  0.62163203  0.65765277  0.34765686  1
  O  O243  1  0.62163203  0.65765277  0.84765686  1
  O  O244  1  0.62163203  0.99098610  0.34765686  1
  O  O245  1  0.62163203  0.99098610  0.84765686  1
  O  O246  1  0.95496537  0.32431944  0.34765686  1
  O  O247  1  0.95496537  0.32431944  0.84765686  1
  O  O248  1  0.95496537  0.65765277  0.34765686  1
  O  O249  1  0.95496537  0.65765277  0.84765686  1
  O  O250  1  0.95496537  0.99098610  0.34765686  1
  O  O251  1  0.95496537  0.99098610  0.84765686  1
  O  O252  1  0.04503463  0.00901390  0.15234314  1
  O  O253  1  0.04503463  0.00901390  0.65234314  1
  O  O254  1  0.04503463  0.34234723  0.15234314  1
  O  O255  1  0.04503463  0.34234723  0.65234314  1
  O  O256  1  0.04503463  0.67568056  0.15234314  1
  O  O257  1  0.04503463  0.67568056  0.65234314  1
  O  O258  1  0.37836797  0.00901390  0.15234314  1
  O  O259  1  0.37836797  0.00901390  0.65234314  1
  O  O260  1  0.37836797  0.34234723  0.15234314  1
  O  O261  1  0.37836797  0.34234723  0.65234314  1
  O  O262  1  0.37836797  0.67568056  0.15234314  1
  O  O263  1  0.37836797  0.67568056  0.65234314  1
  O  O264  1  0.71170130  0.00901390  0.15234314  1
  O  O265  1  0.71170130  0.00901390  0.65234314  1
  O  O266  1  0.71170130  0.34234723  0.15234314  1
  O  O267  1  0.71170130  0.34234723  0.65234314  1
  O  O268  1  0.71170130  0.67568056  0.15234314  1
  O  O269  1  0.71170130  0.67568056  0.65234314  1
  O  O270  1  0.21573152  0.21832804  0.28361793  1
  O  O271  1  0.21573152  0.21832804  0.78361793  1
  O  O272  1  0.21573152  0.55166137  0.28361793  1
  O  O273  1  0.21573152  0.55166137  0.78361793  1
  O  O274  1  0.21573152  0.88499470  0.28361793  1
  O  O275  1  0.21573152  0.88499470  0.78361793  1
  O  O276  1  0.54906485  0.21832804  0.28361793  1
  O  O277  1  0.54906485  0.21832804  0.78361793  1
  O  O278  1  0.54906485  0.55166137  0.28361793  1
  O  O279  1  0.54906485  0.55166137  0.78361793  1
  O  O280  1  0.54906485  0.88499470  0.28361793  1
  O  O281  1  0.54906485  0.88499470  0.78361793  1
  O  O282  1  0.88239819  0.21832804  0.28361793  1
  O  O283  1  0.88239819  0.21832804  0.78361793  1
  O  O284  1  0.88239819  0.55166137  0.28361793  1
  O  O285  1  0.88239819  0.55166137  0.78361793  1
  O  O286  1  0.88239819  0.88499470  0.28361793  1
  O  O287  1  0.88239819  0.88499470  0.78361793  1
  O  O288  1  0.22243369  0.00870200  0.06797418  1
  O  O289  1  0.22243369  0.00870200  0.56797418  1
  O  O290  1  0.22243369  0.34203533  0.06797418  1
  O  O291  1  0.22243369  0.34203533  0.56797418  1
  O  O292  1  0.22243369  0.67536866  0.06797418  1
  O  O293  1  0.22243369  0.67536866  0.56797418  1
  O  O294  1  0.55576702  0.00870200  0.06797418  1
  O  O295  1  0.55576702  0.00870200  0.56797418  1
  O  O296  1  0.55576702  0.34203533  0.06797418  1
  O  O297  1  0.55576702  0.34203533  0.56797418  1
  O  O298  1  0.55576702  0.67536866  0.06797418  1
  O  O299  1  0.55576702  0.67536866  0.56797418  1
  O  O300  1  0.88910036  0.00870200  0.06797418  1
  O  O301  1  0.88910036  0.00870200  0.56797418  1
  O  O302  1  0.88910036  0.34203533  0.06797418  1
  O  O303  1  0.88910036  0.34203533  0.56797418  1
  O  O304  1  0.88910036  0.67536866  0.06797418  1
  O  O305  1  0.88910036  0.67536866  0.56797418  1
  O  O306  1  0.11760181  0.11500530  0.21638207  1
  O  O307  1  0.11760181  0.11500530  0.71638207  1
  O  O308  1  0.11760181  0.44833863  0.21638207  1
  O  O309  1  0.11760181  0.44833863  0.71638207  1
  O  O310  1  0.11760181  0.78167196  0.21638207  1
  O  O311  1  0.11760181  0.78167196  0.71638207  1
  O  O312  1  0.45093515  0.11500530  0.21638207  1
  O  O313  1  0.45093515  0.11500530  0.71638207  1
  O  O314  1  0.45093515  0.44833863  0.21638207  1
  O  O315  1  0.45093515  0.44833863  0.71638207  1
  O  O316  1  0.45093515  0.78167196  0.21638207  1
  O  O317  1  0.45093515  0.78167196  0.71638207  1
  O  O318  1  0.78426848  0.11500530  0.21638207  1
  O  O319  1  0.78426848  0.11500530  0.71638207  1
  O  O320  1  0.78426848  0.44833863  0.21638207  1
  O  O321  1  0.78426848  0.44833863  0.71638207  1
  O  O322  1  0.78426848  0.78167196  0.21638207  1
  O  O323  1  0.78426848  0.78167196  0.71638207  1
