# generated using pymatgen
data_Li2BeSiO4
_symmetry_space_group_name_H-M   'P 1'
_cell_length_a   14.11302042
_cell_length_b   14.83664342
_cell_length_c   15.40932401
_cell_angle_alpha   90.00000000
_cell_angle_beta   127.63659310
_cell_angle_gamma   90.00000000
_symmetry_Int_Tables_number   1
_chemical_formula_structural   Li2BeSiO4
_chemical_formula_sum   'Li72 Be36 Si36 O144'
_cell_volume   2555.10910600
_cell_formula_units_Z   36
loop_
 _symmetry_equiv_pos_site_id
 _symmetry_equiv_pos_as_xyz
  1  'x, y, z'
loop_
 _atom_site_type_symbol
 _atom_site_label
 _atom_site_symmetry_multiplicity
 _atom_site_fract_x
 _atom_site_fract_y
 _atom_site_fract_z
 _atom_site_occupancy
  Li  Li0  1  0.16735494  0.27460136  0.25021255  1
  Li  Li1  1  0.16735494  0.27460136  0.75021255  1
  Li  Li2  1  0.16735494  0.60793469  0.25021255  1
  Li  Li3  1  0.16735494  0.60793469  0.75021255  1
  Li  Li4  1  0.16735494  0.94126802  0.25021255  1
  Li  Li5  1  0.16735494  0.94126802  0.75021255  1
  Li  Li6  1  0.50068827  0.27460136  0.25021255  1
  Li  Li7  1  0.50068827  0.27460136  0.75021255  1
  Li  Li8  1  0.50068827  0.60793469  0.25021255  1
  Li  Li9  1  0.50068827  0.60793469  0.75021255  1
  Li  Li10  1  0.50068827  0.94126802  0.25021255  1
  Li  Li11  1  0.50068827  0.94126802  0.75021255  1
  Li  Li12  1  0.83402160  0.27460136  0.25021255  1
  Li  Li13  1  0.83402160  0.27460136  0.75021255  1
  Li  Li14  1  0.83402160  0.60793469  0.25021255  1
  Li  Li15  1  0.83402160  0.60793469  0.75021255  1
  Li  Li16  1  0.83402160  0.94126802  0.25021255  1
  Li  Li17  1  0.83402160  0.94126802  0.75021255  1
  Li  Li18  1  0.16735494  0.05873198  0.00021255  1
  Li  Li19  1  0.16735494  0.05873198  0.50021255  1
  Li  Li20  1  0.16735494  0.39206531  0.00021255  1
  Li  Li21  1  0.16735494  0.39206531  0.50021255  1
  Li  Li22  1  0.16735494  0.72539864  0.00021255  1
  Li  Li23  1  0.16735494  0.72539864  0.50021255  1
  Li  Li24  1  0.50068827  0.05873198  0.00021255  1
  Li  Li25  1  0.50068827  0.05873198  0.50021255  1
  Li  Li26  1  0.50068827  0.39206531  0.00021255  1
  Li  Li27  1  0.50068827  0.39206531  0.50021255  1
  Li  Li28  1  0.50068827  0.72539864  0.00021255  1
  Li  Li29  1  0.50068827  0.72539864  0.50021255  1
  Li  Li30  1  0.83402160  0.05873198  0.00021255  1
  Li  Li31  1  0.83402160  0.05873198  0.50021255  1
  Li  Li32  1  0.83402160  0.39206531  0.00021255  1
  Li  Li33  1  0.83402160  0.39206531  0.50021255  1
  Li  Li34  1  0.83402160  0.72539864  0.00021255  1
  Li  Li35  1  0.83402160  0.72539864  0.50021255  1
  Li  Li36  1  0.25158109  0.22177359  0.12645263  1
  Li  Li37  1  0.25158109  0.22177359  0.62645263  1
  Li  Li38  1  0.25158109  0.55510692  0.12645263  1
  Li  Li39  1  0.25158109  0.55510692  0.62645263  1
  Li  Li40  1  0.25158109  0.88844025  0.12645263  1
  Li  Li41  1  0.25158109  0.88844025  0.62645263  1
  Li  Li42  1  0.58491443  0.22177359  0.12645263  1
  Li  Li43  1  0.58491443  0.22177359  0.62645263  1
  Li  Li44  1  0.58491443  0.55510692  0.12645263  1
  Li  Li45  1  0.58491443  0.55510692  0.62645263  1
  Li  Li46  1  0.58491443  0.88844025  0.12645263  1
  Li  Li47  1  0.58491443  0.88844025  0.62645263  1
  Li  Li48  1  0.91824776  0.22177359  0.12645263  1
  Li  Li49  1  0.91824776  0.22177359  0.62645263  1
  Li  Li50  1  0.91824776  0.55510692  0.12645263  1
  Li  Li51  1  0.91824776  0.55510692  0.62645263  1
  Li  Li52  1  0.91824776  0.88844025  0.12645263  1
  Li  Li53  1  0.91824776  0.88844025  0.62645263  1
  Li  Li54  1  0.25158109  0.11155975  0.37645263  1
  Li  Li55  1  0.25158109  0.11155975  0.87645263  1
  Li  Li56  1  0.25158109  0.44489308  0.37645263  1
  Li  Li57  1  0.25158109  0.44489308  0.87645263  1
  Li  Li58  1  0.25158109  0.77822641  0.37645263  1
  Li  Li59  1  0.25158109  0.77822641  0.87645263  1
  Li  Li60  1  0.58491443  0.11155975  0.37645263  1
  Li  Li61  1  0.58491443  0.11155975  0.87645263  1
  Li  Li62  1  0.58491443  0.44489308  0.37645263  1
  Li  Li63  1  0.58491443  0.44489308  0.87645263  1
  Li  Li64  1  0.58491443  0.77822641  0.37645263  1
  Li  Li65  1  0.58491443  0.77822641  0.87645263  1
  Li  Li66  1  0.91824776  0.11155975  0.37645263  1
  Li  Li67  1  0.91824776  0.11155975  0.87645263  1
  Li  Li68  1  0.91824776  0.44489308  0.37645263  1
  Li  Li69  1  0.91824776  0.44489308  0.87645263  1
  Li  Li70  1  0.91824776  0.77822641  0.37645263  1
  Li  Li71  1  0.91824776  0.77822641  0.87645263  1
  Be  Be72  1  0.08101060  0.22646441  0.37578871  1
  Be  Be73  1  0.08101060  0.22646441  0.87578871  1
  Be  Be74  1  0.08101060  0.55979774  0.37578871  1
  Be  Be75  1  0.08101060  0.55979774  0.87578871  1
  Be  Be76  1  0.08101060  0.89313107  0.37578871  1
  Be  Be77  1  0.08101060  0.89313107  0.87578871  1
  Be  Be78  1  0.41434393  0.22646441  0.37578871  1
  Be  Be79  1  0.41434393  0.22646441  0.87578871  1
  Be  Be80  1  0.41434393  0.55979774  0.37578871  1
  Be  Be81  1  0.41434393  0.55979774  0.87578871  1
  Be  Be82  1  0.41434393  0.89313107  0.37578871  1
  Be  Be83  1  0.41434393  0.89313107  0.87578871  1
  Be  Be84  1  0.74767726  0.22646441  0.37578871  1
  Be  Be85  1  0.74767726  0.22646441  0.87578871  1
  Be  Be86  1  0.74767726  0.55979774  0.37578871  1
  Be  Be87  1  0.74767726  0.55979774  0.87578871  1
  Be  Be88  1  0.74767726  0.89313107  0.37578871  1
  Be  Be89  1  0.74767726  0.89313107  0.87578871  1
  Be  Be90  1  0.08101060  0.10686893  0.12578871  1
  Be  Be91  1  0.08101060  0.10686893  0.62578871  1
  Be  Be92  1  0.08101060  0.44020226  0.12578871  1
  Be  Be93  1  0.08101060  0.44020226  0.62578871  1
  Be  Be94  1  0.08101060  0.77353559  0.12578871  1
  Be  Be95  1  0.08101060  0.77353559  0.62578871  1
  Be  Be96  1  0.41434393  0.10686893  0.12578871  1
  Be  Be97  1  0.41434393  0.10686893  0.62578871  1
  Be  Be98  1  0.41434393  0.44020226  0.12578871  1
  Be  Be99  1  0.41434393  0.44020226  0.62578871  1
  Be  Be100  1  0.41434393  0.77353559  0.12578871  1
  Be  Be101  1  0.41434393  0.77353559  0.62578871  1
  Be  Be102  1  0.74767726  0.10686893  0.12578871  1
  Be  Be103  1  0.74767726  0.10686893  0.62578871  1
  Be  Be104  1  0.74767726  0.44020226  0.12578871  1
  Be  Be105  1  0.74767726  0.44020226  0.62578871  1
  Be  Be106  1  0.74767726  0.77353559  0.12578871  1
  Be  Be107  1  0.74767726  0.77353559  0.62578871  1
  Si  Si108  1  0.33135166  0.27359789  0.00137688  1
  Si  Si109  1  0.33135166  0.27359789  0.50137688  1
  Si  Si110  1  0.33135166  0.60693122  0.00137688  1
  Si  Si111  1  0.33135166  0.60693122  0.50137688  1
  Si  Si112  1  0.33135166  0.94026455  0.00137688  1
  Si  Si113  1  0.33135166  0.94026455  0.50137688  1
  Si  Si114  1  0.66468500  0.27359789  0.00137688  1
  Si  Si115  1  0.66468500  0.27359789  0.50137688  1
  Si  Si116  1  0.66468500  0.60693122  0.00137688  1
  Si  Si117  1  0.66468500  0.60693122  0.50137688  1
  Si  Si118  1  0.66468500  0.94026455  0.00137688  1
  Si  Si119  1  0.66468500  0.94026455  0.50137688  1
  Si  Si120  1  0.99801833  0.27359789  0.00137688  1
  Si  Si121  1  0.99801833  0.27359789  0.50137688  1
  Si  Si122  1  0.99801833  0.60693122  0.00137688  1
  Si  Si123  1  0.99801833  0.60693122  0.50137688  1
  Si  Si124  1  0.99801833  0.94026455  0.00137688  1
  Si  Si125  1  0.99801833  0.94026455  0.50137688  1
  Si  Si126  1  0.33135166  0.05973545  0.25137688  1
  Si  Si127  1  0.33135166  0.05973545  0.75137688  1
  Si  Si128  1  0.33135166  0.39306878  0.25137688  1
  Si  Si129  1  0.33135166  0.39306878  0.75137688  1
  Si  Si130  1  0.33135166  0.72640211  0.25137688  1
  Si  Si131  1  0.33135166  0.72640211  0.75137688  1
  Si  Si132  1  0.66468500  0.05973545  0.25137688  1
  Si  Si133  1  0.66468500  0.05973545  0.75137688  1
  Si  Si134  1  0.66468500  0.39306878  0.25137688  1
  Si  Si135  1  0.66468500  0.39306878  0.75137688  1
  Si  Si136  1  0.66468500  0.72640211  0.25137688  1
  Si  Si137  1  0.66468500  0.72640211  0.75137688  1
  Si  Si138  1  0.99801833  0.05973545  0.25137688  1
  Si  Si139  1  0.99801833  0.05973545  0.75137688  1
  Si  Si140  1  0.99801833  0.39306878  0.25137688  1
  Si  Si141  1  0.99801833  0.39306878  0.75137688  1
  Si  Si142  1  0.99801833  0.72640211  0.25137688  1
  Si  Si143  1  0.99801833  0.72640211  0.75137688  1
  O  O144  1  0.20544925  0.26681770  0.48607278  1
  O  O145  1  0.20544925  0.26681770  0.98607278  1
  O  O146  1  0.20544925  0.60015103  0.48607278  1
  O  O147  1  0.20544925  0.60015103  0.98607278  1
  O  O148  1  0.20544925  0.93348436  0.48607278  1
  O  O149  1  0.20544925  0.93348436  0.98607278  1
  O  O150  1  0.53878259  0.26681770  0.48607278  1
  O  O151  1  0.53878259  0.26681770  0.98607278  1
  O  O152  1  0.53878259  0.60015103  0.48607278  1
  O  O153  1  0.53878259  0.60015103  0.98607278  1
  O  O154  1  0.53878259  0.93348436  0.48607278  1
  O  O155  1  0.53878259  0.93348436  0.98607278  1
  O  O156  1  0.87211592  0.26681770  0.48607278  1
  O  O157  1  0.87211592  0.26681770  0.98607278  1
  O  O158  1  0.87211592  0.60015103  0.48607278  1
  O  O159  1  0.87211592  0.60015103  0.98607278  1
  O  O160  1  0.87211592  0.93348436  0.48607278  1
  O  O161  1  0.87211592  0.93348436  0.98607278  1
  O  O162  1  0.30911697  0.10013627  0.14124307  1
  O  O163  1  0.30911697  0.10013627  0.64124307  1
  O  O164  1  0.30911697  0.43346960  0.14124307  1
  O  O165  1  0.30911697  0.43346960  0.64124307  1
  O  O166  1  0.30911697  0.76680293  0.14124307  1
  O  O167  1  0.30911697  0.76680293  0.64124307  1
  O  O168  1  0.64245030  0.10013627  0.14124307  1
  O  O169  1  0.64245030  0.10013627  0.64124307  1
  O  O170  1  0.64245030  0.43346960  0.14124307  1
  O  O171  1  0.64245030  0.43346960  0.64124307  1
  O  O172  1  0.64245030  0.76680293  0.14124307  1
  O  O173  1  0.64245030  0.76680293  0.64124307  1
  O  O174  1  0.97578364  0.10013627  0.14124307  1
  O  O175  1  0.97578364  0.10013627  0.64124307  1
  O  O176  1  0.97578364  0.43346960  0.14124307  1
  O  O177  1  0.97578364  0.43346960  0.64124307  1
  O  O178  1  0.97578364  0.76680293  0.14124307  1
  O  O179  1  0.97578364  0.76680293  0.64124307  1
  O  O180  1  0.03850841  0.04669931  0.01668476  1
  O  O181  1  0.03850841  0.04669931  0.51668476  1
  O  O182  1  0.03850841  0.38003265  0.01668476  1
  O  O183  1  0.03850841  0.38003265  0.51668476  1
  O  O184  1  0.03850841  0.71336598  0.01668476  1
  O  O185  1  0.03850841  0.71336598  0.51668476  1
  O  O186  1  0.37184174  0.04669931  0.01668476  1
  O  O187  1  0.37184174  0.04669931  0.51668476  1
  O  O188  1  0.37184174  0.38003265  0.01668476  1
  O  O189  1  0.37184174  0.38003265  0.51668476  1
  O  O190  1  0.37184174  0.71336598  0.01668476  1
  O  O191  1  0.37184174  0.71336598  0.51668476  1
  O  O192  1  0.70517508  0.04669931  0.01668476  1
  O  O193  1  0.70517508  0.04669931  0.51668476  1
  O  O194  1  0.70517508  0.38003265  0.01668476  1
  O  O195  1  0.70517508  0.38003265  0.51668476  1
  O  O196  1  0.70517508  0.71336598  0.01668476  1
  O  O197  1  0.70517508  0.71336598  0.51668476  1
  O  O198  1  0.20544925  0.06651564  0.23607278  1
  O  O199  1  0.20544925  0.06651564  0.73607278  1
  O  O200  1  0.20544925  0.39984897  0.23607278  1
  O  O201  1  0.20544925  0.39984897  0.73607278  1
  O  O202  1  0.20544925  0.73318230  0.23607278  1
  O  O203  1  0.20544925  0.73318230  0.73607278  1
  O  O204  1  0.53878259  0.06651564  0.23607278  1
  O  O205  1  0.53878259  0.06651564  0.73607278  1
  O  O206  1  0.53878259  0.39984897  0.23607278  1
  O  O207  1  0.53878259  0.39984897  0.73607278  1
  O  O208  1  0.53878259  0.73318230  0.23607278  1
  O  O209  1  0.53878259  0.73318230  0.73607278  1
  O  O210  1  0.87211592  0.06651564  0.23607278  1
  O  O211  1  0.87211592  0.06651564  0.73607278  1
  O  O212  1  0.87211592  0.39984897  0.23607278  1
  O  O213  1  0.87211592  0.39984897  0.73607278  1
  O  O214  1  0.87211592  0.73318230  0.23607278  1
  O  O215  1  0.87211592  0.73318230  0.73607278  1
  O  O216  1  0.03850841  0.28663402  0.26668476  1
  O  O217  1  0.03850841  0.28663402  0.76668476  1
  O  O218  1  0.03850841  0.61996735  0.26668476  1
  O  O219  1  0.03850841  0.61996735  0.76668476  1
  O  O220  1  0.03850841  0.95330069  0.26668476  1
  O  O221  1  0.03850841  0.95330069  0.76668476  1
  O  O222  1  0.37184174  0.28663402  0.26668476  1
  O  O223  1  0.37184174  0.28663402  0.76668476  1
  O  O224  1  0.37184174  0.61996735  0.26668476  1
  O  O225  1  0.37184174  0.61996735  0.76668476  1
  O  O226  1  0.37184174  0.95330069  0.26668476  1
  O  O227  1  0.37184174  0.95330069  0.76668476  1
  O  O228  1  0.70517508  0.28663402  0.26668476  1
  O  O229  1  0.70517508  0.28663402  0.76668476  1
  O  O230  1  0.70517508  0.61996735  0.26668476  1
  O  O231  1  0.70517508  0.61996735  0.76668476  1
  O  O232  1  0.70517508  0.95330069  0.26668476  1
  O  O233  1  0.70517508  0.95330069  0.76668476  1
  O  O234  1  0.10062741  0.21389369  0.10966862  1
  O  O235  1  0.10062741  0.21389369  0.60966862  1
  O  O236  1  0.10062741  0.54722703  0.10966862  1
  O  O237  1  0.10062741  0.54722703  0.60966862  1
  O  O238  1  0.10062741  0.88056036  0.10966862  1
  O  O239  1  0.10062741  0.88056036  0.60966862  1
  O  O240  1  0.43396074  0.21389369  0.10966862  1
  O  O241  1  0.43396074  0.21389369  0.60966862  1
  O  O242  1  0.43396074  0.54722703  0.10966862  1
  O  O243  1  0.43396074  0.54722703  0.60966862  1
  O  O244  1  0.43396074  0.88056036  0.10966862  1
  O  O245  1  0.43396074  0.88056036  0.60966862  1
  O  O246  1  0.76729408  0.21389369  0.10966862  1
  O  O247  1  0.76729408  0.21389369  0.60966862  1
  O  O248  1  0.76729408  0.54722703  0.10966862  1
  O  O249  1  0.76729408  0.54722703  0.60966862  1
  O  O250  1  0.76729408  0.88056036  0.10966862  1
  O  O251  1  0.76729408  0.88056036  0.60966862  1
  O  O252  1  0.10062741  0.11943964  0.35966862  1
  O  O253  1  0.10062741  0.11943964  0.85966862  1
  O  O254  1  0.10062741  0.45277297  0.35966862  1
  O  O255  1  0.10062741  0.45277297  0.85966862  1
  O  O256  1  0.10062741  0.78610631  0.35966862  1
  O  O257  1  0.10062741  0.78610631  0.85966862  1
  O  O258  1  0.43396074  0.11943964  0.35966862  1
  O  O259  1  0.43396074  0.11943964  0.85966862  1
  O  O260  1  0.43396074  0.45277297  0.35966862  1
  O  O261  1  0.43396074  0.45277297  0.85966862  1
  O  O262  1  0.43396074  0.78610631  0.35966862  1
  O  O263  1  0.43396074  0.78610631  0.85966862  1
  O  O264  1  0.76729408  0.11943964  0.35966862  1
  O  O265  1  0.76729408  0.11943964  0.85966862  1
  O  O266  1  0.76729408  0.45277297  0.35966862  1
  O  O267  1  0.76729408  0.45277297  0.85966862  1
  O  O268  1  0.76729408  0.78610631  0.35966862  1
  O  O269  1  0.76729408  0.78610631  0.85966862  1
  O  O270  1  0.30911697  0.23319707  0.39124307  1
  O  O271  1  0.30911697  0.23319707  0.89124307  1
  O  O272  1  0.30911697  0.56653040  0.39124307  1
  O  O273  1  0.30911697  0.56653040  0.89124307  1
  O  O274  1  0.30911697  0.89986373  0.39124307  1
  O  O275  1  0.30911697  0.89986373  0.89124307  1
  O  O276  1  0.64245030  0.23319707  0.39124307  1
  O  O277  1  0.64245030  0.23319707  0.89124307  1
  O  O278  1  0.64245030  0.56653040  0.39124307  1
  O  O279  1  0.64245030  0.56653040  0.89124307  1
  O  O280  1  0.64245030  0.89986373  0.39124307  1
  O  O281  1  0.64245030  0.89986373  0.89124307  1
  O  O282  1  0.97578364  0.23319707  0.39124307  1
  O  O283  1  0.97578364  0.23319707  0.89124307  1
  O  O284  1  0.97578364  0.56653040  0.39124307  1
  O  O285  1  0.97578364  0.56653040  0.89124307  1
  O  O286  1  0.97578364  0.89986373  0.39124307  1
  O  O287  1  0.97578364  0.89986373  0.89124307  1
