# generated using pymatgen
data_NaSr3NbO6
_symmetry_space_group_name_H-M   'P 1'
_cell_length_a   9.75235969
_cell_length_b   9.75235969
_cell_length_c   11.53829688
_cell_angle_alpha   90.00000000
_cell_angle_beta   90.00000000
_cell_angle_gamma   120.00000000
_symmetry_Int_Tables_number   1
_chemical_formula_structural   NaSr3NbO6
_chemical_formula_sum   'Na6 Sr18 Nb6 O36'
_cell_volume   950.36790634
_cell_formula_units_Z   6
loop_
 _symmetry_equiv_pos_site_id
 _symmetry_equiv_pos_as_xyz
  1  'x, y, z'
loop_
 _atom_site_type_symbol
 _atom_site_label
 _atom_site_symmetry_multiplicity
 _atom_site_fract_x
 _atom_site_fract_y
 _atom_site_fract_z
 _atom_site_occupancy
  Na  Na0  1  0.00000000  0.00000000  0.75000000  1
  Na  Na1  1  0.66666667  0.33333333  1.08333333  1
  Na  Na2  1  0.33333333  0.66666667  1.41666667  1
  Na  Na3  1  -0.00000000  -0.00000000  0.25000000  1
  Na  Na4  1  0.66666667  0.33333333  0.58333333  1
  Na  Na5  1  0.33333333  0.66666667  0.91666667  1
  Sr  Sr6  1  -0.31384009  -0.33333333  0.41666667  1
  Sr  Sr7  1  0.35282657  -0.00000000  0.75000000  1
  Sr  Sr8  1  0.01949324  0.33333333  1.08333333  1
  Sr  Sr9  1  0.33333333  0.01949324  0.41666667  1
  Sr  Sr10  1  1.00000000  0.35282657  0.75000000  1
  Sr  Sr11  1  0.66666667  0.68615991  1.08333333  1
  Sr  Sr12  1  -0.01949324  0.31384009  0.41666667  1
  Sr  Sr13  1  0.64717343  0.64717343  0.75000000  1
  Sr  Sr14  1  0.31384009  0.98050676  1.08333333  1
  Sr  Sr15  1  0.31384009  0.33333333  0.58333333  1
  Sr  Sr16  1  0.98050676  0.66666667  0.91666667  1
  Sr  Sr17  1  0.64717343  1.00000000  1.25000000  1
  Sr  Sr18  1  -0.33333333  -0.01949324  0.58333333  1
  Sr  Sr19  1  0.33333333  0.31384009  0.91666667  1
  Sr  Sr20  1  -0.00000000  0.64717343  1.25000000  1
  Sr  Sr21  1  0.01949324  -0.31384009  0.58333333  1
  Sr  Sr22  1  0.68615991  0.01949324  0.91666667  1
  Sr  Sr23  1  0.35282657  0.35282657  1.25000000  1
  Nb  Nb24  1  -0.00000000  -0.00000000  -0.00000000  1
  Nb  Nb25  1  0.66666667  0.33333333  0.33333333  1
  Nb  Nb26  1  0.33333333  0.66666667  0.66666667  1
  Nb  Nb27  1  0.00000000  0.00000000  0.50000000  1
  Nb  Nb28  1  0.66666667  0.33333333  0.83333333  1
  Nb  Nb29  1  0.33333333  0.66666667  1.16666667  1
  O  O30  1  -0.51169923  -0.35931227  0.56586255  1
  O  O31  1  0.15496744  -0.02597893  0.89919589  1
  O  O32  1  -0.17836589  0.30735440  1.23252922  1
  O  O33  1  0.35931227  -0.15238696  0.56586255  1
  O  O34  1  1.02597893  0.18094637  0.89919589  1
  O  O35  1  0.69264560  0.51427971  1.23252922  1
  O  O36  1  0.15238696  0.51169923  0.56586255  1
  O  O37  1  0.81905363  0.84503256  0.89919589  1
  O  O38  1  0.48572029  1.17836589  1.23252922  1
  O  O39  1  0.18094637  0.02597893  0.60080411  1
  O  O40  1  0.84761304  0.35931227  0.93413745  1
  O  O41  1  0.51427971  0.69264560  1.26747078  1
  O  O42  1  -0.02597893  0.15496744  0.60080411  1
  O  O43  1  0.64068773  0.48830077  0.93413745  1
  O  O44  1  0.30735440  0.82163411  1.26747078  1
  O  O45  1  -0.15496744  -0.18094637  0.60080411  1
  O  O46  1  0.51169923  0.15238696  0.93413745  1
  O  O47  1  0.17836589  0.48572029  1.26747078  1
  O  O48  1  0.51169923  0.35931227  0.43413745  1
  O  O49  1  1.17836589  0.69264560  0.76747078  1
  O  O50  1  0.84503256  1.02597893  1.10080411  1
  O  O51  1  -0.35931227  0.15238696  0.43413745  1
  O  O52  1  0.30735440  0.48572029  0.76747078  1
  O  O53  1  -0.02597893  0.81905363  1.10080411  1
  O  O54  1  -0.15238696  -0.51169923  0.43413745  1
  O  O55  1  0.51427971  -0.17836589  0.76747078  1
  O  O56  1  0.18094637  0.15496744  1.10080411  1
  O  O57  1  -0.18094637  -0.02597893  0.39919589  1
  O  O58  1  0.48572029  0.30735440  0.73252922  1
  O  O59  1  0.15238696  0.64068773  1.06586255  1
  O  O60  1  0.15496744  0.18094637  0.39919589  1
  O  O61  1  0.82163411  0.51427971  0.73252922  1
  O  O62  1  0.48830077  0.84761304  1.06586255  1
  O  O63  1  0.02597893  -0.15496744  0.39919589  1
  O  O64  1  0.69264560  0.17836589  0.73252922  1
  O  O65  1  0.35931227  0.51169923  1.06586255  1
