# generated using pymatgen
data_Rb2SnO2
_symmetry_space_group_name_H-M   'P 1'
_cell_length_a   22.97955545
_cell_length_b   22.38199385
_cell_length_c   22.36415616
_cell_angle_alpha   90.00000000
_cell_angle_beta   90.00000000
_cell_angle_gamma   90.00000000
_symmetry_Int_Tables_number   1
_chemical_formula_structural   Rb2SnO2
_chemical_formula_sum   'Rb192 Sn96 O192'
_cell_volume   11502.51772524
_cell_formula_units_Z   96
loop_
 _symmetry_equiv_pos_site_id
 _symmetry_equiv_pos_as_xyz
  1  'x, y, z'
loop_
 _atom_site_type_symbol
 _atom_site_label
 _atom_site_symmetry_multiplicity
 _atom_site_fract_x
 _atom_site_fract_y
 _atom_site_fract_z
 _atom_site_occupancy
  Rb  Rb0  1  0.00112106  0.21233457  0.36823238  1
  Rb  Rb1  1  0.00112106  0.21233457  0.86823238  1
  Rb  Rb2  1  0.00112106  0.54566790  0.36823238  1
  Rb  Rb3  1  0.00112106  0.54566790  0.86823238  1
  Rb  Rb4  1  0.00112106  0.87900124  0.36823238  1
  Rb  Rb5  1  0.00112106  0.87900124  0.86823238  1
  Rb  Rb6  1  0.25112106  0.21233457  0.36823238  1
  Rb  Rb7  1  0.25112106  0.21233457  0.86823238  1
  Rb  Rb8  1  0.25112106  0.54566790  0.36823238  1
  Rb  Rb9  1  0.25112106  0.54566790  0.86823238  1
  Rb  Rb10  1  0.25112106  0.87900124  0.36823238  1
  Rb  Rb11  1  0.25112106  0.87900124  0.86823238  1
  Rb  Rb12  1  0.50112106  0.21233457  0.36823238  1
  Rb  Rb13  1  0.50112106  0.21233457  0.86823238  1
  Rb  Rb14  1  0.50112106  0.54566790  0.36823238  1
  Rb  Rb15  1  0.50112106  0.54566790  0.86823238  1
  Rb  Rb16  1  0.50112106  0.87900124  0.36823238  1
  Rb  Rb17  1  0.50112106  0.87900124  0.86823238  1
  Rb  Rb18  1  0.75112106  0.21233457  0.36823238  1
  Rb  Rb19  1  0.75112106  0.21233457  0.86823238  1
  Rb  Rb20  1  0.75112106  0.54566790  0.36823238  1
  Rb  Rb21  1  0.75112106  0.54566790  0.86823238  1
  Rb  Rb22  1  0.75112106  0.87900124  0.36823238  1
  Rb  Rb23  1  0.75112106  0.87900124  0.86823238  1
  Rb  Rb24  1  0.12387894  0.12099876  0.11823238  1
  Rb  Rb25  1  0.12387894  0.12099876  0.61823238  1
  Rb  Rb26  1  0.12387894  0.45433210  0.11823238  1
  Rb  Rb27  1  0.12387894  0.45433210  0.61823238  1
  Rb  Rb28  1  0.12387894  0.78766543  0.11823238  1
  Rb  Rb29  1  0.12387894  0.78766543  0.61823238  1
  Rb  Rb30  1  0.37387894  0.12099876  0.11823238  1
  Rb  Rb31  1  0.37387894  0.12099876  0.61823238  1
  Rb  Rb32  1  0.37387894  0.45433210  0.11823238  1
  Rb  Rb33  1  0.37387894  0.45433210  0.61823238  1
  Rb  Rb34  1  0.37387894  0.78766543  0.11823238  1
  Rb  Rb35  1  0.37387894  0.78766543  0.61823238  1
  Rb  Rb36  1  0.62387894  0.12099876  0.11823238  1
  Rb  Rb37  1  0.62387894  0.12099876  0.61823238  1
  Rb  Rb38  1  0.62387894  0.45433210  0.11823238  1
  Rb  Rb39  1  0.62387894  0.45433210  0.61823238  1
  Rb  Rb40  1  0.62387894  0.78766543  0.11823238  1
  Rb  Rb41  1  0.62387894  0.78766543  0.61823238  1
  Rb  Rb42  1  0.87387894  0.12099876  0.11823238  1
  Rb  Rb43  1  0.87387894  0.12099876  0.61823238  1
  Rb  Rb44  1  0.87387894  0.45433210  0.11823238  1
  Rb  Rb45  1  0.87387894  0.45433210  0.61823238  1
  Rb  Rb46  1  0.87387894  0.78766543  0.11823238  1
  Rb  Rb47  1  0.87387894  0.78766543  0.61823238  1
  Rb  Rb48  1  0.24837586  0.20314114  0.20753767  1
  Rb  Rb49  1  0.24837586  0.20314114  0.70753767  1
  Rb  Rb50  1  0.24837586  0.53647447  0.20753767  1
  Rb  Rb51  1  0.24837586  0.53647447  0.70753767  1
  Rb  Rb52  1  0.24837586  0.86980780  0.20753767  1
  Rb  Rb53  1  0.24837586  0.86980780  0.70753767  1
  Rb  Rb54  1  0.49837586  0.20314114  0.20753767  1
  Rb  Rb55  1  0.49837586  0.20314114  0.70753767  1
  Rb  Rb56  1  0.49837586  0.53647447  0.20753767  1
  Rb  Rb57  1  0.49837586  0.53647447  0.70753767  1
  Rb  Rb58  1  0.49837586  0.86980780  0.20753767  1
  Rb  Rb59  1  0.49837586  0.86980780  0.70753767  1
  Rb  Rb60  1  0.74837586  0.20314114  0.20753767  1
  Rb  Rb61  1  0.74837586  0.20314114  0.70753767  1
  Rb  Rb62  1  0.74837586  0.53647447  0.20753767  1
  Rb  Rb63  1  0.74837586  0.53647447  0.70753767  1
  Rb  Rb64  1  0.74837586  0.86980780  0.20753767  1
  Rb  Rb65  1  0.74837586  0.86980780  0.70753767  1
  Rb  Rb66  1  0.99837586  0.20314114  0.20753767  1
  Rb  Rb67  1  0.99837586  0.20314114  0.70753767  1
  Rb  Rb68  1  0.99837586  0.53647447  0.20753767  1
  Rb  Rb69  1  0.99837586  0.53647447  0.70753767  1
  Rb  Rb70  1  0.99837586  0.86980780  0.20753767  1
  Rb  Rb71  1  0.99837586  0.86980780  0.70753767  1
  Rb  Rb72  1  0.12662414  0.13019220  0.45753767  1
  Rb  Rb73  1  0.12662414  0.13019220  0.95753767  1
  Rb  Rb74  1  0.12662414  0.46352553  0.45753767  1
  Rb  Rb75  1  0.12662414  0.46352553  0.95753767  1
  Rb  Rb76  1  0.12662414  0.79685886  0.45753767  1
  Rb  Rb77  1  0.12662414  0.79685886  0.95753767  1
  Rb  Rb78  1  0.37662414  0.13019220  0.45753767  1
  Rb  Rb79  1  0.37662414  0.13019220  0.95753767  1
  Rb  Rb80  1  0.37662414  0.46352553  0.45753767  1
  Rb  Rb81  1  0.37662414  0.46352553  0.95753767  1
  Rb  Rb82  1  0.37662414  0.79685886  0.45753767  1
  Rb  Rb83  1  0.37662414  0.79685886  0.95753767  1
  Rb  Rb84  1  0.62662414  0.13019220  0.45753767  1
  Rb  Rb85  1  0.62662414  0.13019220  0.95753767  1
  Rb  Rb86  1  0.62662414  0.46352553  0.45753767  1
  Rb  Rb87  1  0.62662414  0.46352553  0.95753767  1
  Rb  Rb88  1  0.62662414  0.79685886  0.45753767  1
  Rb  Rb89  1  0.62662414  0.79685886  0.95753767  1
  Rb  Rb90  1  0.87662414  0.13019220  0.45753767  1
  Rb  Rb91  1  0.87662414  0.13019220  0.95753767  1
  Rb  Rb92  1  0.87662414  0.46352553  0.45753767  1
  Rb  Rb93  1  0.87662414  0.46352553  0.95753767  1
  Rb  Rb94  1  0.87662414  0.79685886  0.45753767  1
  Rb  Rb95  1  0.87662414  0.79685886  0.95753767  1
  Rb  Rb96  1  0.00162414  0.03647447  0.04246233  1
  Rb  Rb97  1  0.00162414  0.03647447  0.54246233  1
  Rb  Rb98  1  0.00162414  0.36980780  0.04246233  1
  Rb  Rb99  1  0.00162414  0.36980780  0.54246233  1
  Rb  Rb100  1  0.00162414  0.70314114  0.04246233  1
  Rb  Rb101  1  0.00162414  0.70314114  0.54246233  1
  Rb  Rb102  1  0.25162414  0.03647447  0.04246233  1
  Rb  Rb103  1  0.25162414  0.03647447  0.54246233  1
  Rb  Rb104  1  0.25162414  0.36980780  0.04246233  1
  Rb  Rb105  1  0.25162414  0.36980780  0.54246233  1
  Rb  Rb106  1  0.25162414  0.70314114  0.04246233  1
  Rb  Rb107  1  0.25162414  0.70314114  0.54246233  1
  Rb  Rb108  1  0.50162414  0.03647447  0.04246233  1
  Rb  Rb109  1  0.50162414  0.03647447  0.54246233  1
  Rb  Rb110  1  0.50162414  0.36980780  0.04246233  1
  Rb  Rb111  1  0.50162414  0.36980780  0.54246233  1
  Rb  Rb112  1  0.50162414  0.70314114  0.04246233  1
  Rb  Rb113  1  0.50162414  0.70314114  0.54246233  1
  Rb  Rb114  1  0.75162414  0.03647447  0.04246233  1
  Rb  Rb115  1  0.75162414  0.03647447  0.54246233  1
  Rb  Rb116  1  0.75162414  0.36980780  0.04246233  1
  Rb  Rb117  1  0.75162414  0.36980780  0.54246233  1
  Rb  Rb118  1  0.75162414  0.70314114  0.04246233  1
  Rb  Rb119  1  0.75162414  0.70314114  0.54246233  1
  Rb  Rb120  1  0.12337586  0.29685886  0.29246233  1
  Rb  Rb121  1  0.12337586  0.29685886  0.79246233  1
  Rb  Rb122  1  0.12337586  0.63019220  0.29246233  1
  Rb  Rb123  1  0.12337586  0.63019220  0.79246233  1
  Rb  Rb124  1  0.12337586  0.96352553  0.29246233  1
  Rb  Rb125  1  0.12337586  0.96352553  0.79246233  1
  Rb  Rb126  1  0.37337586  0.29685886  0.29246233  1
  Rb  Rb127  1  0.37337586  0.29685886  0.79246233  1
  Rb  Rb128  1  0.37337586  0.63019220  0.29246233  1
  Rb  Rb129  1  0.37337586  0.63019220  0.79246233  1
  Rb  Rb130  1  0.37337586  0.96352553  0.29246233  1
  Rb  Rb131  1  0.37337586  0.96352553  0.79246233  1
  Rb  Rb132  1  0.62337586  0.29685886  0.29246233  1
  Rb  Rb133  1  0.62337586  0.29685886  0.79246233  1
  Rb  Rb134  1  0.62337586  0.63019220  0.29246233  1
  Rb  Rb135  1  0.62337586  0.63019220  0.79246233  1
  Rb  Rb136  1  0.62337586  0.96352553  0.29246233  1
  Rb  Rb137  1  0.62337586  0.96352553  0.79246233  1
  Rb  Rb138  1  0.87337586  0.29685886  0.29246233  1
  Rb  Rb139  1  0.87337586  0.29685886  0.79246233  1
  Rb  Rb140  1  0.87337586  0.63019220  0.29246233  1
  Rb  Rb141  1  0.87337586  0.63019220  0.79246233  1
  Rb  Rb142  1  0.87337586  0.96352553  0.29246233  1
  Rb  Rb143  1  0.87337586  0.96352553  0.79246233  1
  Rb  Rb144  1  0.12612106  0.28766543  0.13176762  1
  Rb  Rb145  1  0.12612106  0.28766543  0.63176762  1
  Rb  Rb146  1  0.12612106  0.62099876  0.13176762  1
  Rb  Rb147  1  0.12612106  0.62099876  0.63176762  1
  Rb  Rb148  1  0.12612106  0.95433210  0.13176762  1
  Rb  Rb149  1  0.12612106  0.95433210  0.63176762  1
  Rb  Rb150  1  0.37612106  0.28766543  0.13176762  1
  Rb  Rb151  1  0.37612106  0.28766543  0.63176762  1
  Rb  Rb152  1  0.37612106  0.62099876  0.13176762  1
  Rb  Rb153  1  0.37612106  0.62099876  0.63176762  1
  Rb  Rb154  1  0.37612106  0.95433210  0.13176762  1
  Rb  Rb155  1  0.37612106  0.95433210  0.63176762  1
  Rb  Rb156  1  0.62612106  0.28766543  0.13176762  1
  Rb  Rb157  1  0.62612106  0.28766543  0.63176762  1
  Rb  Rb158  1  0.62612106  0.62099876  0.13176762  1
  Rb  Rb159  1  0.62612106  0.62099876  0.63176762  1
  Rb  Rb160  1  0.62612106  0.95433210  0.13176762  1
  Rb  Rb161  1  0.62612106  0.95433210  0.63176762  1
  Rb  Rb162  1  0.87612106  0.28766543  0.13176762  1
  Rb  Rb163  1  0.87612106  0.28766543  0.63176762  1
  Rb  Rb164  1  0.87612106  0.62099876  0.13176762  1
  Rb  Rb165  1  0.87612106  0.62099876  0.63176762  1
  Rb  Rb166  1  0.87612106  0.95433210  0.13176762  1
  Rb  Rb167  1  0.87612106  0.95433210  0.63176762  1
  Rb  Rb168  1  0.24887894  0.04566790  0.38176762  1
  Rb  Rb169  1  0.24887894  0.04566790  0.88176762  1
  Rb  Rb170  1  0.24887894  0.37900124  0.38176762  1
  Rb  Rb171  1  0.24887894  0.37900124  0.88176762  1
  Rb  Rb172  1  0.24887894  0.71233457  0.38176762  1
  Rb  Rb173  1  0.24887894  0.71233457  0.88176762  1
  Rb  Rb174  1  0.49887894  0.04566790  0.38176762  1
  Rb  Rb175  1  0.49887894  0.04566790  0.88176762  1
  Rb  Rb176  1  0.49887894  0.37900124  0.38176762  1
  Rb  Rb177  1  0.49887894  0.37900124  0.88176762  1
  Rb  Rb178  1  0.49887894  0.71233457  0.38176762  1
  Rb  Rb179  1  0.49887894  0.71233457  0.88176762  1
  Rb  Rb180  1  0.74887894  0.04566790  0.38176762  1
  Rb  Rb181  1  0.74887894  0.04566790  0.88176762  1
  Rb  Rb182  1  0.74887894  0.37900124  0.38176762  1
  Rb  Rb183  1  0.74887894  0.37900124  0.88176762  1
  Rb  Rb184  1  0.74887894  0.71233457  0.38176762  1
  Rb  Rb185  1  0.74887894  0.71233457  0.88176762  1
  Rb  Rb186  1  0.99887894  0.04566790  0.38176762  1
  Rb  Rb187  1  0.99887894  0.04566790  0.88176762  1
  Rb  Rb188  1  0.99887894  0.37900124  0.38176762  1
  Rb  Rb189  1  0.99887894  0.37900124  0.88176762  1
  Rb  Rb190  1  0.99887894  0.71233457  0.38176762  1
  Rb  Rb191  1  0.99887894  0.71233457  0.88176762  1
  Sn  Sn192  1  0.12631418  0.29603772  0.47116182  1
  Sn  Sn193  1  0.12631418  0.29603772  0.97116182  1
  Sn  Sn194  1  0.12631418  0.62937105  0.47116182  1
  Sn  Sn195  1  0.12631418  0.62937105  0.97116182  1
  Sn  Sn196  1  0.12631418  0.96270438  0.47116182  1
  Sn  Sn197  1  0.12631418  0.96270438  0.97116182  1
  Sn  Sn198  1  0.37631418  0.29603772  0.47116182  1
  Sn  Sn199  1  0.37631418  0.29603772  0.97116182  1
  Sn  Sn200  1  0.37631418  0.62937105  0.47116182  1
  Sn  Sn201  1  0.37631418  0.62937105  0.97116182  1
  Sn  Sn202  1  0.37631418  0.96270438  0.47116182  1
  Sn  Sn203  1  0.37631418  0.96270438  0.97116182  1
  Sn  Sn204  1  0.62631418  0.29603772  0.47116182  1
  Sn  Sn205  1  0.62631418  0.29603772  0.97116182  1
  Sn  Sn206  1  0.62631418  0.62937105  0.47116182  1
  Sn  Sn207  1  0.62631418  0.62937105  0.97116182  1
  Sn  Sn208  1  0.62631418  0.96270438  0.47116182  1
  Sn  Sn209  1  0.62631418  0.96270438  0.97116182  1
  Sn  Sn210  1  0.87631418  0.29603772  0.47116182  1
  Sn  Sn211  1  0.87631418  0.29603772  0.97116182  1
  Sn  Sn212  1  0.87631418  0.62937105  0.47116182  1
  Sn  Sn213  1  0.87631418  0.62937105  0.97116182  1
  Sn  Sn214  1  0.87631418  0.96270438  0.47116182  1
  Sn  Sn215  1  0.87631418  0.96270438  0.97116182  1
  Sn  Sn216  1  0.12368582  0.12937105  0.27883818  1
  Sn  Sn217  1  0.12368582  0.12937105  0.77883818  1
  Sn  Sn218  1  0.12368582  0.46270438  0.27883818  1
  Sn  Sn219  1  0.12368582  0.46270438  0.77883818  1
  Sn  Sn220  1  0.12368582  0.79603772  0.27883818  1
  Sn  Sn221  1  0.12368582  0.79603772  0.77883818  1
  Sn  Sn222  1  0.37368582  0.12937105  0.27883818  1
  Sn  Sn223  1  0.37368582  0.12937105  0.77883818  1
  Sn  Sn224  1  0.37368582  0.46270438  0.27883818  1
  Sn  Sn225  1  0.37368582  0.46270438  0.77883818  1
  Sn  Sn226  1  0.37368582  0.79603772  0.27883818  1
  Sn  Sn227  1  0.37368582  0.79603772  0.77883818  1
  Sn  Sn228  1  0.62368582  0.12937105  0.27883818  1
  Sn  Sn229  1  0.62368582  0.12937105  0.77883818  1
  Sn  Sn230  1  0.62368582  0.46270438  0.27883818  1
  Sn  Sn231  1  0.62368582  0.46270438  0.77883818  1
  Sn  Sn232  1  0.62368582  0.79603772  0.27883818  1
  Sn  Sn233  1  0.62368582  0.79603772  0.77883818  1
  Sn  Sn234  1  0.87368582  0.12937105  0.27883818  1
  Sn  Sn235  1  0.87368582  0.12937105  0.77883818  1
  Sn  Sn236  1  0.87368582  0.46270438  0.27883818  1
  Sn  Sn237  1  0.87368582  0.46270438  0.77883818  1
  Sn  Sn238  1  0.87368582  0.79603772  0.27883818  1
  Sn  Sn239  1  0.87368582  0.79603772  0.77883818  1
  Sn  Sn240  1  0.24868582  0.03729562  0.22116182  1
  Sn  Sn241  1  0.24868582  0.03729562  0.72116182  1
  Sn  Sn242  1  0.24868582  0.37062895  0.22116182  1
  Sn  Sn243  1  0.24868582  0.37062895  0.72116182  1
  Sn  Sn244  1  0.24868582  0.70396228  0.22116182  1
  Sn  Sn245  1  0.24868582  0.70396228  0.72116182  1
  Sn  Sn246  1  0.49868582  0.03729562  0.22116182  1
  Sn  Sn247  1  0.49868582  0.03729562  0.72116182  1
  Sn  Sn248  1  0.49868582  0.37062895  0.22116182  1
  Sn  Sn249  1  0.49868582  0.37062895  0.72116182  1
  Sn  Sn250  1  0.49868582  0.70396228  0.22116182  1
  Sn  Sn251  1  0.49868582  0.70396228  0.72116182  1
  Sn  Sn252  1  0.74868582  0.03729562  0.22116182  1
  Sn  Sn253  1  0.74868582  0.03729562  0.72116182  1
  Sn  Sn254  1  0.74868582  0.37062895  0.22116182  1
  Sn  Sn255  1  0.74868582  0.37062895  0.72116182  1
  Sn  Sn256  1  0.74868582  0.70396228  0.22116182  1
  Sn  Sn257  1  0.74868582  0.70396228  0.72116182  1
  Sn  Sn258  1  0.99868582  0.03729562  0.22116182  1
  Sn  Sn259  1  0.99868582  0.03729562  0.72116182  1
  Sn  Sn260  1  0.99868582  0.37062895  0.22116182  1
  Sn  Sn261  1  0.99868582  0.37062895  0.72116182  1
  Sn  Sn262  1  0.99868582  0.70396228  0.22116182  1
  Sn  Sn263  1  0.99868582  0.70396228  0.72116182  1
  Sn  Sn264  1  0.00131418  0.20396228  0.02883818  1
  Sn  Sn265  1  0.00131418  0.20396228  0.52883818  1
  Sn  Sn266  1  0.00131418  0.53729562  0.02883818  1
  Sn  Sn267  1  0.00131418  0.53729562  0.52883818  1
  Sn  Sn268  1  0.00131418  0.87062895  0.02883818  1
  Sn  Sn269  1  0.00131418  0.87062895  0.52883818  1
  Sn  Sn270  1  0.25131418  0.20396228  0.02883818  1
  Sn  Sn271  1  0.25131418  0.20396228  0.52883818  1
  Sn  Sn272  1  0.25131418  0.53729562  0.02883818  1
  Sn  Sn273  1  0.25131418  0.53729562  0.52883818  1
  Sn  Sn274  1  0.25131418  0.87062895  0.02883818  1
  Sn  Sn275  1  0.25131418  0.87062895  0.52883818  1
  Sn  Sn276  1  0.50131418  0.20396228  0.02883818  1
  Sn  Sn277  1  0.50131418  0.20396228  0.52883818  1
  Sn  Sn278  1  0.50131418  0.53729562  0.02883818  1
  Sn  Sn279  1  0.50131418  0.53729562  0.52883818  1
  Sn  Sn280  1  0.50131418  0.87062895  0.02883818  1
  Sn  Sn281  1  0.50131418  0.87062895  0.52883818  1
  Sn  Sn282  1  0.75131418  0.20396228  0.02883818  1
  Sn  Sn283  1  0.75131418  0.20396228  0.52883818  1
  Sn  Sn284  1  0.75131418  0.53729562  0.02883818  1
  Sn  Sn285  1  0.75131418  0.53729562  0.52883818  1
  Sn  Sn286  1  0.75131418  0.87062895  0.02883818  1
  Sn  Sn287  1  0.75131418  0.87062895  0.52883818  1
  O  O288  1  0.08887573  0.23038400  0.02578777  1
  O  O289  1  0.08887573  0.23038400  0.52578777  1
  O  O290  1  0.08887573  0.56371733  0.02578777  1
  O  O291  1  0.08887573  0.56371733  0.52578777  1
  O  O292  1  0.08887573  0.89705066  0.02578777  1
  O  O293  1  0.08887573  0.89705066  0.52578777  1
  O  O294  1  0.33887573  0.23038400  0.02578777  1
  O  O295  1  0.33887573  0.23038400  0.52578777  1
  O  O296  1  0.33887573  0.56371733  0.02578777  1
  O  O297  1  0.33887573  0.56371733  0.52578777  1
  O  O298  1  0.33887573  0.89705066  0.02578777  1
  O  O299  1  0.33887573  0.89705066  0.52578777  1
  O  O300  1  0.58887573  0.23038400  0.02578777  1
  O  O301  1  0.58887573  0.23038400  0.52578777  1
  O  O302  1  0.58887573  0.56371733  0.02578777  1
  O  O303  1  0.58887573  0.56371733  0.52578777  1
  O  O304  1  0.58887573  0.89705066  0.02578777  1
  O  O305  1  0.58887573  0.89705066  0.52578777  1
  O  O306  1  0.83887573  0.23038400  0.02578777  1
  O  O307  1  0.83887573  0.23038400  0.52578777  1
  O  O308  1  0.83887573  0.56371733  0.02578777  1
  O  O309  1  0.83887573  0.56371733  0.52578777  1
  O  O310  1  0.83887573  0.89705066  0.02578777  1
  O  O311  1  0.83887573  0.89705066  0.52578777  1
  O  O312  1  0.12136119  0.19534875  0.21759205  1
  O  O313  1  0.12136119  0.19534875  0.71759205  1
  O  O314  1  0.12136119  0.52868209  0.21759205  1
  O  O315  1  0.12136119  0.52868209  0.71759205  1
  O  O316  1  0.12136119  0.86201542  0.21759205  1
  O  O317  1  0.12136119  0.86201542  0.71759205  1
  O  O318  1  0.37136119  0.19534875  0.21759205  1
  O  O319  1  0.37136119  0.19534875  0.71759205  1
  O  O320  1  0.37136119  0.52868209  0.21759205  1
  O  O321  1  0.37136119  0.52868209  0.71759205  1
  O  O322  1  0.37136119  0.86201542  0.21759205  1
  O  O323  1  0.37136119  0.86201542  0.71759205  1
  O  O324  1  0.62136119  0.19534875  0.21759205  1
  O  O325  1  0.62136119  0.19534875  0.71759205  1
  O  O326  1  0.62136119  0.52868209  0.21759205  1
  O  O327  1  0.62136119  0.52868209  0.71759205  1
  O  O328  1  0.62136119  0.86201542  0.21759205  1
  O  O329  1  0.62136119  0.86201542  0.71759205  1
  O  O330  1  0.87136119  0.19534875  0.21759205  1
  O  O331  1  0.87136119  0.19534875  0.71759205  1
  O  O332  1  0.87136119  0.52868209  0.21759205  1
  O  O333  1  0.87136119  0.52868209  0.71759205  1
  O  O334  1  0.87136119  0.86201542  0.21759205  1
  O  O335  1  0.87136119  0.86201542  0.71759205  1
  O  O336  1  0.24636119  0.30465125  0.28240795  1
  O  O337  1  0.24636119  0.30465125  0.78240795  1
  O  O338  1  0.24636119  0.63798458  0.28240795  1
  O  O339  1  0.24636119  0.63798458  0.78240795  1
  O  O340  1  0.24636119  0.97131791  0.28240795  1
  O  O341  1  0.24636119  0.97131791  0.78240795  1
  O  O342  1  0.49636119  0.30465125  0.28240795  1
  O  O343  1  0.49636119  0.30465125  0.78240795  1
  O  O344  1  0.49636119  0.63798458  0.28240795  1
  O  O345  1  0.49636119  0.63798458  0.78240795  1
  O  O346  1  0.49636119  0.97131791  0.28240795  1
  O  O347  1  0.49636119  0.97131791  0.78240795  1
  O  O348  1  0.74636119  0.30465125  0.28240795  1
  O  O349  1  0.74636119  0.30465125  0.78240795  1
  O  O350  1  0.74636119  0.63798458  0.28240795  1
  O  O351  1  0.74636119  0.63798458  0.78240795  1
  O  O352  1  0.74636119  0.97131791  0.28240795  1
  O  O353  1  0.74636119  0.97131791  0.78240795  1
  O  O354  1  0.99636119  0.30465125  0.28240795  1
  O  O355  1  0.99636119  0.30465125  0.78240795  1
  O  O356  1  0.99636119  0.63798458  0.28240795  1
  O  O357  1  0.99636119  0.63798458  0.78240795  1
  O  O358  1  0.99636119  0.97131791  0.28240795  1
  O  O359  1  0.99636119  0.97131791  0.78240795  1
  O  O360  1  0.03612427  0.10294934  0.27578777  1
  O  O361  1  0.03612427  0.10294934  0.77578777  1
  O  O362  1  0.03612427  0.43628267  0.27578777  1
  O  O363  1  0.03612427  0.43628267  0.77578777  1
  O  O364  1  0.03612427  0.76961600  0.27578777  1
  O  O365  1  0.03612427  0.76961600  0.77578777  1
  O  O366  1  0.28612427  0.10294934  0.27578777  1
  O  O367  1  0.28612427  0.10294934  0.77578777  1
  O  O368  1  0.28612427  0.43628267  0.27578777  1
  O  O369  1  0.28612427  0.43628267  0.77578777  1
  O  O370  1  0.28612427  0.76961600  0.27578777  1
  O  O371  1  0.28612427  0.76961600  0.77578777  1
  O  O372  1  0.53612427  0.10294934  0.27578777  1
  O  O373  1  0.53612427  0.10294934  0.77578777  1
  O  O374  1  0.53612427  0.43628267  0.27578777  1
  O  O375  1  0.53612427  0.43628267  0.77578777  1
  O  O376  1  0.53612427  0.76961600  0.27578777  1
  O  O377  1  0.53612427  0.76961600  0.77578777  1
  O  O378  1  0.78612427  0.10294934  0.27578777  1
  O  O379  1  0.78612427  0.10294934  0.77578777  1
  O  O380  1  0.78612427  0.43628267  0.27578777  1
  O  O381  1  0.78612427  0.43628267  0.77578777  1
  O  O382  1  0.78612427  0.76961600  0.27578777  1
  O  O383  1  0.78612427  0.76961600  0.77578777  1
  O  O384  1  0.12863881  0.02868209  0.03240795  1
  O  O385  1  0.12863881  0.02868209  0.53240795  1
  O  O386  1  0.12863881  0.36201542  0.03240795  1
  O  O387  1  0.12863881  0.36201542  0.53240795  1
  O  O388  1  0.12863881  0.69534875  0.03240795  1
  O  O389  1  0.12863881  0.69534875  0.53240795  1
  O  O390  1  0.37863881  0.02868209  0.03240795  1
  O  O391  1  0.37863881  0.02868209  0.53240795  1
  O  O392  1  0.37863881  0.36201542  0.03240795  1
  O  O393  1  0.37863881  0.36201542  0.53240795  1
  O  O394  1  0.37863881  0.69534875  0.03240795  1
  O  O395  1  0.37863881  0.69534875  0.53240795  1
  O  O396  1  0.62863881  0.02868209  0.03240795  1
  O  O397  1  0.62863881  0.02868209  0.53240795  1
  O  O398  1  0.62863881  0.36201542  0.03240795  1
  O  O399  1  0.62863881  0.36201542  0.53240795  1
  O  O400  1  0.62863881  0.69534875  0.03240795  1
  O  O401  1  0.62863881  0.69534875  0.53240795  1
  O  O402  1  0.87863881  0.02868209  0.03240795  1
  O  O403  1  0.87863881  0.02868209  0.53240795  1
  O  O404  1  0.87863881  0.36201542  0.03240795  1
  O  O405  1  0.87863881  0.36201542  0.53240795  1
  O  O406  1  0.87863881  0.69534875  0.03240795  1
  O  O407  1  0.87863881  0.69534875  0.53240795  1
  O  O408  1  0.16112427  0.06371733  0.22421223  1
  O  O409  1  0.16112427  0.06371733  0.72421223  1
  O  O410  1  0.16112427  0.39705066  0.22421223  1
  O  O411  1  0.16112427  0.39705066  0.72421223  1
  O  O412  1  0.16112427  0.73038400  0.22421223  1
  O  O413  1  0.16112427  0.73038400  0.72421223  1
  O  O414  1  0.41112427  0.06371733  0.22421223  1
  O  O415  1  0.41112427  0.06371733  0.72421223  1
  O  O416  1  0.41112427  0.39705066  0.22421223  1
  O  O417  1  0.41112427  0.39705066  0.72421223  1
  O  O418  1  0.41112427  0.73038400  0.22421223  1
  O  O419  1  0.41112427  0.73038400  0.72421223  1
  O  O420  1  0.66112427  0.06371733  0.22421223  1
  O  O421  1  0.66112427  0.06371733  0.72421223  1
  O  O422  1  0.66112427  0.39705066  0.22421223  1
  O  O423  1  0.66112427  0.39705066  0.72421223  1
  O  O424  1  0.66112427  0.73038400  0.22421223  1
  O  O425  1  0.66112427  0.73038400  0.72421223  1
  O  O426  1  0.91112427  0.06371733  0.22421223  1
  O  O427  1  0.91112427  0.06371733  0.72421223  1
  O  O428  1  0.91112427  0.39705066  0.22421223  1
  O  O429  1  0.91112427  0.39705066  0.72421223  1
  O  O430  1  0.91112427  0.73038400  0.22421223  1
  O  O431  1  0.91112427  0.73038400  0.72421223  1
  O  O432  1  0.21387573  0.26961600  0.47421223  1
  O  O433  1  0.21387573  0.26961600  0.97421223  1
  O  O434  1  0.21387573  0.60294934  0.47421223  1
  O  O435  1  0.21387573  0.60294934  0.97421223  1
  O  O436  1  0.21387573  0.93628267  0.47421223  1
  O  O437  1  0.21387573  0.93628267  0.97421223  1
  O  O438  1  0.46387573  0.26961600  0.47421223  1
  O  O439  1  0.46387573  0.26961600  0.97421223  1
  O  O440  1  0.46387573  0.60294934  0.47421223  1
  O  O441  1  0.46387573  0.60294934  0.97421223  1
  O  O442  1  0.46387573  0.93628267  0.47421223  1
  O  O443  1  0.46387573  0.93628267  0.97421223  1
  O  O444  1  0.71387573  0.26961600  0.47421223  1
  O  O445  1  0.71387573  0.26961600  0.97421223  1
  O  O446  1  0.71387573  0.60294934  0.47421223  1
  O  O447  1  0.71387573  0.60294934  0.97421223  1
  O  O448  1  0.71387573  0.93628267  0.47421223  1
  O  O449  1  0.71387573  0.93628267  0.97421223  1
  O  O450  1  0.96387573  0.26961600  0.47421223  1
  O  O451  1  0.96387573  0.26961600  0.97421223  1
  O  O452  1  0.96387573  0.60294934  0.47421223  1
  O  O453  1  0.96387573  0.60294934  0.97421223  1
  O  O454  1  0.96387573  0.93628267  0.47421223  1
  O  O455  1  0.96387573  0.93628267  0.97421223  1
  O  O456  1  0.00363881  0.13798458  0.46759205  1
  O  O457  1  0.00363881  0.13798458  0.96759205  1
  O  O458  1  0.00363881  0.47131791  0.46759205  1
  O  O459  1  0.00363881  0.47131791  0.96759205  1
  O  O460  1  0.00363881  0.80465125  0.46759205  1
  O  O461  1  0.00363881  0.80465125  0.96759205  1
  O  O462  1  0.25363881  0.13798458  0.46759205  1
  O  O463  1  0.25363881  0.13798458  0.96759205  1
  O  O464  1  0.25363881  0.47131791  0.46759205  1
  O  O465  1  0.25363881  0.47131791  0.96759205  1
  O  O466  1  0.25363881  0.80465125  0.46759205  1
  O  O467  1  0.25363881  0.80465125  0.96759205  1
  O  O468  1  0.50363881  0.13798458  0.46759205  1
  O  O469  1  0.50363881  0.13798458  0.96759205  1
  O  O470  1  0.50363881  0.47131791  0.46759205  1
  O  O471  1  0.50363881  0.47131791  0.96759205  1
  O  O472  1  0.50363881  0.80465125  0.46759205  1
  O  O473  1  0.50363881  0.80465125  0.96759205  1
  O  O474  1  0.75363881  0.13798458  0.46759205  1
  O  O475  1  0.75363881  0.13798458  0.96759205  1
  O  O476  1  0.75363881  0.47131791  0.46759205  1
  O  O477  1  0.75363881  0.47131791  0.96759205  1
  O  O478  1  0.75363881  0.80465125  0.46759205  1
  O  O479  1  0.75363881  0.80465125  0.96759205  1
