# generated using pymatgen
data_KLi6BiO6
_symmetry_space_group_name_H-M   'P 1'
_cell_length_a   16.89648924
_cell_length_b   16.89648924
_cell_length_c   14.63869122
_cell_angle_alpha   90.00000000
_cell_angle_beta   90.00000000
_cell_angle_gamma   120.00000000
_symmetry_Int_Tables_number   1
_chemical_formula_structural   KLi6BiO6
_chemical_formula_sum   'K24 Li144 Bi24 O144'
_cell_volume   3619.31042750
_cell_formula_units_Z   24
loop_
 _symmetry_equiv_pos_site_id
 _symmetry_equiv_pos_as_xyz
  1  'x, y, z'
loop_
 _atom_site_type_symbol
 _atom_site_label
 _atom_site_symmetry_multiplicity
 _atom_site_fract_x
 _atom_site_fract_y
 _atom_site_fract_z
 _atom_site_occupancy
  K  K0  1  0.00000000  0.00000000  0.25000000  1
  K  K1  1  0.00000000  0.00000000  0.75000000  1
  K  K2  1  -0.00000000  0.50000000  0.25000000  1
  K  K3  1  -0.00000000  0.50000000  0.75000000  1
  K  K4  1  0.50000000  0.00000000  0.25000000  1
  K  K5  1  0.50000000  0.00000000  0.75000000  1
  K  K6  1  0.50000000  0.50000000  0.25000000  1
  K  K7  1  0.50000000  0.50000000  0.75000000  1
  K  K8  1  0.33333333  0.16666667  0.41666667  1
  K  K9  1  0.33333333  0.16666667  0.91666667  1
  K  K10  1  0.33333333  0.66666667  0.41666667  1
  K  K11  1  0.33333333  0.66666667  0.91666667  1
  K  K12  1  0.83333333  0.16666667  0.41666667  1
  K  K13  1  0.83333333  0.16666667  0.91666667  1
  K  K14  1  0.83333333  0.66666667  0.41666667  1
  K  K15  1  0.83333333  0.66666667  0.91666667  1
  K  K16  1  0.16666667  0.33333333  0.58333333  1
  K  K17  1  0.16666667  0.33333333  1.08333333  1
  K  K18  1  0.16666667  0.83333333  0.58333333  1
  K  K19  1  0.16666667  0.83333333  1.08333333  1
  K  K20  1  0.66666667  0.33333333  0.58333333  1
  K  K21  1  0.66666667  0.33333333  1.08333333  1
  K  K22  1  0.66666667  0.83333333  0.58333333  1
  K  K23  1  0.66666667  0.83333333  1.08333333  1
  Li  Li24  1  0.00538744  0.16666667  0.16666667  1
  Li  Li25  1  0.00538744  0.16666667  0.66666667  1
  Li  Li26  1  0.00538744  0.66666667  0.16666667  1
  Li  Li27  1  0.00538744  0.66666667  0.66666667  1
  Li  Li28  1  0.50538744  0.16666667  0.16666667  1
  Li  Li29  1  0.50538744  0.16666667  0.66666667  1
  Li  Li30  1  0.50538744  0.66666667  0.16666667  1
  Li  Li31  1  0.50538744  0.66666667  0.66666667  1
  Li  Li32  1  0.33872077  0.33333333  0.33333333  1
  Li  Li33  1  0.33872077  0.33333333  0.83333333  1
  Li  Li34  1  0.33872077  0.83333333  0.33333333  1
  Li  Li35  1  0.33872077  0.83333333  0.83333333  1
  Li  Li36  1  0.83872077  0.33333333  0.33333333  1
  Li  Li37  1  0.83872077  0.33333333  0.83333333  1
  Li  Li38  1  0.83872077  0.83333333  0.33333333  1
  Li  Li39  1  0.83872077  0.83333333  0.83333333  1
  Li  Li40  1  0.17205410  0.50000000  0.50000000  1
  Li  Li41  1  0.17205410  0.50000000  1.00000000  1
  Li  Li42  1  0.17205410  1.00000000  0.50000000  1
  Li  Li43  1  0.17205410  1.00000000  1.00000000  1
  Li  Li44  1  0.67205410  0.50000000  0.50000000  1
  Li  Li45  1  0.67205410  0.50000000  1.00000000  1
  Li  Li46  1  0.67205410  1.00000000  0.50000000  1
  Li  Li47  1  0.67205410  1.00000000  1.00000000  1
  Li  Li48  1  -0.16666667  -0.16127923  0.16666667  1
  Li  Li49  1  -0.16666667  -0.16127923  0.66666667  1
  Li  Li50  1  -0.16666667  0.33872077  0.16666667  1
  Li  Li51  1  -0.16666667  0.33872077  0.66666667  1
  Li  Li52  1  0.33333333  -0.16127923  0.16666667  1
  Li  Li53  1  0.33333333  -0.16127923  0.66666667  1
  Li  Li54  1  0.33333333  0.33872077  0.16666667  1
  Li  Li55  1  0.33333333  0.33872077  0.66666667  1
  Li  Li56  1  0.16666667  0.00538744  0.33333333  1
  Li  Li57  1  0.16666667  0.00538744  0.83333333  1
  Li  Li58  1  0.16666667  0.50538744  0.33333333  1
  Li  Li59  1  0.16666667  0.50538744  0.83333333  1
  Li  Li60  1  0.66666667  0.00538744  0.33333333  1
  Li  Li61  1  0.66666667  0.00538744  0.83333333  1
  Li  Li62  1  0.66666667  0.50538744  0.33333333  1
  Li  Li63  1  0.66666667  0.50538744  0.83333333  1
  Li  Li64  1  -0.00000000  0.17205410  0.50000000  1
  Li  Li65  1  -0.00000000  0.17205410  1.00000000  1
  Li  Li66  1  -0.00000000  0.67205410  0.50000000  1
  Li  Li67  1  -0.00000000  0.67205410  1.00000000  1
  Li  Li68  1  0.50000000  0.17205410  0.50000000  1
  Li  Li69  1  0.50000000  0.17205410  1.00000000  1
  Li  Li70  1  0.50000000  0.67205410  0.50000000  1
  Li  Li71  1  0.50000000  0.67205410  1.00000000  1
  Li  Li72  1  0.00538744  -0.16127923  0.16666667  1
  Li  Li73  1  0.00538744  -0.16127923  0.66666667  1
  Li  Li74  1  0.00538744  0.33872077  0.16666667  1
  Li  Li75  1  0.00538744  0.33872077  0.66666667  1
  Li  Li76  1  0.50538744  -0.16127923  0.16666667  1
  Li  Li77  1  0.50538744  -0.16127923  0.66666667  1
  Li  Li78  1  0.50538744  0.33872077  0.16666667  1
  Li  Li79  1  0.50538744  0.33872077  0.66666667  1
  Li  Li80  1  0.33872077  0.00538744  0.33333333  1
  Li  Li81  1  0.33872077  0.00538744  0.83333333  1
  Li  Li82  1  0.33872077  0.50538744  0.33333333  1
  Li  Li83  1  0.33872077  0.50538744  0.83333333  1
  Li  Li84  1  0.83872077  0.00538744  0.33333333  1
  Li  Li85  1  0.83872077  0.00538744  0.83333333  1
  Li  Li86  1  0.83872077  0.50538744  0.33333333  1
  Li  Li87  1  0.83872077  0.50538744  0.83333333  1
  Li  Li88  1  0.17205410  0.17205410  0.50000000  1
  Li  Li89  1  0.17205410  0.17205410  1.00000000  1
  Li  Li90  1  0.17205410  0.67205410  0.50000000  1
  Li  Li91  1  0.17205410  0.67205410  1.00000000  1
  Li  Li92  1  0.67205410  0.17205410  0.50000000  1
  Li  Li93  1  0.67205410  0.17205410  1.00000000  1
  Li  Li94  1  0.67205410  0.67205410  0.50000000  1
  Li  Li95  1  0.67205410  0.67205410  1.00000000  1
  Li  Li96  1  -0.16666667  -0.00538744  0.16666667  1
  Li  Li97  1  -0.16666667  -0.00538744  0.66666667  1
  Li  Li98  1  -0.16666667  0.49461256  0.16666667  1
  Li  Li99  1  -0.16666667  0.49461256  0.66666667  1
  Li  Li100  1  0.33333333  -0.00538744  0.16666667  1
  Li  Li101  1  0.33333333  -0.00538744  0.66666667  1
  Li  Li102  1  0.33333333  0.49461256  0.16666667  1
  Li  Li103  1  0.33333333  0.49461256  0.66666667  1
  Li  Li104  1  0.16666667  0.16127923  0.33333333  1
  Li  Li105  1  0.16666667  0.16127923  0.83333333  1
  Li  Li106  1  0.16666667  0.66127923  0.33333333  1
  Li  Li107  1  0.16666667  0.66127923  0.83333333  1
  Li  Li108  1  0.66666667  0.16127923  0.33333333  1
  Li  Li109  1  0.66666667  0.16127923  0.83333333  1
  Li  Li110  1  0.66666667  0.66127923  0.33333333  1
  Li  Li111  1  0.66666667  0.66127923  0.83333333  1
  Li  Li112  1  -0.00000000  0.32794590  0.50000000  1
  Li  Li113  1  -0.00000000  0.32794590  1.00000000  1
  Li  Li114  1  -0.00000000  0.82794590  0.50000000  1
  Li  Li115  1  -0.00000000  0.82794590  1.00000000  1
  Li  Li116  1  0.50000000  0.32794590  0.50000000  1
  Li  Li117  1  0.50000000  0.32794590  1.00000000  1
  Li  Li118  1  0.50000000  0.82794590  0.50000000  1
  Li  Li119  1  0.50000000  0.82794590  1.00000000  1
  Li  Li120  1  0.16127923  0.16666667  0.16666667  1
  Li  Li121  1  0.16127923  0.16666667  0.66666667  1
  Li  Li122  1  0.16127923  0.66666667  0.16666667  1
  Li  Li123  1  0.16127923  0.66666667  0.66666667  1
  Li  Li124  1  0.66127923  0.16666667  0.16666667  1
  Li  Li125  1  0.66127923  0.16666667  0.66666667  1
  Li  Li126  1  0.66127923  0.66666667  0.16666667  1
  Li  Li127  1  0.66127923  0.66666667  0.66666667  1
  Li  Li128  1  0.49461256  0.33333333  0.33333333  1
  Li  Li129  1  0.49461256  0.33333333  0.83333333  1
  Li  Li130  1  0.49461256  0.83333333  0.33333333  1
  Li  Li131  1  0.49461256  0.83333333  0.83333333  1
  Li  Li132  1  0.99461256  0.33333333  0.33333333  1
  Li  Li133  1  0.99461256  0.33333333  0.83333333  1
  Li  Li134  1  0.99461256  0.83333333  0.33333333  1
  Li  Li135  1  0.99461256  0.83333333  0.83333333  1
  Li  Li136  1  0.32794590  0.50000000  0.50000000  1
  Li  Li137  1  0.32794590  0.50000000  1.00000000  1
  Li  Li138  1  0.32794590  1.00000000  0.50000000  1
  Li  Li139  1  0.32794590  1.00000000  1.00000000  1
  Li  Li140  1  0.82794590  0.50000000  0.50000000  1
  Li  Li141  1  0.82794590  0.50000000  1.00000000  1
  Li  Li142  1  0.82794590  1.00000000  0.50000000  1
  Li  Li143  1  0.82794590  1.00000000  1.00000000  1
  Li  Li144  1  0.16127923  -0.00538744  0.16666667  1
  Li  Li145  1  0.16127923  -0.00538744  0.66666667  1
  Li  Li146  1  0.16127923  0.49461256  0.16666667  1
  Li  Li147  1  0.16127923  0.49461256  0.66666667  1
  Li  Li148  1  0.66127923  -0.00538744  0.16666667  1
  Li  Li149  1  0.66127923  -0.00538744  0.66666667  1
  Li  Li150  1  0.66127923  0.49461256  0.16666667  1
  Li  Li151  1  0.66127923  0.49461256  0.66666667  1
  Li  Li152  1  0.49461256  0.16127923  0.33333333  1
  Li  Li153  1  0.49461256  0.16127923  0.83333333  1
  Li  Li154  1  0.49461256  0.66127923  0.33333333  1
  Li  Li155  1  0.49461256  0.66127923  0.83333333  1
  Li  Li156  1  0.99461256  0.16127923  0.33333333  1
  Li  Li157  1  0.99461256  0.16127923  0.83333333  1
  Li  Li158  1  0.99461256  0.66127923  0.33333333  1
  Li  Li159  1  0.99461256  0.66127923  0.83333333  1
  Li  Li160  1  0.32794590  0.32794590  0.50000000  1
  Li  Li161  1  0.32794590  0.32794590  1.00000000  1
  Li  Li162  1  0.32794590  0.82794590  0.50000000  1
  Li  Li163  1  0.32794590  0.82794590  1.00000000  1
  Li  Li164  1  0.82794590  0.32794590  0.50000000  1
  Li  Li165  1  0.82794590  0.32794590  1.00000000  1
  Li  Li166  1  0.82794590  0.82794590  0.50000000  1
  Li  Li167  1  0.82794590  0.82794590  1.00000000  1
  Bi  Bi168  1  -0.00000000  -0.00000000  -0.00000000  1
  Bi  Bi169  1  -0.00000000  -0.00000000  0.50000000  1
  Bi  Bi170  1  -0.00000000  0.50000000  -0.00000000  1
  Bi  Bi171  1  -0.00000000  0.50000000  0.50000000  1
  Bi  Bi172  1  0.50000000  -0.00000000  -0.00000000  1
  Bi  Bi173  1  0.50000000  -0.00000000  0.50000000  1
  Bi  Bi174  1  0.50000000  0.50000000  -0.00000000  1
  Bi  Bi175  1  0.50000000  0.50000000  0.50000000  1
  Bi  Bi176  1  0.33333333  0.16666667  0.16666667  1
  Bi  Bi177  1  0.33333333  0.16666667  0.66666667  1
  Bi  Bi178  1  0.33333333  0.66666667  0.16666667  1
  Bi  Bi179  1  0.33333333  0.66666667  0.66666667  1
  Bi  Bi180  1  0.83333333  0.16666667  0.16666667  1
  Bi  Bi181  1  0.83333333  0.16666667  0.66666667  1
  Bi  Bi182  1  0.83333333  0.66666667  0.16666667  1
  Bi  Bi183  1  0.83333333  0.66666667  0.66666667  1
  Bi  Bi184  1  0.16666667  0.33333333  0.33333333  1
  Bi  Bi185  1  0.16666667  0.33333333  0.83333333  1
  Bi  Bi186  1  0.16666667  0.83333333  0.33333333  1
  Bi  Bi187  1  0.16666667  0.83333333  0.83333333  1
  Bi  Bi188  1  0.66666667  0.33333333  0.33333333  1
  Bi  Bi189  1  0.66666667  0.33333333  0.83333333  1
  Bi  Bi190  1  0.66666667  0.83333333  0.33333333  1
  Bi  Bi191  1  0.66666667  0.83333333  0.83333333  1
  O  O192  1  0.20912565  0.10456282  0.24484018  1
  O  O193  1  0.20912565  0.10456282  0.74484018  1
  O  O194  1  0.20912565  0.60456282  0.24484018  1
  O  O195  1  0.20912565  0.60456282  0.74484018  1
  O  O196  1  0.70912565  0.10456282  0.24484018  1
  O  O197  1  0.70912565  0.10456282  0.74484018  1
  O  O198  1  0.70912565  0.60456282  0.24484018  1
  O  O199  1  0.70912565  0.60456282  0.74484018  1
  O  O200  1  0.54245898  0.27122949  0.41150685  1
  O  O201  1  0.54245898  0.27122949  0.91150685  1
  O  O202  1  0.54245898  0.77122949  0.41150685  1
  O  O203  1  0.54245898  0.77122949  0.91150685  1
  O  O204  1  1.04245898  0.27122949  0.41150685  1
  O  O205  1  1.04245898  0.27122949  0.91150685  1
  O  O206  1  1.04245898  0.77122949  0.41150685  1
  O  O207  1  1.04245898  0.77122949  0.91150685  1
  O  O208  1  0.37579231  0.43789616  0.57817351  1
  O  O209  1  0.37579231  0.43789616  1.07817351  1
  O  O210  1  0.37579231  0.93789616  0.57817351  1
  O  O211  1  0.37579231  0.93789616  1.07817351  1
  O  O212  1  0.87579231  0.43789616  0.57817351  1
  O  O213  1  0.87579231  0.43789616  1.07817351  1
  O  O214  1  0.87579231  0.93789616  0.57817351  1
  O  O215  1  0.87579231  0.93789616  1.07817351  1
  O  O216  1  -0.10456282  -0.20912565  0.24484018  1
  O  O217  1  -0.10456282  -0.20912565  0.74484018  1
  O  O218  1  -0.10456282  0.29087435  0.24484018  1
  O  O219  1  -0.10456282  0.29087435  0.74484018  1
  O  O220  1  0.39543718  -0.20912565  0.24484018  1
  O  O221  1  0.39543718  -0.20912565  0.74484018  1
  O  O222  1  0.39543718  0.29087435  0.24484018  1
  O  O223  1  0.39543718  0.29087435  0.74484018  1
  O  O224  1  0.22877051  -0.04245898  0.41150685  1
  O  O225  1  0.22877051  -0.04245898  0.91150685  1
  O  O226  1  0.22877051  0.45754102  0.41150685  1
  O  O227  1  0.22877051  0.45754102  0.91150685  1
  O  O228  1  0.72877051  -0.04245898  0.41150685  1
  O  O229  1  0.72877051  -0.04245898  0.91150685  1
  O  O230  1  0.72877051  0.45754102  0.41150685  1
  O  O231  1  0.72877051  0.45754102  0.91150685  1
  O  O232  1  0.06210384  0.12420769  0.57817351  1
  O  O233  1  0.06210384  0.12420769  1.07817351  1
  O  O234  1  0.06210384  0.62420769  0.57817351  1
  O  O235  1  0.06210384  0.62420769  1.07817351  1
  O  O236  1  0.56210384  0.12420769  0.57817351  1
  O  O237  1  0.56210384  0.12420769  1.07817351  1
  O  O238  1  0.56210384  0.62420769  0.57817351  1
  O  O239  1  0.56210384  0.62420769  1.07817351  1
  O  O240  1  0.10456282  -0.10456282  0.25515982  1
  O  O241  1  0.10456282  -0.10456282  0.75515982  1
  O  O242  1  0.10456282  0.39543718  0.25515982  1
  O  O243  1  0.10456282  0.39543718  0.75515982  1
  O  O244  1  0.60456282  -0.10456282  0.25515982  1
  O  O245  1  0.60456282  -0.10456282  0.75515982  1
  O  O246  1  0.60456282  0.39543718  0.25515982  1
  O  O247  1  0.60456282  0.39543718  0.75515982  1
  O  O248  1  0.43789616  0.06210384  0.42182649  1
  O  O249  1  0.43789616  0.06210384  0.92182649  1
  O  O250  1  0.43789616  0.56210384  0.42182649  1
  O  O251  1  0.43789616  0.56210384  0.92182649  1
  O  O252  1  0.93789616  0.06210384  0.42182649  1
  O  O253  1  0.93789616  0.06210384  0.92182649  1
  O  O254  1  0.93789616  0.56210384  0.42182649  1
  O  O255  1  0.93789616  0.56210384  0.92182649  1
  O  O256  1  0.27122949  0.22877051  0.58849315  1
  O  O257  1  0.27122949  0.22877051  1.08849315  1
  O  O258  1  0.27122949  0.72877051  0.58849315  1
  O  O259  1  0.27122949  0.72877051  1.08849315  1
  O  O260  1  0.77122949  0.22877051  0.58849315  1
  O  O261  1  0.77122949  0.22877051  1.08849315  1
  O  O262  1  0.77122949  0.72877051  0.58849315  1
  O  O263  1  0.77122949  0.72877051  1.08849315  1
  O  O264  1  -0.20912565  -0.10456282  0.25515982  1
  O  O265  1  -0.20912565  -0.10456282  0.75515982  1
  O  O266  1  -0.20912565  0.39543718  0.25515982  1
  O  O267  1  -0.20912565  0.39543718  0.75515982  1
  O  O268  1  0.29087435  -0.10456282  0.25515982  1
  O  O269  1  0.29087435  -0.10456282  0.75515982  1
  O  O270  1  0.29087435  0.39543718  0.25515982  1
  O  O271  1  0.29087435  0.39543718  0.75515982  1
  O  O272  1  0.12420769  0.06210384  0.42182649  1
  O  O273  1  0.12420769  0.06210384  0.92182649  1
  O  O274  1  0.12420769  0.56210384  0.42182649  1
  O  O275  1  0.12420769  0.56210384  0.92182649  1
  O  O276  1  0.62420769  0.06210384  0.42182649  1
  O  O277  1  0.62420769  0.06210384  0.92182649  1
  O  O278  1  0.62420769  0.56210384  0.42182649  1
  O  O279  1  0.62420769  0.56210384  0.92182649  1
  O  O280  1  -0.04245898  0.22877051  0.58849315  1
  O  O281  1  -0.04245898  0.22877051  1.08849315  1
  O  O282  1  -0.04245898  0.72877051  0.58849315  1
  O  O283  1  -0.04245898  0.72877051  1.08849315  1
  O  O284  1  0.45754102  0.22877051  0.58849315  1
  O  O285  1  0.45754102  0.22877051  1.08849315  1
  O  O286  1  0.45754102  0.72877051  0.58849315  1
  O  O287  1  0.45754102  0.72877051  1.08849315  1
  O  O288  1  0.10456282  0.20912565  0.25515982  1
  O  O289  1  0.10456282  0.20912565  0.75515982  1
  O  O290  1  0.10456282  0.70912565  0.25515982  1
  O  O291  1  0.10456282  0.70912565  0.75515982  1
  O  O292  1  0.60456282  0.20912565  0.25515982  1
  O  O293  1  0.60456282  0.20912565  0.75515982  1
  O  O294  1  0.60456282  0.70912565  0.25515982  1
  O  O295  1  0.60456282  0.70912565  0.75515982  1
  O  O296  1  0.43789616  0.37579231  0.42182649  1
  O  O297  1  0.43789616  0.37579231  0.92182649  1
  O  O298  1  0.43789616  0.87579231  0.42182649  1
  O  O299  1  0.43789616  0.87579231  0.92182649  1
  O  O300  1  0.93789616  0.37579231  0.42182649  1
  O  O301  1  0.93789616  0.37579231  0.92182649  1
  O  O302  1  0.93789616  0.87579231  0.42182649  1
  O  O303  1  0.93789616  0.87579231  0.92182649  1
  O  O304  1  0.27122949  0.54245898  0.58849315  1
  O  O305  1  0.27122949  0.54245898  1.08849315  1
  O  O306  1  0.27122949  1.04245898  0.58849315  1
  O  O307  1  0.27122949  1.04245898  1.08849315  1
  O  O308  1  0.77122949  0.54245898  0.58849315  1
  O  O309  1  0.77122949  0.54245898  1.08849315  1
  O  O310  1  0.77122949  1.04245898  0.58849315  1
  O  O311  1  0.77122949  1.04245898  1.08849315  1
  O  O312  1  -0.10456282  0.10456282  0.24484018  1
  O  O313  1  -0.10456282  0.10456282  0.74484018  1
  O  O314  1  -0.10456282  0.60456282  0.24484018  1
  O  O315  1  -0.10456282  0.60456282  0.74484018  1
  O  O316  1  0.39543718  0.10456282  0.24484018  1
  O  O317  1  0.39543718  0.10456282  0.74484018  1
  O  O318  1  0.39543718  0.60456282  0.24484018  1
  O  O319  1  0.39543718  0.60456282  0.74484018  1
  O  O320  1  0.22877051  0.27122949  0.41150685  1
  O  O321  1  0.22877051  0.27122949  0.91150685  1
  O  O322  1  0.22877051  0.77122949  0.41150685  1
  O  O323  1  0.22877051  0.77122949  0.91150685  1
  O  O324  1  0.72877051  0.27122949  0.41150685  1
  O  O325  1  0.72877051  0.27122949  0.91150685  1
  O  O326  1  0.72877051  0.77122949  0.41150685  1
  O  O327  1  0.72877051  0.77122949  0.91150685  1
  O  O328  1  0.06210384  0.43789616  0.57817351  1
  O  O329  1  0.06210384  0.43789616  1.07817351  1
  O  O330  1  0.06210384  0.93789616  0.57817351  1
  O  O331  1  0.06210384  0.93789616  1.07817351  1
  O  O332  1  0.56210384  0.43789616  0.57817351  1
  O  O333  1  0.56210384  0.43789616  1.07817351  1
  O  O334  1  0.56210384  0.93789616  0.57817351  1
  O  O335  1  0.56210384  0.93789616  1.07817351  1
