# generated using pymatgen
data_TaInO4
_symmetry_space_group_name_H-M   'P 1'
_cell_length_a   9.73119759
_cell_length_b   11.64850303
_cell_length_c   10.37850290
_cell_angle_alpha   90.00000000
_cell_angle_beta   91.42331843
_cell_angle_gamma   90.00000000
_symmetry_Int_Tables_number   1
_chemical_formula_structural   TaInO4
_chemical_formula_sum   'Ta16 In16 O64'
_cell_volume   1176.08064419
_cell_formula_units_Z   16
loop_
 _symmetry_equiv_pos_site_id
 _symmetry_equiv_pos_as_xyz
  1  'x, y, z'
loop_
 _atom_site_type_symbol
 _atom_site_label
 _atom_site_symmetry_multiplicity
 _atom_site_fract_x
 _atom_site_fract_y
 _atom_site_fract_z
 _atom_site_occupancy
  Ta  Ta0  1  -0.00000000  0.41474738  0.37500000  1
  Ta  Ta1  1  -0.00000000  0.41474738  0.87500000  1
  Ta  Ta2  1  -0.00000000  0.91474738  0.37500000  1
  Ta  Ta3  1  -0.00000000  0.91474738  0.87500000  1
  Ta  Ta4  1  0.50000000  0.41474738  0.37500000  1
  Ta  Ta5  1  0.50000000  0.41474738  0.87500000  1
  Ta  Ta6  1  0.50000000  0.91474738  0.37500000  1
  Ta  Ta7  1  0.50000000  0.91474738  0.87500000  1
  Ta  Ta8  1  -0.00000000  0.08525262  0.12500000  1
  Ta  Ta9  1  -0.00000000  0.08525262  0.62500000  1
  Ta  Ta10  1  -0.00000000  0.58525262  0.12500000  1
  Ta  Ta11  1  -0.00000000  0.58525262  0.62500000  1
  Ta  Ta12  1  0.50000000  0.08525262  0.12500000  1
  Ta  Ta13  1  0.50000000  0.08525262  0.62500000  1
  Ta  Ta14  1  0.50000000  0.58525262  0.12500000  1
  Ta  Ta15  1  0.50000000  0.58525262  0.62500000  1
  In  In16  1  0.25000000  0.16179893  0.37500000  1
  In  In17  1  0.25000000  0.16179893  0.87500000  1
  In  In18  1  0.25000000  0.66179893  0.37500000  1
  In  In19  1  0.25000000  0.66179893  0.87500000  1
  In  In20  1  0.75000000  0.16179893  0.37500000  1
  In  In21  1  0.75000000  0.16179893  0.87500000  1
  In  In22  1  0.75000000  0.66179893  0.37500000  1
  In  In23  1  0.75000000  0.66179893  0.87500000  1
  In  In24  1  0.25000000  0.33820107  0.12500000  1
  In  In25  1  0.25000000  0.33820107  0.62500000  1
  In  In26  1  0.25000000  0.83820107  0.12500000  1
  In  In27  1  0.25000000  0.83820107  0.62500000  1
  In  In28  1  0.75000000  0.33820107  0.12500000  1
  In  In29  1  0.75000000  0.33820107  0.62500000  1
  In  In30  1  0.75000000  0.83820107  0.12500000  1
  In  In31  1  0.75000000  0.83820107  0.62500000  1
  O  O32  1  0.37084667  0.31006836  0.30102700  1
  O  O33  1  0.37084667  0.31006836  0.80102700  1
  O  O34  1  0.37084667  0.81006836  0.30102700  1
  O  O35  1  0.37084667  0.81006836  0.80102700  1
  O  O36  1  0.87084667  0.31006836  0.30102700  1
  O  O37  1  0.87084667  0.31006836  0.80102700  1
  O  O38  1  0.87084667  0.81006836  0.30102700  1
  O  O39  1  0.87084667  0.81006836  0.80102700  1
  O  O40  1  0.12915333  0.31006836  0.44897300  1
  O  O41  1  0.12915333  0.31006836  0.94897300  1
  O  O42  1  0.12915333  0.81006836  0.44897300  1
  O  O43  1  0.12915333  0.81006836  0.94897300  1
  O  O44  1  0.62915333  0.31006836  0.44897300  1
  O  O45  1  0.62915333  0.31006836  0.94897300  1
  O  O46  1  0.62915333  0.81006836  0.44897300  1
  O  O47  1  0.62915333  0.81006836  0.94897300  1
  O  O48  1  0.12915333  0.18993164  0.19897300  1
  O  O49  1  0.12915333  0.18993164  0.69897300  1
  O  O50  1  0.12915333  0.68993164  0.19897300  1
  O  O51  1  0.12915333  0.68993164  0.69897300  1
  O  O52  1  0.62915333  0.18993164  0.19897300  1
  O  O53  1  0.62915333  0.18993164  0.69897300  1
  O  O54  1  0.62915333  0.68993164  0.19897300  1
  O  O55  1  0.62915333  0.68993164  0.69897300  1
  O  O56  1  0.37084667  0.18993164  0.05102700  1
  O  O57  1  0.37084667  0.18993164  0.55102700  1
  O  O58  1  0.37084667  0.68993164  0.05102700  1
  O  O59  1  0.37084667  0.68993164  0.55102700  1
  O  O60  1  0.87084667  0.18993164  0.05102700  1
  O  O61  1  0.87084667  0.18993164  0.55102700  1
  O  O62  1  0.87084667  0.68993164  0.05102700  1
  O  O63  1  0.87084667  0.68993164  0.55102700  1
  O  O64  1  0.39335030  0.05019270  0.28135571  1
  O  O65  1  0.39335030  0.05019270  0.78135571  1
  O  O66  1  0.39335030  0.55019270  0.28135571  1
  O  O67  1  0.39335030  0.55019270  0.78135571  1
  O  O68  1  0.89335030  0.05019270  0.28135571  1
  O  O69  1  0.89335030  0.05019270  0.78135571  1
  O  O70  1  0.89335030  0.55019270  0.28135571  1
  O  O71  1  0.89335030  0.55019270  0.78135571  1
  O  O72  1  0.10664970  0.05019270  0.46864429  1
  O  O73  1  0.10664970  0.05019270  0.96864429  1
  O  O74  1  0.10664970  0.55019270  0.46864429  1
  O  O75  1  0.10664970  0.55019270  0.96864429  1
  O  O76  1  0.60664970  0.05019270  0.46864429  1
  O  O77  1  0.60664970  0.05019270  0.96864429  1
  O  O78  1  0.60664970  0.55019270  0.46864429  1
  O  O79  1  0.60664970  0.55019270  0.96864429  1
  O  O80  1  0.10664970  0.44980730  0.21864429  1
  O  O81  1  0.10664970  0.44980730  0.71864429  1
  O  O82  1  0.10664970  0.94980730  0.21864429  1
  O  O83  1  0.10664970  0.94980730  0.71864429  1
  O  O84  1  0.60664970  0.44980730  0.21864429  1
  O  O85  1  0.60664970  0.44980730  0.71864429  1
  O  O86  1  0.60664970  0.94980730  0.21864429  1
  O  O87  1  0.60664970  0.94980730  0.71864429  1
  O  O88  1  0.39335030  0.44980730  0.03135571  1
  O  O89  1  0.39335030  0.44980730  0.53135571  1
  O  O90  1  0.39335030  0.94980730  0.03135571  1
  O  O91  1  0.39335030  0.94980730  0.53135571  1
  O  O92  1  0.89335030  0.44980730  0.03135571  1
  O  O93  1  0.89335030  0.44980730  0.53135571  1
  O  O94  1  0.89335030  0.94980730  0.03135571  1
  O  O95  1  0.89335030  0.94980730  0.53135571  1
