# generated using pymatgen
data_Sr2LaSbO6
_symmetry_space_group_name_H-M   'P 1'
_cell_length_a   17.65586081
_cell_length_b   18.11306383
_cell_length_c   20.45472342
_cell_angle_alpha   90.00000000
_cell_angle_beta   124.66929883
_cell_angle_gamma   90.00000000
_symmetry_Int_Tables_number   1
_chemical_formula_structural   Sr2LaSbO6
_chemical_formula_sum   'Sr72 La36 Sb36 O216'
_cell_volume   5380.01371759
_cell_formula_units_Z   36
loop_
 _symmetry_equiv_pos_site_id
 _symmetry_equiv_pos_as_xyz
  1  'x, y, z'
loop_
 _atom_site_type_symbol
 _atom_site_label
 _atom_site_symmetry_multiplicity
 _atom_site_fract_x
 _atom_site_fract_y
 _atom_site_fract_z
 _atom_site_occupancy
  Sr  Sr0  1  0.07916146  0.15159875  0.37535445  1
  Sr  Sr1  1  0.07916146  0.15159875  0.87535445  1
  Sr  Sr2  1  0.07916146  0.48493208  0.37535445  1
  Sr  Sr3  1  0.07916146  0.48493208  0.87535445  1
  Sr  Sr4  1  0.07916146  0.81826542  0.37535445  1
  Sr  Sr5  1  0.07916146  0.81826542  0.87535445  1
  Sr  Sr6  1  0.41249480  0.15159875  0.37535445  1
  Sr  Sr7  1  0.41249480  0.15159875  0.87535445  1
  Sr  Sr8  1  0.41249480  0.48493208  0.37535445  1
  Sr  Sr9  1  0.41249480  0.48493208  0.87535445  1
  Sr  Sr10  1  0.41249480  0.81826542  0.37535445  1
  Sr  Sr11  1  0.41249480  0.81826542  0.87535445  1
  Sr  Sr12  1  0.74582813  0.15159875  0.37535445  1
  Sr  Sr13  1  0.74582813  0.15159875  0.87535445  1
  Sr  Sr14  1  0.74582813  0.48493208  0.37535445  1
  Sr  Sr15  1  0.74582813  0.48493208  0.87535445  1
  Sr  Sr16  1  0.74582813  0.81826542  0.37535445  1
  Sr  Sr17  1  0.74582813  0.81826542  0.87535445  1
  Sr  Sr18  1  0.07916146  0.01506792  0.12535445  1
  Sr  Sr19  1  0.07916146  0.01506792  0.62535445  1
  Sr  Sr20  1  0.07916146  0.34840125  0.12535445  1
  Sr  Sr21  1  0.07916146  0.34840125  0.62535445  1
  Sr  Sr22  1  0.07916146  0.68173458  0.12535445  1
  Sr  Sr23  1  0.07916146  0.68173458  0.62535445  1
  Sr  Sr24  1  0.41249480  0.01506792  0.12535445  1
  Sr  Sr25  1  0.41249480  0.01506792  0.62535445  1
  Sr  Sr26  1  0.41249480  0.34840125  0.12535445  1
  Sr  Sr27  1  0.41249480  0.34840125  0.62535445  1
  Sr  Sr28  1  0.41249480  0.68173458  0.12535445  1
  Sr  Sr29  1  0.41249480  0.68173458  0.62535445  1
  Sr  Sr30  1  0.74582813  0.01506792  0.12535445  1
  Sr  Sr31  1  0.74582813  0.01506792  0.62535445  1
  Sr  Sr32  1  0.74582813  0.34840125  0.12535445  1
  Sr  Sr33  1  0.74582813  0.34840125  0.62535445  1
  Sr  Sr34  1  0.74582813  0.68173458  0.12535445  1
  Sr  Sr35  1  0.74582813  0.68173458  0.62535445  1
  Sr  Sr36  1  0.25417187  0.18173458  0.12464555  1
  Sr  Sr37  1  0.25417187  0.18173458  0.62464555  1
  Sr  Sr38  1  0.25417187  0.51506792  0.12464555  1
  Sr  Sr39  1  0.25417187  0.51506792  0.62464555  1
  Sr  Sr40  1  0.25417187  0.84840125  0.12464555  1
  Sr  Sr41  1  0.25417187  0.84840125  0.62464555  1
  Sr  Sr42  1  0.58750520  0.18173458  0.12464555  1
  Sr  Sr43  1  0.58750520  0.18173458  0.62464555  1
  Sr  Sr44  1  0.58750520  0.51506792  0.12464555  1
  Sr  Sr45  1  0.58750520  0.51506792  0.62464555  1
  Sr  Sr46  1  0.58750520  0.84840125  0.12464555  1
  Sr  Sr47  1  0.58750520  0.84840125  0.62464555  1
  Sr  Sr48  1  0.92083854  0.18173458  0.12464555  1
  Sr  Sr49  1  0.92083854  0.18173458  0.62464555  1
  Sr  Sr50  1  0.92083854  0.51506792  0.12464555  1
  Sr  Sr51  1  0.92083854  0.51506792  0.62464555  1
  Sr  Sr52  1  0.92083854  0.84840125  0.12464555  1
  Sr  Sr53  1  0.92083854  0.84840125  0.62464555  1
  Sr  Sr54  1  0.25417187  0.31826542  0.37464555  1
  Sr  Sr55  1  0.25417187  0.31826542  0.87464555  1
  Sr  Sr56  1  0.25417187  0.65159875  0.37464555  1
  Sr  Sr57  1  0.25417187  0.65159875  0.87464555  1
  Sr  Sr58  1  0.25417187  0.98493208  0.37464555  1
  Sr  Sr59  1  0.25417187  0.98493208  0.87464555  1
  Sr  Sr60  1  0.58750520  0.31826542  0.37464555  1
  Sr  Sr61  1  0.58750520  0.31826542  0.87464555  1
  Sr  Sr62  1  0.58750520  0.65159875  0.37464555  1
  Sr  Sr63  1  0.58750520  0.65159875  0.87464555  1
  Sr  Sr64  1  0.58750520  0.98493208  0.37464555  1
  Sr  Sr65  1  0.58750520  0.98493208  0.87464555  1
  Sr  Sr66  1  0.92083854  0.31826542  0.37464555  1
  Sr  Sr67  1  0.92083854  0.31826542  0.87464555  1
  Sr  Sr68  1  0.92083854  0.65159875  0.37464555  1
  Sr  Sr69  1  0.92083854  0.65159875  0.87464555  1
  Sr  Sr70  1  0.92083854  0.98493208  0.37464555  1
  Sr  Sr71  1  0.92083854  0.98493208  0.87464555  1
  La  La72  1  0.16666667  0.16666667  0.25000000  1
  La  La73  1  0.16666667  0.16666667  0.75000000  1
  La  La74  1  0.16666667  0.50000000  0.25000000  1
  La  La75  1  0.16666667  0.50000000  0.75000000  1
  La  La76  1  0.16666667  0.83333333  0.25000000  1
  La  La77  1  0.16666667  0.83333333  0.75000000  1
  La  La78  1  0.50000000  0.16666667  0.25000000  1
  La  La79  1  0.50000000  0.16666667  0.75000000  1
  La  La80  1  0.50000000  0.50000000  0.25000000  1
  La  La81  1  0.50000000  0.50000000  0.75000000  1
  La  La82  1  0.50000000  0.83333333  0.25000000  1
  La  La83  1  0.50000000  0.83333333  0.75000000  1
  La  La84  1  0.83333333  0.16666667  0.25000000  1
  La  La85  1  0.83333333  0.16666667  0.75000000  1
  La  La86  1  0.83333333  0.50000000  0.25000000  1
  La  La87  1  0.83333333  0.50000000  0.75000000  1
  La  La88  1  0.83333333  0.83333333  0.25000000  1
  La  La89  1  0.83333333  0.83333333  0.75000000  1
  La  La90  1  0.16666667  0.00000000  0.00000000  1
  La  La91  1  0.16666667  0.00000000  0.50000000  1
  La  La92  1  0.16666667  0.33333333  0.00000000  1
  La  La93  1  0.16666667  0.33333333  0.50000000  1
  La  La94  1  0.16666667  0.66666667  0.00000000  1
  La  La95  1  0.16666667  0.66666667  0.50000000  1
  La  La96  1  0.50000000  0.00000000  0.00000000  1
  La  La97  1  0.50000000  0.00000000  0.50000000  1
  La  La98  1  0.50000000  0.33333333  0.00000000  1
  La  La99  1  0.50000000  0.33333333  0.50000000  1
  La  La100  1  0.50000000  0.66666667  0.00000000  1
  La  La101  1  0.50000000  0.66666667  0.50000000  1
  La  La102  1  0.83333333  0.00000000  0.00000000  1
  La  La103  1  0.83333333  0.00000000  0.50000000  1
  La  La104  1  0.83333333  0.33333333  0.00000000  1
  La  La105  1  0.83333333  0.33333333  0.50000000  1
  La  La106  1  0.83333333  0.66666667  0.00000000  1
  La  La107  1  0.83333333  0.66666667  0.50000000  1
  Sb  Sb108  1  0.00000000  0.00000000  0.25000000  1
  Sb  Sb109  1  -0.00000000  0.00000000  0.75000000  1
  Sb  Sb110  1  0.00000000  0.33333333  0.25000000  1
  Sb  Sb111  1  -0.00000000  0.33333333  0.75000000  1
  Sb  Sb112  1  0.00000000  0.66666667  0.25000000  1
  Sb  Sb113  1  -0.00000000  0.66666667  0.75000000  1
  Sb  Sb114  1  0.33333333  0.00000000  0.25000000  1
  Sb  Sb115  1  0.33333333  0.00000000  0.75000000  1
  Sb  Sb116  1  0.33333333  0.33333333  0.25000000  1
  Sb  Sb117  1  0.33333333  0.33333333  0.75000000  1
  Sb  Sb118  1  0.33333333  0.66666667  0.25000000  1
  Sb  Sb119  1  0.33333333  0.66666667  0.75000000  1
  Sb  Sb120  1  0.66666667  0.00000000  0.25000000  1
  Sb  Sb121  1  0.66666667  0.00000000  0.75000000  1
  Sb  Sb122  1  0.66666667  0.33333333  0.25000000  1
  Sb  Sb123  1  0.66666667  0.33333333  0.75000000  1
  Sb  Sb124  1  0.66666667  0.66666667  0.25000000  1
  Sb  Sb125  1  0.66666667  0.66666667  0.75000000  1
  Sb  Sb126  1  0.00000000  0.16666667  0.00000000  1
  Sb  Sb127  1  0.00000000  0.16666667  0.50000000  1
  Sb  Sb128  1  0.00000000  0.50000000  0.00000000  1
  Sb  Sb129  1  0.00000000  0.50000000  0.50000000  1
  Sb  Sb130  1  0.00000000  0.83333333  0.00000000  1
  Sb  Sb131  1  0.00000000  0.83333333  0.50000000  1
  Sb  Sb132  1  0.33333333  0.16666667  0.00000000  1
  Sb  Sb133  1  0.33333333  0.16666667  0.50000000  1
  Sb  Sb134  1  0.33333333  0.50000000  0.00000000  1
  Sb  Sb135  1  0.33333333  0.50000000  0.50000000  1
  Sb  Sb136  1  0.33333333  0.83333333  0.00000000  1
  Sb  Sb137  1  0.33333333  0.83333333  0.50000000  1
  Sb  Sb138  1  0.66666667  0.16666667  0.00000000  1
  Sb  Sb139  1  0.66666667  0.16666667  0.50000000  1
  Sb  Sb140  1  0.66666667  0.50000000  0.00000000  1
  Sb  Sb141  1  0.66666667  0.50000000  0.50000000  1
  Sb  Sb142  1  0.66666667  0.83333333  0.00000000  1
  Sb  Sb143  1  0.66666667  0.83333333  0.50000000  1
  O  O144  1  0.25791628  0.06262246  0.27360261  1
  O  O145  1  0.25791628  0.06262246  0.77360261  1
  O  O146  1  0.25791628  0.39595580  0.27360261  1
  O  O147  1  0.25791628  0.39595580  0.77360261  1
  O  O148  1  0.25791628  0.72928913  0.27360261  1
  O  O149  1  0.25791628  0.72928913  0.77360261  1
  O  O150  1  0.59124961  0.06262246  0.27360261  1
  O  O151  1  0.59124961  0.06262246  0.77360261  1
  O  O152  1  0.59124961  0.39595580  0.27360261  1
  O  O153  1  0.59124961  0.39595580  0.77360261  1
  O  O154  1  0.59124961  0.72928913  0.27360261  1
  O  O155  1  0.59124961  0.72928913  0.77360261  1
  O  O156  1  0.92458294  0.06262246  0.27360261  1
  O  O157  1  0.92458294  0.06262246  0.77360261  1
  O  O158  1  0.92458294  0.39595580  0.27360261  1
  O  O159  1  0.92458294  0.39595580  0.77360261  1
  O  O160  1  0.92458294  0.72928913  0.27360261  1
  O  O161  1  0.92458294  0.72928913  0.77360261  1
  O  O162  1  0.25791628  0.10404420  0.02360261  1
  O  O163  1  0.25791628  0.10404420  0.52360261  1
  O  O164  1  0.25791628  0.43737754  0.02360261  1
  O  O165  1  0.25791628  0.43737754  0.52360261  1
  O  O166  1  0.25791628  0.77071087  0.02360261  1
  O  O167  1  0.25791628  0.77071087  0.52360261  1
  O  O168  1  0.59124961  0.10404420  0.02360261  1
  O  O169  1  0.59124961  0.10404420  0.52360261  1
  O  O170  1  0.59124961  0.43737754  0.02360261  1
  O  O171  1  0.59124961  0.43737754  0.52360261  1
  O  O172  1  0.59124961  0.77071087  0.02360261  1
  O  O173  1  0.59124961  0.77071087  0.52360261  1
  O  O174  1  0.92458294  0.10404420  0.02360261  1
  O  O175  1  0.92458294  0.10404420  0.52360261  1
  O  O176  1  0.92458294  0.43737754  0.02360261  1
  O  O177  1  0.92458294  0.43737754  0.52360261  1
  O  O178  1  0.92458294  0.77071087  0.02360261  1
  O  O179  1  0.92458294  0.77071087  0.52360261  1
  O  O180  1  0.07541706  0.27071087  0.22639739  1
  O  O181  1  0.07541706  0.27071087  0.72639739  1
  O  O182  1  0.07541706  0.60404420  0.22639739  1
  O  O183  1  0.07541706  0.60404420  0.72639739  1
  O  O184  1  0.07541706  0.93737754  0.22639739  1
  O  O185  1  0.07541706  0.93737754  0.72639739  1
  O  O186  1  0.40875039  0.27071087  0.22639739  1
  O  O187  1  0.40875039  0.27071087  0.72639739  1
  O  O188  1  0.40875039  0.60404420  0.22639739  1
  O  O189  1  0.40875039  0.60404420  0.72639739  1
  O  O190  1  0.40875039  0.93737754  0.22639739  1
  O  O191  1  0.40875039  0.93737754  0.72639739  1
  O  O192  1  0.74208372  0.27071087  0.22639739  1
  O  O193  1  0.74208372  0.27071087  0.72639739  1
  O  O194  1  0.74208372  0.60404420  0.22639739  1
  O  O195  1  0.74208372  0.60404420  0.72639739  1
  O  O196  1  0.74208372  0.93737754  0.22639739  1
  O  O197  1  0.74208372  0.93737754  0.72639739  1
  O  O198  1  0.07541706  0.22928913  0.47639739  1
  O  O199  1  0.07541706  0.22928913  0.97639739  1
  O  O200  1  0.07541706  0.56262246  0.47639739  1
  O  O201  1  0.07541706  0.56262246  0.97639739  1
  O  O202  1  0.07541706  0.89595580  0.47639739  1
  O  O203  1  0.07541706  0.89595580  0.97639739  1
  O  O204  1  0.40875039  0.22928913  0.47639739  1
  O  O205  1  0.40875039  0.22928913  0.97639739  1
  O  O206  1  0.40875039  0.56262246  0.47639739  1
  O  O207  1  0.40875039  0.56262246  0.97639739  1
  O  O208  1  0.40875039  0.89595580  0.47639739  1
  O  O209  1  0.40875039  0.89595580  0.97639739  1
  O  O210  1  0.74208372  0.22928913  0.47639739  1
  O  O211  1  0.74208372  0.22928913  0.97639739  1
  O  O212  1  0.74208372  0.56262246  0.47639739  1
  O  O213  1  0.74208372  0.56262246  0.97639739  1
  O  O214  1  0.74208372  0.89595580  0.47639739  1
  O  O215  1  0.74208372  0.89595580  0.97639739  1
  O  O216  1  0.04193242  0.07578101  0.47184653  1
  O  O217  1  0.04193242  0.07578101  0.97184653  1
  O  O218  1  0.04193242  0.40911434  0.47184653  1
  O  O219  1  0.04193242  0.40911434  0.97184653  1
  O  O220  1  0.04193242  0.74244767  0.47184653  1
  O  O221  1  0.04193242  0.74244767  0.97184653  1
  O  O222  1  0.37526575  0.07578101  0.47184653  1
  O  O223  1  0.37526575  0.07578101  0.97184653  1
  O  O224  1  0.37526575  0.40911434  0.47184653  1
  O  O225  1  0.37526575  0.40911434  0.97184653  1
  O  O226  1  0.37526575  0.74244767  0.47184653  1
  O  O227  1  0.37526575  0.74244767  0.97184653  1
  O  O228  1  0.70859909  0.07578101  0.47184653  1
  O  O229  1  0.70859909  0.07578101  0.97184653  1
  O  O230  1  0.70859909  0.40911434  0.47184653  1
  O  O231  1  0.70859909  0.40911434  0.97184653  1
  O  O232  1  0.70859909  0.74244767  0.47184653  1
  O  O233  1  0.70859909  0.74244767  0.97184653  1
  O  O234  1  0.04193242  0.09088566  0.22184653  1
  O  O235  1  0.04193242  0.09088566  0.72184653  1
  O  O236  1  0.04193242  0.42421899  0.22184653  1
  O  O237  1  0.04193242  0.42421899  0.72184653  1
  O  O238  1  0.04193242  0.75755233  0.22184653  1
  O  O239  1  0.04193242  0.75755233  0.72184653  1
  O  O240  1  0.37526575  0.09088566  0.22184653  1
  O  O241  1  0.37526575  0.09088566  0.72184653  1
  O  O242  1  0.37526575  0.42421899  0.22184653  1
  O  O243  1  0.37526575  0.42421899  0.72184653  1
  O  O244  1  0.37526575  0.75755233  0.22184653  1
  O  O245  1  0.37526575  0.75755233  0.72184653  1
  O  O246  1  0.70859909  0.09088566  0.22184653  1
  O  O247  1  0.70859909  0.09088566  0.72184653  1
  O  O248  1  0.70859909  0.42421899  0.22184653  1
  O  O249  1  0.70859909  0.42421899  0.72184653  1
  O  O250  1  0.70859909  0.75755233  0.22184653  1
  O  O251  1  0.70859909  0.75755233  0.72184653  1
  O  O252  1  0.29140091  0.25755233  0.02815347  1
  O  O253  1  0.29140091  0.25755233  0.52815347  1
  O  O254  1  0.29140091  0.59088566  0.02815347  1
  O  O255  1  0.29140091  0.59088566  0.52815347  1
  O  O256  1  0.29140091  0.92421899  0.02815347  1
  O  O257  1  0.29140091  0.92421899  0.52815347  1
  O  O258  1  0.62473425  0.25755233  0.02815347  1
  O  O259  1  0.62473425  0.25755233  0.52815347  1
  O  O260  1  0.62473425  0.59088566  0.02815347  1
  O  O261  1  0.62473425  0.59088566  0.52815347  1
  O  O262  1  0.62473425  0.92421899  0.02815347  1
  O  O263  1  0.62473425  0.92421899  0.52815347  1
  O  O264  1  0.95806758  0.25755233  0.02815347  1
  O  O265  1  0.95806758  0.25755233  0.52815347  1
  O  O266  1  0.95806758  0.59088566  0.02815347  1
  O  O267  1  0.95806758  0.59088566  0.52815347  1
  O  O268  1  0.95806758  0.92421899  0.02815347  1
  O  O269  1  0.95806758  0.92421899  0.52815347  1
  O  O270  1  0.29140091  0.24244767  0.27815347  1
  O  O271  1  0.29140091  0.24244767  0.77815347  1
  O  O272  1  0.29140091  0.57578101  0.27815347  1
  O  O273  1  0.29140091  0.57578101  0.77815347  1
  O  O274  1  0.29140091  0.90911434  0.27815347  1
  O  O275  1  0.29140091  0.90911434  0.77815347  1
  O  O276  1  0.62473425  0.24244767  0.27815347  1
  O  O277  1  0.62473425  0.24244767  0.77815347  1
  O  O278  1  0.62473425  0.57578101  0.27815347  1
  O  O279  1  0.62473425  0.57578101  0.77815347  1
  O  O280  1  0.62473425  0.90911434  0.27815347  1
  O  O281  1  0.62473425  0.90911434  0.77815347  1
  O  O282  1  0.95806758  0.24244767  0.27815347  1
  O  O283  1  0.95806758  0.24244767  0.77815347  1
  O  O284  1  0.95806758  0.57578101  0.27815347  1
  O  O285  1  0.95806758  0.57578101  0.77815347  1
  O  O286  1  0.95806758  0.90911434  0.27815347  1
  O  O287  1  0.95806758  0.90911434  0.77815347  1
  O  O288  1  0.10792570  0.01249799  0.36377479  1
  O  O289  1  0.10792570  0.01249799  0.86377479  1
  O  O290  1  0.10792570  0.34583132  0.36377479  1
  O  O291  1  0.10792570  0.34583132  0.86377479  1
  O  O292  1  0.10792570  0.67916465  0.36377479  1
  O  O293  1  0.10792570  0.67916465  0.86377479  1
  O  O294  1  0.44125903  0.01249799  0.36377479  1
  O  O295  1  0.44125903  0.01249799  0.86377479  1
  O  O296  1  0.44125903  0.34583132  0.36377479  1
  O  O297  1  0.44125903  0.34583132  0.86377479  1
  O  O298  1  0.44125903  0.67916465  0.36377479  1
  O  O299  1  0.44125903  0.67916465  0.86377479  1
  O  O300  1  0.77459237  0.01249799  0.36377479  1
  O  O301  1  0.77459237  0.01249799  0.86377479  1
  O  O302  1  0.77459237  0.34583132  0.36377479  1
  O  O303  1  0.77459237  0.34583132  0.86377479  1
  O  O304  1  0.77459237  0.67916465  0.36377479  1
  O  O305  1  0.77459237  0.67916465  0.86377479  1
  O  O306  1  0.10792570  0.15416868  0.11377479  1
  O  O307  1  0.10792570  0.15416868  0.61377479  1
  O  O308  1  0.10792570  0.48750201  0.11377479  1
  O  O309  1  0.10792570  0.48750201  0.61377479  1
  O  O310  1  0.10792570  0.82083535  0.11377479  1
  O  O311  1  0.10792570  0.82083535  0.61377479  1
  O  O312  1  0.44125903  0.15416868  0.11377479  1
  O  O313  1  0.44125903  0.15416868  0.61377479  1
  O  O314  1  0.44125903  0.48750201  0.11377479  1
  O  O315  1  0.44125903  0.48750201  0.61377479  1
  O  O316  1  0.44125903  0.82083535  0.11377479  1
  O  O317  1  0.44125903  0.82083535  0.61377479  1
  O  O318  1  0.77459237  0.15416868  0.11377479  1
  O  O319  1  0.77459237  0.15416868  0.61377479  1
  O  O320  1  0.77459237  0.48750201  0.11377479  1
  O  O321  1  0.77459237  0.48750201  0.61377479  1
  O  O322  1  0.77459237  0.82083535  0.11377479  1
  O  O323  1  0.77459237  0.82083535  0.61377479  1
  O  O324  1  0.22540763  0.32083535  0.13622521  1
  O  O325  1  0.22540763  0.32083535  0.63622521  1
  O  O326  1  0.22540763  0.65416868  0.13622521  1
  O  O327  1  0.22540763  0.65416868  0.63622521  1
  O  O328  1  0.22540763  0.98750201  0.13622521  1
  O  O329  1  0.22540763  0.98750201  0.63622521  1
  O  O330  1  0.55874097  0.32083535  0.13622521  1
  O  O331  1  0.55874097  0.32083535  0.63622521  1
  O  O332  1  0.55874097  0.65416868  0.13622521  1
  O  O333  1  0.55874097  0.65416868  0.63622521  1
  O  O334  1  0.55874097  0.98750201  0.13622521  1
  O  O335  1  0.55874097  0.98750201  0.63622521  1
  O  O336  1  0.89207430  0.32083535  0.13622521  1
  O  O337  1  0.89207430  0.32083535  0.63622521  1
  O  O338  1  0.89207430  0.65416868  0.13622521  1
  O  O339  1  0.89207430  0.65416868  0.63622521  1
  O  O340  1  0.89207430  0.98750201  0.13622521  1
  O  O341  1  0.89207430  0.98750201  0.63622521  1
  O  O342  1  0.22540763  0.17916465  0.38622521  1
  O  O343  1  0.22540763  0.17916465  0.88622521  1
  O  O344  1  0.22540763  0.51249799  0.38622521  1
  O  O345  1  0.22540763  0.51249799  0.88622521  1
  O  O346  1  0.22540763  0.84583132  0.38622521  1
  O  O347  1  0.22540763  0.84583132  0.88622521  1
  O  O348  1  0.55874097  0.17916465  0.38622521  1
  O  O349  1  0.55874097  0.17916465  0.88622521  1
  O  O350  1  0.55874097  0.51249799  0.38622521  1
  O  O351  1  0.55874097  0.51249799  0.88622521  1
  O  O352  1  0.55874097  0.84583132  0.38622521  1
  O  O353  1  0.55874097  0.84583132  0.88622521  1
  O  O354  1  0.89207430  0.17916465  0.38622521  1
  O  O355  1  0.89207430  0.17916465  0.88622521  1
  O  O356  1  0.89207430  0.51249799  0.38622521  1
  O  O357  1  0.89207430  0.51249799  0.88622521  1
  O  O358  1  0.89207430  0.84583132  0.38622521  1
  O  O359  1  0.89207430  0.84583132  0.88622521  1
