# generated using pymatgen
data_BeAl2O4
_symmetry_space_group_name_H-M   'P 1'
_cell_length_a   9.42358940
_cell_length_b   10.97471844
_cell_length_c   8.87060348
_cell_angle_alpha   90.00000000
_cell_angle_beta   90.00000000
_cell_angle_gamma   90.00000000
_symmetry_Int_Tables_number   1
_chemical_formula_structural   BeAl2O4
_chemical_formula_sum   'Be16 Al32 O64'
_cell_volume   917.40881541
_cell_formula_units_Z   16
loop_
 _symmetry_equiv_pos_site_id
 _symmetry_equiv_pos_as_xyz
  1  'x, y, z'
loop_
 _atom_site_type_symbol
 _atom_site_label
 _atom_site_symmetry_multiplicity
 _atom_site_fract_x
 _atom_site_fract_y
 _atom_site_fract_z
 _atom_site_occupancy
  Be  Be0  1  0.59254648  0.12500000  0.03346995  1
  Be  Be1  1  0.59254648  0.12500000  0.53346995  1
  Be  Be2  1  0.59254648  0.62500000  0.03346995  1
  Be  Be3  1  0.59254648  0.62500000  0.53346995  1
  Be  Be4  1  0.40745352  0.37500000  0.46653005  1
  Be  Be5  1  0.40745352  0.37500000  0.96653005  1
  Be  Be6  1  0.40745352  0.87500000  0.46653005  1
  Be  Be7  1  0.40745352  0.87500000  0.96653005  1
  Be  Be8  1  0.09254648  0.12500000  0.21653005  1
  Be  Be9  1  0.09254648  0.12500000  0.71653005  1
  Be  Be10  1  0.09254648  0.62500000  0.21653005  1
  Be  Be11  1  0.09254648  0.62500000  0.71653005  1
  Be  Be12  1  0.90745352  0.37500000  0.28346995  1
  Be  Be13  1  0.90745352  0.37500000  0.78346995  1
  Be  Be14  1  0.90745352  0.87500000  0.28346995  1
  Be  Be15  1  0.90745352  0.87500000  0.78346995  1
  Al  Al16  1  0.22745308  0.37500000  0.24735869  1
  Al  Al17  1  0.22745308  0.37500000  0.74735869  1
  Al  Al18  1  0.22745308  0.87500000  0.24735869  1
  Al  Al19  1  0.22745308  0.87500000  0.74735869  1
  Al  Al20  1  0.27254692  0.12500000  0.49735869  1
  Al  Al21  1  0.27254692  0.12500000  0.99735869  1
  Al  Al22  1  0.27254692  0.62500000  0.49735869  1
  Al  Al23  1  0.27254692  0.62500000  0.99735869  1
  Al  Al24  1  0.77254692  0.12500000  0.25264131  1
  Al  Al25  1  0.77254692  0.12500000  0.75264131  1
  Al  Al26  1  0.77254692  0.62500000  0.25264131  1
  Al  Al27  1  0.77254692  0.62500000  0.75264131  1
  Al  Al28  1  0.72745308  0.37500000  0.00264131  1
  Al  Al29  1  0.72745308  0.37500000  0.50264131  1
  Al  Al30  1  0.72745308  0.87500000  0.00264131  1
  Al  Al31  1  0.72745308  0.87500000  0.50264131  1
  Al  Al32  1  0.50000000  0.25000000  0.25000000  1
  Al  Al33  1  0.50000000  0.25000000  0.75000000  1
  Al  Al34  1  0.50000000  0.75000000  0.25000000  1
  Al  Al35  1  0.50000000  0.75000000  0.75000000  1
  Al  Al36  1  0.00000000  0.25000000  0.00000000  1
  Al  Al37  1  0.00000000  0.25000000  0.50000000  1
  Al  Al38  1  0.00000000  0.75000000  0.00000000  1
  Al  Al39  1  0.00000000  0.75000000  0.50000000  1
  Al  Al40  1  0.50000000  0.00000000  0.25000000  1
  Al  Al41  1  0.50000000  0.00000000  0.75000000  1
  Al  Al42  1  0.50000000  0.50000000  0.25000000  1
  Al  Al43  1  0.50000000  0.50000000  0.75000000  1
  Al  Al44  1  0.00000000  0.00000000  0.00000000  1
  Al  Al45  1  0.00000000  0.00000000  0.50000000  1
  Al  Al46  1  0.00000000  0.50000000  0.00000000  1
  Al  Al47  1  0.00000000  0.50000000  0.50000000  1
  O  O48  1  0.33650041  0.25782096  0.37822144  1
  O  O49  1  0.33650041  0.25782096  0.87822144  1
  O  O50  1  0.33650041  0.75782096  0.37822144  1
  O  O51  1  0.33650041  0.75782096  0.87822144  1
  O  O52  1  0.16349959  0.24217904  0.12822144  1
  O  O53  1  0.16349959  0.24217904  0.62822144  1
  O  O54  1  0.16349959  0.74217904  0.12822144  1
  O  O55  1  0.16349959  0.74217904  0.62822144  1
  O  O56  1  0.66349959  0.00782096  0.12177856  1
  O  O57  1  0.66349959  0.00782096  0.62177856  1
  O  O58  1  0.66349959  0.50782096  0.12177856  1
  O  O59  1  0.66349959  0.50782096  0.62177856  1
  O  O60  1  0.83650041  0.49217904  0.37177856  1
  O  O61  1  0.83650041  0.49217904  0.87177856  1
  O  O62  1  0.83650041  0.99217904  0.37177856  1
  O  O63  1  0.83650041  0.99217904  0.87177856  1
  O  O64  1  0.16349959  0.00782096  0.12822144  1
  O  O65  1  0.16349959  0.00782096  0.62822144  1
  O  O66  1  0.16349959  0.50782096  0.12822144  1
  O  O67  1  0.16349959  0.50782096  0.62822144  1
  O  O68  1  0.66349959  0.24217904  0.12177856  1
  O  O69  1  0.66349959  0.24217904  0.62177856  1
  O  O70  1  0.66349959  0.74217904  0.12177856  1
  O  O71  1  0.66349959  0.74217904  0.62177856  1
  O  O72  1  0.33650041  0.49217904  0.37822144  1
  O  O73  1  0.33650041  0.49217904  0.87822144  1
  O  O74  1  0.33650041  0.99217904  0.37822144  1
  O  O75  1  0.33650041  0.99217904  0.87822144  1
  O  O76  1  0.83650041  0.25782096  0.37177856  1
  O  O77  1  0.83650041  0.25782096  0.87177856  1
  O  O78  1  0.83650041  0.75782096  0.37177856  1
  O  O79  1  0.83650041  0.75782096  0.87177856  1
  O  O80  1  0.90958113  0.37500000  0.10658641  1
  O  O81  1  0.90958113  0.37500000  0.60658641  1
  O  O82  1  0.90958113  0.87500000  0.10658641  1
  O  O83  1  0.90958113  0.87500000  0.60658641  1
  O  O84  1  0.59041887  0.12500000  0.35658641  1
  O  O85  1  0.59041887  0.12500000  0.85658641  1
  O  O86  1  0.59041887  0.62500000  0.35658641  1
  O  O87  1  0.59041887  0.62500000  0.85658641  1
  O  O88  1  0.09041887  0.12500000  0.39341359  1
  O  O89  1  0.09041887  0.12500000  0.89341359  1
  O  O90  1  0.09041887  0.62500000  0.39341359  1
  O  O91  1  0.09041887  0.62500000  0.89341359  1
  O  O92  1  0.40958113  0.37500000  0.14341359  1
  O  O93  1  0.40958113  0.37500000  0.64341359  1
  O  O94  1  0.40958113  0.87500000  0.14341359  1
  O  O95  1  0.40958113  0.87500000  0.64341359  1
  O  O96  1  0.56669445  0.37500000  0.37976226  1
  O  O97  1  0.56669445  0.37500000  0.87976226  1
  O  O98  1  0.56669445  0.87500000  0.37976226  1
  O  O99  1  0.56669445  0.87500000  0.87976226  1
  O  O100  1  0.93330555  0.12500000  0.12976226  1
  O  O101  1  0.93330555  0.12500000  0.62976226  1
  O  O102  1  0.93330555  0.62500000  0.12976226  1
  O  O103  1  0.93330555  0.62500000  0.62976226  1
  O  O104  1  0.43330555  0.12500000  0.12023774  1
  O  O105  1  0.43330555  0.12500000  0.62023774  1
  O  O106  1  0.43330555  0.62500000  0.12023774  1
  O  O107  1  0.43330555  0.62500000  0.62023774  1
  O  O108  1  0.06669445  0.37500000  0.37023774  1
  O  O109  1  0.06669445  0.37500000  0.87023774  1
  O  O110  1  0.06669445  0.87500000  0.37023774  1
  O  O111  1  0.06669445  0.87500000  0.87023774  1
