# generated using pymatgen
data_SrGa2B2O7
_symmetry_space_group_name_H-M   'P 1'
_cell_length_a   11.74086673
_cell_length_b   8.34513463
_cell_length_c   11.37649794
_cell_angle_alpha   90.00000000
_cell_angle_beta   90.00000000
_cell_angle_gamma   90.00000000
_symmetry_Int_Tables_number   1
_chemical_formula_structural   SrGa2B2O7
_chemical_formula_sum   'Sr8 Ga16 B16 O56'
_cell_volume   1114.65918430
_cell_formula_units_Z   8
loop_
 _symmetry_equiv_pos_site_id
 _symmetry_equiv_pos_as_xyz
  1  'x, y, z'
loop_
 _atom_site_type_symbol
 _atom_site_label
 _atom_site_symmetry_multiplicity
 _atom_site_fract_x
 _atom_site_fract_y
 _atom_site_fract_z
 _atom_site_occupancy
  Sr  Sr0  1  0.50000000  -0.31810368  0.37500000  1
  Sr  Sr1  1  0.50000000  -0.31810368  0.87500000  1
  Sr  Sr2  1  1.00000000  0.18189632  0.37500000  1
  Sr  Sr3  1  1.00000000  0.18189632  0.87500000  1
  Sr  Sr4  1  0.50000000  0.31810368  0.12500000  1
  Sr  Sr5  1  0.50000000  0.31810368  0.62500000  1
  Sr  Sr6  1  1.00000000  0.81810368  0.12500000  1
  Sr  Sr7  1  1.00000000  0.81810368  0.62500000  1
  Ga  Ga8  1  0.79043131  0.08460712  0.12500000  1
  Ga  Ga9  1  0.79043131  0.08460712  0.62500000  1
  Ga  Ga10  1  1.29043131  0.58460712  0.12500000  1
  Ga  Ga11  1  1.29043131  0.58460712  0.62500000  1
  Ga  Ga12  1  0.79043131  -0.08460712  0.37500000  1
  Ga  Ga13  1  0.79043131  -0.08460712  0.87500000  1
  Ga  Ga14  1  1.29043131  0.41539288  0.37500000  1
  Ga  Ga15  1  1.29043131  0.41539288  0.87500000  1
  Ga  Ga16  1  0.20956869  0.08460712  0.12500000  1
  Ga  Ga17  1  0.20956869  0.08460712  0.62500000  1
  Ga  Ga18  1  0.70956869  0.58460712  0.12500000  1
  Ga  Ga19  1  0.70956869  0.58460712  0.62500000  1
  Ga  Ga20  1  0.20956869  -0.08460712  0.37500000  1
  Ga  Ga21  1  0.20956869  -0.08460712  0.87500000  1
  Ga  Ga22  1  0.70956869  0.41539288  0.37500000  1
  Ga  Ga23  1  0.70956869  0.41539288  0.87500000  1
  B  B24  1  0.60902524  0.09516257  0.37500000  1
  B  B25  1  0.60902524  0.09516257  0.87500000  1
  B  B26  1  1.10902524  0.59516257  0.37500000  1
  B  B27  1  1.10902524  0.59516257  0.87500000  1
  B  B28  1  0.39097476  0.09516257  0.37500000  1
  B  B29  1  0.39097476  0.09516257  0.87500000  1
  B  B30  1  0.89097476  0.59516257  0.37500000  1
  B  B31  1  0.89097476  0.59516257  0.87500000  1
  B  B32  1  0.60902524  -0.09516257  0.12500000  1
  B  B33  1  0.60902524  -0.09516257  0.62500000  1
  B  B34  1  1.10902524  0.40483743  0.12500000  1
  B  B35  1  1.10902524  0.40483743  0.62500000  1
  B  B36  1  0.39097476  -0.09516257  0.12500000  1
  B  B37  1  0.39097476  -0.09516257  0.62500000  1
  B  B38  1  0.89097476  0.40483743  0.12500000  1
  B  B39  1  0.89097476  0.40483743  0.62500000  1
  O  O40  1  0.50000000  0.16276928  0.37500000  1
  O  O41  1  0.50000000  0.16276928  0.87500000  1
  O  O42  1  1.00000000  0.66276928  0.37500000  1
  O  O43  1  1.00000000  0.66276928  0.87500000  1
  O  O44  1  0.87127591  -0.00000000  0.00000000  1
  O  O45  1  0.87127591  -0.00000000  0.50000000  1
  O  O46  1  1.37127591  0.50000000  0.00000000  1
  O  O47  1  1.37127591  0.50000000  0.50000000  1
  O  O48  1  0.62955118  0.06726416  0.12500000  1
  O  O49  1  0.62955118  0.06726416  0.62500000  1
  O  O50  1  1.12955118  0.56726416  0.12500000  1
  O  O51  1  1.12955118  0.56726416  0.62500000  1
  O  O52  1  0.50000000  -0.16276928  0.12500000  1
  O  O53  1  0.50000000  -0.16276928  0.62500000  1
  O  O54  1  1.00000000  0.33723072  0.12500000  1
  O  O55  1  1.00000000  0.33723072  0.62500000  1
  O  O56  1  0.12872409  0.00000000  0.00000000  1
  O  O57  1  0.12872409  0.00000000  0.50000000  1
  O  O58  1  0.62872409  0.50000000  0.00000000  1
  O  O59  1  0.62872409  0.50000000  0.50000000  1
  O  O60  1  0.29964746  0.19474624  0.37500000  1
  O  O61  1  0.29964746  0.19474624  0.87500000  1
  O  O62  1  0.79964746  0.69474624  0.37500000  1
  O  O63  1  0.79964746  0.69474624  0.87500000  1
  O  O64  1  0.70035254  0.19474624  0.37500000  1
  O  O65  1  0.70035254  0.19474624  0.87500000  1
  O  O66  1  1.20035254  0.69474624  0.37500000  1
  O  O67  1  1.20035254  0.69474624  0.87500000  1
  O  O68  1  0.29964746  -0.19474624  0.12500000  1
  O  O69  1  0.29964746  -0.19474624  0.62500000  1
  O  O70  1  0.79964746  0.30525376  0.12500000  1
  O  O71  1  0.79964746  0.30525376  0.62500000  1
  O  O72  1  0.37044882  -0.06726416  0.37500000  1
  O  O73  1  0.37044882  -0.06726416  0.87500000  1
  O  O74  1  0.87044882  0.43273584  0.37500000  1
  O  O75  1  0.87044882  0.43273584  0.87500000  1
  O  O76  1  0.37044882  0.06726416  0.12500000  1
  O  O77  1  0.37044882  0.06726416  0.62500000  1
  O  O78  1  0.87044882  0.56726416  0.12500000  1
  O  O79  1  0.87044882  0.56726416  0.62500000  1
  O  O80  1  0.70035254  -0.19474624  0.12500000  1
  O  O81  1  0.70035254  -0.19474624  0.62500000  1
  O  O82  1  1.20035254  0.30525376  0.12500000  1
  O  O83  1  1.20035254  0.30525376  0.62500000  1
  O  O84  1  0.87127591  -0.00000000  0.25000000  1
  O  O85  1  0.87127591  -0.00000000  0.75000000  1
  O  O86  1  1.37127591  0.50000000  0.25000000  1
  O  O87  1  1.37127591  0.50000000  0.75000000  1
  O  O88  1  0.12872409  0.00000000  0.25000000  1
  O  O89  1  0.12872409  0.00000000  0.75000000  1
  O  O90  1  0.62872409  0.50000000  0.25000000  1
  O  O91  1  0.62872409  0.50000000  0.75000000  1
  O  O92  1  0.62955118  -0.06726416  0.37500000  1
  O  O93  1  0.62955118  -0.06726416  0.87500000  1
  O  O94  1  1.12955118  0.43273584  0.37500000  1
  O  O95  1  1.12955118  0.43273584  0.87500000  1
