# generated using pymatgen
data_As2PbO6
_symmetry_space_group_name_H-M   'P 1'
_cell_length_a   14.76918081
_cell_length_b   14.76918081
_cell_length_c   16.33486875
_cell_angle_alpha   90.00000000
_cell_angle_beta   90.00000000
_cell_angle_gamma   120.00000000
_symmetry_Int_Tables_number   1
_chemical_formula_structural   As2PbO6
_chemical_formula_sum   'As54 Pb27 O162'
_cell_volume   3085.73833148
_cell_formula_units_Z   27
loop_
 _symmetry_equiv_pos_site_id
 _symmetry_equiv_pos_as_xyz
  1  'x, y, z'
loop_
 _atom_site_type_symbol
 _atom_site_label
 _atom_site_symmetry_multiplicity
 _atom_site_fract_x
 _atom_site_fract_y
 _atom_site_fract_z
 _atom_site_occupancy
  As  As0  1  0.22222222  0.11111111  0.16666667  1
  As  As1  1  0.22222222  0.11111111  0.50000000  1
  As  As2  1  0.22222222  0.11111111  0.83333333  1
  As  As3  1  0.22222222  0.44444444  0.16666667  1
  As  As4  1  0.22222222  0.44444444  0.50000000  1
  As  As5  1  0.22222222  0.44444444  0.83333333  1
  As  As6  1  0.22222222  0.77777778  0.16666667  1
  As  As7  1  0.22222222  0.77777778  0.50000000  1
  As  As8  1  0.22222222  0.77777778  0.83333333  1
  As  As9  1  0.55555556  0.11111111  0.16666667  1
  As  As10  1  0.55555556  0.11111111  0.50000000  1
  As  As11  1  0.55555556  0.11111111  0.83333333  1
  As  As12  1  0.55555556  0.44444444  0.16666667  1
  As  As13  1  0.55555556  0.44444444  0.50000000  1
  As  As14  1  0.55555556  0.44444444  0.83333333  1
  As  As15  1  0.55555556  0.77777778  0.16666667  1
  As  As16  1  0.55555556  0.77777778  0.50000000  1
  As  As17  1  0.55555556  0.77777778  0.83333333  1
  As  As18  1  0.88888889  0.11111111  0.16666667  1
  As  As19  1  0.88888889  0.11111111  0.50000000  1
  As  As20  1  0.88888889  0.11111111  0.83333333  1
  As  As21  1  0.88888889  0.44444444  0.16666667  1
  As  As22  1  0.88888889  0.44444444  0.50000000  1
  As  As23  1  0.88888889  0.44444444  0.83333333  1
  As  As24  1  0.88888889  0.77777778  0.16666667  1
  As  As25  1  0.88888889  0.77777778  0.50000000  1
  As  As26  1  0.88888889  0.77777778  0.83333333  1
  As  As27  1  0.11111111  0.22222222  0.16666667  1
  As  As28  1  0.11111111  0.22222222  0.50000000  1
  As  As29  1  0.11111111  0.22222222  0.83333333  1
  As  As30  1  0.11111111  0.55555556  0.16666667  1
  As  As31  1  0.11111111  0.55555556  0.50000000  1
  As  As32  1  0.11111111  0.55555556  0.83333333  1
  As  As33  1  0.11111111  0.88888889  0.16666667  1
  As  As34  1  0.11111111  0.88888889  0.50000000  1
  As  As35  1  0.11111111  0.88888889  0.83333333  1
  As  As36  1  0.44444444  0.22222222  0.16666667  1
  As  As37  1  0.44444444  0.22222222  0.50000000  1
  As  As38  1  0.44444444  0.22222222  0.83333333  1
  As  As39  1  0.44444444  0.55555556  0.16666667  1
  As  As40  1  0.44444444  0.55555556  0.50000000  1
  As  As41  1  0.44444444  0.55555556  0.83333333  1
  As  As42  1  0.44444444  0.88888889  0.16666667  1
  As  As43  1  0.44444444  0.88888889  0.50000000  1
  As  As44  1  0.44444444  0.88888889  0.83333333  1
  As  As45  1  0.77777778  0.22222222  0.16666667  1
  As  As46  1  0.77777778  0.22222222  0.50000000  1
  As  As47  1  0.77777778  0.22222222  0.83333333  1
  As  As48  1  0.77777778  0.55555556  0.16666667  1
  As  As49  1  0.77777778  0.55555556  0.50000000  1
  As  As50  1  0.77777778  0.55555556  0.83333333  1
  As  As51  1  0.77777778  0.88888889  0.16666667  1
  As  As52  1  0.77777778  0.88888889  0.50000000  1
  As  As53  1  0.77777778  0.88888889  0.83333333  1
  Pb  Pb54  1  0.00000000  0.00000000  0.00000000  1
  Pb  Pb55  1  0.00000000  0.00000000  0.33333333  1
  Pb  Pb56  1  0.00000000  0.00000000  0.66666667  1
  Pb  Pb57  1  -0.00000000  0.33333333  0.00000000  1
  Pb  Pb58  1  -0.00000000  0.33333333  0.33333333  1
  Pb  Pb59  1  -0.00000000  0.33333333  0.66666667  1
  Pb  Pb60  1  -0.00000000  0.66666667  0.00000000  1
  Pb  Pb61  1  -0.00000000  0.66666667  0.33333333  1
  Pb  Pb62  1  -0.00000000  0.66666667  0.66666667  1
  Pb  Pb63  1  0.33333333  0.00000000  0.00000000  1
  Pb  Pb64  1  0.33333333  0.00000000  0.33333333  1
  Pb  Pb65  1  0.33333333  0.00000000  0.66666667  1
  Pb  Pb66  1  0.33333333  0.33333333  0.00000000  1
  Pb  Pb67  1  0.33333333  0.33333333  0.33333333  1
  Pb  Pb68  1  0.33333333  0.33333333  0.66666667  1
  Pb  Pb69  1  0.33333333  0.66666667  0.00000000  1
  Pb  Pb70  1  0.33333333  0.66666667  0.33333333  1
  Pb  Pb71  1  0.33333333  0.66666667  0.66666667  1
  Pb  Pb72  1  0.66666667  0.00000000  0.00000000  1
  Pb  Pb73  1  0.66666667  0.00000000  0.33333333  1
  Pb  Pb74  1  0.66666667  0.00000000  0.66666667  1
  Pb  Pb75  1  0.66666667  0.33333333  0.00000000  1
  Pb  Pb76  1  0.66666667  0.33333333  0.33333333  1
  Pb  Pb77  1  0.66666667  0.33333333  0.66666667  1
  Pb  Pb78  1  0.66666667  0.66666667  0.00000000  1
  Pb  Pb79  1  0.66666667  0.66666667  0.33333333  1
  Pb  Pb80  1  0.66666667  0.66666667  0.66666667  1
  O  O81  1  0.12801841  0.12801841  0.23093329  1
  O  O82  1  0.12801841  0.12801841  0.56426662  1
  O  O83  1  0.12801841  0.12801841  0.89759996  1
  O  O84  1  0.12801841  0.46135175  0.23093329  1
  O  O85  1  0.12801841  0.46135175  0.56426662  1
  O  O86  1  0.12801841  0.46135175  0.89759996  1
  O  O87  1  0.12801841  0.79468508  0.23093329  1
  O  O88  1  0.12801841  0.79468508  0.56426662  1
  O  O89  1  0.12801841  0.79468508  0.89759996  1
  O  O90  1  0.46135175  0.12801841  0.23093329  1
  O  O91  1  0.46135175  0.12801841  0.56426662  1
  O  O92  1  0.46135175  0.12801841  0.89759996  1
  O  O93  1  0.46135175  0.46135175  0.23093329  1
  O  O94  1  0.46135175  0.46135175  0.56426662  1
  O  O95  1  0.46135175  0.46135175  0.89759996  1
  O  O96  1  0.46135175  0.79468508  0.23093329  1
  O  O97  1  0.46135175  0.79468508  0.56426662  1
  O  O98  1  0.46135175  0.79468508  0.89759996  1
  O  O99  1  0.79468508  0.12801841  0.23093329  1
  O  O100  1  0.79468508  0.12801841  0.56426662  1
  O  O101  1  0.79468508  0.12801841  0.89759996  1
  O  O102  1  0.79468508  0.46135175  0.23093329  1
  O  O103  1  0.79468508  0.46135175  0.56426662  1
  O  O104  1  0.79468508  0.46135175  0.89759996  1
  O  O105  1  0.79468508  0.79468508  0.23093329  1
  O  O106  1  0.79468508  0.79468508  0.56426662  1
  O  O107  1  0.79468508  0.79468508  0.89759996  1
  O  O108  1  0.20531492  0.00000000  0.23093329  1
  O  O109  1  0.20531492  0.00000000  0.56426662  1
  O  O110  1  0.20531492  0.00000000  0.89759996  1
  O  O111  1  0.20531492  0.33333333  0.23093329  1
  O  O112  1  0.20531492  0.33333333  0.56426662  1
  O  O113  1  0.20531492  0.33333333  0.89759996  1
  O  O114  1  0.20531492  0.66666667  0.23093329  1
  O  O115  1  0.20531492  0.66666667  0.56426662  1
  O  O116  1  0.20531492  0.66666667  0.89759996  1
  O  O117  1  0.53864825  0.00000000  0.23093329  1
  O  O118  1  0.53864825  0.00000000  0.56426662  1
  O  O119  1  0.53864825  0.00000000  0.89759996  1
  O  O120  1  0.53864825  0.33333333  0.23093329  1
  O  O121  1  0.53864825  0.33333333  0.56426662  1
  O  O122  1  0.53864825  0.33333333  0.89759996  1
  O  O123  1  0.53864825  0.66666667  0.23093329  1
  O  O124  1  0.53864825  0.66666667  0.56426662  1
  O  O125  1  0.53864825  0.66666667  0.89759996  1
  O  O126  1  0.87198159  0.00000000  0.23093329  1
  O  O127  1  0.87198159  0.00000000  0.56426662  1
  O  O128  1  0.87198159  0.00000000  0.89759996  1
  O  O129  1  0.87198159  0.33333333  0.23093329  1
  O  O130  1  0.87198159  0.33333333  0.56426662  1
  O  O131  1  0.87198159  0.33333333  0.89759996  1
  O  O132  1  0.87198159  0.66666667  0.23093329  1
  O  O133  1  0.87198159  0.66666667  0.56426662  1
  O  O134  1  0.87198159  0.66666667  0.89759996  1
  O  O135  1  -0.00000000  0.20531492  0.23093329  1
  O  O136  1  -0.00000000  0.20531492  0.56426662  1
  O  O137  1  -0.00000000  0.20531492  0.89759996  1
  O  O138  1  -0.00000000  0.53864825  0.23093329  1
  O  O139  1  -0.00000000  0.53864825  0.56426662  1
  O  O140  1  -0.00000000  0.53864825  0.89759996  1
  O  O141  1  -0.00000000  0.87198159  0.23093329  1
  O  O142  1  -0.00000000  0.87198159  0.56426662  1
  O  O143  1  -0.00000000  0.87198159  0.89759996  1
  O  O144  1  0.33333333  0.20531492  0.23093329  1
  O  O145  1  0.33333333  0.20531492  0.56426662  1
  O  O146  1  0.33333333  0.20531492  0.89759996  1
  O  O147  1  0.33333333  0.53864825  0.23093329  1
  O  O148  1  0.33333333  0.53864825  0.56426662  1
  O  O149  1  0.33333333  0.53864825  0.89759996  1
  O  O150  1  0.33333333  0.87198159  0.23093329  1
  O  O151  1  0.33333333  0.87198159  0.56426662  1
  O  O152  1  0.33333333  0.87198159  0.89759996  1
  O  O153  1  0.66666667  0.20531492  0.23093329  1
  O  O154  1  0.66666667  0.20531492  0.56426662  1
  O  O155  1  0.66666667  0.20531492  0.89759996  1
  O  O156  1  0.66666667  0.53864825  0.23093329  1
  O  O157  1  0.66666667  0.53864825  0.56426662  1
  O  O158  1  0.66666667  0.53864825  0.89759996  1
  O  O159  1  0.66666667  0.87198159  0.23093329  1
  O  O160  1  0.66666667  0.87198159  0.56426662  1
  O  O161  1  0.66666667  0.87198159  0.89759996  1
  O  O162  1  0.12801841  0.00000000  0.10240004  1
  O  O163  1  0.12801841  0.00000000  0.43573338  1
  O  O164  1  0.12801841  0.00000000  0.76906671  1
  O  O165  1  0.12801841  0.33333333  0.10240004  1
  O  O166  1  0.12801841  0.33333333  0.43573338  1
  O  O167  1  0.12801841  0.33333333  0.76906671  1
  O  O168  1  0.12801841  0.66666667  0.10240004  1
  O  O169  1  0.12801841  0.66666667  0.43573338  1
  O  O170  1  0.12801841  0.66666667  0.76906671  1
  O  O171  1  0.46135175  0.00000000  0.10240004  1
  O  O172  1  0.46135175  0.00000000  0.43573338  1
  O  O173  1  0.46135175  0.00000000  0.76906671  1
  O  O174  1  0.46135175  0.33333333  0.10240004  1
  O  O175  1  0.46135175  0.33333333  0.43573338  1
  O  O176  1  0.46135175  0.33333333  0.76906671  1
  O  O177  1  0.46135175  0.66666667  0.10240004  1
  O  O178  1  0.46135175  0.66666667  0.43573338  1
  O  O179  1  0.46135175  0.66666667  0.76906671  1
  O  O180  1  0.79468508  0.00000000  0.10240004  1
  O  O181  1  0.79468508  0.00000000  0.43573338  1
  O  O182  1  0.79468508  0.00000000  0.76906671  1
  O  O183  1  0.79468508  0.33333333  0.10240004  1
  O  O184  1  0.79468508  0.33333333  0.43573338  1
  O  O185  1  0.79468508  0.33333333  0.76906671  1
  O  O186  1  0.79468508  0.66666667  0.10240004  1
  O  O187  1  0.79468508  0.66666667  0.43573338  1
  O  O188  1  0.79468508  0.66666667  0.76906671  1
  O  O189  1  -0.00000000  0.12801841  0.10240004  1
  O  O190  1  -0.00000000  0.12801841  0.43573338  1
  O  O191  1  -0.00000000  0.12801841  0.76906671  1
  O  O192  1  -0.00000000  0.46135175  0.10240004  1
  O  O193  1  -0.00000000  0.46135175  0.43573338  1
  O  O194  1  -0.00000000  0.46135175  0.76906671  1
  O  O195  1  -0.00000000  0.79468508  0.10240004  1
  O  O196  1  -0.00000000  0.79468508  0.43573338  1
  O  O197  1  -0.00000000  0.79468508  0.76906671  1
  O  O198  1  0.33333333  0.12801841  0.10240004  1
  O  O199  1  0.33333333  0.12801841  0.43573338  1
  O  O200  1  0.33333333  0.12801841  0.76906671  1
  O  O201  1  0.33333333  0.46135175  0.10240004  1
  O  O202  1  0.33333333  0.46135175  0.43573338  1
  O  O203  1  0.33333333  0.46135175  0.76906671  1
  O  O204  1  0.33333333  0.79468508  0.10240004  1
  O  O205  1  0.33333333  0.79468508  0.43573338  1
  O  O206  1  0.33333333  0.79468508  0.76906671  1
  O  O207  1  0.66666667  0.12801841  0.10240004  1
  O  O208  1  0.66666667  0.12801841  0.43573338  1
  O  O209  1  0.66666667  0.12801841  0.76906671  1
  O  O210  1  0.66666667  0.46135175  0.10240004  1
  O  O211  1  0.66666667  0.46135175  0.43573338  1
  O  O212  1  0.66666667  0.46135175  0.76906671  1
  O  O213  1  0.66666667  0.79468508  0.10240004  1
  O  O214  1  0.66666667  0.79468508  0.43573338  1
  O  O215  1  0.66666667  0.79468508  0.76906671  1
  O  O216  1  0.20531492  0.20531492  0.10240004  1
  O  O217  1  0.20531492  0.20531492  0.43573338  1
  O  O218  1  0.20531492  0.20531492  0.76906671  1
  O  O219  1  0.20531492  0.53864825  0.10240004  1
  O  O220  1  0.20531492  0.53864825  0.43573338  1
  O  O221  1  0.20531492  0.53864825  0.76906671  1
  O  O222  1  0.20531492  0.87198159  0.10240004  1
  O  O223  1  0.20531492  0.87198159  0.43573338  1
  O  O224  1  0.20531492  0.87198159  0.76906671  1
  O  O225  1  0.53864825  0.20531492  0.10240004  1
  O  O226  1  0.53864825  0.20531492  0.43573338  1
  O  O227  1  0.53864825  0.20531492  0.76906671  1
  O  O228  1  0.53864825  0.53864825  0.10240004  1
  O  O229  1  0.53864825  0.53864825  0.43573338  1
  O  O230  1  0.53864825  0.53864825  0.76906671  1
  O  O231  1  0.53864825  0.87198159  0.10240004  1
  O  O232  1  0.53864825  0.87198159  0.43573338  1
  O  O233  1  0.53864825  0.87198159  0.76906671  1
  O  O234  1  0.87198159  0.20531492  0.10240004  1
  O  O235  1  0.87198159  0.20531492  0.43573338  1
  O  O236  1  0.87198159  0.20531492  0.76906671  1
  O  O237  1  0.87198159  0.53864825  0.10240004  1
  O  O238  1  0.87198159  0.53864825  0.43573338  1
  O  O239  1  0.87198159  0.53864825  0.76906671  1
  O  O240  1  0.87198159  0.87198159  0.10240004  1
  O  O241  1  0.87198159  0.87198159  0.43573338  1
  O  O242  1  0.87198159  0.87198159  0.76906671  1
