# generated using pymatgen
data_Na3AuO3
_symmetry_space_group_name_H-M   'P 1'
_cell_length_a   13.20566008
_cell_length_b   13.20566008
_cell_length_c   13.40742233
_cell_angle_alpha   90.00000000
_cell_angle_beta   90.00000000
_cell_angle_gamma   90.00000000
_symmetry_Int_Tables_number   1
_chemical_formula_structural   Na3AuO3
_chemical_formula_sum   'Na72 Au24 O72'
_cell_volume   2338.11311592
_cell_formula_units_Z   24
loop_
 _symmetry_equiv_pos_site_id
 _symmetry_equiv_pos_as_xyz
  1  'x, y, z'
loop_
 _atom_site_type_symbol
 _atom_site_label
 _atom_site_symmetry_multiplicity
 _atom_site_fract_x
 _atom_site_fract_y
 _atom_site_fract_z
 _atom_site_occupancy
  Na  Na0  1  0.37310286  0.24722599  0.00000000  1
  Na  Na1  1  0.37310286  0.24722599  0.33333333  1
  Na  Na2  1  0.37310286  0.24722599  0.66666667  1
  Na  Na3  1  0.87310286  0.74722599  0.00000000  1
  Na  Na4  1  0.87310286  0.74722599  0.33333333  1
  Na  Na5  1  0.87310286  0.74722599  0.66666667  1
  Na  Na6  1  0.75277401  -0.12689714  0.16666667  1
  Na  Na7  1  0.75277401  -0.12689714  0.50000000  1
  Na  Na8  1  0.75277401  -0.12689714  0.83333333  1
  Na  Na9  1  1.25277401  0.37310286  0.16666667  1
  Na  Na10  1  1.25277401  0.37310286  0.50000000  1
  Na  Na11  1  1.25277401  0.37310286  0.83333333  1
  Na  Na12  1  0.50000000  0.14553776  0.16666667  1
  Na  Na13  1  0.50000000  0.14553776  0.50000000  1
  Na  Na14  1  0.50000000  0.14553776  0.83333333  1
  Na  Na15  1  1.00000000  0.64553776  0.16666667  1
  Na  Na16  1  1.00000000  0.64553776  0.50000000  1
  Na  Na17  1  1.00000000  0.64553776  0.83333333  1
  Na  Na18  1  0.85446224  0.00000000  0.00000000  1
  Na  Na19  1  0.85446224  0.00000000  0.33333333  1
  Na  Na20  1  0.85446224  0.00000000  0.66666667  1
  Na  Na21  1  1.35446224  0.50000000  0.00000000  1
  Na  Na22  1  1.35446224  0.50000000  0.33333333  1
  Na  Na23  1  1.35446224  0.50000000  0.66666667  1
  Na  Na24  1  0.62689714  0.24722599  0.00000000  1
  Na  Na25  1  0.62689714  0.24722599  0.33333333  1
  Na  Na26  1  0.62689714  0.24722599  0.66666667  1
  Na  Na27  1  1.12689714  0.74722599  0.00000000  1
  Na  Na28  1  1.12689714  0.74722599  0.33333333  1
  Na  Na29  1  1.12689714  0.74722599  0.66666667  1
  Na  Na30  1  0.75277401  0.12689714  0.16666667  1
  Na  Na31  1  0.75277401  0.12689714  0.50000000  1
  Na  Na32  1  0.75277401  0.12689714  0.83333333  1
  Na  Na33  1  1.25277401  0.62689714  0.16666667  1
  Na  Na34  1  1.25277401  0.62689714  0.50000000  1
  Na  Na35  1  1.25277401  0.62689714  0.83333333  1
  Na  Na36  1  0.24722599  -0.12689714  0.16666667  1
  Na  Na37  1  0.24722599  -0.12689714  0.50000000  1
  Na  Na38  1  0.24722599  -0.12689714  0.83333333  1
  Na  Na39  1  0.74722599  0.37310286  0.16666667  1
  Na  Na40  1  0.74722599  0.37310286  0.50000000  1
  Na  Na41  1  0.74722599  0.37310286  0.83333333  1
  Na  Na42  1  0.37310286  -0.24722599  0.00000000  1
  Na  Na43  1  0.37310286  -0.24722599  0.33333333  1
  Na  Na44  1  0.37310286  -0.24722599  0.66666667  1
  Na  Na45  1  0.87310286  0.25277401  0.00000000  1
  Na  Na46  1  0.87310286  0.25277401  0.33333333  1
  Na  Na47  1  0.87310286  0.25277401  0.66666667  1
  Na  Na48  1  0.14553776  -0.00000000  0.00000000  1
  Na  Na49  1  0.14553776  -0.00000000  0.33333333  1
  Na  Na50  1  0.14553776  -0.00000000  0.66666667  1
  Na  Na51  1  0.64553776  0.50000000  0.00000000  1
  Na  Na52  1  0.64553776  0.50000000  0.33333333  1
  Na  Na53  1  0.64553776  0.50000000  0.66666667  1
  Na  Na54  1  0.50000000  -0.14553776  0.16666667  1
  Na  Na55  1  0.50000000  -0.14553776  0.50000000  1
  Na  Na56  1  0.50000000  -0.14553776  0.83333333  1
  Na  Na57  1  1.00000000  0.35446224  0.16666667  1
  Na  Na58  1  1.00000000  0.35446224  0.50000000  1
  Na  Na59  1  1.00000000  0.35446224  0.83333333  1
  Na  Na60  1  0.24722599  0.12689714  0.16666667  1
  Na  Na61  1  0.24722599  0.12689714  0.50000000  1
  Na  Na62  1  0.24722599  0.12689714  0.83333333  1
  Na  Na63  1  0.74722599  0.62689714  0.16666667  1
  Na  Na64  1  0.74722599  0.62689714  0.50000000  1
  Na  Na65  1  0.74722599  0.62689714  0.83333333  1
  Na  Na66  1  0.62689714  -0.24722599  0.00000000  1
  Na  Na67  1  0.62689714  -0.24722599  0.33333333  1
  Na  Na68  1  0.62689714  -0.24722599  0.66666667  1
  Na  Na69  1  1.12689714  0.25277401  0.00000000  1
  Na  Na70  1  1.12689714  0.25277401  0.33333333  1
  Na  Na71  1  1.12689714  0.25277401  0.66666667  1
  Au  Au72  1  0.61690147  0.00000000  0.00000000  1
  Au  Au73  1  0.61690147  0.00000000  0.33333333  1
  Au  Au74  1  0.61690147  0.00000000  0.66666667  1
  Au  Au75  1  1.11690147  0.50000000  0.00000000  1
  Au  Au76  1  1.11690147  0.50000000  0.33333333  1
  Au  Au77  1  1.11690147  0.50000000  0.66666667  1
  Au  Au78  1  0.50000000  0.38309853  0.16666667  1
  Au  Au79  1  0.50000000  0.38309853  0.50000000  1
  Au  Au80  1  0.50000000  0.38309853  0.83333333  1
  Au  Au81  1  1.00000000  0.88309853  0.16666667  1
  Au  Au82  1  1.00000000  0.88309853  0.50000000  1
  Au  Au83  1  1.00000000  0.88309853  0.83333333  1
  Au  Au84  1  0.50000000  -0.38309853  0.16666667  1
  Au  Au85  1  0.50000000  -0.38309853  0.50000000  1
  Au  Au86  1  0.50000000  -0.38309853  0.83333333  1
  Au  Au87  1  1.00000000  0.11690147  0.16666667  1
  Au  Au88  1  1.00000000  0.11690147  0.50000000  1
  Au  Au89  1  1.00000000  0.11690147  0.83333333  1
  Au  Au90  1  0.38309853  0.00000000  0.00000000  1
  Au  Au91  1  0.38309853  0.00000000  0.33333333  1
  Au  Au92  1  0.38309853  0.00000000  0.66666667  1
  Au  Au93  1  0.88309853  0.50000000  0.00000000  1
  Au  Au94  1  0.88309853  0.50000000  0.33333333  1
  Au  Au95  1  0.88309853  0.50000000  0.66666667  1
  O  O96  1  0.50000000  0.10278543  0.00000000  1
  O  O97  1  0.50000000  0.10278543  0.33333333  1
  O  O98  1  0.50000000  0.10278543  0.66666667  1
  O  O99  1  1.00000000  0.60278543  0.00000000  1
  O  O100  1  1.00000000  0.60278543  0.33333333  1
  O  O101  1  1.00000000  0.60278543  0.66666667  1
  O  O102  1  0.72249570  -0.10710095  0.00000000  1
  O  O103  1  0.72249570  -0.10710095  0.33333333  1
  O  O104  1  0.72249570  -0.10710095  0.66666667  1
  O  O105  1  1.22249570  0.39289905  0.00000000  1
  O  O106  1  1.22249570  0.39289905  0.33333333  1
  O  O107  1  1.22249570  0.39289905  0.66666667  1
  O  O108  1  0.39289905  0.27750430  0.16666667  1
  O  O109  1  0.39289905  0.27750430  0.50000000  1
  O  O110  1  0.39289905  0.27750430  0.83333333  1
  O  O111  1  0.89289905  0.77750430  0.16666667  1
  O  O112  1  0.89289905  0.77750430  0.50000000  1
  O  O113  1  0.89289905  0.77750430  0.83333333  1
  O  O114  1  0.72249570  0.10710095  0.00000000  1
  O  O115  1  0.72249570  0.10710095  0.33333333  1
  O  O116  1  0.72249570  0.10710095  0.66666667  1
  O  O117  1  1.22249570  0.60710095  0.00000000  1
  O  O118  1  1.22249570  0.60710095  0.33333333  1
  O  O119  1  1.22249570  0.60710095  0.66666667  1
  O  O120  1  0.60710095  0.27750430  0.16666667  1
  O  O121  1  0.60710095  0.27750430  0.50000000  1
  O  O122  1  0.60710095  0.27750430  0.83333333  1
  O  O123  1  1.10710095  0.77750430  0.16666667  1
  O  O124  1  1.10710095  0.77750430  0.50000000  1
  O  O125  1  1.10710095  0.77750430  0.83333333  1
  O  O126  1  0.89721457  -0.00000000  0.16666667  1
  O  O127  1  0.89721457  -0.00000000  0.50000000  1
  O  O128  1  0.89721457  -0.00000000  0.83333333  1
  O  O129  1  1.39721457  0.50000000  0.16666667  1
  O  O130  1  1.39721457  0.50000000  0.50000000  1
  O  O131  1  1.39721457  0.50000000  0.83333333  1
  O  O132  1  0.10278543  0.00000000  0.16666667  1
  O  O133  1  0.10278543  0.00000000  0.50000000  1
  O  O134  1  0.10278543  0.00000000  0.83333333  1
  O  O135  1  0.60278543  0.50000000  0.16666667  1
  O  O136  1  0.60278543  0.50000000  0.50000000  1
  O  O137  1  0.60278543  0.50000000  0.83333333  1
  O  O138  1  0.39289905  -0.27750430  0.16666667  1
  O  O139  1  0.39289905  -0.27750430  0.50000000  1
  O  O140  1  0.39289905  -0.27750430  0.83333333  1
  O  O141  1  0.89289905  0.22249570  0.16666667  1
  O  O142  1  0.89289905  0.22249570  0.50000000  1
  O  O143  1  0.89289905  0.22249570  0.83333333  1
  O  O144  1  0.27750430  -0.10710095  0.00000000  1
  O  O145  1  0.27750430  -0.10710095  0.33333333  1
  O  O146  1  0.27750430  -0.10710095  0.66666667  1
  O  O147  1  0.77750430  0.39289905  0.00000000  1
  O  O148  1  0.77750430  0.39289905  0.33333333  1
  O  O149  1  0.77750430  0.39289905  0.66666667  1
  O  O150  1  0.60710095  -0.27750430  0.16666667  1
  O  O151  1  0.60710095  -0.27750430  0.50000000  1
  O  O152  1  0.60710095  -0.27750430  0.83333333  1
  O  O153  1  1.10710095  0.22249570  0.16666667  1
  O  O154  1  1.10710095  0.22249570  0.50000000  1
  O  O155  1  1.10710095  0.22249570  0.83333333  1
  O  O156  1  0.27750430  0.10710095  0.00000000  1
  O  O157  1  0.27750430  0.10710095  0.33333333  1
  O  O158  1  0.27750430  0.10710095  0.66666667  1
  O  O159  1  0.77750430  0.60710095  0.00000000  1
  O  O160  1  0.77750430  0.60710095  0.33333333  1
  O  O161  1  0.77750430  0.60710095  0.66666667  1
  O  O162  1  0.50000000  -0.10278543  0.00000000  1
  O  O163  1  0.50000000  -0.10278543  0.33333333  1
  O  O164  1  0.50000000  -0.10278543  0.66666667  1
  O  O165  1  1.00000000  0.39721457  0.00000000  1
  O  O166  1  1.00000000  0.39721457  0.33333333  1
  O  O167  1  1.00000000  0.39721457  0.66666667  1
