# generated using pymatgen
data_Rb3TlO3
_symmetry_space_group_name_H-M   'P 1'
_cell_length_a   15.52365760
_cell_length_b   14.22358314
_cell_length_c   11.48256009
_cell_angle_alpha   90.00000000
_cell_angle_beta   93.58997477
_cell_angle_gamma   90.00000000
_symmetry_Int_Tables_number   1
_chemical_formula_structural   Rb3TlO3
_chemical_formula_sum   'Rb48 Tl16 O48'
_cell_volume   2530.39746757
_cell_formula_units_Z   16
loop_
 _symmetry_equiv_pos_site_id
 _symmetry_equiv_pos_as_xyz
  1  'x, y, z'
loop_
 _atom_site_type_symbol
 _atom_site_label
 _atom_site_symmetry_multiplicity
 _atom_site_fract_x
 _atom_site_fract_y
 _atom_site_fract_z
 _atom_site_occupancy
  Rb  Rb0  1  0.02989694  0.18414671  0.15641557  1
  Rb  Rb1  1  0.02989694  0.68414671  0.15641557  1
  Rb  Rb2  1  0.52989694  0.18414671  0.15641557  1
  Rb  Rb3  1  0.52989694  0.68414671  0.15641557  1
  Rb  Rb4  1  0.02989694  0.06585329  0.65641557  1
  Rb  Rb5  1  0.02989694  0.56585329  0.65641557  1
  Rb  Rb6  1  0.52989694  0.06585329  0.65641557  1
  Rb  Rb7  1  0.52989694  0.56585329  0.65641557  1
  Rb  Rb8  1  0.32097366  0.34030842  0.07592920  1
  Rb  Rb9  1  0.32097366  0.84030842  0.07592920  1
  Rb  Rb10  1  0.82097366  0.34030842  0.07592920  1
  Rb  Rb11  1  0.82097366  0.84030842  0.07592920  1
  Rb  Rb12  1  0.18506410  0.39919845  0.81072097  1
  Rb  Rb13  1  0.18506410  0.89919845  0.81072097  1
  Rb  Rb14  1  0.68506410  0.39919845  0.81072097  1
  Rb  Rb15  1  0.68506410  0.89919845  0.81072097  1
  Rb  Rb16  1  0.31493590  0.14919845  0.68927903  1
  Rb  Rb17  1  0.31493590  0.64919845  0.68927903  1
  Rb  Rb18  1  0.81493590  0.14919845  0.68927903  1
  Rb  Rb19  1  0.81493590  0.64919845  0.68927903  1
  Rb  Rb20  1  0.31493590  0.10080155  0.18927903  1
  Rb  Rb21  1  0.31493590  0.60080155  0.18927903  1
  Rb  Rb22  1  0.81493590  0.10080155  0.18927903  1
  Rb  Rb23  1  0.81493590  0.60080155  0.18927903  1
  Rb  Rb24  1  0.18506410  0.35080155  0.31072097  1
  Rb  Rb25  1  0.18506410  0.85080155  0.31072097  1
  Rb  Rb26  1  0.68506410  0.35080155  0.31072097  1
  Rb  Rb27  1  0.68506410  0.85080155  0.31072097  1
  Rb  Rb28  1  0.32097366  0.40969158  0.57592920  1
  Rb  Rb29  1  0.32097366  0.90969158  0.57592920  1
  Rb  Rb30  1  0.82097366  0.40969158  0.57592920  1
  Rb  Rb31  1  0.82097366  0.90969158  0.57592920  1
  Rb  Rb32  1  0.17902634  0.15969158  0.92407080  1
  Rb  Rb33  1  0.17902634  0.65969158  0.92407080  1
  Rb  Rb34  1  0.67902634  0.15969158  0.92407080  1
  Rb  Rb35  1  0.67902634  0.65969158  0.92407080  1
  Rb  Rb36  1  0.17902634  0.09030842  0.42407080  1
  Rb  Rb37  1  0.17902634  0.59030842  0.42407080  1
  Rb  Rb38  1  0.67902634  0.09030842  0.42407080  1
  Rb  Rb39  1  0.67902634  0.59030842  0.42407080  1
  Rb  Rb40  1  0.47010306  0.43414671  0.34358443  1
  Rb  Rb41  1  0.47010306  0.93414671  0.34358443  1
  Rb  Rb42  1  0.97010306  0.43414671  0.34358443  1
  Rb  Rb43  1  0.97010306  0.93414671  0.34358443  1
  Rb  Rb44  1  0.47010306  0.31585329  0.84358443  1
  Rb  Rb45  1  0.47010306  0.81585329  0.84358443  1
  Rb  Rb46  1  0.97010306  0.31585329  0.84358443  1
  Rb  Rb47  1  0.97010306  0.81585329  0.84358443  1
  Tl  Tl48  1  0.08287066  0.45239101  0.07026423  1
  Tl  Tl49  1  0.08287066  0.95239101  0.07026423  1
  Tl  Tl50  1  0.58287066  0.45239101  0.07026423  1
  Tl  Tl51  1  0.58287066  0.95239101  0.07026423  1
  Tl  Tl52  1  0.41712934  0.04760899  0.92973577  1
  Tl  Tl53  1  0.41712934  0.54760899  0.92973577  1
  Tl  Tl54  1  0.91712934  0.04760899  0.92973577  1
  Tl  Tl55  1  0.91712934  0.54760899  0.92973577  1
  Tl  Tl56  1  0.08287066  0.29760899  0.57026423  1
  Tl  Tl57  1  0.08287066  0.79760899  0.57026423  1
  Tl  Tl58  1  0.58287066  0.29760899  0.57026423  1
  Tl  Tl59  1  0.58287066  0.79760899  0.57026423  1
  Tl  Tl60  1  0.41712934  0.20239101  0.42973577  1
  Tl  Tl61  1  0.41712934  0.70239101  0.42973577  1
  Tl  Tl62  1  0.91712934  0.20239101  0.42973577  1
  Tl  Tl63  1  0.91712934  0.70239101  0.42973577  1
  O  O64  1  0.15410002  0.21714198  0.69822986  1
  O  O65  1  0.15410002  0.71714198  0.69822986  1
  O  O66  1  0.65410002  0.21714198  0.69822986  1
  O  O67  1  0.65410002  0.71714198  0.69822986  1
  O  O68  1  0.05524419  0.23198938  0.39443837  1
  O  O69  1  0.05524419  0.73198938  0.39443837  1
  O  O70  1  0.55524419  0.23198938  0.39443837  1
  O  O71  1  0.55524419  0.73198938  0.39443837  1
  O  O72  1  0.44475581  0.48198938  0.10556163  1
  O  O73  1  0.44475581  0.98198938  0.10556163  1
  O  O74  1  0.94475581  0.48198938  0.10556163  1
  O  O75  1  0.94475581  0.98198938  0.10556163  1
  O  O76  1  0.13047757  0.43439621  0.53814791  1
  O  O77  1  0.13047757  0.93439621  0.53814791  1
  O  O78  1  0.63047757  0.43439621  0.53814791  1
  O  O79  1  0.63047757  0.93439621  0.53814791  1
  O  O80  1  0.36952243  0.18439621  0.96185209  1
  O  O81  1  0.36952243  0.68439621  0.96185209  1
  O  O82  1  0.86952243  0.18439621  0.96185209  1
  O  O83  1  0.86952243  0.68439621  0.96185209  1
  O  O84  1  0.36952243  0.06560379  0.46185209  1
  O  O85  1  0.36952243  0.56560379  0.46185209  1
  O  O86  1  0.86952243  0.06560379  0.46185209  1
  O  O87  1  0.86952243  0.56560379  0.46185209  1
  O  O88  1  0.13047757  0.31560379  0.03814791  1
  O  O89  1  0.13047757  0.81560379  0.03814791  1
  O  O90  1  0.63047757  0.31560379  0.03814791  1
  O  O91  1  0.63047757  0.81560379  0.03814791  1
  O  O92  1  0.15410002  0.03285802  0.19822986  1
  O  O93  1  0.15410002  0.53285802  0.19822986  1
  O  O94  1  0.65410002  0.03285802  0.19822986  1
  O  O95  1  0.65410002  0.53285802  0.19822986  1
  O  O96  1  0.44475581  0.26801062  0.60556163  1
  O  O97  1  0.44475581  0.76801062  0.60556163  1
  O  O98  1  0.94475581  0.26801062  0.60556163  1
  O  O99  1  0.94475581  0.76801062  0.60556163  1
  O  O100  1  0.34589998  0.28285802  0.30177014  1
  O  O101  1  0.34589998  0.78285802  0.30177014  1
  O  O102  1  0.84589998  0.28285802  0.30177014  1
  O  O103  1  0.84589998  0.78285802  0.30177014  1
  O  O104  1  0.34589998  0.46714198  0.80177014  1
  O  O105  1  0.34589998  0.96714198  0.80177014  1
  O  O106  1  0.84589998  0.46714198  0.80177014  1
  O  O107  1  0.84589998  0.96714198  0.80177014  1
  O  O108  1  0.05524419  0.01801062  0.89443837  1
  O  O109  1  0.05524419  0.51801062  0.89443837  1
  O  O110  1  0.55524419  0.01801062  0.89443837  1
  O  O111  1  0.55524419  0.51801062  0.89443837  1
