# generated using pymatgen
data_Sr2CaMoO6
_symmetry_space_group_name_H-M   'P 1'
_cell_length_a   17.16471549
_cell_length_b   17.61972854
_cell_length_c   19.88181981
_cell_angle_alpha   90.00000000
_cell_angle_beta   124.93118312
_cell_angle_gamma   90.00000000
_symmetry_Int_Tables_number   1
_chemical_formula_structural   Sr2CaMoO6
_chemical_formula_sum   'Sr72 Ca36 Mo36 O216'
_cell_volume   4929.70865033
_cell_formula_units_Z   36
loop_
 _symmetry_equiv_pos_site_id
 _symmetry_equiv_pos_as_xyz
  1  'x, y, z'
loop_
 _atom_site_type_symbol
 _atom_site_label
 _atom_site_symmetry_multiplicity
 _atom_site_fract_x
 _atom_site_fract_y
 _atom_site_fract_z
 _atom_site_occupancy
  Sr  Sr0  1  0.24684994  0.18250628  0.12587879  1
  Sr  Sr1  1  0.24684994  0.18250628  0.62587879  1
  Sr  Sr2  1  0.24684994  0.51583961  0.12587879  1
  Sr  Sr3  1  0.24684994  0.51583961  0.62587879  1
  Sr  Sr4  1  0.24684994  0.84917294  0.12587879  1
  Sr  Sr5  1  0.24684994  0.84917294  0.62587879  1
  Sr  Sr6  1  0.58018327  0.18250628  0.12587879  1
  Sr  Sr7  1  0.58018327  0.18250628  0.62587879  1
  Sr  Sr8  1  0.58018327  0.51583961  0.12587879  1
  Sr  Sr9  1  0.58018327  0.51583961  0.62587879  1
  Sr  Sr10  1  0.58018327  0.84917294  0.12587879  1
  Sr  Sr11  1  0.58018327  0.84917294  0.62587879  1
  Sr  Sr12  1  0.91351661  0.18250628  0.12587879  1
  Sr  Sr13  1  0.91351661  0.18250628  0.62587879  1
  Sr  Sr14  1  0.91351661  0.51583961  0.12587879  1
  Sr  Sr15  1  0.91351661  0.51583961  0.62587879  1
  Sr  Sr16  1  0.91351661  0.84917294  0.12587879  1
  Sr  Sr17  1  0.91351661  0.84917294  0.62587879  1
  Sr  Sr18  1  0.08648339  0.01583961  0.12412121  1
  Sr  Sr19  1  0.08648339  0.01583961  0.62412121  1
  Sr  Sr20  1  0.08648339  0.34917294  0.12412121  1
  Sr  Sr21  1  0.08648339  0.34917294  0.62412121  1
  Sr  Sr22  1  0.08648339  0.68250628  0.12412121  1
  Sr  Sr23  1  0.08648339  0.68250628  0.62412121  1
  Sr  Sr24  1  0.41981673  0.01583961  0.12412121  1
  Sr  Sr25  1  0.41981673  0.01583961  0.62412121  1
  Sr  Sr26  1  0.41981673  0.34917294  0.12412121  1
  Sr  Sr27  1  0.41981673  0.34917294  0.62412121  1
  Sr  Sr28  1  0.41981673  0.68250628  0.12412121  1
  Sr  Sr29  1  0.41981673  0.68250628  0.62412121  1
  Sr  Sr30  1  0.75315006  0.01583961  0.12412121  1
  Sr  Sr31  1  0.75315006  0.01583961  0.62412121  1
  Sr  Sr32  1  0.75315006  0.34917294  0.12412121  1
  Sr  Sr33  1  0.75315006  0.34917294  0.62412121  1
  Sr  Sr34  1  0.75315006  0.68250628  0.12412121  1
  Sr  Sr35  1  0.75315006  0.68250628  0.62412121  1
  Sr  Sr36  1  0.24684994  0.31749372  0.37587879  1
  Sr  Sr37  1  0.24684994  0.31749372  0.87587879  1
  Sr  Sr38  1  0.24684994  0.65082706  0.37587879  1
  Sr  Sr39  1  0.24684994  0.65082706  0.87587879  1
  Sr  Sr40  1  0.24684994  0.98416039  0.37587879  1
  Sr  Sr41  1  0.24684994  0.98416039  0.87587879  1
  Sr  Sr42  1  0.58018327  0.31749372  0.37587879  1
  Sr  Sr43  1  0.58018327  0.31749372  0.87587879  1
  Sr  Sr44  1  0.58018327  0.65082706  0.37587879  1
  Sr  Sr45  1  0.58018327  0.65082706  0.87587879  1
  Sr  Sr46  1  0.58018327  0.98416039  0.37587879  1
  Sr  Sr47  1  0.58018327  0.98416039  0.87587879  1
  Sr  Sr48  1  0.91351661  0.31749372  0.37587879  1
  Sr  Sr49  1  0.91351661  0.31749372  0.87587879  1
  Sr  Sr50  1  0.91351661  0.65082706  0.37587879  1
  Sr  Sr51  1  0.91351661  0.65082706  0.87587879  1
  Sr  Sr52  1  0.91351661  0.98416039  0.37587879  1
  Sr  Sr53  1  0.91351661  0.98416039  0.87587879  1
  Sr  Sr54  1  0.08648339  0.15082706  0.37412121  1
  Sr  Sr55  1  0.08648339  0.15082706  0.87412121  1
  Sr  Sr56  1  0.08648339  0.48416039  0.37412121  1
  Sr  Sr57  1  0.08648339  0.48416039  0.87412121  1
  Sr  Sr58  1  0.08648339  0.81749372  0.37412121  1
  Sr  Sr59  1  0.08648339  0.81749372  0.87412121  1
  Sr  Sr60  1  0.41981673  0.15082706  0.37412121  1
  Sr  Sr61  1  0.41981673  0.15082706  0.87412121  1
  Sr  Sr62  1  0.41981673  0.48416039  0.37412121  1
  Sr  Sr63  1  0.41981673  0.48416039  0.87412121  1
  Sr  Sr64  1  0.41981673  0.81749372  0.37412121  1
  Sr  Sr65  1  0.41981673  0.81749372  0.87412121  1
  Sr  Sr66  1  0.75315006  0.15082706  0.37412121  1
  Sr  Sr67  1  0.75315006  0.15082706  0.87412121  1
  Sr  Sr68  1  0.75315006  0.48416039  0.37412121  1
  Sr  Sr69  1  0.75315006  0.48416039  0.87412121  1
  Sr  Sr70  1  0.75315006  0.81749372  0.37412121  1
  Sr  Sr71  1  0.75315006  0.81749372  0.87412121  1
  Ca  Ca72  1  0.00000000  0.00000000  0.25000000  1
  Ca  Ca73  1  -0.00000000  0.00000000  0.75000000  1
  Ca  Ca74  1  0.00000000  0.33333333  0.25000000  1
  Ca  Ca75  1  -0.00000000  0.33333333  0.75000000  1
  Ca  Ca76  1  0.00000000  0.66666667  0.25000000  1
  Ca  Ca77  1  -0.00000000  0.66666667  0.75000000  1
  Ca  Ca78  1  0.33333333  0.00000000  0.25000000  1
  Ca  Ca79  1  0.33333333  0.00000000  0.75000000  1
  Ca  Ca80  1  0.33333333  0.33333333  0.25000000  1
  Ca  Ca81  1  0.33333333  0.33333333  0.75000000  1
  Ca  Ca82  1  0.33333333  0.66666667  0.25000000  1
  Ca  Ca83  1  0.33333333  0.66666667  0.75000000  1
  Ca  Ca84  1  0.66666667  0.00000000  0.25000000  1
  Ca  Ca85  1  0.66666667  0.00000000  0.75000000  1
  Ca  Ca86  1  0.66666667  0.33333333  0.25000000  1
  Ca  Ca87  1  0.66666667  0.33333333  0.75000000  1
  Ca  Ca88  1  0.66666667  0.66666667  0.25000000  1
  Ca  Ca89  1  0.66666667  0.66666667  0.75000000  1
  Ca  Ca90  1  0.00000000  0.16666667  0.00000000  1
  Ca  Ca91  1  -0.00000000  0.16666667  0.50000000  1
  Ca  Ca92  1  0.00000000  0.50000000  0.00000000  1
  Ca  Ca93  1  -0.00000000  0.50000000  0.50000000  1
  Ca  Ca94  1  0.00000000  0.83333333  0.00000000  1
  Ca  Ca95  1  -0.00000000  0.83333333  0.50000000  1
  Ca  Ca96  1  0.33333333  0.16666667  0.00000000  1
  Ca  Ca97  1  0.33333333  0.16666667  0.50000000  1
  Ca  Ca98  1  0.33333333  0.50000000  0.00000000  1
  Ca  Ca99  1  0.33333333  0.50000000  0.50000000  1
  Ca  Ca100  1  0.33333333  0.83333333  0.00000000  1
  Ca  Ca101  1  0.33333333  0.83333333  0.50000000  1
  Ca  Ca102  1  0.66666667  0.16666667  0.00000000  1
  Ca  Ca103  1  0.66666667  0.16666667  0.50000000  1
  Ca  Ca104  1  0.66666667  0.50000000  0.00000000  1
  Ca  Ca105  1  0.66666667  0.50000000  0.50000000  1
  Ca  Ca106  1  0.66666667  0.83333333  0.00000000  1
  Ca  Ca107  1  0.66666667  0.83333333  0.50000000  1
  Mo  Mo108  1  0.16666667  0.00000000  0.00000000  1
  Mo  Mo109  1  0.16666667  0.00000000  0.50000000  1
  Mo  Mo110  1  0.16666667  0.33333333  0.00000000  1
  Mo  Mo111  1  0.16666667  0.33333333  0.50000000  1
  Mo  Mo112  1  0.16666667  0.66666667  0.00000000  1
  Mo  Mo113  1  0.16666667  0.66666667  0.50000000  1
  Mo  Mo114  1  0.50000000  0.00000000  0.00000000  1
  Mo  Mo115  1  0.50000000  0.00000000  0.50000000  1
  Mo  Mo116  1  0.50000000  0.33333333  0.00000000  1
  Mo  Mo117  1  0.50000000  0.33333333  0.50000000  1
  Mo  Mo118  1  0.50000000  0.66666667  0.00000000  1
  Mo  Mo119  1  0.50000000  0.66666667  0.50000000  1
  Mo  Mo120  1  0.83333333  0.00000000  0.00000000  1
  Mo  Mo121  1  0.83333333  0.00000000  0.50000000  1
  Mo  Mo122  1  0.83333333  0.33333333  0.00000000  1
  Mo  Mo123  1  0.83333333  0.33333333  0.50000000  1
  Mo  Mo124  1  0.83333333  0.66666667  0.00000000  1
  Mo  Mo125  1  0.83333333  0.66666667  0.50000000  1
  Mo  Mo126  1  0.16666667  0.16666667  0.25000000  1
  Mo  Mo127  1  0.16666667  0.16666667  0.75000000  1
  Mo  Mo128  1  0.16666667  0.50000000  0.25000000  1
  Mo  Mo129  1  0.16666667  0.50000000  0.75000000  1
  Mo  Mo130  1  0.16666667  0.83333333  0.25000000  1
  Mo  Mo131  1  0.16666667  0.83333333  0.75000000  1
  Mo  Mo132  1  0.50000000  0.16666667  0.25000000  1
  Mo  Mo133  1  0.50000000  0.16666667  0.75000000  1
  Mo  Mo134  1  0.50000000  0.50000000  0.25000000  1
  Mo  Mo135  1  0.50000000  0.50000000  0.75000000  1
  Mo  Mo136  1  0.50000000  0.83333333  0.25000000  1
  Mo  Mo137  1  0.50000000  0.83333333  0.75000000  1
  Mo  Mo138  1  0.83333333  0.16666667  0.25000000  1
  Mo  Mo139  1  0.83333333  0.16666667  0.75000000  1
  Mo  Mo140  1  0.83333333  0.50000000  0.25000000  1
  Mo  Mo141  1  0.83333333  0.50000000  0.75000000  1
  Mo  Mo142  1  0.83333333  0.83333333  0.25000000  1
  Mo  Mo143  1  0.83333333  0.83333333  0.75000000  1
  O  O144  1  0.27155426  0.17642668  0.36418728  1
  O  O145  1  0.27155426  0.17642668  0.86418728  1
  O  O146  1  0.27155426  0.50976001  0.36418728  1
  O  O147  1  0.27155426  0.50976001  0.86418728  1
  O  O148  1  0.27155426  0.84309335  0.36418728  1
  O  O149  1  0.27155426  0.84309335  0.86418728  1
  O  O150  1  0.60488760  0.17642668  0.36418728  1
  O  O151  1  0.60488760  0.17642668  0.86418728  1
  O  O152  1  0.60488760  0.50976001  0.36418728  1
  O  O153  1  0.60488760  0.50976001  0.86418728  1
  O  O154  1  0.60488760  0.84309335  0.36418728  1
  O  O155  1  0.60488760  0.84309335  0.86418728  1
  O  O156  1  0.93822093  0.17642668  0.36418728  1
  O  O157  1  0.93822093  0.17642668  0.86418728  1
  O  O158  1  0.93822093  0.50976001  0.36418728  1
  O  O159  1  0.93822093  0.50976001  0.86418728  1
  O  O160  1  0.93822093  0.84309335  0.36418728  1
  O  O161  1  0.93822093  0.84309335  0.86418728  1
  O  O162  1  0.06177907  0.00976001  0.38581272  1
  O  O163  1  0.06177907  0.00976001  0.88581272  1
  O  O164  1  0.06177907  0.34309335  0.38581272  1
  O  O165  1  0.06177907  0.34309335  0.88581272  1
  O  O166  1  0.06177907  0.67642668  0.38581272  1
  O  O167  1  0.06177907  0.67642668  0.88581272  1
  O  O168  1  0.39511240  0.00976001  0.38581272  1
  O  O169  1  0.39511240  0.00976001  0.88581272  1
  O  O170  1  0.39511240  0.34309335  0.38581272  1
  O  O171  1  0.39511240  0.34309335  0.88581272  1
  O  O172  1  0.39511240  0.67642668  0.38581272  1
  O  O173  1  0.39511240  0.67642668  0.88581272  1
  O  O174  1  0.72844574  0.00976001  0.38581272  1
  O  O175  1  0.72844574  0.00976001  0.88581272  1
  O  O176  1  0.72844574  0.34309335  0.38581272  1
  O  O177  1  0.72844574  0.34309335  0.88581272  1
  O  O178  1  0.72844574  0.67642668  0.38581272  1
  O  O179  1  0.72844574  0.67642668  0.88581272  1
  O  O180  1  0.06177907  0.15690665  0.13581272  1
  O  O181  1  0.06177907  0.15690665  0.63581272  1
  O  O182  1  0.06177907  0.49023999  0.13581272  1
  O  O183  1  0.06177907  0.49023999  0.63581272  1
  O  O184  1  0.06177907  0.82357332  0.13581272  1
  O  O185  1  0.06177907  0.82357332  0.63581272  1
  O  O186  1  0.39511240  0.15690665  0.13581272  1
  O  O187  1  0.39511240  0.15690665  0.63581272  1
  O  O188  1  0.39511240  0.49023999  0.13581272  1
  O  O189  1  0.39511240  0.49023999  0.63581272  1
  O  O190  1  0.39511240  0.82357332  0.13581272  1
  O  O191  1  0.39511240  0.82357332  0.63581272  1
  O  O192  1  0.72844574  0.15690665  0.13581272  1
  O  O193  1  0.72844574  0.15690665  0.63581272  1
  O  O194  1  0.72844574  0.49023999  0.13581272  1
  O  O195  1  0.72844574  0.49023999  0.63581272  1
  O  O196  1  0.72844574  0.82357332  0.13581272  1
  O  O197  1  0.72844574  0.82357332  0.63581272  1
  O  O198  1  0.27155426  0.32357332  0.11418728  1
  O  O199  1  0.27155426  0.32357332  0.61418728  1
  O  O200  1  0.27155426  0.65690665  0.11418728  1
  O  O201  1  0.27155426  0.65690665  0.61418728  1
  O  O202  1  0.27155426  0.99023999  0.11418728  1
  O  O203  1  0.27155426  0.99023999  0.61418728  1
  O  O204  1  0.60488760  0.32357332  0.11418728  1
  O  O205  1  0.60488760  0.32357332  0.61418728  1
  O  O206  1  0.60488760  0.65690665  0.11418728  1
  O  O207  1  0.60488760  0.65690665  0.61418728  1
  O  O208  1  0.60488760  0.99023999  0.11418728  1
  O  O209  1  0.60488760  0.99023999  0.61418728  1
  O  O210  1  0.93822093  0.32357332  0.11418728  1
  O  O211  1  0.93822093  0.32357332  0.61418728  1
  O  O212  1  0.93822093  0.65690665  0.11418728  1
  O  O213  1  0.93822093  0.65690665  0.61418728  1
  O  O214  1  0.93822093  0.99023999  0.11418728  1
  O  O215  1  0.93822093  0.99023999  0.61418728  1
  O  O216  1  0.21106773  0.25677225  0.22485559  1
  O  O217  1  0.21106773  0.25677225  0.72485559  1
  O  O218  1  0.21106773  0.59010559  0.22485559  1
  O  O219  1  0.21106773  0.59010559  0.72485559  1
  O  O220  1  0.21106773  0.92343892  0.22485559  1
  O  O221  1  0.21106773  0.92343892  0.72485559  1
  O  O222  1  0.54440107  0.25677225  0.22485559  1
  O  O223  1  0.54440107  0.25677225  0.72485559  1
  O  O224  1  0.54440107  0.59010559  0.22485559  1
  O  O225  1  0.54440107  0.59010559  0.72485559  1
  O  O226  1  0.54440107  0.92343892  0.22485559  1
  O  O227  1  0.54440107  0.92343892  0.72485559  1
  O  O228  1  0.87773440  0.25677225  0.22485559  1
  O  O229  1  0.87773440  0.25677225  0.72485559  1
  O  O230  1  0.87773440  0.59010559  0.22485559  1
  O  O231  1  0.87773440  0.59010559  0.72485559  1
  O  O232  1  0.87773440  0.92343892  0.22485559  1
  O  O233  1  0.87773440  0.92343892  0.72485559  1
  O  O234  1  0.12226560  0.09010559  0.02514441  1
  O  O235  1  0.12226560  0.09010559  0.52514441  1
  O  O236  1  0.12226560  0.42343892  0.02514441  1
  O  O237  1  0.12226560  0.42343892  0.52514441  1
  O  O238  1  0.12226560  0.75677225  0.02514441  1
  O  O239  1  0.12226560  0.75677225  0.52514441  1
  O  O240  1  0.45559893  0.09010559  0.02514441  1
  O  O241  1  0.45559893  0.09010559  0.52514441  1
  O  O242  1  0.45559893  0.42343892  0.02514441  1
  O  O243  1  0.45559893  0.42343892  0.52514441  1
  O  O244  1  0.45559893  0.75677225  0.02514441  1
  O  O245  1  0.45559893  0.75677225  0.52514441  1
  O  O246  1  0.78893227  0.09010559  0.02514441  1
  O  O247  1  0.78893227  0.09010559  0.52514441  1
  O  O248  1  0.78893227  0.42343892  0.02514441  1
  O  O249  1  0.78893227  0.42343892  0.52514441  1
  O  O250  1  0.78893227  0.75677225  0.02514441  1
  O  O251  1  0.78893227  0.75677225  0.52514441  1
  O  O252  1  0.12226560  0.07656108  0.27514441  1
  O  O253  1  0.12226560  0.07656108  0.77514441  1
  O  O254  1  0.12226560  0.40989441  0.27514441  1
  O  O255  1  0.12226560  0.40989441  0.77514441  1
  O  O256  1  0.12226560  0.74322775  0.27514441  1
  O  O257  1  0.12226560  0.74322775  0.77514441  1
  O  O258  1  0.45559893  0.07656108  0.27514441  1
  O  O259  1  0.45559893  0.07656108  0.77514441  1
  O  O260  1  0.45559893  0.40989441  0.27514441  1
  O  O261  1  0.45559893  0.40989441  0.77514441  1
  O  O262  1  0.45559893  0.74322775  0.27514441  1
  O  O263  1  0.45559893  0.74322775  0.77514441  1
  O  O264  1  0.78893227  0.07656108  0.27514441  1
  O  O265  1  0.78893227  0.07656108  0.77514441  1
  O  O266  1  0.78893227  0.40989441  0.27514441  1
  O  O267  1  0.78893227  0.40989441  0.77514441  1
  O  O268  1  0.78893227  0.74322775  0.27514441  1
  O  O269  1  0.78893227  0.74322775  0.77514441  1
  O  O270  1  0.21106773  0.24322775  0.47485559  1
  O  O271  1  0.21106773  0.24322775  0.97485559  1
  O  O272  1  0.21106773  0.57656108  0.47485559  1
  O  O273  1  0.21106773  0.57656108  0.97485559  1
  O  O274  1  0.21106773  0.90989441  0.47485559  1
  O  O275  1  0.21106773  0.90989441  0.97485559  1
  O  O276  1  0.54440107  0.24322775  0.47485559  1
  O  O277  1  0.54440107  0.24322775  0.97485559  1
  O  O278  1  0.54440107  0.57656108  0.47485559  1
  O  O279  1  0.54440107  0.57656108  0.97485559  1
  O  O280  1  0.54440107  0.90989441  0.47485559  1
  O  O281  1  0.54440107  0.90989441  0.97485559  1
  O  O282  1  0.87773440  0.24322775  0.47485559  1
  O  O283  1  0.87773440  0.24322775  0.97485559  1
  O  O284  1  0.87773440  0.57656108  0.47485559  1
  O  O285  1  0.87773440  0.57656108  0.97485559  1
  O  O286  1  0.87773440  0.90989441  0.47485559  1
  O  O287  1  0.87773440  0.90989441  0.97485559  1
  O  O288  1  0.24345603  0.06249341  0.47914754  1
  O  O289  1  0.24345603  0.06249341  0.97914754  1
  O  O290  1  0.24345603  0.39582675  0.47914754  1
  O  O291  1  0.24345603  0.39582675  0.97914754  1
  O  O292  1  0.24345603  0.72916008  0.47914754  1
  O  O293  1  0.24345603  0.72916008  0.97914754  1
  O  O294  1  0.57678936  0.06249341  0.47914754  1
  O  O295  1  0.57678936  0.06249341  0.97914754  1
  O  O296  1  0.57678936  0.39582675  0.47914754  1
  O  O297  1  0.57678936  0.39582675  0.97914754  1
  O  O298  1  0.57678936  0.72916008  0.47914754  1
  O  O299  1  0.57678936  0.72916008  0.97914754  1
  O  O300  1  0.91012269  0.06249341  0.47914754  1
  O  O301  1  0.91012269  0.06249341  0.97914754  1
  O  O302  1  0.91012269  0.39582675  0.47914754  1
  O  O303  1  0.91012269  0.39582675  0.97914754  1
  O  O304  1  0.91012269  0.72916008  0.47914754  1
  O  O305  1  0.91012269  0.72916008  0.97914754  1
  O  O306  1  0.08987731  0.22916008  0.27085246  1
  O  O307  1  0.08987731  0.22916008  0.77085246  1
  O  O308  1  0.08987731  0.56249341  0.27085246  1
  O  O309  1  0.08987731  0.56249341  0.77085246  1
  O  O310  1  0.08987731  0.89582675  0.27085246  1
  O  O311  1  0.08987731  0.89582675  0.77085246  1
  O  O312  1  0.42321064  0.22916008  0.27085246  1
  O  O313  1  0.42321064  0.22916008  0.77085246  1
  O  O314  1  0.42321064  0.56249341  0.27085246  1
  O  O315  1  0.42321064  0.56249341  0.77085246  1
  O  O316  1  0.42321064  0.89582675  0.27085246  1
  O  O317  1  0.42321064  0.89582675  0.77085246  1
  O  O318  1  0.75654397  0.22916008  0.27085246  1
  O  O319  1  0.75654397  0.22916008  0.77085246  1
  O  O320  1  0.75654397  0.56249341  0.27085246  1
  O  O321  1  0.75654397  0.56249341  0.77085246  1
  O  O322  1  0.75654397  0.89582675  0.27085246  1
  O  O323  1  0.75654397  0.89582675  0.77085246  1
  O  O324  1  0.08987731  0.27083992  0.02085246  1
  O  O325  1  0.08987731  0.27083992  0.52085246  1
  O  O326  1  0.08987731  0.60417325  0.02085246  1
  O  O327  1  0.08987731  0.60417325  0.52085246  1
  O  O328  1  0.08987731  0.93750659  0.02085246  1
  O  O329  1  0.08987731  0.93750659  0.52085246  1
  O  O330  1  0.42321064  0.27083992  0.02085246  1
  O  O331  1  0.42321064  0.27083992  0.52085246  1
  O  O332  1  0.42321064  0.60417325  0.02085246  1
  O  O333  1  0.42321064  0.60417325  0.52085246  1
  O  O334  1  0.42321064  0.93750659  0.02085246  1
  O  O335  1  0.42321064  0.93750659  0.52085246  1
  O  O336  1  0.75654397  0.27083992  0.02085246  1
  O  O337  1  0.75654397  0.27083992  0.52085246  1
  O  O338  1  0.75654397  0.60417325  0.02085246  1
  O  O339  1  0.75654397  0.60417325  0.52085246  1
  O  O340  1  0.75654397  0.93750659  0.02085246  1
  O  O341  1  0.75654397  0.93750659  0.52085246  1
  O  O342  1  0.24345603  0.10417325  0.22914754  1
  O  O343  1  0.24345603  0.10417325  0.72914754  1
  O  O344  1  0.24345603  0.43750659  0.22914754  1
  O  O345  1  0.24345603  0.43750659  0.72914754  1
  O  O346  1  0.24345603  0.77083992  0.22914754  1
  O  O347  1  0.24345603  0.77083992  0.72914754  1
  O  O348  1  0.57678936  0.10417325  0.22914754  1
  O  O349  1  0.57678936  0.10417325  0.72914754  1
  O  O350  1  0.57678936  0.43750659  0.22914754  1
  O  O351  1  0.57678936  0.43750659  0.72914754  1
  O  O352  1  0.57678936  0.77083992  0.22914754  1
  O  O353  1  0.57678936  0.77083992  0.72914754  1
  O  O354  1  0.91012269  0.10417325  0.22914754  1
  O  O355  1  0.91012269  0.10417325  0.72914754  1
  O  O356  1  0.91012269  0.43750659  0.22914754  1
  O  O357  1  0.91012269  0.43750659  0.72914754  1
  O  O358  1  0.91012269  0.77083992  0.22914754  1
  O  O359  1  0.91012269  0.77083992  0.72914754  1
