# generated using pymatgen
data_Rb2LiAsO4
_symmetry_space_group_name_H-M   'P 1'
_cell_length_a   11.61000681
_cell_length_b   11.75257182
_cell_length_c   15.69926543
_cell_angle_alpha   90.00000000
_cell_angle_beta   90.00000000
_cell_angle_gamma   90.00000000
_symmetry_Int_Tables_number   1
_chemical_formula_structural   Rb2LiAsO4
_chemical_formula_sum   'Rb32 Li16 As16 O64'
_cell_volume   2142.12456052
_cell_formula_units_Z   16
loop_
 _symmetry_equiv_pos_site_id
 _symmetry_equiv_pos_as_xyz
  1  'x, y, z'
loop_
 _atom_site_type_symbol
 _atom_site_label
 _atom_site_symmetry_multiplicity
 _atom_site_fract_x
 _atom_site_fract_y
 _atom_site_fract_z
 _atom_site_occupancy
  Rb  Rb0  1  0.25000000  -0.44194806  0.42463054  1
  Rb  Rb1  1  0.25000000  -0.44194806  0.92463054  1
  Rb  Rb2  1  0.75000000  -0.44194806  0.42463054  1
  Rb  Rb3  1  0.75000000  -0.44194806  0.92463054  1
  Rb  Rb4  1  0.50000000  0.05805194  0.42463054  1
  Rb  Rb5  1  0.50000000  0.05805194  0.92463054  1
  Rb  Rb6  1  1.00000000  0.05805194  0.42463054  1
  Rb  Rb7  1  1.00000000  0.05805194  0.92463054  1
  Rb  Rb8  1  0.25000000  0.44194806  0.17463054  1
  Rb  Rb9  1  0.25000000  0.44194806  0.67463054  1
  Rb  Rb10  1  0.75000000  0.44194806  0.17463054  1
  Rb  Rb11  1  0.75000000  0.44194806  0.67463054  1
  Rb  Rb12  1  0.50000000  0.94194806  0.17463054  1
  Rb  Rb13  1  0.50000000  0.94194806  0.67463054  1
  Rb  Rb14  1  1.00000000  0.94194806  0.17463054  1
  Rb  Rb15  1  1.00000000  0.94194806  0.67463054  1
  Rb  Rb16  1  0.25000000  0.10241614  0.24844101  1
  Rb  Rb17  1  0.25000000  0.10241614  0.74844101  1
  Rb  Rb18  1  0.75000000  0.10241614  0.24844101  1
  Rb  Rb19  1  0.75000000  0.10241614  0.74844101  1
  Rb  Rb20  1  0.50000000  0.60241614  0.24844101  1
  Rb  Rb21  1  0.50000000  0.60241614  0.74844101  1
  Rb  Rb22  1  1.00000000  0.60241614  0.24844101  1
  Rb  Rb23  1  1.00000000  0.60241614  0.74844101  1
  Rb  Rb24  1  0.25000000  -0.10241614  0.49844101  1
  Rb  Rb25  1  0.25000000  -0.10241614  0.99844101  1
  Rb  Rb26  1  0.75000000  -0.10241614  0.49844101  1
  Rb  Rb27  1  0.75000000  -0.10241614  0.99844101  1
  Rb  Rb28  1  0.50000000  0.39758386  0.49844101  1
  Rb  Rb29  1  0.50000000  0.39758386  0.99844101  1
  Rb  Rb30  1  1.00000000  0.39758386  0.49844101  1
  Rb  Rb31  1  1.00000000  0.39758386  0.99844101  1
  Li  Li32  1  0.25000000  0.29640001  0.38452285  1
  Li  Li33  1  0.25000000  0.29640001  0.88452285  1
  Li  Li34  1  0.75000000  0.29640001  0.38452285  1
  Li  Li35  1  0.75000000  0.29640001  0.88452285  1
  Li  Li36  1  0.50000000  0.79640001  0.38452285  1
  Li  Li37  1  0.50000000  0.79640001  0.88452285  1
  Li  Li38  1  1.00000000  0.79640001  0.38452285  1
  Li  Li39  1  1.00000000  0.79640001  0.88452285  1
  Li  Li40  1  0.25000000  -0.29640001  0.13452285  1
  Li  Li41  1  0.25000000  -0.29640001  0.63452285  1
  Li  Li42  1  0.75000000  -0.29640001  0.13452285  1
  Li  Li43  1  0.75000000  -0.29640001  0.63452285  1
  Li  Li44  1  0.50000000  0.20359999  0.13452285  1
  Li  Li45  1  0.50000000  0.20359999  0.63452285  1
  Li  Li46  1  1.00000000  0.20359999  0.13452285  1
  Li  Li47  1  1.00000000  0.20359999  0.63452285  1
  As  As48  1  0.25000000  0.18773407  0.02783301  1
  As  As49  1  0.25000000  0.18773407  0.52783301  1
  As  As50  1  0.75000000  0.18773407  0.02783301  1
  As  As51  1  0.75000000  0.18773407  0.52783301  1
  As  As52  1  0.50000000  0.68773407  0.02783301  1
  As  As53  1  0.50000000  0.68773407  0.52783301  1
  As  As54  1  1.00000000  0.68773407  0.02783301  1
  As  As55  1  1.00000000  0.68773407  0.52783301  1
  As  As56  1  0.25000000  -0.18773407  0.27783301  1
  As  As57  1  0.25000000  -0.18773407  0.77783301  1
  As  As58  1  0.75000000  -0.18773407  0.27783301  1
  As  As59  1  0.75000000  -0.18773407  0.77783301  1
  As  As60  1  0.50000000  0.31226593  0.27783301  1
  As  As61  1  0.50000000  0.31226593  0.77783301  1
  As  As62  1  1.00000000  0.31226593  0.27783301  1
  As  As63  1  1.00000000  0.31226593  0.77783301  1
  O  O64  1  0.13018648  0.14061419  0.08065323  1
  O  O65  1  0.13018648  0.14061419  0.58065323  1
  O  O66  1  0.63018648  0.14061419  0.08065323  1
  O  O67  1  0.63018648  0.14061419  0.58065323  1
  O  O68  1  0.38018648  0.64061419  0.08065323  1
  O  O69  1  0.38018648  0.64061419  0.58065323  1
  O  O70  1  0.88018648  0.64061419  0.08065323  1
  O  O71  1  0.88018648  0.64061419  0.58065323  1
  O  O72  1  0.36981352  -0.14061419  0.33065323  1
  O  O73  1  0.36981352  -0.14061419  0.83065323  1
  O  O74  1  0.86981352  -0.14061419  0.33065323  1
  O  O75  1  0.86981352  -0.14061419  0.83065323  1
  O  O76  1  0.61981352  0.35938581  0.33065323  1
  O  O77  1  0.61981352  0.35938581  0.83065323  1
  O  O78  1  1.11981352  0.35938581  0.33065323  1
  O  O79  1  1.11981352  0.35938581  0.83065323  1
  O  O80  1  0.25000000  0.13294784  0.42594223  1
  O  O81  1  0.25000000  0.13294784  0.92594223  1
  O  O82  1  0.75000000  0.13294784  0.42594223  1
  O  O83  1  0.75000000  0.13294784  0.92594223  1
  O  O84  1  0.50000000  0.63294784  0.42594223  1
  O  O85  1  0.50000000  0.63294784  0.92594223  1
  O  O86  1  1.00000000  0.63294784  0.42594223  1
  O  O87  1  1.00000000  0.63294784  0.92594223  1
  O  O88  1  0.25000000  -0.13294784  0.17594223  1
  O  O89  1  0.25000000  -0.13294784  0.67594223  1
  O  O90  1  0.75000000  -0.13294784  0.17594223  1
  O  O91  1  0.75000000  -0.13294784  0.67594223  1
  O  O92  1  0.50000000  0.36705216  0.17594223  1
  O  O93  1  0.50000000  0.36705216  0.67594223  1
  O  O94  1  1.00000000  0.36705216  0.17594223  1
  O  O95  1  1.00000000  0.36705216  0.67594223  1
  O  O96  1  0.36981352  0.14061419  0.08065323  1
  O  O97  1  0.36981352  0.14061419  0.58065323  1
  O  O98  1  0.86981352  0.14061419  0.08065323  1
  O  O99  1  0.86981352  0.14061419  0.58065323  1
  O  O100  1  0.61981352  0.64061419  0.08065323  1
  O  O101  1  0.61981352  0.64061419  0.58065323  1
  O  O102  1  1.11981352  0.64061419  0.08065323  1
  O  O103  1  1.11981352  0.64061419  0.58065323  1
  O  O104  1  0.13018648  -0.14061419  0.33065323  1
  O  O105  1  0.13018648  -0.14061419  0.83065323  1
  O  O106  1  0.63018648  -0.14061419  0.33065323  1
  O  O107  1  0.63018648  -0.14061419  0.83065323  1
  O  O108  1  0.38018648  0.35938581  0.33065323  1
  O  O109  1  0.38018648  0.35938581  0.83065323  1
  O  O110  1  0.88018648  0.35938581  0.33065323  1
  O  O111  1  0.88018648  0.35938581  0.83065323  1
  O  O112  1  0.25000000  -0.33315285  0.26277390  1
  O  O113  1  0.25000000  -0.33315285  0.76277390  1
  O  O114  1  0.75000000  -0.33315285  0.26277390  1
  O  O115  1  0.75000000  -0.33315285  0.76277390  1
  O  O116  1  0.50000000  0.16684715  0.26277390  1
  O  O117  1  0.50000000  0.16684715  0.76277390  1
  O  O118  1  1.00000000  0.16684715  0.26277390  1
  O  O119  1  1.00000000  0.16684715  0.76277390  1
  O  O120  1  0.25000000  0.33315285  0.01277390  1
  O  O121  1  0.25000000  0.33315285  0.51277390  1
  O  O122  1  0.75000000  0.33315285  0.01277390  1
  O  O123  1  0.75000000  0.33315285  0.51277390  1
  O  O124  1  0.50000000  0.83315285  0.01277390  1
  O  O125  1  0.50000000  0.83315285  0.51277390  1
  O  O126  1  1.00000000  0.83315285  0.01277390  1
  O  O127  1  1.00000000  0.83315285  0.51277390  1
