# generated using pymatgen
data_Tl3AsO4
_symmetry_space_group_name_H-M   'P 1'
_cell_length_a   17.22070422
_cell_length_b   17.22070422
_cell_length_c   15.55872740
_cell_angle_alpha   90.00000000
_cell_angle_beta   90.00000000
_cell_angle_gamma   120.00000000
_symmetry_Int_Tables_number   1
_chemical_formula_structural   Tl3AsO4
_chemical_formula_sum   'Tl72 As24 O96'
_cell_volume   3995.82553819
_cell_formula_units_Z   24
loop_
 _symmetry_equiv_pos_site_id
 _symmetry_equiv_pos_as_xyz
  1  'x, y, z'
loop_
 _atom_site_type_symbol
 _atom_site_label
 _atom_site_symmetry_multiplicity
 _atom_site_fract_x
 _atom_site_fract_y
 _atom_site_fract_z
 _atom_site_occupancy
  Tl  Tl0  1  0.04284885  0.17869274  0.16880017  1
  Tl  Tl1  1  0.04284885  0.17869274  0.50213351  1
  Tl  Tl2  1  0.04284885  0.17869274  0.83546684  1
  Tl  Tl3  1  0.04284885  0.67869274  0.16880017  1
  Tl  Tl4  1  0.04284885  0.67869274  0.50213351  1
  Tl  Tl5  1  0.04284885  0.67869274  0.83546684  1
  Tl  Tl6  1  0.54284885  0.17869274  0.16880017  1
  Tl  Tl7  1  0.54284885  0.17869274  0.50213351  1
  Tl  Tl8  1  0.54284885  0.17869274  0.83546684  1
  Tl  Tl9  1  0.54284885  0.67869274  0.16880017  1
  Tl  Tl10  1  0.54284885  0.67869274  0.50213351  1
  Tl  Tl11  1  0.54284885  0.67869274  0.83546684  1
  Tl  Tl12  1  0.32130726  0.36415611  0.16880017  1
  Tl  Tl13  1  0.32130726  0.36415611  0.50213351  1
  Tl  Tl14  1  0.32130726  0.36415611  0.83546684  1
  Tl  Tl15  1  0.32130726  0.86415611  0.16880017  1
  Tl  Tl16  1  0.32130726  0.86415611  0.50213351  1
  Tl  Tl17  1  0.32130726  0.86415611  0.83546684  1
  Tl  Tl18  1  0.82130726  0.36415611  0.16880017  1
  Tl  Tl19  1  0.82130726  0.36415611  0.50213351  1
  Tl  Tl20  1  0.82130726  0.36415611  0.83546684  1
  Tl  Tl21  1  0.82130726  0.86415611  0.16880017  1
  Tl  Tl22  1  0.82130726  0.86415611  0.50213351  1
  Tl  Tl23  1  0.82130726  0.86415611  0.83546684  1
  Tl  Tl24  1  0.36415611  0.04284885  0.00213351  1
  Tl  Tl25  1  0.36415611  0.04284885  0.33546684  1
  Tl  Tl26  1  0.36415611  0.04284885  0.66880017  1
  Tl  Tl27  1  0.36415611  0.54284885  0.00213351  1
  Tl  Tl28  1  0.36415611  0.54284885  0.33546684  1
  Tl  Tl29  1  0.36415611  0.54284885  0.66880017  1
  Tl  Tl30  1  0.86415611  0.04284885  0.00213351  1
  Tl  Tl31  1  0.86415611  0.04284885  0.33546684  1
  Tl  Tl32  1  0.86415611  0.04284885  0.66880017  1
  Tl  Tl33  1  0.86415611  0.54284885  0.00213351  1
  Tl  Tl34  1  0.86415611  0.54284885  0.33546684  1
  Tl  Tl35  1  0.86415611  0.54284885  0.66880017  1
  Tl  Tl36  1  0.45715115  0.32130726  0.00213351  1
  Tl  Tl37  1  0.45715115  0.32130726  0.33546684  1
  Tl  Tl38  1  0.45715115  0.32130726  0.66880017  1
  Tl  Tl39  1  0.45715115  0.82130726  0.00213351  1
  Tl  Tl40  1  0.45715115  0.82130726  0.33546684  1
  Tl  Tl41  1  0.45715115  0.82130726  0.66880017  1
  Tl  Tl42  1  0.95715115  0.32130726  0.00213351  1
  Tl  Tl43  1  0.95715115  0.32130726  0.33546684  1
  Tl  Tl44  1  0.95715115  0.32130726  0.66880017  1
  Tl  Tl45  1  0.95715115  0.82130726  0.00213351  1
  Tl  Tl46  1  0.95715115  0.82130726  0.33546684  1
  Tl  Tl47  1  0.95715115  0.82130726  0.66880017  1
  Tl  Tl48  1  0.17869274  0.13584389  0.00213351  1
  Tl  Tl49  1  0.17869274  0.13584389  0.33546684  1
  Tl  Tl50  1  0.17869274  0.13584389  0.66880017  1
  Tl  Tl51  1  0.17869274  0.63584389  0.00213351  1
  Tl  Tl52  1  0.17869274  0.63584389  0.33546684  1
  Tl  Tl53  1  0.17869274  0.63584389  0.66880017  1
  Tl  Tl54  1  0.67869274  0.13584389  0.00213351  1
  Tl  Tl55  1  0.67869274  0.13584389  0.33546684  1
  Tl  Tl56  1  0.67869274  0.13584389  0.66880017  1
  Tl  Tl57  1  0.67869274  0.63584389  0.00213351  1
  Tl  Tl58  1  0.67869274  0.63584389  0.33546684  1
  Tl  Tl59  1  0.67869274  0.63584389  0.66880017  1
  Tl  Tl60  1  0.13584389  0.45715115  0.16880017  1
  Tl  Tl61  1  0.13584389  0.45715115  0.50213351  1
  Tl  Tl62  1  0.13584389  0.45715115  0.83546684  1
  Tl  Tl63  1  0.13584389  0.95715115  0.16880017  1
  Tl  Tl64  1  0.13584389  0.95715115  0.50213351  1
  Tl  Tl65  1  0.13584389  0.95715115  0.83546684  1
  Tl  Tl66  1  0.63584389  0.45715115  0.16880017  1
  Tl  Tl67  1  0.63584389  0.45715115  0.50213351  1
  Tl  Tl68  1  0.63584389  0.45715115  0.83546684  1
  Tl  Tl69  1  0.63584389  0.95715115  0.16880017  1
  Tl  Tl70  1  0.63584389  0.95715115  0.50213351  1
  Tl  Tl71  1  0.63584389  0.95715115  0.83546684  1
  As  As72  1  0.33333333  0.16666667  0.16112381  1
  As  As73  1  0.33333333  0.16666667  0.49445715  1
  As  As74  1  0.33333333  0.16666667  0.82779048  1
  As  As75  1  0.33333333  0.66666667  0.16112381  1
  As  As76  1  0.33333333  0.66666667  0.49445715  1
  As  As77  1  0.33333333  0.66666667  0.82779048  1
  As  As78  1  0.83333333  0.16666667  0.16112381  1
  As  As79  1  0.83333333  0.16666667  0.49445715  1
  As  As80  1  0.83333333  0.16666667  0.82779048  1
  As  As81  1  0.83333333  0.66666667  0.16112381  1
  As  As82  1  0.83333333  0.66666667  0.49445715  1
  As  As83  1  0.83333333  0.66666667  0.82779048  1
  As  As84  1  0.16666667  0.33333333  0.32779048  1
  As  As85  1  0.16666667  0.33333333  0.66112381  1
  As  As86  1  0.16666667  0.33333333  0.99445715  1
  As  As87  1  0.16666667  0.83333333  0.32779048  1
  As  As88  1  0.16666667  0.83333333  0.66112381  1
  As  As89  1  0.16666667  0.83333333  0.99445715  1
  As  As90  1  0.66666667  0.33333333  0.32779048  1
  As  As91  1  0.66666667  0.33333333  0.66112381  1
  As  As92  1  0.66666667  0.33333333  0.99445715  1
  As  As93  1  0.66666667  0.83333333  0.32779048  1
  As  As94  1  0.66666667  0.83333333  0.66112381  1
  As  As95  1  0.66666667  0.83333333  0.99445715  1
  O  O96  1  0.06025911  0.25699978  0.02754381  1
  O  O97  1  0.06025911  0.25699978  0.36087715  1
  O  O98  1  0.06025911  0.25699978  0.69421048  1
  O  O99  1  0.06025911  0.75699978  0.02754381  1
  O  O100  1  0.06025911  0.75699978  0.36087715  1
  O  O101  1  0.06025911  0.75699978  0.69421048  1
  O  O102  1  0.56025911  0.25699978  0.02754381  1
  O  O103  1  0.56025911  0.25699978  0.36087715  1
  O  O104  1  0.56025911  0.25699978  0.69421048  1
  O  O105  1  0.56025911  0.75699978  0.02754381  1
  O  O106  1  0.56025911  0.75699978  0.36087715  1
  O  O107  1  0.56025911  0.75699978  0.69421048  1
  O  O108  1  0.30325932  0.06025911  0.19421048  1
  O  O109  1  0.30325932  0.06025911  0.52754381  1
  O  O110  1  0.30325932  0.06025911  0.86087715  1
  O  O111  1  0.30325932  0.56025911  0.19421048  1
  O  O112  1  0.30325932  0.56025911  0.52754381  1
  O  O113  1  0.30325932  0.56025911  0.86087715  1
  O  O114  1  0.80325932  0.06025911  0.19421048  1
  O  O115  1  0.80325932  0.06025911  0.52754381  1
  O  O116  1  0.80325932  0.06025911  0.86087715  1
  O  O117  1  0.80325932  0.56025911  0.19421048  1
  O  O118  1  0.80325932  0.56025911  0.52754381  1
  O  O119  1  0.80325932  0.56025911  0.86087715  1
  O  O120  1  0.25699978  0.19674068  0.19421048  1
  O  O121  1  0.25699978  0.19674068  0.52754381  1
  O  O122  1  0.25699978  0.19674068  0.86087715  1
  O  O123  1  0.25699978  0.69674068  0.19421048  1
  O  O124  1  0.25699978  0.69674068  0.52754381  1
  O  O125  1  0.25699978  0.69674068  0.86087715  1
  O  O126  1  0.75699978  0.19674068  0.19421048  1
  O  O127  1  0.75699978  0.19674068  0.52754381  1
  O  O128  1  0.75699978  0.19674068  0.86087715  1
  O  O129  1  0.75699978  0.69674068  0.19421048  1
  O  O130  1  0.75699978  0.69674068  0.52754381  1
  O  O131  1  0.75699978  0.69674068  0.86087715  1
  O  O132  1  0.24300022  0.30325932  0.02754381  1
  O  O133  1  0.24300022  0.30325932  0.36087715  1
  O  O134  1  0.24300022  0.30325932  0.69421048  1
  O  O135  1  0.24300022  0.80325932  0.02754381  1
  O  O136  1  0.24300022  0.80325932  0.36087715  1
  O  O137  1  0.24300022  0.80325932  0.69421048  1
  O  O138  1  0.74300022  0.30325932  0.02754381  1
  O  O139  1  0.74300022  0.30325932  0.36087715  1
  O  O140  1  0.74300022  0.30325932  0.69421048  1
  O  O141  1  0.74300022  0.80325932  0.02754381  1
  O  O142  1  0.74300022  0.80325932  0.36087715  1
  O  O143  1  0.74300022  0.80325932  0.69421048  1
  O  O144  1  0.33333333  0.16666667  0.04921090  1
  O  O145  1  0.33333333  0.16666667  0.38254423  1
  O  O146  1  0.33333333  0.16666667  0.71587756  1
  O  O147  1  0.33333333  0.66666667  0.04921090  1
  O  O148  1  0.33333333  0.66666667  0.38254423  1
  O  O149  1  0.33333333  0.66666667  0.71587756  1
  O  O150  1  0.83333333  0.16666667  0.04921090  1
  O  O151  1  0.83333333  0.16666667  0.38254423  1
  O  O152  1  0.83333333  0.16666667  0.71587756  1
  O  O153  1  0.83333333  0.66666667  0.04921090  1
  O  O154  1  0.83333333  0.66666667  0.38254423  1
  O  O155  1  0.83333333  0.66666667  0.71587756  1
  O  O156  1  0.43974089  0.24300022  0.19421048  1
  O  O157  1  0.43974089  0.24300022  0.52754381  1
  O  O158  1  0.43974089  0.24300022  0.86087715  1
  O  O159  1  0.43974089  0.74300022  0.19421048  1
  O  O160  1  0.43974089  0.74300022  0.52754381  1
  O  O161  1  0.43974089  0.74300022  0.86087715  1
  O  O162  1  0.93974089  0.24300022  0.19421048  1
  O  O163  1  0.93974089  0.24300022  0.52754381  1
  O  O164  1  0.93974089  0.24300022  0.86087715  1
  O  O165  1  0.93974089  0.74300022  0.19421048  1
  O  O166  1  0.93974089  0.74300022  0.52754381  1
  O  O167  1  0.93974089  0.74300022  0.86087715  1
  O  O168  1  0.16666667  0.33333333  0.21587756  1
  O  O169  1  0.16666667  0.33333333  0.54921090  1
  O  O170  1  0.16666667  0.33333333  0.88254423  1
  O  O171  1  0.16666667  0.83333333  0.21587756  1
  O  O172  1  0.16666667  0.83333333  0.54921090  1
  O  O173  1  0.16666667  0.83333333  0.88254423  1
  O  O174  1  0.66666667  0.33333333  0.21587756  1
  O  O175  1  0.66666667  0.33333333  0.54921090  1
  O  O176  1  0.66666667  0.33333333  0.88254423  1
  O  O177  1  0.66666667  0.83333333  0.21587756  1
  O  O178  1  0.66666667  0.83333333  0.54921090  1
  O  O179  1  0.66666667  0.83333333  0.88254423  1
  O  O180  1  0.19674068  0.43974089  0.02754381  1
  O  O181  1  0.19674068  0.43974089  0.36087715  1
  O  O182  1  0.19674068  0.43974089  0.69421048  1
  O  O183  1  0.19674068  0.93974089  0.02754381  1
  O  O184  1  0.19674068  0.93974089  0.36087715  1
  O  O185  1  0.19674068  0.93974089  0.69421048  1
  O  O186  1  0.69674068  0.43974089  0.02754381  1
  O  O187  1  0.69674068  0.43974089  0.36087715  1
  O  O188  1  0.69674068  0.43974089  0.69421048  1
  O  O189  1  0.69674068  0.93974089  0.02754381  1
  O  O190  1  0.69674068  0.93974089  0.36087715  1
  O  O191  1  0.69674068  0.93974089  0.69421048  1
