# generated using pymatgen
data_RbNa2AuO2
_symmetry_space_group_name_H-M   'P 1'
_cell_length_a   22.26150769
_cell_length_b   19.89455335
_cell_length_c   20.04354834
_cell_angle_alpha   90.00000000
_cell_angle_beta   90.00000000
_cell_angle_gamma   90.00000000
_symmetry_Int_Tables_number   1
_chemical_formula_structural   RbNa2AuO2
_chemical_formula_sum   'Rb80 Na160 Au80 O160'
_cell_volume   8876.94185616
_cell_formula_units_Z   80
loop_
 _symmetry_equiv_pos_site_id
 _symmetry_equiv_pos_as_xyz
  1  'x, y, z'
loop_
 _atom_site_type_symbol
 _atom_site_label
 _atom_site_symmetry_multiplicity
 _atom_site_fract_x
 _atom_site_fract_y
 _atom_site_fract_z
 _atom_site_occupancy
  Rb  Rb0  1  0.12500000  0.00000000  0.10000000  1
  Rb  Rb1  1  0.12500000  0.00000000  0.30000000  1
  Rb  Rb2  1  0.12500000  0.00000000  0.50000000  1
  Rb  Rb3  1  0.12500000  0.00000000  0.70000000  1
  Rb  Rb4  1  0.12500000  0.00000000  0.90000000  1
  Rb  Rb5  1  0.12500000  0.50000000  0.10000000  1
  Rb  Rb6  1  0.12500000  0.50000000  0.30000000  1
  Rb  Rb7  1  0.12500000  0.50000000  0.50000000  1
  Rb  Rb8  1  0.12500000  0.50000000  0.70000000  1
  Rb  Rb9  1  0.12500000  0.50000000  0.90000000  1
  Rb  Rb10  1  0.37500000  0.00000000  0.10000000  1
  Rb  Rb11  1  0.37500000  0.00000000  0.30000000  1
  Rb  Rb12  1  0.37500000  0.00000000  0.50000000  1
  Rb  Rb13  1  0.37500000  0.00000000  0.70000000  1
  Rb  Rb14  1  0.37500000  0.00000000  0.90000000  1
  Rb  Rb15  1  0.37500000  0.50000000  0.10000000  1
  Rb  Rb16  1  0.37500000  0.50000000  0.30000000  1
  Rb  Rb17  1  0.37500000  0.50000000  0.50000000  1
  Rb  Rb18  1  0.37500000  0.50000000  0.70000000  1
  Rb  Rb19  1  0.37500000  0.50000000  0.90000000  1
  Rb  Rb20  1  0.62500000  0.00000000  0.10000000  1
  Rb  Rb21  1  0.62500000  0.00000000  0.30000000  1
  Rb  Rb22  1  0.62500000  0.00000000  0.50000000  1
  Rb  Rb23  1  0.62500000  0.00000000  0.70000000  1
  Rb  Rb24  1  0.62500000  0.00000000  0.90000000  1
  Rb  Rb25  1  0.62500000  0.50000000  0.10000000  1
  Rb  Rb26  1  0.62500000  0.50000000  0.30000000  1
  Rb  Rb27  1  0.62500000  0.50000000  0.50000000  1
  Rb  Rb28  1  0.62500000  0.50000000  0.70000000  1
  Rb  Rb29  1  0.62500000  0.50000000  0.90000000  1
  Rb  Rb30  1  0.87500000  0.00000000  0.10000000  1
  Rb  Rb31  1  0.87500000  0.00000000  0.30000000  1
  Rb  Rb32  1  0.87500000  0.00000000  0.50000000  1
  Rb  Rb33  1  0.87500000  0.00000000  0.70000000  1
  Rb  Rb34  1  0.87500000  0.00000000  0.90000000  1
  Rb  Rb35  1  0.87500000  0.50000000  0.10000000  1
  Rb  Rb36  1  0.87500000  0.50000000  0.30000000  1
  Rb  Rb37  1  0.87500000  0.50000000  0.50000000  1
  Rb  Rb38  1  0.87500000  0.50000000  0.70000000  1
  Rb  Rb39  1  0.87500000  0.50000000  0.90000000  1
  Rb  Rb40  1  0.00000000  0.25000000  0.00000000  1
  Rb  Rb41  1  0.00000000  0.25000000  0.20000000  1
  Rb  Rb42  1  0.00000000  0.25000000  0.40000000  1
  Rb  Rb43  1  0.00000000  0.25000000  0.60000000  1
  Rb  Rb44  1  0.00000000  0.25000000  0.80000000  1
  Rb  Rb45  1  0.00000000  0.75000000  0.00000000  1
  Rb  Rb46  1  0.00000000  0.75000000  0.20000000  1
  Rb  Rb47  1  0.00000000  0.75000000  0.40000000  1
  Rb  Rb48  1  0.00000000  0.75000000  0.60000000  1
  Rb  Rb49  1  0.00000000  0.75000000  0.80000000  1
  Rb  Rb50  1  0.25000000  0.25000000  0.00000000  1
  Rb  Rb51  1  0.25000000  0.25000000  0.20000000  1
  Rb  Rb52  1  0.25000000  0.25000000  0.40000000  1
  Rb  Rb53  1  0.25000000  0.25000000  0.60000000  1
  Rb  Rb54  1  0.25000000  0.25000000  0.80000000  1
  Rb  Rb55  1  0.25000000  0.75000000  0.00000000  1
  Rb  Rb56  1  0.25000000  0.75000000  0.20000000  1
  Rb  Rb57  1  0.25000000  0.75000000  0.40000000  1
  Rb  Rb58  1  0.25000000  0.75000000  0.60000000  1
  Rb  Rb59  1  0.25000000  0.75000000  0.80000000  1
  Rb  Rb60  1  0.50000000  0.25000000  0.00000000  1
  Rb  Rb61  1  0.50000000  0.25000000  0.20000000  1
  Rb  Rb62  1  0.50000000  0.25000000  0.40000000  1
  Rb  Rb63  1  0.50000000  0.25000000  0.60000000  1
  Rb  Rb64  1  0.50000000  0.25000000  0.80000000  1
  Rb  Rb65  1  0.50000000  0.75000000  0.00000000  1
  Rb  Rb66  1  0.50000000  0.75000000  0.20000000  1
  Rb  Rb67  1  0.50000000  0.75000000  0.40000000  1
  Rb  Rb68  1  0.50000000  0.75000000  0.60000000  1
  Rb  Rb69  1  0.50000000  0.75000000  0.80000000  1
  Rb  Rb70  1  0.75000000  0.25000000  0.00000000  1
  Rb  Rb71  1  0.75000000  0.25000000  0.20000000  1
  Rb  Rb72  1  0.75000000  0.25000000  0.40000000  1
  Rb  Rb73  1  0.75000000  0.25000000  0.60000000  1
  Rb  Rb74  1  0.75000000  0.25000000  0.80000000  1
  Rb  Rb75  1  0.75000000  0.75000000  0.00000000  1
  Rb  Rb76  1  0.75000000  0.75000000  0.20000000  1
  Rb  Rb77  1  0.75000000  0.75000000  0.40000000  1
  Rb  Rb78  1  0.75000000  0.75000000  0.60000000  1
  Rb  Rb79  1  0.75000000  0.75000000  0.80000000  1
  Na  Na80  1  0.01630596  0.11319142  0.10000000  1
  Na  Na81  1  0.01630596  0.11319142  0.30000000  1
  Na  Na82  1  0.01630596  0.11319142  0.50000000  1
  Na  Na83  1  0.01630596  0.11319142  0.70000000  1
  Na  Na84  1  0.01630596  0.11319142  0.90000000  1
  Na  Na85  1  0.01630596  0.61319142  0.10000000  1
  Na  Na86  1  0.01630596  0.61319142  0.30000000  1
  Na  Na87  1  0.01630596  0.61319142  0.50000000  1
  Na  Na88  1  0.01630596  0.61319142  0.70000000  1
  Na  Na89  1  0.01630596  0.61319142  0.90000000  1
  Na  Na90  1  0.26630596  0.11319142  0.10000000  1
  Na  Na91  1  0.26630596  0.11319142  0.30000000  1
  Na  Na92  1  0.26630596  0.11319142  0.50000000  1
  Na  Na93  1  0.26630596  0.11319142  0.70000000  1
  Na  Na94  1  0.26630596  0.11319142  0.90000000  1
  Na  Na95  1  0.26630596  0.61319142  0.10000000  1
  Na  Na96  1  0.26630596  0.61319142  0.30000000  1
  Na  Na97  1  0.26630596  0.61319142  0.50000000  1
  Na  Na98  1  0.26630596  0.61319142  0.70000000  1
  Na  Na99  1  0.26630596  0.61319142  0.90000000  1
  Na  Na100  1  0.51630596  0.11319142  0.10000000  1
  Na  Na101  1  0.51630596  0.11319142  0.30000000  1
  Na  Na102  1  0.51630596  0.11319142  0.50000000  1
  Na  Na103  1  0.51630596  0.11319142  0.70000000  1
  Na  Na104  1  0.51630596  0.11319142  0.90000000  1
  Na  Na105  1  0.51630596  0.61319142  0.10000000  1
  Na  Na106  1  0.51630596  0.61319142  0.30000000  1
  Na  Na107  1  0.51630596  0.61319142  0.50000000  1
  Na  Na108  1  0.51630596  0.61319142  0.70000000  1
  Na  Na109  1  0.51630596  0.61319142  0.90000000  1
  Na  Na110  1  0.76630596  0.11319142  0.10000000  1
  Na  Na111  1  0.76630596  0.11319142  0.30000000  1
  Na  Na112  1  0.76630596  0.11319142  0.50000000  1
  Na  Na113  1  0.76630596  0.11319142  0.70000000  1
  Na  Na114  1  0.76630596  0.11319142  0.90000000  1
  Na  Na115  1  0.76630596  0.61319142  0.10000000  1
  Na  Na116  1  0.76630596  0.61319142  0.30000000  1
  Na  Na117  1  0.76630596  0.61319142  0.50000000  1
  Na  Na118  1  0.76630596  0.61319142  0.70000000  1
  Na  Na119  1  0.76630596  0.61319142  0.90000000  1
  Na  Na120  1  0.14130596  0.13680858  0.00000000  1
  Na  Na121  1  0.14130596  0.13680858  0.20000000  1
  Na  Na122  1  0.14130596  0.13680858  0.40000000  1
  Na  Na123  1  0.14130596  0.13680858  0.60000000  1
  Na  Na124  1  0.14130596  0.13680858  0.80000000  1
  Na  Na125  1  0.14130596  0.63680858  0.00000000  1
  Na  Na126  1  0.14130596  0.63680858  0.20000000  1
  Na  Na127  1  0.14130596  0.63680858  0.40000000  1
  Na  Na128  1  0.14130596  0.63680858  0.60000000  1
  Na  Na129  1  0.14130596  0.63680858  0.80000000  1
  Na  Na130  1  0.39130596  0.13680858  0.00000000  1
  Na  Na131  1  0.39130596  0.13680858  0.20000000  1
  Na  Na132  1  0.39130596  0.13680858  0.40000000  1
  Na  Na133  1  0.39130596  0.13680858  0.60000000  1
  Na  Na134  1  0.39130596  0.13680858  0.80000000  1
  Na  Na135  1  0.39130596  0.63680858  0.00000000  1
  Na  Na136  1  0.39130596  0.63680858  0.20000000  1
  Na  Na137  1  0.39130596  0.63680858  0.40000000  1
  Na  Na138  1  0.39130596  0.63680858  0.60000000  1
  Na  Na139  1  0.39130596  0.63680858  0.80000000  1
  Na  Na140  1  0.64130596  0.13680858  0.00000000  1
  Na  Na141  1  0.64130596  0.13680858  0.20000000  1
  Na  Na142  1  0.64130596  0.13680858  0.40000000  1
  Na  Na143  1  0.64130596  0.13680858  0.60000000  1
  Na  Na144  1  0.64130596  0.13680858  0.80000000  1
  Na  Na145  1  0.64130596  0.63680858  0.00000000  1
  Na  Na146  1  0.64130596  0.63680858  0.20000000  1
  Na  Na147  1  0.64130596  0.63680858  0.40000000  1
  Na  Na148  1  0.64130596  0.63680858  0.60000000  1
  Na  Na149  1  0.64130596  0.63680858  0.80000000  1
  Na  Na150  1  0.89130596  0.13680858  0.00000000  1
  Na  Na151  1  0.89130596  0.13680858  0.20000000  1
  Na  Na152  1  0.89130596  0.13680858  0.40000000  1
  Na  Na153  1  0.89130596  0.13680858  0.60000000  1
  Na  Na154  1  0.89130596  0.13680858  0.80000000  1
  Na  Na155  1  0.89130596  0.63680858  0.00000000  1
  Na  Na156  1  0.89130596  0.63680858  0.20000000  1
  Na  Na157  1  0.89130596  0.63680858  0.40000000  1
  Na  Na158  1  0.89130596  0.63680858  0.60000000  1
  Na  Na159  1  0.89130596  0.63680858  0.80000000  1
  Na  Na160  1  0.23369404  0.38680858  0.10000000  1
  Na  Na161  1  0.23369404  0.38680858  0.30000000  1
  Na  Na162  1  0.23369404  0.38680858  0.50000000  1
  Na  Na163  1  0.23369404  0.38680858  0.70000000  1
  Na  Na164  1  0.23369404  0.38680858  0.90000000  1
  Na  Na165  1  0.23369404  0.88680858  0.10000000  1
  Na  Na166  1  0.23369404  0.88680858  0.30000000  1
  Na  Na167  1  0.23369404  0.88680858  0.50000000  1
  Na  Na168  1  0.23369404  0.88680858  0.70000000  1
  Na  Na169  1  0.23369404  0.88680858  0.90000000  1
  Na  Na170  1  0.48369404  0.38680858  0.10000000  1
  Na  Na171  1  0.48369404  0.38680858  0.30000000  1
  Na  Na172  1  0.48369404  0.38680858  0.50000000  1
  Na  Na173  1  0.48369404  0.38680858  0.70000000  1
  Na  Na174  1  0.48369404  0.38680858  0.90000000  1
  Na  Na175  1  0.48369404  0.88680858  0.10000000  1
  Na  Na176  1  0.48369404  0.88680858  0.30000000  1
  Na  Na177  1  0.48369404  0.88680858  0.50000000  1
  Na  Na178  1  0.48369404  0.88680858  0.70000000  1
  Na  Na179  1  0.48369404  0.88680858  0.90000000  1
  Na  Na180  1  0.73369404  0.38680858  0.10000000  1
  Na  Na181  1  0.73369404  0.38680858  0.30000000  1
  Na  Na182  1  0.73369404  0.38680858  0.50000000  1
  Na  Na183  1  0.73369404  0.38680858  0.70000000  1
  Na  Na184  1  0.73369404  0.38680858  0.90000000  1
  Na  Na185  1  0.73369404  0.88680858  0.10000000  1
  Na  Na186  1  0.73369404  0.88680858  0.30000000  1
  Na  Na187  1  0.73369404  0.88680858  0.50000000  1
  Na  Na188  1  0.73369404  0.88680858  0.70000000  1
  Na  Na189  1  0.73369404  0.88680858  0.90000000  1
  Na  Na190  1  0.98369404  0.38680858  0.10000000  1
  Na  Na191  1  0.98369404  0.38680858  0.30000000  1
  Na  Na192  1  0.98369404  0.38680858  0.50000000  1
  Na  Na193  1  0.98369404  0.38680858  0.70000000  1
  Na  Na194  1  0.98369404  0.38680858  0.90000000  1
  Na  Na195  1  0.98369404  0.88680858  0.10000000  1
  Na  Na196  1  0.98369404  0.88680858  0.30000000  1
  Na  Na197  1  0.98369404  0.88680858  0.50000000  1
  Na  Na198  1  0.98369404  0.88680858  0.70000000  1
  Na  Na199  1  0.98369404  0.88680858  0.90000000  1
  Na  Na200  1  0.10869404  0.36319142  0.00000000  1
  Na  Na201  1  0.10869404  0.36319142  0.20000000  1
  Na  Na202  1  0.10869404  0.36319142  0.40000000  1
  Na  Na203  1  0.10869404  0.36319142  0.60000000  1
  Na  Na204  1  0.10869404  0.36319142  0.80000000  1
  Na  Na205  1  0.10869404  0.86319142  0.00000000  1
  Na  Na206  1  0.10869404  0.86319142  0.20000000  1
  Na  Na207  1  0.10869404  0.86319142  0.40000000  1
  Na  Na208  1  0.10869404  0.86319142  0.60000000  1
  Na  Na209  1  0.10869404  0.86319142  0.80000000  1
  Na  Na210  1  0.35869404  0.36319142  0.00000000  1
  Na  Na211  1  0.35869404  0.36319142  0.20000000  1
  Na  Na212  1  0.35869404  0.36319142  0.40000000  1
  Na  Na213  1  0.35869404  0.36319142  0.60000000  1
  Na  Na214  1  0.35869404  0.36319142  0.80000000  1
  Na  Na215  1  0.35869404  0.86319142  0.00000000  1
  Na  Na216  1  0.35869404  0.86319142  0.20000000  1
  Na  Na217  1  0.35869404  0.86319142  0.40000000  1
  Na  Na218  1  0.35869404  0.86319142  0.60000000  1
  Na  Na219  1  0.35869404  0.86319142  0.80000000  1
  Na  Na220  1  0.60869404  0.36319142  0.00000000  1
  Na  Na221  1  0.60869404  0.36319142  0.20000000  1
  Na  Na222  1  0.60869404  0.36319142  0.40000000  1
  Na  Na223  1  0.60869404  0.36319142  0.60000000  1
  Na  Na224  1  0.60869404  0.36319142  0.80000000  1
  Na  Na225  1  0.60869404  0.86319142  0.00000000  1
  Na  Na226  1  0.60869404  0.86319142  0.20000000  1
  Na  Na227  1  0.60869404  0.86319142  0.40000000  1
  Na  Na228  1  0.60869404  0.86319142  0.60000000  1
  Na  Na229  1  0.60869404  0.86319142  0.80000000  1
  Na  Na230  1  0.85869404  0.36319142  0.00000000  1
  Na  Na231  1  0.85869404  0.36319142  0.20000000  1
  Na  Na232  1  0.85869404  0.36319142  0.40000000  1
  Na  Na233  1  0.85869404  0.36319142  0.60000000  1
  Na  Na234  1  0.85869404  0.36319142  0.80000000  1
  Na  Na235  1  0.85869404  0.86319142  0.00000000  1
  Na  Na236  1  0.85869404  0.86319142  0.20000000  1
  Na  Na237  1  0.85869404  0.86319142  0.40000000  1
  Na  Na238  1  0.85869404  0.86319142  0.60000000  1
  Na  Na239  1  0.85869404  0.86319142  0.80000000  1
  Au  Au240  1  0.00000000  0.00000000  0.00000000  1
  Au  Au241  1  0.00000000  0.00000000  0.20000000  1
  Au  Au242  1  0.00000000  0.00000000  0.40000000  1
  Au  Au243  1  0.00000000  0.00000000  0.60000000  1
  Au  Au244  1  0.00000000  0.00000000  0.80000000  1
  Au  Au245  1  0.00000000  0.50000000  0.00000000  1
  Au  Au246  1  0.00000000  0.50000000  0.20000000  1
  Au  Au247  1  0.00000000  0.50000000  0.40000000  1
  Au  Au248  1  0.00000000  0.50000000  0.60000000  1
  Au  Au249  1  0.00000000  0.50000000  0.80000000  1
  Au  Au250  1  0.25000000  0.00000000  0.00000000  1
  Au  Au251  1  0.25000000  0.00000000  0.20000000  1
  Au  Au252  1  0.25000000  0.00000000  0.40000000  1
  Au  Au253  1  0.25000000  0.00000000  0.60000000  1
  Au  Au254  1  0.25000000  0.00000000  0.80000000  1
  Au  Au255  1  0.25000000  0.50000000  0.00000000  1
  Au  Au256  1  0.25000000  0.50000000  0.20000000  1
  Au  Au257  1  0.25000000  0.50000000  0.40000000  1
  Au  Au258  1  0.25000000  0.50000000  0.60000000  1
  Au  Au259  1  0.25000000  0.50000000  0.80000000  1
  Au  Au260  1  0.50000000  0.00000000  0.00000000  1
  Au  Au261  1  0.50000000  0.00000000  0.20000000  1
  Au  Au262  1  0.50000000  0.00000000  0.40000000  1
  Au  Au263  1  0.50000000  0.00000000  0.60000000  1
  Au  Au264  1  0.50000000  0.00000000  0.80000000  1
  Au  Au265  1  0.50000000  0.50000000  0.00000000  1
  Au  Au266  1  0.50000000  0.50000000  0.20000000  1
  Au  Au267  1  0.50000000  0.50000000  0.40000000  1
  Au  Au268  1  0.50000000  0.50000000  0.60000000  1
  Au  Au269  1  0.50000000  0.50000000  0.80000000  1
  Au  Au270  1  0.75000000  0.00000000  0.00000000  1
  Au  Au271  1  0.75000000  0.00000000  0.20000000  1
  Au  Au272  1  0.75000000  0.00000000  0.40000000  1
  Au  Au273  1  0.75000000  0.00000000  0.60000000  1
  Au  Au274  1  0.75000000  0.00000000  0.80000000  1
  Au  Au275  1  0.75000000  0.50000000  0.00000000  1
  Au  Au276  1  0.75000000  0.50000000  0.20000000  1
  Au  Au277  1  0.75000000  0.50000000  0.40000000  1
  Au  Au278  1  0.75000000  0.50000000  0.60000000  1
  Au  Au279  1  0.75000000  0.50000000  0.80000000  1
  Au  Au280  1  0.12500000  0.25000000  0.10000000  1
  Au  Au281  1  0.12500000  0.25000000  0.30000000  1
  Au  Au282  1  0.12500000  0.25000000  0.50000000  1
  Au  Au283  1  0.12500000  0.25000000  0.70000000  1
  Au  Au284  1  0.12500000  0.25000000  0.90000000  1
  Au  Au285  1  0.12500000  0.75000000  0.10000000  1
  Au  Au286  1  0.12500000  0.75000000  0.30000000  1
  Au  Au287  1  0.12500000  0.75000000  0.50000000  1
  Au  Au288  1  0.12500000  0.75000000  0.70000000  1
  Au  Au289  1  0.12500000  0.75000000  0.90000000  1
  Au  Au290  1  0.37500000  0.25000000  0.10000000  1
  Au  Au291  1  0.37500000  0.25000000  0.30000000  1
  Au  Au292  1  0.37500000  0.25000000  0.50000000  1
  Au  Au293  1  0.37500000  0.25000000  0.70000000  1
  Au  Au294  1  0.37500000  0.25000000  0.90000000  1
  Au  Au295  1  0.37500000  0.75000000  0.10000000  1
  Au  Au296  1  0.37500000  0.75000000  0.30000000  1
  Au  Au297  1  0.37500000  0.75000000  0.50000000  1
  Au  Au298  1  0.37500000  0.75000000  0.70000000  1
  Au  Au299  1  0.37500000  0.75000000  0.90000000  1
  Au  Au300  1  0.62500000  0.25000000  0.10000000  1
  Au  Au301  1  0.62500000  0.25000000  0.30000000  1
  Au  Au302  1  0.62500000  0.25000000  0.50000000  1
  Au  Au303  1  0.62500000  0.25000000  0.70000000  1
  Au  Au304  1  0.62500000  0.25000000  0.90000000  1
  Au  Au305  1  0.62500000  0.75000000  0.10000000  1
  Au  Au306  1  0.62500000  0.75000000  0.30000000  1
  Au  Au307  1  0.62500000  0.75000000  0.50000000  1
  Au  Au308  1  0.62500000  0.75000000  0.70000000  1
  Au  Au309  1  0.62500000  0.75000000  0.90000000  1
  Au  Au310  1  0.87500000  0.25000000  0.10000000  1
  Au  Au311  1  0.87500000  0.25000000  0.30000000  1
  Au  Au312  1  0.87500000  0.25000000  0.50000000  1
  Au  Au313  1  0.87500000  0.25000000  0.70000000  1
  Au  Au314  1  0.87500000  0.25000000  0.90000000  1
  Au  Au315  1  0.87500000  0.75000000  0.10000000  1
  Au  Au316  1  0.87500000  0.75000000  0.30000000  1
  Au  Au317  1  0.87500000  0.75000000  0.50000000  1
  Au  Au318  1  0.87500000  0.75000000  0.70000000  1
  Au  Au319  1  0.87500000  0.75000000  0.90000000  1
  O  O320  1  0.18115821  0.17134467  0.10000000  1
  O  O321  1  0.18115821  0.17134467  0.30000000  1
  O  O322  1  0.18115821  0.17134467  0.50000000  1
  O  O323  1  0.18115821  0.17134467  0.70000000  1
  O  O324  1  0.18115821  0.17134467  0.90000000  1
  O  O325  1  0.18115821  0.67134467  0.10000000  1
  O  O326  1  0.18115821  0.67134467  0.30000000  1
  O  O327  1  0.18115821  0.67134467  0.50000000  1
  O  O328  1  0.18115821  0.67134467  0.70000000  1
  O  O329  1  0.18115821  0.67134467  0.90000000  1
  O  O330  1  0.43115821  0.17134467  0.10000000  1
  O  O331  1  0.43115821  0.17134467  0.30000000  1
  O  O332  1  0.43115821  0.17134467  0.50000000  1
  O  O333  1  0.43115821  0.17134467  0.70000000  1
  O  O334  1  0.43115821  0.17134467  0.90000000  1
  O  O335  1  0.43115821  0.67134467  0.10000000  1
  O  O336  1  0.43115821  0.67134467  0.30000000  1
  O  O337  1  0.43115821  0.67134467  0.50000000  1
  O  O338  1  0.43115821  0.67134467  0.70000000  1
  O  O339  1  0.43115821  0.67134467  0.90000000  1
  O  O340  1  0.68115821  0.17134467  0.10000000  1
  O  O341  1  0.68115821  0.17134467  0.30000000  1
  O  O342  1  0.68115821  0.17134467  0.50000000  1
  O  O343  1  0.68115821  0.17134467  0.70000000  1
  O  O344  1  0.68115821  0.17134467  0.90000000  1
  O  O345  1  0.68115821  0.67134467  0.10000000  1
  O  O346  1  0.68115821  0.67134467  0.30000000  1
  O  O347  1  0.68115821  0.67134467  0.50000000  1
  O  O348  1  0.68115821  0.67134467  0.70000000  1
  O  O349  1  0.68115821  0.67134467  0.90000000  1
  O  O350  1  0.93115821  0.17134467  0.10000000  1
  O  O351  1  0.93115821  0.17134467  0.30000000  1
  O  O352  1  0.93115821  0.17134467  0.50000000  1
  O  O353  1  0.93115821  0.17134467  0.70000000  1
  O  O354  1  0.93115821  0.17134467  0.90000000  1
  O  O355  1  0.93115821  0.67134467  0.10000000  1
  O  O356  1  0.93115821  0.67134467  0.30000000  1
  O  O357  1  0.93115821  0.67134467  0.50000000  1
  O  O358  1  0.93115821  0.67134467  0.70000000  1
  O  O359  1  0.93115821  0.67134467  0.90000000  1
  O  O360  1  0.06884179  0.32865533  0.10000000  1
  O  O361  1  0.06884179  0.32865533  0.30000000  1
  O  O362  1  0.06884179  0.32865533  0.50000000  1
  O  O363  1  0.06884179  0.32865533  0.70000000  1
  O  O364  1  0.06884179  0.32865533  0.90000000  1
  O  O365  1  0.06884179  0.82865533  0.10000000  1
  O  O366  1  0.06884179  0.82865533  0.30000000  1
  O  O367  1  0.06884179  0.82865533  0.50000000  1
  O  O368  1  0.06884179  0.82865533  0.70000000  1
  O  O369  1  0.06884179  0.82865533  0.90000000  1
  O  O370  1  0.31884179  0.32865533  0.10000000  1
  O  O371  1  0.31884179  0.32865533  0.30000000  1
  O  O372  1  0.31884179  0.32865533  0.50000000  1
  O  O373  1  0.31884179  0.32865533  0.70000000  1
  O  O374  1  0.31884179  0.32865533  0.90000000  1
  O  O375  1  0.31884179  0.82865533  0.10000000  1
  O  O376  1  0.31884179  0.82865533  0.30000000  1
  O  O377  1  0.31884179  0.82865533  0.50000000  1
  O  O378  1  0.31884179  0.82865533  0.70000000  1
  O  O379  1  0.31884179  0.82865533  0.90000000  1
  O  O380  1  0.56884179  0.32865533  0.10000000  1
  O  O381  1  0.56884179  0.32865533  0.30000000  1
  O  O382  1  0.56884179  0.32865533  0.50000000  1
  O  O383  1  0.56884179  0.32865533  0.70000000  1
  O  O384  1  0.56884179  0.32865533  0.90000000  1
  O  O385  1  0.56884179  0.82865533  0.10000000  1
  O  O386  1  0.56884179  0.82865533  0.30000000  1
  O  O387  1  0.56884179  0.82865533  0.50000000  1
  O  O388  1  0.56884179  0.82865533  0.70000000  1
  O  O389  1  0.56884179  0.82865533  0.90000000  1
  O  O390  1  0.81884179  0.32865533  0.10000000  1
  O  O391  1  0.81884179  0.32865533  0.30000000  1
  O  O392  1  0.81884179  0.32865533  0.50000000  1
  O  O393  1  0.81884179  0.32865533  0.70000000  1
  O  O394  1  0.81884179  0.32865533  0.90000000  1
  O  O395  1  0.81884179  0.82865533  0.10000000  1
  O  O396  1  0.81884179  0.82865533  0.30000000  1
  O  O397  1  0.81884179  0.82865533  0.50000000  1
  O  O398  1  0.81884179  0.82865533  0.70000000  1
  O  O399  1  0.81884179  0.82865533  0.90000000  1
  O  O400  1  0.19384179  0.42134467  0.00000000  1
  O  O401  1  0.19384179  0.42134467  0.20000000  1
  O  O402  1  0.19384179  0.42134467  0.40000000  1
  O  O403  1  0.19384179  0.42134467  0.60000000  1
  O  O404  1  0.19384179  0.42134467  0.80000000  1
  O  O405  1  0.19384179  0.92134467  0.00000000  1
  O  O406  1  0.19384179  0.92134467  0.20000000  1
  O  O407  1  0.19384179  0.92134467  0.40000000  1
  O  O408  1  0.19384179  0.92134467  0.60000000  1
  O  O409  1  0.19384179  0.92134467  0.80000000  1
  O  O410  1  0.44384179  0.42134467  0.00000000  1
  O  O411  1  0.44384179  0.42134467  0.20000000  1
  O  O412  1  0.44384179  0.42134467  0.40000000  1
  O  O413  1  0.44384179  0.42134467  0.60000000  1
  O  O414  1  0.44384179  0.42134467  0.80000000  1
  O  O415  1  0.44384179  0.92134467  0.00000000  1
  O  O416  1  0.44384179  0.92134467  0.20000000  1
  O  O417  1  0.44384179  0.92134467  0.40000000  1
  O  O418  1  0.44384179  0.92134467  0.60000000  1
  O  O419  1  0.44384179  0.92134467  0.80000000  1
  O  O420  1  0.69384179  0.42134467  0.00000000  1
  O  O421  1  0.69384179  0.42134467  0.20000000  1
  O  O422  1  0.69384179  0.42134467  0.40000000  1
  O  O423  1  0.69384179  0.42134467  0.60000000  1
  O  O424  1  0.69384179  0.42134467  0.80000000  1
  O  O425  1  0.69384179  0.92134467  0.00000000  1
  O  O426  1  0.69384179  0.92134467  0.20000000  1
  O  O427  1  0.69384179  0.92134467  0.40000000  1
  O  O428  1  0.69384179  0.92134467  0.60000000  1
  O  O429  1  0.69384179  0.92134467  0.80000000  1
  O  O430  1  0.94384179  0.42134467  0.00000000  1
  O  O431  1  0.94384179  0.42134467  0.20000000  1
  O  O432  1  0.94384179  0.42134467  0.40000000  1
  O  O433  1  0.94384179  0.42134467  0.60000000  1
  O  O434  1  0.94384179  0.42134467  0.80000000  1
  O  O435  1  0.94384179  0.92134467  0.00000000  1
  O  O436  1  0.94384179  0.92134467  0.20000000  1
  O  O437  1  0.94384179  0.92134467  0.40000000  1
  O  O438  1  0.94384179  0.92134467  0.60000000  1
  O  O439  1  0.94384179  0.92134467  0.80000000  1
  O  O440  1  0.05615821  0.07865533  0.00000000  1
  O  O441  1  0.05615821  0.07865533  0.20000000  1
  O  O442  1  0.05615821  0.07865533  0.40000000  1
  O  O443  1  0.05615821  0.07865533  0.60000000  1
  O  O444  1  0.05615821  0.07865533  0.80000000  1
  O  O445  1  0.05615821  0.57865533  0.00000000  1
  O  O446  1  0.05615821  0.57865533  0.20000000  1
  O  O447  1  0.05615821  0.57865533  0.40000000  1
  O  O448  1  0.05615821  0.57865533  0.60000000  1
  O  O449  1  0.05615821  0.57865533  0.80000000  1
  O  O450  1  0.30615821  0.07865533  0.00000000  1
  O  O451  1  0.30615821  0.07865533  0.20000000  1
  O  O452  1  0.30615821  0.07865533  0.40000000  1
  O  O453  1  0.30615821  0.07865533  0.60000000  1
  O  O454  1  0.30615821  0.07865533  0.80000000  1
  O  O455  1  0.30615821  0.57865533  0.00000000  1
  O  O456  1  0.30615821  0.57865533  0.20000000  1
  O  O457  1  0.30615821  0.57865533  0.40000000  1
  O  O458  1  0.30615821  0.57865533  0.60000000  1
  O  O459  1  0.30615821  0.57865533  0.80000000  1
  O  O460  1  0.55615821  0.07865533  0.00000000  1
  O  O461  1  0.55615821  0.07865533  0.20000000  1
  O  O462  1  0.55615821  0.07865533  0.40000000  1
  O  O463  1  0.55615821  0.07865533  0.60000000  1
  O  O464  1  0.55615821  0.07865533  0.80000000  1
  O  O465  1  0.55615821  0.57865533  0.00000000  1
  O  O466  1  0.55615821  0.57865533  0.20000000  1
  O  O467  1  0.55615821  0.57865533  0.40000000  1
  O  O468  1  0.55615821  0.57865533  0.60000000  1
  O  O469  1  0.55615821  0.57865533  0.80000000  1
  O  O470  1  0.80615821  0.07865533  0.00000000  1
  O  O471  1  0.80615821  0.07865533  0.20000000  1
  O  O472  1  0.80615821  0.07865533  0.40000000  1
  O  O473  1  0.80615821  0.07865533  0.60000000  1
  O  O474  1  0.80615821  0.07865533  0.80000000  1
  O  O475  1  0.80615821  0.57865533  0.00000000  1
  O  O476  1  0.80615821  0.57865533  0.20000000  1
  O  O477  1  0.80615821  0.57865533  0.40000000  1
  O  O478  1  0.80615821  0.57865533  0.60000000  1
  O  O479  1  0.80615821  0.57865533  0.80000000  1
