# generated using pymatgen
data_KLi3PbO4
_symmetry_space_group_name_H-M   'P 1'
_cell_length_a   11.87371665
_cell_length_b   11.94311133
_cell_length_c   14.00745145
_cell_angle_alpha   73.00274477
_cell_angle_beta   71.79341762
_cell_angle_gamma   88.29760829
_symmetry_Int_Tables_number   1
_chemical_formula_structural   KLi3PbO4
_chemical_formula_sum   'K16 Li48 Pb16 O64'
_cell_volume   1800.35747625
_cell_formula_units_Z   16
loop_
 _symmetry_equiv_pos_site_id
 _symmetry_equiv_pos_as_xyz
  1  'x, y, z'
loop_
 _atom_site_type_symbol
 _atom_site_label
 _atom_site_symmetry_multiplicity
 _atom_site_fract_x
 _atom_site_fract_y
 _atom_site_fract_z
 _atom_site_occupancy
  K  K0  1  0.24464456  0.00448905  0.12539029  1
  K  K1  1  0.24464456  0.00448905  0.62539029  1
  K  K2  1  0.24464456  0.50448905  0.12539029  1
  K  K3  1  0.24464456  0.50448905  0.62539029  1
  K  K4  1  0.74464456  0.00448905  0.12539029  1
  K  K5  1  0.74464456  0.00448905  0.62539029  1
  K  K6  1  0.74464456  0.50448905  0.12539029  1
  K  K7  1  0.74464456  0.50448905  0.62539029  1
  K  K8  1  0.25535544  0.49551095  0.37460971  1
  K  K9  1  0.25535544  0.49551095  0.87460971  1
  K  K10  1  0.25535544  0.99551095  0.37460971  1
  K  K11  1  0.25535544  0.99551095  0.87460971  1
  K  K12  1  0.75535544  0.49551095  0.37460971  1
  K  K13  1  0.75535544  0.49551095  0.87460971  1
  K  K14  1  0.75535544  0.99551095  0.37460971  1
  K  K15  1  0.75535544  0.99551095  0.87460971  1
  Li  Li16  1  0.47442421  0.43511589  0.45380230  1
  Li  Li17  1  0.47442421  0.43511589  0.95380230  1
  Li  Li18  1  0.47442421  0.93511589  0.45380230  1
  Li  Li19  1  0.47442421  0.93511589  0.95380230  1
  Li  Li20  1  0.97442421  0.43511589  0.45380230  1
  Li  Li21  1  0.97442421  0.43511589  0.95380230  1
  Li  Li22  1  0.97442421  0.93511589  0.45380230  1
  Li  Li23  1  0.97442421  0.93511589  0.95380230  1
  Li  Li24  1  0.02557579  0.06488411  0.04619770  1
  Li  Li25  1  0.02557579  0.06488411  0.54619770  1
  Li  Li26  1  0.02557579  0.56488411  0.04619770  1
  Li  Li27  1  0.02557579  0.56488411  0.54619770  1
  Li  Li28  1  0.52557579  0.06488411  0.04619770  1
  Li  Li29  1  0.52557579  0.06488411  0.54619770  1
  Li  Li30  1  0.52557579  0.56488411  0.04619770  1
  Li  Li31  1  0.52557579  0.56488411  0.54619770  1
  Li  Li32  1  0.15768076  0.26966071  0.07682269  1
  Li  Li33  1  0.15768076  0.26966071  0.57682269  1
  Li  Li34  1  0.15768076  0.76966071  0.07682269  1
  Li  Li35  1  0.15768076  0.76966071  0.57682269  1
  Li  Li36  1  0.65768076  0.26966071  0.07682269  1
  Li  Li37  1  0.65768076  0.26966071  0.57682269  1
  Li  Li38  1  0.65768076  0.76966071  0.07682269  1
  Li  Li39  1  0.65768076  0.76966071  0.57682269  1
  Li  Li40  1  0.46699560  0.41686736  0.22378871  1
  Li  Li41  1  0.46699560  0.41686736  0.72378871  1
  Li  Li42  1  0.46699560  0.91686736  0.22378871  1
  Li  Li43  1  0.46699560  0.91686736  0.72378871  1
  Li  Li44  1  0.96699560  0.41686736  0.22378871  1
  Li  Li45  1  0.96699560  0.41686736  0.72378871  1
  Li  Li46  1  0.96699560  0.91686736  0.22378871  1
  Li  Li47  1  0.96699560  0.91686736  0.72378871  1
  Li  Li48  1  0.03300440  0.08313264  0.27621129  1
  Li  Li49  1  0.03300440  0.08313264  0.77621129  1
  Li  Li50  1  0.03300440  0.58313264  0.27621129  1
  Li  Li51  1  0.03300440  0.58313264  0.77621129  1
  Li  Li52  1  0.53300440  0.08313264  0.27621129  1
  Li  Li53  1  0.53300440  0.08313264  0.77621129  1
  Li  Li54  1  0.53300440  0.58313264  0.27621129  1
  Li  Li55  1  0.53300440  0.58313264  0.77621129  1
  Li  Li56  1  0.34231924  0.23033929  0.42317731  1
  Li  Li57  1  0.34231924  0.23033929  0.92317731  1
  Li  Li58  1  0.34231924  0.73033929  0.42317731  1
  Li  Li59  1  0.34231924  0.73033929  0.92317731  1
  Li  Li60  1  0.84231924  0.23033929  0.42317731  1
  Li  Li61  1  0.84231924  0.23033929  0.92317731  1
  Li  Li62  1  0.84231924  0.73033929  0.42317731  1
  Li  Li63  1  0.84231924  0.73033929  0.92317731  1
  Pb  Pb64  1  0.12323722  0.24710910  0.35152256  1
  Pb  Pb65  1  0.12323722  0.24710910  0.85152256  1
  Pb  Pb66  1  0.12323722  0.74710910  0.35152256  1
  Pb  Pb67  1  0.12323722  0.74710910  0.85152256  1
  Pb  Pb68  1  0.62323722  0.24710910  0.35152256  1
  Pb  Pb69  1  0.62323722  0.24710910  0.85152256  1
  Pb  Pb70  1  0.62323722  0.74710910  0.35152256  1
  Pb  Pb71  1  0.62323722  0.74710910  0.85152256  1
  Pb  Pb72  1  0.37676278  0.25289090  0.14847744  1
  Pb  Pb73  1  0.37676278  0.25289090  0.64847744  1
  Pb  Pb74  1  0.37676278  0.75289090  0.14847744  1
  Pb  Pb75  1  0.37676278  0.75289090  0.64847744  1
  Pb  Pb76  1  0.87676278  0.25289090  0.14847744  1
  Pb  Pb77  1  0.87676278  0.25289090  0.64847744  1
  Pb  Pb78  1  0.87676278  0.75289090  0.14847744  1
  Pb  Pb79  1  0.87676278  0.75289090  0.64847744  1
  O  O80  1  0.31794658  0.31873891  0.28360696  1
  O  O81  1  0.31794658  0.31873891  0.78360696  1
  O  O82  1  0.31794658  0.81873891  0.28360696  1
  O  O83  1  0.31794658  0.81873891  0.78360696  1
  O  O84  1  0.81794658  0.31873891  0.28360696  1
  O  O85  1  0.81794658  0.31873891  0.78360696  1
  O  O86  1  0.81794658  0.81873891  0.28360696  1
  O  O87  1  0.81794658  0.81873891  0.78360696  1
  O  O88  1  0.05901087  0.41506542  0.31716427  1
  O  O89  1  0.05901087  0.41506542  0.81716427  1
  O  O90  1  0.05901087  0.91506542  0.31716427  1
  O  O91  1  0.05901087  0.91506542  0.81716427  1
  O  O92  1  0.55901087  0.41506542  0.31716427  1
  O  O93  1  0.55901087  0.41506542  0.81716427  1
  O  O94  1  0.55901087  0.91506542  0.31716427  1
  O  O95  1  0.55901087  0.91506542  0.81716427  1
  O  O96  1  0.44098913  0.08493458  0.18283573  1
  O  O97  1  0.44098913  0.08493458  0.68283573  1
  O  O98  1  0.44098913  0.58493458  0.18283573  1
  O  O99  1  0.44098913  0.58493458  0.68283573  1
  O  O100  1  0.94098913  0.08493458  0.18283573  1
  O  O101  1  0.94098913  0.08493458  0.68283573  1
  O  O102  1  0.94098913  0.58493458  0.18283573  1
  O  O103  1  0.94098913  0.58493458  0.68283573  1
  O  O104  1  0.17289129  0.16358546  0.48611892  1
  O  O105  1  0.17289129  0.16358546  0.98611892  1
  O  O106  1  0.17289129  0.66358546  0.48611892  1
  O  O107  1  0.17289129  0.66358546  0.98611892  1
  O  O108  1  0.67289129  0.16358546  0.48611892  1
  O  O109  1  0.67289129  0.16358546  0.98611892  1
  O  O110  1  0.67289129  0.66358546  0.48611892  1
  O  O111  1  0.67289129  0.66358546  0.98611892  1
  O  O112  1  0.32710871  0.33641454  0.01388108  1
  O  O113  1  0.32710871  0.33641454  0.51388108  1
  O  O114  1  0.32710871  0.83641454  0.01388108  1
  O  O115  1  0.32710871  0.83641454  0.51388108  1
  O  O116  1  0.82710871  0.33641454  0.01388108  1
  O  O117  1  0.82710871  0.33641454  0.51388108  1
  O  O118  1  0.82710871  0.83641454  0.01388108  1
  O  O119  1  0.82710871  0.83641454  0.51388108  1
  O  O120  1  0.47084751  0.11655806  0.41579712  1
  O  O121  1  0.47084751  0.11655806  0.91579712  1
  O  O122  1  0.47084751  0.61655806  0.41579712  1
  O  O123  1  0.47084751  0.61655806  0.91579712  1
  O  O124  1  0.97084751  0.11655806  0.41579712  1
  O  O125  1  0.97084751  0.11655806  0.91579712  1
  O  O126  1  0.97084751  0.61655806  0.41579712  1
  O  O127  1  0.97084751  0.61655806  0.91579712  1
  O  O128  1  0.02915249  0.38344194  0.08420288  1
  O  O129  1  0.02915249  0.38344194  0.58420288  1
  O  O130  1  0.02915249  0.88344194  0.08420288  1
  O  O131  1  0.02915249  0.88344194  0.58420288  1
  O  O132  1  0.52915249  0.38344194  0.08420288  1
  O  O133  1  0.52915249  0.38344194  0.58420288  1
  O  O134  1  0.52915249  0.88344194  0.08420288  1
  O  O135  1  0.52915249  0.88344194  0.58420288  1
  O  O136  1  0.18205342  0.18126109  0.21639304  1
  O  O137  1  0.18205342  0.18126109  0.71639304  1
  O  O138  1  0.18205342  0.68126109  0.21639304  1
  O  O139  1  0.18205342  0.68126109  0.71639304  1
  O  O140  1  0.68205342  0.18126109  0.21639304  1
  O  O141  1  0.68205342  0.18126109  0.71639304  1
  O  O142  1  0.68205342  0.68126109  0.21639304  1
  O  O143  1  0.68205342  0.68126109  0.71639304  1
