# generated using pymatgen
data_RbY(WO4)2
_symmetry_space_group_name_H-M   'P 1'
_cell_length_a   21.33000924
_cell_length_b   20.90803202
_cell_length_c   14.97710192
_cell_angle_alpha   90.00000000
_cell_angle_beta   130.50447543
_cell_angle_gamma   90.00000000
_symmetry_Int_Tables_number   1
_chemical_formula_structural   RbY(WO4)2
_chemical_formula_sum   'Rb32 Y32 W64 O256'
_cell_volume   5078.65281977
_cell_formula_units_Z   32
loop_
 _symmetry_equiv_pos_site_id
 _symmetry_equiv_pos_as_xyz
  1  'x, y, z'
loop_
 _atom_site_type_symbol
 _atom_site_label
 _atom_site_symmetry_multiplicity
 _atom_site_fract_x
 _atom_site_fract_y
 _atom_site_fract_z
 _atom_site_occupancy
  Rb  Rb0  1  0.25000000  -0.14982837  0.37500000  1
  Rb  Rb1  1  0.25000000  -0.14982837  0.87500000  1
  Rb  Rb2  1  0.25000000  0.35017163  0.37500000  1
  Rb  Rb3  1  0.25000000  0.35017163  0.87500000  1
  Rb  Rb4  1  0.75000000  -0.14982837  0.37500000  1
  Rb  Rb5  1  0.75000000  -0.14982837  0.87500000  1
  Rb  Rb6  1  0.75000000  0.35017163  0.37500000  1
  Rb  Rb7  1  0.75000000  0.35017163  0.87500000  1
  Rb  Rb8  1  0.50000000  0.10017163  0.37500000  1
  Rb  Rb9  1  0.50000000  0.10017163  0.87500000  1
  Rb  Rb10  1  0.50000000  0.60017163  0.37500000  1
  Rb  Rb11  1  0.50000000  0.60017163  0.87500000  1
  Rb  Rb12  1  1.00000000  0.10017163  0.37500000  1
  Rb  Rb13  1  1.00000000  0.10017163  0.87500000  1
  Rb  Rb14  1  1.00000000  0.60017163  0.37500000  1
  Rb  Rb15  1  1.00000000  0.60017163  0.87500000  1
  Rb  Rb16  1  0.25000000  0.14982837  0.12500000  1
  Rb  Rb17  1  0.25000000  0.14982837  0.62500000  1
  Rb  Rb18  1  0.25000000  0.64982837  0.12500000  1
  Rb  Rb19  1  0.25000000  0.64982837  0.62500000  1
  Rb  Rb20  1  0.75000000  0.14982837  0.12500000  1
  Rb  Rb21  1  0.75000000  0.14982837  0.62500000  1
  Rb  Rb22  1  0.75000000  0.64982837  0.12500000  1
  Rb  Rb23  1  0.75000000  0.64982837  0.62500000  1
  Rb  Rb24  1  0.50000000  0.39982837  0.12500000  1
  Rb  Rb25  1  0.50000000  0.39982837  0.62500000  1
  Rb  Rb26  1  0.50000000  0.89982837  0.12500000  1
  Rb  Rb27  1  0.50000000  0.89982837  0.62500000  1
  Rb  Rb28  1  1.00000000  0.39982837  0.12500000  1
  Rb  Rb29  1  1.00000000  0.39982837  0.62500000  1
  Rb  Rb30  1  1.00000000  0.89982837  0.12500000  1
  Rb  Rb31  1  1.00000000  0.89982837  0.62500000  1
  Y  Y32  1  0.25000000  0.13593679  0.37500000  1
  Y  Y33  1  0.25000000  0.13593679  0.87500000  1
  Y  Y34  1  0.25000000  0.63593679  0.37500000  1
  Y  Y35  1  0.25000000  0.63593679  0.87500000  1
  Y  Y36  1  0.75000000  0.13593679  0.37500000  1
  Y  Y37  1  0.75000000  0.13593679  0.87500000  1
  Y  Y38  1  0.75000000  0.63593679  0.37500000  1
  Y  Y39  1  0.75000000  0.63593679  0.87500000  1
  Y  Y40  1  0.50000000  0.38593679  0.37500000  1
  Y  Y41  1  0.50000000  0.38593679  0.87500000  1
  Y  Y42  1  0.50000000  0.88593679  0.37500000  1
  Y  Y43  1  0.50000000  0.88593679  0.87500000  1
  Y  Y44  1  1.00000000  0.38593679  0.37500000  1
  Y  Y45  1  1.00000000  0.38593679  0.87500000  1
  Y  Y46  1  1.00000000  0.88593679  0.37500000  1
  Y  Y47  1  1.00000000  0.88593679  0.87500000  1
  Y  Y48  1  0.25000000  -0.13593679  0.12500000  1
  Y  Y49  1  0.25000000  -0.13593679  0.62500000  1
  Y  Y50  1  0.25000000  0.36406321  0.12500000  1
  Y  Y51  1  0.25000000  0.36406321  0.62500000  1
  Y  Y52  1  0.75000000  -0.13593679  0.12500000  1
  Y  Y53  1  0.75000000  -0.13593679  0.62500000  1
  Y  Y54  1  0.75000000  0.36406321  0.12500000  1
  Y  Y55  1  0.75000000  0.36406321  0.62500000  1
  Y  Y56  1  0.50000000  0.11406321  0.12500000  1
  Y  Y57  1  0.50000000  0.11406321  0.62500000  1
  Y  Y58  1  0.50000000  0.61406321  0.12500000  1
  Y  Y59  1  0.50000000  0.61406321  0.62500000  1
  Y  Y60  1  1.00000000  0.11406321  0.12500000  1
  Y  Y61  1  1.00000000  0.11406321  0.62500000  1
  Y  Y62  1  1.00000000  0.61406321  0.12500000  1
  Y  Y63  1  1.00000000  0.61406321  0.62500000  1
  W  W64  1  0.15200701  0.00132460  0.38508460  1
  W  W65  1  0.15200701  0.00132460  0.88508460  1
  W  W66  1  0.15200701  0.50132460  0.38508460  1
  W  W67  1  0.15200701  0.50132460  0.88508460  1
  W  W68  1  0.65200701  0.00132460  0.38508460  1
  W  W69  1  0.65200701  0.00132460  0.88508460  1
  W  W70  1  0.65200701  0.50132460  0.38508460  1
  W  W71  1  0.65200701  0.50132460  0.88508460  1
  W  W72  1  0.40200701  0.25132460  0.38508460  1
  W  W73  1  0.40200701  0.25132460  0.88508460  1
  W  W74  1  0.40200701  0.75132460  0.38508460  1
  W  W75  1  0.40200701  0.75132460  0.88508460  1
  W  W76  1  0.90200701  0.25132460  0.38508460  1
  W  W77  1  0.90200701  0.25132460  0.88508460  1
  W  W78  1  0.90200701  0.75132460  0.38508460  1
  W  W79  1  0.90200701  0.75132460  0.88508460  1
  W  W80  1  0.34799299  -0.00132460  0.11491540  1
  W  W81  1  0.34799299  -0.00132460  0.61491540  1
  W  W82  1  0.34799299  0.49867540  0.11491540  1
  W  W83  1  0.34799299  0.49867540  0.61491540  1
  W  W84  1  0.84799299  -0.00132460  0.11491540  1
  W  W85  1  0.84799299  -0.00132460  0.61491540  1
  W  W86  1  0.84799299  0.49867540  0.11491540  1
  W  W87  1  0.84799299  0.49867540  0.61491540  1
  W  W88  1  0.59799299  0.24867540  0.11491540  1
  W  W89  1  0.59799299  0.24867540  0.61491540  1
  W  W90  1  0.59799299  0.74867540  0.11491540  1
  W  W91  1  0.59799299  0.74867540  0.61491540  1
  W  W92  1  1.09799299  0.24867540  0.11491540  1
  W  W93  1  1.09799299  0.24867540  0.61491540  1
  W  W94  1  1.09799299  0.74867540  0.11491540  1
  W  W95  1  1.09799299  0.74867540  0.61491540  1
  W  W96  1  0.34799299  0.00132460  0.36491540  1
  W  W97  1  0.34799299  0.00132460  0.86491540  1
  W  W98  1  0.34799299  0.50132460  0.36491540  1
  W  W99  1  0.34799299  0.50132460  0.86491540  1
  W  W100  1  0.84799299  0.00132460  0.36491540  1
  W  W101  1  0.84799299  0.00132460  0.86491540  1
  W  W102  1  0.84799299  0.50132460  0.36491540  1
  W  W103  1  0.84799299  0.50132460  0.86491540  1
  W  W104  1  0.59799299  0.25132460  0.36491540  1
  W  W105  1  0.59799299  0.25132460  0.86491540  1
  W  W106  1  0.59799299  0.75132460  0.36491540  1
  W  W107  1  0.59799299  0.75132460  0.86491540  1
  W  W108  1  1.09799299  0.25132460  0.36491540  1
  W  W109  1  1.09799299  0.25132460  0.86491540  1
  W  W110  1  1.09799299  0.75132460  0.36491540  1
  W  W111  1  1.09799299  0.75132460  0.86491540  1
  W  W112  1  0.15200701  -0.00132460  0.13508460  1
  W  W113  1  0.15200701  -0.00132460  0.63508460  1
  W  W114  1  0.15200701  0.49867540  0.13508460  1
  W  W115  1  0.15200701  0.49867540  0.63508460  1
  W  W116  1  0.65200701  -0.00132460  0.13508460  1
  W  W117  1  0.65200701  -0.00132460  0.63508460  1
  W  W118  1  0.65200701  0.49867540  0.13508460  1
  W  W119  1  0.65200701  0.49867540  0.63508460  1
  W  W120  1  0.40200701  0.24867540  0.13508460  1
  W  W121  1  0.40200701  0.24867540  0.63508460  1
  W  W122  1  0.40200701  0.74867540  0.13508460  1
  W  W123  1  0.40200701  0.74867540  0.63508460  1
  W  W124  1  0.90200701  0.24867540  0.13508460  1
  W  W125  1  0.90200701  0.24867540  0.63508460  1
  W  W126  1  0.90200701  0.74867540  0.13508460  1
  W  W127  1  0.90200701  0.74867540  0.63508460  1
  O  O128  1  0.15515836  -0.03463173  0.27826689  1
  O  O129  1  0.15515836  -0.03463173  0.77826689  1
  O  O130  1  0.15515836  0.46536827  0.27826689  1
  O  O131  1  0.15515836  0.46536827  0.77826689  1
  O  O132  1  0.65515836  -0.03463173  0.27826689  1
  O  O133  1  0.65515836  -0.03463173  0.77826689  1
  O  O134  1  0.65515836  0.46536827  0.27826689  1
  O  O135  1  0.65515836  0.46536827  0.77826689  1
  O  O136  1  0.40515836  0.21536827  0.27826689  1
  O  O137  1  0.40515836  0.21536827  0.77826689  1
  O  O138  1  0.40515836  0.71536827  0.27826689  1
  O  O139  1  0.40515836  0.71536827  0.77826689  1
  O  O140  1  0.90515836  0.21536827  0.27826689  1
  O  O141  1  0.90515836  0.21536827  0.77826689  1
  O  O142  1  0.90515836  0.71536827  0.27826689  1
  O  O143  1  0.90515836  0.71536827  0.77826689  1
  O  O144  1  0.34484164  0.03463173  0.22173311  1
  O  O145  1  0.34484164  0.03463173  0.72173311  1
  O  O146  1  0.34484164  0.53463173  0.22173311  1
  O  O147  1  0.34484164  0.53463173  0.72173311  1
  O  O148  1  0.84484164  0.03463173  0.22173311  1
  O  O149  1  0.84484164  0.03463173  0.72173311  1
  O  O150  1  0.84484164  0.53463173  0.22173311  1
  O  O151  1  0.84484164  0.53463173  0.72173311  1
  O  O152  1  0.59484164  0.28463173  0.22173311  1
  O  O153  1  0.59484164  0.28463173  0.72173311  1
  O  O154  1  0.59484164  0.78463173  0.22173311  1
  O  O155  1  0.59484164  0.78463173  0.72173311  1
  O  O156  1  1.09484164  0.28463173  0.22173311  1
  O  O157  1  1.09484164  0.28463173  0.72173311  1
  O  O158  1  1.09484164  0.78463173  0.22173311  1
  O  O159  1  1.09484164  0.78463173  0.72173311  1
  O  O160  1  0.34484164  -0.03463173  0.47173311  1
  O  O161  1  0.34484164  -0.03463173  0.97173311  1
  O  O162  1  0.34484164  0.46536827  0.47173311  1
  O  O163  1  0.34484164  0.46536827  0.97173311  1
  O  O164  1  0.84484164  -0.03463173  0.47173311  1
  O  O165  1  0.84484164  -0.03463173  0.97173311  1
  O  O166  1  0.84484164  0.46536827  0.47173311  1
  O  O167  1  0.84484164  0.46536827  0.97173311  1
  O  O168  1  0.59484164  0.21536827  0.47173311  1
  O  O169  1  0.59484164  0.21536827  0.97173311  1
  O  O170  1  0.59484164  0.71536827  0.47173311  1
  O  O171  1  0.59484164  0.71536827  0.97173311  1
  O  O172  1  1.09484164  0.21536827  0.47173311  1
  O  O173  1  1.09484164  0.21536827  0.97173311  1
  O  O174  1  1.09484164  0.71536827  0.47173311  1
  O  O175  1  1.09484164  0.71536827  0.97173311  1
  O  O176  1  0.15515836  0.03463173  0.02826689  1
  O  O177  1  0.15515836  0.03463173  0.52826689  1
  O  O178  1  0.15515836  0.53463173  0.02826689  1
  O  O179  1  0.15515836  0.53463173  0.52826689  1
  O  O180  1  0.65515836  0.03463173  0.02826689  1
  O  O181  1  0.65515836  0.03463173  0.52826689  1
  O  O182  1  0.65515836  0.53463173  0.02826689  1
  O  O183  1  0.65515836  0.53463173  0.52826689  1
  O  O184  1  0.40515836  0.28463173  0.02826689  1
  O  O185  1  0.40515836  0.28463173  0.52826689  1
  O  O186  1  0.40515836  0.78463173  0.02826689  1
  O  O187  1  0.40515836  0.78463173  0.52826689  1
  O  O188  1  0.90515836  0.28463173  0.02826689  1
  O  O189  1  0.90515836  0.28463173  0.52826689  1
  O  O190  1  0.90515836  0.78463173  0.02826689  1
  O  O191  1  0.90515836  0.78463173  0.52826689  1
  O  O192  1  0.38914996  0.07931286  0.43724186  1
  O  O193  1  0.38914996  0.07931286  0.93724186  1
  O  O194  1  0.38914996  0.57931286  0.43724186  1
  O  O195  1  0.38914996  0.57931286  0.93724186  1
  O  O196  1  0.88914996  0.07931286  0.43724186  1
  O  O197  1  0.88914996  0.07931286  0.93724186  1
  O  O198  1  0.88914996  0.57931286  0.43724186  1
  O  O199  1  0.88914996  0.57931286  0.93724186  1
  O  O200  1  0.63914996  0.32931286  0.43724186  1
  O  O201  1  0.63914996  0.32931286  0.93724186  1
  O  O202  1  0.63914996  0.82931286  0.43724186  1
  O  O203  1  0.63914996  0.82931286  0.93724186  1
  O  O204  1  1.13914996  0.32931286  0.43724186  1
  O  O205  1  1.13914996  0.32931286  0.93724186  1
  O  O206  1  1.13914996  0.82931286  0.43724186  1
  O  O207  1  1.13914996  0.82931286  0.93724186  1
  O  O208  1  0.11085004  -0.07931286  0.06275814  1
  O  O209  1  0.11085004  -0.07931286  0.56275814  1
  O  O210  1  0.11085004  0.42068714  0.06275814  1
  O  O211  1  0.11085004  0.42068714  0.56275814  1
  O  O212  1  0.61085004  -0.07931286  0.06275814  1
  O  O213  1  0.61085004  -0.07931286  0.56275814  1
  O  O214  1  0.61085004  0.42068714  0.06275814  1
  O  O215  1  0.61085004  0.42068714  0.56275814  1
  O  O216  1  0.36085004  0.17068714  0.06275814  1
  O  O217  1  0.36085004  0.17068714  0.56275814  1
  O  O218  1  0.36085004  0.67068714  0.06275814  1
  O  O219  1  0.36085004  0.67068714  0.56275814  1
  O  O220  1  0.86085004  0.17068714  0.06275814  1
  O  O221  1  0.86085004  0.17068714  0.56275814  1
  O  O222  1  0.86085004  0.67068714  0.06275814  1
  O  O223  1  0.86085004  0.67068714  0.56275814  1
  O  O224  1  0.11085004  0.07931286  0.31275814  1
  O  O225  1  0.11085004  0.07931286  0.81275814  1
  O  O226  1  0.11085004  0.57931286  0.31275814  1
  O  O227  1  0.11085004  0.57931286  0.81275814  1
  O  O228  1  0.61085004  0.07931286  0.31275814  1
  O  O229  1  0.61085004  0.07931286  0.81275814  1
  O  O230  1  0.61085004  0.57931286  0.31275814  1
  O  O231  1  0.61085004  0.57931286  0.81275814  1
  O  O232  1  0.36085004  0.32931286  0.31275814  1
  O  O233  1  0.36085004  0.32931286  0.81275814  1
  O  O234  1  0.36085004  0.82931286  0.31275814  1
  O  O235  1  0.36085004  0.82931286  0.81275814  1
  O  O236  1  0.86085004  0.32931286  0.31275814  1
  O  O237  1  0.86085004  0.32931286  0.81275814  1
  O  O238  1  0.86085004  0.82931286  0.31275814  1
  O  O239  1  0.86085004  0.82931286  0.81275814  1
  O  O240  1  0.38914996  -0.07931286  0.18724186  1
  O  O241  1  0.38914996  -0.07931286  0.68724186  1
  O  O242  1  0.38914996  0.42068714  0.18724186  1
  O  O243  1  0.38914996  0.42068714  0.68724186  1
  O  O244  1  0.88914996  -0.07931286  0.18724186  1
  O  O245  1  0.88914996  -0.07931286  0.68724186  1
  O  O246  1  0.88914996  0.42068714  0.18724186  1
  O  O247  1  0.88914996  0.42068714  0.68724186  1
  O  O248  1  0.63914996  0.17068714  0.18724186  1
  O  O249  1  0.63914996  0.17068714  0.68724186  1
  O  O250  1  0.63914996  0.67068714  0.18724186  1
  O  O251  1  0.63914996  0.67068714  0.68724186  1
  O  O252  1  1.13914996  0.17068714  0.18724186  1
  O  O253  1  1.13914996  0.17068714  0.68724186  1
  O  O254  1  1.13914996  0.67068714  0.18724186  1
  O  O255  1  1.13914996  0.67068714  0.68724186  1
  O  O256  1  0.26064894  0.05441494  0.48458450  1
  O  O257  1  0.26064894  0.05441494  0.98458450  1
  O  O258  1  0.26064894  0.55441494  0.48458450  1
  O  O259  1  0.26064894  0.55441494  0.98458450  1
  O  O260  1  0.76064894  0.05441494  0.48458450  1
  O  O261  1  0.76064894  0.05441494  0.98458450  1
  O  O262  1  0.76064894  0.55441494  0.48458450  1
  O  O263  1  0.76064894  0.55441494  0.98458450  1
  O  O264  1  0.51064894  0.30441494  0.48458450  1
  O  O265  1  0.51064894  0.30441494  0.98458450  1
  O  O266  1  0.51064894  0.80441494  0.48458450  1
  O  O267  1  0.51064894  0.80441494  0.98458450  1
  O  O268  1  1.01064894  0.30441494  0.48458450  1
  O  O269  1  1.01064894  0.30441494  0.98458450  1
  O  O270  1  1.01064894  0.80441494  0.48458450  1
  O  O271  1  1.01064894  0.80441494  0.98458450  1
  O  O272  1  0.23935106  -0.05441494  0.01541550  1
  O  O273  1  0.23935106  -0.05441494  0.51541550  1
  O  O274  1  0.23935106  0.44558506  0.01541550  1
  O  O275  1  0.23935106  0.44558506  0.51541550  1
  O  O276  1  0.73935106  -0.05441494  0.01541550  1
  O  O277  1  0.73935106  -0.05441494  0.51541550  1
  O  O278  1  0.73935106  0.44558506  0.01541550  1
  O  O279  1  0.73935106  0.44558506  0.51541550  1
  O  O280  1  0.48935106  0.19558506  0.01541550  1
  O  O281  1  0.48935106  0.19558506  0.51541550  1
  O  O282  1  0.48935106  0.69558506  0.01541550  1
  O  O283  1  0.48935106  0.69558506  0.51541550  1
  O  O284  1  0.98935106  0.19558506  0.01541550  1
  O  O285  1  0.98935106  0.19558506  0.51541550  1
  O  O286  1  0.98935106  0.69558506  0.01541550  1
  O  O287  1  0.98935106  0.69558506  0.51541550  1
  O  O288  1  0.23935106  0.05441494  0.26541550  1
  O  O289  1  0.23935106  0.05441494  0.76541550  1
  O  O290  1  0.23935106  0.55441494  0.26541550  1
  O  O291  1  0.23935106  0.55441494  0.76541550  1
  O  O292  1  0.73935106  0.05441494  0.26541550  1
  O  O293  1  0.73935106  0.05441494  0.76541550  1
  O  O294  1  0.73935106  0.55441494  0.26541550  1
  O  O295  1  0.73935106  0.55441494  0.76541550  1
  O  O296  1  0.48935106  0.30441494  0.26541550  1
  O  O297  1  0.48935106  0.30441494  0.76541550  1
  O  O298  1  0.48935106  0.80441494  0.26541550  1
  O  O299  1  0.48935106  0.80441494  0.76541550  1
  O  O300  1  0.98935106  0.30441494  0.26541550  1
  O  O301  1  0.98935106  0.30441494  0.76541550  1
  O  O302  1  0.98935106  0.80441494  0.26541550  1
  O  O303  1  0.98935106  0.80441494  0.76541550  1
  O  O304  1  0.26064894  -0.05441494  0.23458450  1
  O  O305  1  0.26064894  -0.05441494  0.73458450  1
  O  O306  1  0.26064894  0.44558506  0.23458450  1
  O  O307  1  0.26064894  0.44558506  0.73458450  1
  O  O308  1  0.76064894  -0.05441494  0.23458450  1
  O  O309  1  0.76064894  -0.05441494  0.73458450  1
  O  O310  1  0.76064894  0.44558506  0.23458450  1
  O  O311  1  0.76064894  0.44558506  0.73458450  1
  O  O312  1  0.51064894  0.19558506  0.23458450  1
  O  O313  1  0.51064894  0.19558506  0.73458450  1
  O  O314  1  0.51064894  0.69558506  0.23458450  1
  O  O315  1  0.51064894  0.69558506  0.73458450  1
  O  O316  1  1.01064894  0.19558506  0.23458450  1
  O  O317  1  1.01064894  0.19558506  0.73458450  1
  O  O318  1  1.01064894  0.69558506  0.23458450  1
  O  O319  1  1.01064894  0.69558506  0.73458450  1
  O  O320  1  0.06408748  -0.04170161  0.34628850  1
  O  O321  1  0.06408748  -0.04170161  0.84628850  1
  O  O322  1  0.06408748  0.45829839  0.34628850  1
  O  O323  1  0.06408748  0.45829839  0.84628850  1
  O  O324  1  0.56408748  -0.04170161  0.34628850  1
  O  O325  1  0.56408748  -0.04170161  0.84628850  1
  O  O326  1  0.56408748  0.45829839  0.34628850  1
  O  O327  1  0.56408748  0.45829839  0.84628850  1
  O  O328  1  0.31408748  0.20829839  0.34628850  1
  O  O329  1  0.31408748  0.20829839  0.84628850  1
  O  O330  1  0.31408748  0.70829839  0.34628850  1
  O  O331  1  0.31408748  0.70829839  0.84628850  1
  O  O332  1  0.81408748  0.20829839  0.34628850  1
  O  O333  1  0.81408748  0.20829839  0.84628850  1
  O  O334  1  0.81408748  0.70829839  0.34628850  1
  O  O335  1  0.81408748  0.70829839  0.84628850  1
  O  O336  1  0.43591252  0.04170161  0.15371150  1
  O  O337  1  0.43591252  0.04170161  0.65371150  1
  O  O338  1  0.43591252  0.54170161  0.15371150  1
  O  O339  1  0.43591252  0.54170161  0.65371150  1
  O  O340  1  0.93591252  0.04170161  0.15371150  1
  O  O341  1  0.93591252  0.04170161  0.65371150  1
  O  O342  1  0.93591252  0.54170161  0.15371150  1
  O  O343  1  0.93591252  0.54170161  0.65371150  1
  O  O344  1  0.68591252  0.29170161  0.15371150  1
  O  O345  1  0.68591252  0.29170161  0.65371150  1
  O  O346  1  0.68591252  0.79170161  0.15371150  1
  O  O347  1  0.68591252  0.79170161  0.65371150  1
  O  O348  1  1.18591252  0.29170161  0.15371150  1
  O  O349  1  1.18591252  0.29170161  0.65371150  1
  O  O350  1  1.18591252  0.79170161  0.15371150  1
  O  O351  1  1.18591252  0.79170161  0.65371150  1
  O  O352  1  0.43591252  -0.04170161  0.40371150  1
  O  O353  1  0.43591252  -0.04170161  0.90371150  1
  O  O354  1  0.43591252  0.45829839  0.40371150  1
  O  O355  1  0.43591252  0.45829839  0.90371150  1
  O  O356  1  0.93591252  -0.04170161  0.40371150  1
  O  O357  1  0.93591252  -0.04170161  0.90371150  1
  O  O358  1  0.93591252  0.45829839  0.40371150  1
  O  O359  1  0.93591252  0.45829839  0.90371150  1
  O  O360  1  0.68591252  0.20829839  0.40371150  1
  O  O361  1  0.68591252  0.20829839  0.90371150  1
  O  O362  1  0.68591252  0.70829839  0.40371150  1
  O  O363  1  0.68591252  0.70829839  0.90371150  1
  O  O364  1  1.18591252  0.20829839  0.40371150  1
  O  O365  1  1.18591252  0.20829839  0.90371150  1
  O  O366  1  1.18591252  0.70829839  0.40371150  1
  O  O367  1  1.18591252  0.70829839  0.90371150  1
  O  O368  1  0.06408748  0.04170161  0.09628850  1
  O  O369  1  0.06408748  0.04170161  0.59628850  1
  O  O370  1  0.06408748  0.54170161  0.09628850  1
  O  O371  1  0.06408748  0.54170161  0.59628850  1
  O  O372  1  0.56408748  0.04170161  0.09628850  1
  O  O373  1  0.56408748  0.04170161  0.59628850  1
  O  O374  1  0.56408748  0.54170161  0.09628850  1
  O  O375  1  0.56408748  0.54170161  0.59628850  1
  O  O376  1  0.31408748  0.29170161  0.09628850  1
  O  O377  1  0.31408748  0.29170161  0.59628850  1
  O  O378  1  0.31408748  0.79170161  0.09628850  1
  O  O379  1  0.31408748  0.79170161  0.59628850  1
  O  O380  1  0.81408748  0.29170161  0.09628850  1
  O  O381  1  0.81408748  0.29170161  0.59628850  1
  O  O382  1  0.81408748  0.79170161  0.09628850  1
  O  O383  1  0.81408748  0.79170161  0.59628850  1
