# generated using pymatgen
data_MgTiO3
_symmetry_space_group_name_H-M   'P 1'
_cell_length_a   15.18725516
_cell_length_b   15.18725516
_cell_length_c   13.86313904
_cell_angle_alpha   90.00000000
_cell_angle_beta   90.00000000
_cell_angle_gamma   120.00000000
_symmetry_Int_Tables_number   1
_chemical_formula_structural   MgTiO3
_chemical_formula_sum   'Mg54 Ti54 O162'
_cell_volume   2769.17747262
_cell_formula_units_Z   54
loop_
 _symmetry_equiv_pos_site_id
 _symmetry_equiv_pos_as_xyz
  1  'x, y, z'
loop_
 _atom_site_type_symbol
 _atom_site_label
 _atom_site_symmetry_multiplicity
 _atom_site_fract_x
 _atom_site_fract_y
 _atom_site_fract_z
 _atom_site_occupancy
  Mg  Mg0  1  -0.00000000  -0.00000000  0.35518071  1
  Mg  Mg1  1  -0.00000000  0.33333333  0.35518071  1
  Mg  Mg2  1  -0.00000000  0.66666667  0.35518071  1
  Mg  Mg3  1  0.33333333  -0.00000000  0.35518071  1
  Mg  Mg4  1  0.33333333  0.33333333  0.35518071  1
  Mg  Mg5  1  0.33333333  0.66666667  0.35518071  1
  Mg  Mg6  1  0.66666667  -0.00000000  0.35518071  1
  Mg  Mg7  1  0.66666667  0.33333333  0.35518071  1
  Mg  Mg8  1  0.66666667  0.66666667  0.35518071  1
  Mg  Mg9  1  0.22222222  0.11111111  0.68851404  1
  Mg  Mg10  1  0.22222222  0.44444444  0.68851404  1
  Mg  Mg11  1  0.22222222  0.77777778  0.68851404  1
  Mg  Mg12  1  0.55555556  0.11111111  0.68851404  1
  Mg  Mg13  1  0.55555556  0.44444444  0.68851404  1
  Mg  Mg14  1  0.55555556  0.77777778  0.68851404  1
  Mg  Mg15  1  0.88888889  0.11111111  0.68851404  1
  Mg  Mg16  1  0.88888889  0.44444444  0.68851404  1
  Mg  Mg17  1  0.88888889  0.77777778  0.68851404  1
  Mg  Mg18  1  0.11111111  0.22222222  1.02184738  1
  Mg  Mg19  1  0.11111111  0.55555556  1.02184738  1
  Mg  Mg20  1  0.11111111  0.88888889  1.02184738  1
  Mg  Mg21  1  0.44444444  0.22222222  1.02184738  1
  Mg  Mg22  1  0.44444444  0.55555556  1.02184738  1
  Mg  Mg23  1  0.44444444  0.88888889  1.02184738  1
  Mg  Mg24  1  0.77777778  0.22222222  1.02184738  1
  Mg  Mg25  1  0.77777778  0.55555556  1.02184738  1
  Mg  Mg26  1  0.77777778  0.88888889  1.02184738  1
  Mg  Mg27  1  -0.00000000  0.00000000  0.64481929  1
  Mg  Mg28  1  -0.00000000  0.33333333  0.64481929  1
  Mg  Mg29  1  -0.00000000  0.66666667  0.64481929  1
  Mg  Mg30  1  0.33333333  0.00000000  0.64481929  1
  Mg  Mg31  1  0.33333333  0.33333333  0.64481929  1
  Mg  Mg32  1  0.33333333  0.66666667  0.64481929  1
  Mg  Mg33  1  0.66666667  0.00000000  0.64481929  1
  Mg  Mg34  1  0.66666667  0.33333333  0.64481929  1
  Mg  Mg35  1  0.66666667  0.66666667  0.64481929  1
  Mg  Mg36  1  0.22222222  0.11111111  0.97815262  1
  Mg  Mg37  1  0.22222222  0.44444444  0.97815262  1
  Mg  Mg38  1  0.22222222  0.77777778  0.97815262  1
  Mg  Mg39  1  0.55555556  0.11111111  0.97815262  1
  Mg  Mg40  1  0.55555556  0.44444444  0.97815262  1
  Mg  Mg41  1  0.55555556  0.77777778  0.97815262  1
  Mg  Mg42  1  0.88888889  0.11111111  0.97815262  1
  Mg  Mg43  1  0.88888889  0.44444444  0.97815262  1
  Mg  Mg44  1  0.88888889  0.77777778  0.97815262  1
  Mg  Mg45  1  0.11111111  0.22222222  1.31148596  1
  Mg  Mg46  1  0.11111111  0.55555556  1.31148596  1
  Mg  Mg47  1  0.11111111  0.88888889  1.31148596  1
  Mg  Mg48  1  0.44444444  0.22222222  1.31148596  1
  Mg  Mg49  1  0.44444444  0.55555556  1.31148596  1
  Mg  Mg50  1  0.44444444  0.88888889  1.31148596  1
  Mg  Mg51  1  0.77777778  0.22222222  1.31148596  1
  Mg  Mg52  1  0.77777778  0.55555556  1.31148596  1
  Mg  Mg53  1  0.77777778  0.88888889  1.31148596  1
  Ti  Ti54  1  -0.00000000  -0.00000000  0.14553020  1
  Ti  Ti55  1  -0.00000000  0.33333333  0.14553020  1
  Ti  Ti56  1  -0.00000000  0.66666667  0.14553020  1
  Ti  Ti57  1  0.33333333  -0.00000000  0.14553020  1
  Ti  Ti58  1  0.33333333  0.33333333  0.14553020  1
  Ti  Ti59  1  0.33333333  0.66666667  0.14553020  1
  Ti  Ti60  1  0.66666667  -0.00000000  0.14553020  1
  Ti  Ti61  1  0.66666667  0.33333333  0.14553020  1
  Ti  Ti62  1  0.66666667  0.66666667  0.14553020  1
  Ti  Ti63  1  0.22222222  0.11111111  0.47886354  1
  Ti  Ti64  1  0.22222222  0.44444444  0.47886354  1
  Ti  Ti65  1  0.22222222  0.77777778  0.47886354  1
  Ti  Ti66  1  0.55555556  0.11111111  0.47886354  1
  Ti  Ti67  1  0.55555556  0.44444444  0.47886354  1
  Ti  Ti68  1  0.55555556  0.77777778  0.47886354  1
  Ti  Ti69  1  0.88888889  0.11111111  0.47886354  1
  Ti  Ti70  1  0.88888889  0.44444444  0.47886354  1
  Ti  Ti71  1  0.88888889  0.77777778  0.47886354  1
  Ti  Ti72  1  0.11111111  0.22222222  0.81219687  1
  Ti  Ti73  1  0.11111111  0.55555556  0.81219687  1
  Ti  Ti74  1  0.11111111  0.88888889  0.81219687  1
  Ti  Ti75  1  0.44444444  0.22222222  0.81219687  1
  Ti  Ti76  1  0.44444444  0.55555556  0.81219687  1
  Ti  Ti77  1  0.44444444  0.88888889  0.81219687  1
  Ti  Ti78  1  0.77777778  0.22222222  0.81219687  1
  Ti  Ti79  1  0.77777778  0.55555556  0.81219687  1
  Ti  Ti80  1  0.77777778  0.88888889  0.81219687  1
  Ti  Ti81  1  -0.00000000  -0.00000000  0.85446980  1
  Ti  Ti82  1  -0.00000000  0.33333333  0.85446980  1
  Ti  Ti83  1  -0.00000000  0.66666667  0.85446980  1
  Ti  Ti84  1  0.33333333  -0.00000000  0.85446980  1
  Ti  Ti85  1  0.33333333  0.33333333  0.85446980  1
  Ti  Ti86  1  0.33333333  0.66666667  0.85446980  1
  Ti  Ti87  1  0.66666667  -0.00000000  0.85446980  1
  Ti  Ti88  1  0.66666667  0.33333333  0.85446980  1
  Ti  Ti89  1  0.66666667  0.66666667  0.85446980  1
  Ti  Ti90  1  0.22222222  0.11111111  1.18780313  1
  Ti  Ti91  1  0.22222222  0.44444444  1.18780313  1
  Ti  Ti92  1  0.22222222  0.77777778  1.18780313  1
  Ti  Ti93  1  0.55555556  0.11111111  1.18780313  1
  Ti  Ti94  1  0.55555556  0.44444444  1.18780313  1
  Ti  Ti95  1  0.55555556  0.77777778  1.18780313  1
  Ti  Ti96  1  0.88888889  0.11111111  1.18780313  1
  Ti  Ti97  1  0.88888889  0.44444444  1.18780313  1
  Ti  Ti98  1  0.88888889  0.77777778  1.18780313  1
  Ti  Ti99  1  0.11111111  0.22222222  1.52113646  1
  Ti  Ti100  1  0.11111111  0.55555556  1.52113646  1
  Ti  Ti101  1  0.11111111  0.88888889  1.52113646  1
  Ti  Ti102  1  0.44444444  0.22222222  1.52113646  1
  Ti  Ti103  1  0.44444444  0.55555556  1.52113646  1
  Ti  Ti104  1  0.44444444  0.88888889  1.52113646  1
  Ti  Ti105  1  0.77777778  0.22222222  1.52113646  1
  Ti  Ti106  1  0.77777778  0.55555556  1.52113646  1
  Ti  Ti107  1  0.77777778  0.88888889  1.52113646  1
  O  O108  1  0.00664054  0.12424620  0.41973425  1
  O  O109  1  0.00664054  0.45757953  0.41973425  1
  O  O110  1  0.00664054  0.79091287  0.41973425  1
  O  O111  1  0.33997387  0.12424620  0.41973425  1
  O  O112  1  0.33997387  0.45757953  0.41973425  1
  O  O113  1  0.33997387  0.79091287  0.41973425  1
  O  O114  1  0.67330720  0.12424620  0.41973425  1
  O  O115  1  0.67330720  0.45757953  0.41973425  1
  O  O116  1  0.67330720  0.79091287  0.41973425  1
  O  O117  1  0.22886276  0.23535731  0.75306758  1
  O  O118  1  0.22886276  0.56869065  0.75306758  1
  O  O119  1  0.22886276  0.90202398  0.75306758  1
  O  O120  1  0.56219609  0.23535731  0.75306758  1
  O  O121  1  0.56219609  0.56869065  0.75306758  1
  O  O122  1  0.56219609  0.90202398  0.75306758  1
  O  O123  1  0.89552942  0.23535731  0.75306758  1
  O  O124  1  0.89552942  0.56869065  0.75306758  1
  O  O125  1  0.89552942  0.90202398  0.75306758  1
  O  O126  1  0.11775165  0.34646842  1.08640092  1
  O  O127  1  0.11775165  0.67980176  1.08640092  1
  O  O128  1  0.11775165  1.01313509  1.08640092  1
  O  O129  1  0.45108498  0.34646842  1.08640092  1
  O  O130  1  0.45108498  0.67980176  1.08640092  1
  O  O131  1  0.45108498  1.01313509  1.08640092  1
  O  O132  1  0.78441831  0.34646842  1.08640092  1
  O  O133  1  0.78441831  0.67980176  1.08640092  1
  O  O134  1  0.78441831  1.01313509  1.08640092  1
  O  O135  1  -0.12424620  -0.11760567  0.41973425  1
  O  O136  1  -0.12424620  0.21572767  0.41973425  1
  O  O137  1  -0.12424620  0.54906100  0.41973425  1
  O  O138  1  0.20908713  -0.11760567  0.41973425  1
  O  O139  1  0.20908713  0.21572767  0.41973425  1
  O  O140  1  0.20908713  0.54906100  0.41973425  1
  O  O141  1  0.54242047  -0.11760567  0.41973425  1
  O  O142  1  0.54242047  0.21572767  0.41973425  1
  O  O143  1  0.54242047  0.54906100  0.41973425  1
  O  O144  1  0.09797602  -0.00649455  0.75306758  1
  O  O145  1  0.09797602  0.32683878  0.75306758  1
  O  O146  1  0.09797602  0.66017211  0.75306758  1
  O  O147  1  0.43130935  -0.00649455  0.75306758  1
  O  O148  1  0.43130935  0.32683878  0.75306758  1
  O  O149  1  0.43130935  0.66017211  0.75306758  1
  O  O150  1  0.76464269  -0.00649455  0.75306758  1
  O  O151  1  0.76464269  0.32683878  0.75306758  1
  O  O152  1  0.76464269  0.66017211  0.75306758  1
  O  O153  1  -0.01313509  0.10461656  1.08640092  1
  O  O154  1  -0.01313509  0.43794989  1.08640092  1
  O  O155  1  -0.01313509  0.77128322  1.08640092  1
  O  O156  1  0.32019824  0.10461656  1.08640092  1
  O  O157  1  0.32019824  0.43794989  1.08640092  1
  O  O158  1  0.32019824  0.77128322  1.08640092  1
  O  O159  1  0.65353158  0.10461656  1.08640092  1
  O  O160  1  0.65353158  0.43794989  1.08640092  1
  O  O161  1  0.65353158  0.77128322  1.08640092  1
  O  O162  1  0.11760567  -0.00664054  0.41973425  1
  O  O163  1  0.11760567  0.32669280  0.41973425  1
  O  O164  1  0.11760567  0.66002613  0.41973425  1
  O  O165  1  0.45093900  -0.00664054  0.41973425  1
  O  O166  1  0.45093900  0.32669280  0.41973425  1
  O  O167  1  0.45093900  0.66002613  0.41973425  1
  O  O168  1  0.78427233  -0.00664054  0.41973425  1
  O  O169  1  0.78427233  0.32669280  0.41973425  1
  O  O170  1  0.78427233  0.66002613  0.41973425  1
  O  O171  1  0.33982789  0.10447058  0.75306758  1
  O  O172  1  0.33982789  0.43780391  0.75306758  1
  O  O173  1  0.33982789  0.77113724  0.75306758  1
  O  O174  1  0.67316122  0.10447058  0.75306758  1
  O  O175  1  0.67316122  0.43780391  0.75306758  1
  O  O176  1  0.67316122  0.77113724  0.75306758  1
  O  O177  1  1.00649455  0.10447058  0.75306758  1
  O  O178  1  1.00649455  0.43780391  0.75306758  1
  O  O179  1  1.00649455  0.77113724  0.75306758  1
  O  O180  1  0.22871678  0.21558169  1.08640092  1
  O  O181  1  0.22871678  0.54891502  1.08640092  1
  O  O182  1  0.22871678  0.88224835  1.08640092  1
  O  O183  1  0.56205011  0.21558169  1.08640092  1
  O  O184  1  0.56205011  0.54891502  1.08640092  1
  O  O185  1  0.56205011  0.88224835  1.08640092  1
  O  O186  1  0.89538344  0.21558169  1.08640092  1
  O  O187  1  0.89538344  0.54891502  1.08640092  1
  O  O188  1  0.89538344  0.88224835  1.08640092  1
  O  O189  1  -0.00664054  -0.12424620  0.58026575  1
  O  O190  1  -0.00664054  0.20908713  0.58026575  1
  O  O191  1  -0.00664054  0.54242047  0.58026575  1
  O  O192  1  0.32669280  -0.12424620  0.58026575  1
  O  O193  1  0.32669280  0.20908713  0.58026575  1
  O  O194  1  0.32669280  0.54242047  0.58026575  1
  O  O195  1  0.66002613  -0.12424620  0.58026575  1
  O  O196  1  0.66002613  0.20908713  0.58026575  1
  O  O197  1  0.66002613  0.54242047  0.58026575  1
  O  O198  1  0.21558169  -0.01313509  0.91359908  1
  O  O199  1  0.21558169  0.32019824  0.91359908  1
  O  O200  1  0.21558169  0.65353158  0.91359908  1
  O  O201  1  0.54891502  -0.01313509  0.91359908  1
  O  O202  1  0.54891502  0.32019824  0.91359908  1
  O  O203  1  0.54891502  0.65353158  0.91359908  1
  O  O204  1  0.88224835  -0.01313509  0.91359908  1
  O  O205  1  0.88224835  0.32019824  0.91359908  1
  O  O206  1  0.88224835  0.65353158  0.91359908  1
  O  O207  1  0.10447058  0.09797602  1.24693242  1
  O  O208  1  0.10447058  0.43130935  1.24693242  1
  O  O209  1  0.10447058  0.76464269  1.24693242  1
  O  O210  1  0.43780391  0.09797602  1.24693242  1
  O  O211  1  0.43780391  0.43130935  1.24693242  1
  O  O212  1  0.43780391  0.76464269  1.24693242  1
  O  O213  1  0.77113724  0.09797602  1.24693242  1
  O  O214  1  0.77113724  0.43130935  1.24693242  1
  O  O215  1  0.77113724  0.76464269  1.24693242  1
  O  O216  1  -0.11760567  0.00664054  0.58026575  1
  O  O217  1  -0.11760567  0.33997387  0.58026575  1
  O  O218  1  -0.11760567  0.67330720  0.58026575  1
  O  O219  1  0.21572767  0.00664054  0.58026575  1
  O  O220  1  0.21572767  0.33997387  0.58026575  1
  O  O221  1  0.21572767  0.67330720  0.58026575  1
  O  O222  1  0.54906100  0.00664054  0.58026575  1
  O  O223  1  0.54906100  0.33997387  0.58026575  1
  O  O224  1  0.54906100  0.67330720  0.58026575  1
  O  O225  1  0.10461656  0.11775165  0.91359908  1
  O  O226  1  0.10461656  0.45108498  0.91359908  1
  O  O227  1  0.10461656  0.78441831  0.91359908  1
  O  O228  1  0.43794989  0.11775165  0.91359908  1
  O  O229  1  0.43794989  0.45108498  0.91359908  1
  O  O230  1  0.43794989  0.78441831  0.91359908  1
  O  O231  1  0.77128322  0.11775165  0.91359908  1
  O  O232  1  0.77128322  0.45108498  0.91359908  1
  O  O233  1  0.77128322  0.78441831  0.91359908  1
  O  O234  1  -0.00649455  0.22886276  1.24693242  1
  O  O235  1  -0.00649455  0.56219609  1.24693242  1
  O  O236  1  -0.00649455  0.89552942  1.24693242  1
  O  O237  1  0.32683878  0.22886276  1.24693242  1
  O  O238  1  0.32683878  0.56219609  1.24693242  1
  O  O239  1  0.32683878  0.89552942  1.24693242  1
  O  O240  1  0.66017211  0.22886276  1.24693242  1
  O  O241  1  0.66017211  0.56219609  1.24693242  1
  O  O242  1  0.66017211  0.89552942  1.24693242  1
  O  O243  1  0.12424620  0.11760567  0.58026575  1
  O  O244  1  0.12424620  0.45093900  0.58026575  1
  O  O245  1  0.12424620  0.78427233  0.58026575  1
  O  O246  1  0.45757953  0.11760567  0.58026575  1
  O  O247  1  0.45757953  0.45093900  0.58026575  1
  O  O248  1  0.45757953  0.78427233  0.58026575  1
  O  O249  1  0.79091287  0.11760567  0.58026575  1
  O  O250  1  0.79091287  0.45093900  0.58026575  1
  O  O251  1  0.79091287  0.78427233  0.58026575  1
  O  O252  1  0.34646842  0.22871678  0.91359908  1
  O  O253  1  0.34646842  0.56205011  0.91359908  1
  O  O254  1  0.34646842  0.89538344  0.91359908  1
  O  O255  1  0.67980176  0.22871678  0.91359908  1
  O  O256  1  0.67980176  0.56205011  0.91359908  1
  O  O257  1  0.67980176  0.89538344  0.91359908  1
  O  O258  1  1.01313509  0.22871678  0.91359908  1
  O  O259  1  1.01313509  0.56205011  0.91359908  1
  O  O260  1  1.01313509  0.89538344  0.91359908  1
  O  O261  1  0.23535731  0.33982789  1.24693242  1
  O  O262  1  0.23535731  0.67316122  1.24693242  1
  O  O263  1  0.23535731  1.00649455  1.24693242  1
  O  O264  1  0.56869065  0.33982789  1.24693242  1
  O  O265  1  0.56869065  0.67316122  1.24693242  1
  O  O266  1  0.56869065  1.00649455  1.24693242  1
  O  O267  1  0.90202398  0.33982789  1.24693242  1
  O  O268  1  0.90202398  0.67316122  1.24693242  1
  O  O269  1  0.90202398  1.00649455  1.24693242  1
