# generated using pymatgen
data_Ta2SnO6
_symmetry_space_group_name_H-M   'P 1'
_cell_length_a   17.20923971
_cell_length_b   19.45128822
_cell_length_c   16.63234185
_cell_angle_alpha   90.00000000
_cell_angle_beta   91.49679865
_cell_angle_gamma   90.00000000
_symmetry_Int_Tables_number   1
_chemical_formula_structural   Ta2SnO6
_chemical_formula_sum   'Ta96 Sn48 O288'
_cell_volume   5565.64168111
_cell_formula_units_Z   48
loop_
 _symmetry_equiv_pos_site_id
 _symmetry_equiv_pos_as_xyz
  1  'x, y, z'
loop_
 _atom_site_type_symbol
 _atom_site_label
 _atom_site_symmetry_multiplicity
 _atom_site_fract_x
 _atom_site_fract_y
 _atom_site_fract_z
 _atom_site_occupancy
  Ta  Ta0  1  0.66982267  0.06435248  0.22000086  1
  Ta  Ta1  1  0.66982267  0.06435248  0.55333420  1
  Ta  Ta2  1  0.66982267  0.06435248  0.88666753  1
  Ta  Ta3  1  0.66982267  0.31435248  0.22000086  1
  Ta  Ta4  1  0.66982267  0.31435248  0.55333420  1
  Ta  Ta5  1  0.66982267  0.31435248  0.88666753  1
  Ta  Ta6  1  0.66982267  0.56435248  0.22000086  1
  Ta  Ta7  1  0.66982267  0.56435248  0.55333420  1
  Ta  Ta8  1  0.66982267  0.56435248  0.88666753  1
  Ta  Ta9  1  0.66982267  0.81435248  0.22000086  1
  Ta  Ta10  1  0.66982267  0.81435248  0.55333420  1
  Ta  Ta11  1  0.66982267  0.81435248  0.88666753  1
  Ta  Ta12  1  1.16982267  0.18935248  0.22000086  1
  Ta  Ta13  1  1.16982267  0.18935248  0.55333420  1
  Ta  Ta14  1  1.16982267  0.18935248  0.88666753  1
  Ta  Ta15  1  1.16982267  0.43935248  0.22000086  1
  Ta  Ta16  1  1.16982267  0.43935248  0.55333420  1
  Ta  Ta17  1  1.16982267  0.43935248  0.88666753  1
  Ta  Ta18  1  1.16982267  0.68935248  0.22000086  1
  Ta  Ta19  1  1.16982267  0.68935248  0.55333420  1
  Ta  Ta20  1  1.16982267  0.68935248  0.88666753  1
  Ta  Ta21  1  1.16982267  0.93935248  0.22000086  1
  Ta  Ta22  1  1.16982267  0.93935248  0.55333420  1
  Ta  Ta23  1  1.16982267  0.93935248  0.88666753  1
  Ta  Ta24  1  0.66982267  -0.06435248  0.05333420  1
  Ta  Ta25  1  0.66982267  -0.06435248  0.38666753  1
  Ta  Ta26  1  0.66982267  -0.06435248  0.72000086  1
  Ta  Ta27  1  0.66982267  0.18564752  0.05333420  1
  Ta  Ta28  1  0.66982267  0.18564752  0.38666753  1
  Ta  Ta29  1  0.66982267  0.18564752  0.72000086  1
  Ta  Ta30  1  0.66982267  0.43564752  0.05333420  1
  Ta  Ta31  1  0.66982267  0.43564752  0.38666753  1
  Ta  Ta32  1  0.66982267  0.43564752  0.72000086  1
  Ta  Ta33  1  0.66982267  0.68564752  0.05333420  1
  Ta  Ta34  1  0.66982267  0.68564752  0.38666753  1
  Ta  Ta35  1  0.66982267  0.68564752  0.72000086  1
  Ta  Ta36  1  1.16982267  0.06064752  0.05333420  1
  Ta  Ta37  1  1.16982267  0.06064752  0.38666753  1
  Ta  Ta38  1  1.16982267  0.06064752  0.72000086  1
  Ta  Ta39  1  1.16982267  0.31064752  0.05333420  1
  Ta  Ta40  1  1.16982267  0.31064752  0.38666753  1
  Ta  Ta41  1  1.16982267  0.31064752  0.72000086  1
  Ta  Ta42  1  1.16982267  0.56064752  0.05333420  1
  Ta  Ta43  1  1.16982267  0.56064752  0.38666753  1
  Ta  Ta44  1  1.16982267  0.56064752  0.72000086  1
  Ta  Ta45  1  1.16982267  0.81064752  0.05333420  1
  Ta  Ta46  1  1.16982267  0.81064752  0.38666753  1
  Ta  Ta47  1  1.16982267  0.81064752  0.72000086  1
  Ta  Ta48  1  0.33017733  0.06435248  0.27999914  1
  Ta  Ta49  1  0.33017733  0.06435248  0.61333247  1
  Ta  Ta50  1  0.33017733  0.06435248  0.94666580  1
  Ta  Ta51  1  0.33017733  0.31435248  0.27999914  1
  Ta  Ta52  1  0.33017733  0.31435248  0.61333247  1
  Ta  Ta53  1  0.33017733  0.31435248  0.94666580  1
  Ta  Ta54  1  0.33017733  0.56435248  0.27999914  1
  Ta  Ta55  1  0.33017733  0.56435248  0.61333247  1
  Ta  Ta56  1  0.33017733  0.56435248  0.94666580  1
  Ta  Ta57  1  0.33017733  0.81435248  0.27999914  1
  Ta  Ta58  1  0.33017733  0.81435248  0.61333247  1
  Ta  Ta59  1  0.33017733  0.81435248  0.94666580  1
  Ta  Ta60  1  0.83017733  0.18935248  0.27999914  1
  Ta  Ta61  1  0.83017733  0.18935248  0.61333247  1
  Ta  Ta62  1  0.83017733  0.18935248  0.94666580  1
  Ta  Ta63  1  0.83017733  0.43935248  0.27999914  1
  Ta  Ta64  1  0.83017733  0.43935248  0.61333247  1
  Ta  Ta65  1  0.83017733  0.43935248  0.94666580  1
  Ta  Ta66  1  0.83017733  0.68935248  0.27999914  1
  Ta  Ta67  1  0.83017733  0.68935248  0.61333247  1
  Ta  Ta68  1  0.83017733  0.68935248  0.94666580  1
  Ta  Ta69  1  0.83017733  0.93935248  0.27999914  1
  Ta  Ta70  1  0.83017733  0.93935248  0.61333247  1
  Ta  Ta71  1  0.83017733  0.93935248  0.94666580  1
  Ta  Ta72  1  0.33017733  -0.06435248  0.11333247  1
  Ta  Ta73  1  0.33017733  -0.06435248  0.44666580  1
  Ta  Ta74  1  0.33017733  -0.06435248  0.77999914  1
  Ta  Ta75  1  0.33017733  0.18564752  0.11333247  1
  Ta  Ta76  1  0.33017733  0.18564752  0.44666580  1
  Ta  Ta77  1  0.33017733  0.18564752  0.77999914  1
  Ta  Ta78  1  0.33017733  0.43564752  0.11333247  1
  Ta  Ta79  1  0.33017733  0.43564752  0.44666580  1
  Ta  Ta80  1  0.33017733  0.43564752  0.77999914  1
  Ta  Ta81  1  0.33017733  0.68564752  0.11333247  1
  Ta  Ta82  1  0.33017733  0.68564752  0.44666580  1
  Ta  Ta83  1  0.33017733  0.68564752  0.77999914  1
  Ta  Ta84  1  0.83017733  0.06064752  0.11333247  1
  Ta  Ta85  1  0.83017733  0.06064752  0.44666580  1
  Ta  Ta86  1  0.83017733  0.06064752  0.77999914  1
  Ta  Ta87  1  0.83017733  0.31064752  0.11333247  1
  Ta  Ta88  1  0.83017733  0.31064752  0.44666580  1
  Ta  Ta89  1  0.83017733  0.31064752  0.77999914  1
  Ta  Ta90  1  0.83017733  0.56064752  0.11333247  1
  Ta  Ta91  1  0.83017733  0.56064752  0.44666580  1
  Ta  Ta92  1  0.83017733  0.56064752  0.77999914  1
  Ta  Ta93  1  0.83017733  0.81064752  0.11333247  1
  Ta  Ta94  1  0.83017733  0.81064752  0.44666580  1
  Ta  Ta95  1  0.83017733  0.81064752  0.77999914  1
  Sn  Sn96  1  0.50000000  0.06626530  0.08333333  1
  Sn  Sn97  1  0.50000000  0.06626530  0.41666667  1
  Sn  Sn98  1  0.50000000  0.06626530  0.75000000  1
  Sn  Sn99  1  0.50000000  0.31626530  0.08333333  1
  Sn  Sn100  1  0.50000000  0.31626530  0.41666667  1
  Sn  Sn101  1  0.50000000  0.31626530  0.75000000  1
  Sn  Sn102  1  0.50000000  0.56626530  0.08333333  1
  Sn  Sn103  1  0.50000000  0.56626530  0.41666667  1
  Sn  Sn104  1  0.50000000  0.56626530  0.75000000  1
  Sn  Sn105  1  0.50000000  0.81626530  0.08333333  1
  Sn  Sn106  1  0.50000000  0.81626530  0.41666667  1
  Sn  Sn107  1  0.50000000  0.81626530  0.75000000  1
  Sn  Sn108  1  1.00000000  0.19126530  0.08333333  1
  Sn  Sn109  1  1.00000000  0.19126530  0.41666667  1
  Sn  Sn110  1  1.00000000  0.19126530  0.75000000  1
  Sn  Sn111  1  1.00000000  0.44126530  0.08333333  1
  Sn  Sn112  1  1.00000000  0.44126530  0.41666667  1
  Sn  Sn113  1  1.00000000  0.44126530  0.75000000  1
  Sn  Sn114  1  1.00000000  0.69126530  0.08333333  1
  Sn  Sn115  1  1.00000000  0.69126530  0.41666667  1
  Sn  Sn116  1  1.00000000  0.69126530  0.75000000  1
  Sn  Sn117  1  1.00000000  0.94126530  0.08333333  1
  Sn  Sn118  1  1.00000000  0.94126530  0.41666667  1
  Sn  Sn119  1  1.00000000  0.94126530  0.75000000  1
  Sn  Sn120  1  0.50000000  -0.06626530  0.25000000  1
  Sn  Sn121  1  0.50000000  -0.06626530  0.58333333  1
  Sn  Sn122  1  0.50000000  -0.06626530  0.91666667  1
  Sn  Sn123  1  0.50000000  0.18373470  0.25000000  1
  Sn  Sn124  1  0.50000000  0.18373470  0.58333333  1
  Sn  Sn125  1  0.50000000  0.18373470  0.91666667  1
  Sn  Sn126  1  0.50000000  0.43373470  0.25000000  1
  Sn  Sn127  1  0.50000000  0.43373470  0.58333333  1
  Sn  Sn128  1  0.50000000  0.43373470  0.91666667  1
  Sn  Sn129  1  0.50000000  0.68373470  0.25000000  1
  Sn  Sn130  1  0.50000000  0.68373470  0.58333333  1
  Sn  Sn131  1  0.50000000  0.68373470  0.91666667  1
  Sn  Sn132  1  1.00000000  0.05873470  0.25000000  1
  Sn  Sn133  1  1.00000000  0.05873470  0.58333333  1
  Sn  Sn134  1  1.00000000  0.05873470  0.91666667  1
  Sn  Sn135  1  1.00000000  0.30873470  0.25000000  1
  Sn  Sn136  1  1.00000000  0.30873470  0.58333333  1
  Sn  Sn137  1  1.00000000  0.30873470  0.91666667  1
  Sn  Sn138  1  1.00000000  0.55873470  0.25000000  1
  Sn  Sn139  1  1.00000000  0.55873470  0.58333333  1
  Sn  Sn140  1  1.00000000  0.55873470  0.91666667  1
  Sn  Sn141  1  1.00000000  0.80873470  0.25000000  1
  Sn  Sn142  1  1.00000000  0.80873470  0.58333333  1
  Sn  Sn143  1  1.00000000  0.80873470  0.91666667  1
  O  O144  1  0.35721628  -0.00963104  0.02505769  1
  O  O145  1  0.35721628  -0.00963104  0.35839102  1
  O  O146  1  0.35721628  -0.00963104  0.69172435  1
  O  O147  1  0.35721628  0.24036896  0.02505769  1
  O  O148  1  0.35721628  0.24036896  0.35839102  1
  O  O149  1  0.35721628  0.24036896  0.69172435  1
  O  O150  1  0.35721628  0.49036896  0.02505769  1
  O  O151  1  0.35721628  0.49036896  0.35839102  1
  O  O152  1  0.35721628  0.49036896  0.69172435  1
  O  O153  1  0.35721628  0.74036896  0.02505769  1
  O  O154  1  0.35721628  0.74036896  0.35839102  1
  O  O155  1  0.35721628  0.74036896  0.69172435  1
  O  O156  1  0.85721628  0.11536896  0.02505769  1
  O  O157  1  0.85721628  0.11536896  0.35839102  1
  O  O158  1  0.85721628  0.11536896  0.69172435  1
  O  O159  1  0.85721628  0.36536896  0.02505769  1
  O  O160  1  0.85721628  0.36536896  0.35839102  1
  O  O161  1  0.85721628  0.36536896  0.69172435  1
  O  O162  1  0.85721628  0.61536896  0.02505769  1
  O  O163  1  0.85721628  0.61536896  0.35839102  1
  O  O164  1  0.85721628  0.61536896  0.69172435  1
  O  O165  1  0.85721628  0.86536896  0.02505769  1
  O  O166  1  0.85721628  0.86536896  0.35839102  1
  O  O167  1  0.85721628  0.86536896  0.69172435  1
  O  O168  1  0.64278372  0.00963104  0.30827565  1
  O  O169  1  0.64278372  0.00963104  0.64160898  1
  O  O170  1  0.64278372  0.00963104  0.97494231  1
  O  O171  1  0.64278372  0.25963104  0.30827565  1
  O  O172  1  0.64278372  0.25963104  0.64160898  1
  O  O173  1  0.64278372  0.25963104  0.97494231  1
  O  O174  1  0.64278372  0.50963104  0.30827565  1
  O  O175  1  0.64278372  0.50963104  0.64160898  1
  O  O176  1  0.64278372  0.50963104  0.97494231  1
  O  O177  1  0.64278372  0.75963104  0.30827565  1
  O  O178  1  0.64278372  0.75963104  0.64160898  1
  O  O179  1  0.64278372  0.75963104  0.97494231  1
  O  O180  1  1.14278372  0.13463104  0.30827565  1
  O  O181  1  1.14278372  0.13463104  0.64160898  1
  O  O182  1  1.14278372  0.13463104  0.97494231  1
  O  O183  1  1.14278372  0.38463104  0.30827565  1
  O  O184  1  1.14278372  0.38463104  0.64160898  1
  O  O185  1  1.14278372  0.38463104  0.97494231  1
  O  O186  1  1.14278372  0.63463104  0.30827565  1
  O  O187  1  1.14278372  0.63463104  0.64160898  1
  O  O188  1  1.14278372  0.63463104  0.97494231  1
  O  O189  1  1.14278372  0.88463104  0.30827565  1
  O  O190  1  1.14278372  0.88463104  0.64160898  1
  O  O191  1  1.14278372  0.88463104  0.97494231  1
  O  O192  1  0.21942221  0.01549395  0.28396131  1
  O  O193  1  0.21942221  0.01549395  0.61729464  1
  O  O194  1  0.21942221  0.01549395  0.95062797  1
  O  O195  1  0.21942221  0.26549395  0.28396131  1
  O  O196  1  0.21942221  0.26549395  0.61729464  1
  O  O197  1  0.21942221  0.26549395  0.95062797  1
  O  O198  1  0.21942221  0.51549395  0.28396131  1
  O  O199  1  0.21942221  0.51549395  0.61729464  1
  O  O200  1  0.21942221  0.51549395  0.95062797  1
  O  O201  1  0.21942221  0.76549395  0.28396131  1
  O  O202  1  0.21942221  0.76549395  0.61729464  1
  O  O203  1  0.21942221  0.76549395  0.95062797  1
  O  O204  1  0.71942221  0.14049395  0.28396131  1
  O  O205  1  0.71942221  0.14049395  0.61729464  1
  O  O206  1  0.71942221  0.14049395  0.95062797  1
  O  O207  1  0.71942221  0.39049395  0.28396131  1
  O  O208  1  0.71942221  0.39049395  0.61729464  1
  O  O209  1  0.71942221  0.39049395  0.95062797  1
  O  O210  1  0.71942221  0.64049395  0.28396131  1
  O  O211  1  0.71942221  0.64049395  0.61729464  1
  O  O212  1  0.71942221  0.64049395  0.95062797  1
  O  O213  1  0.71942221  0.89049395  0.28396131  1
  O  O214  1  0.71942221  0.89049395  0.61729464  1
  O  O215  1  0.71942221  0.89049395  0.95062797  1
  O  O216  1  0.35721628  0.00963104  0.19172435  1
  O  O217  1  0.35721628  0.00963104  0.52505769  1
  O  O218  1  0.35721628  0.00963104  0.85839102  1
  O  O219  1  0.35721628  0.25963104  0.19172435  1
  O  O220  1  0.35721628  0.25963104  0.52505769  1
  O  O221  1  0.35721628  0.25963104  0.85839102  1
  O  O222  1  0.35721628  0.50963104  0.19172435  1
  O  O223  1  0.35721628  0.50963104  0.52505769  1
  O  O224  1  0.35721628  0.50963104  0.85839102  1
  O  O225  1  0.35721628  0.75963104  0.19172435  1
  O  O226  1  0.35721628  0.75963104  0.52505769  1
  O  O227  1  0.35721628  0.75963104  0.85839102  1
  O  O228  1  0.85721628  0.13463104  0.19172435  1
  O  O229  1  0.85721628  0.13463104  0.52505769  1
  O  O230  1  0.85721628  0.13463104  0.85839102  1
  O  O231  1  0.85721628  0.38463104  0.19172435  1
  O  O232  1  0.85721628  0.38463104  0.52505769  1
  O  O233  1  0.85721628  0.38463104  0.85839102  1
  O  O234  1  0.85721628  0.63463104  0.19172435  1
  O  O235  1  0.85721628  0.63463104  0.52505769  1
  O  O236  1  0.85721628  0.63463104  0.85839102  1
  O  O237  1  0.85721628  0.88463104  0.19172435  1
  O  O238  1  0.85721628  0.88463104  0.52505769  1
  O  O239  1  0.85721628  0.88463104  0.85839102  1
  O  O240  1  0.57250651  -0.10553766  0.02997056  1
  O  O241  1  0.57250651  -0.10553766  0.36330389  1
  O  O242  1  0.57250651  -0.10553766  0.69663723  1
  O  O243  1  0.57250651  0.14446234  0.02997056  1
  O  O244  1  0.57250651  0.14446234  0.36330389  1
  O  O245  1  0.57250651  0.14446234  0.69663723  1
  O  O246  1  0.57250651  0.39446234  0.02997056  1
  O  O247  1  0.57250651  0.39446234  0.36330389  1
  O  O248  1  0.57250651  0.39446234  0.69663723  1
  O  O249  1  0.57250651  0.64446234  0.02997056  1
  O  O250  1  0.57250651  0.64446234  0.36330389  1
  O  O251  1  0.57250651  0.64446234  0.69663723  1
  O  O252  1  1.07250651  0.01946234  0.02997056  1
  O  O253  1  1.07250651  0.01946234  0.36330389  1
  O  O254  1  1.07250651  0.01946234  0.69663723  1
  O  O255  1  1.07250651  0.26946234  0.02997056  1
  O  O256  1  1.07250651  0.26946234  0.36330389  1
  O  O257  1  1.07250651  0.26946234  0.69663723  1
  O  O258  1  1.07250651  0.51946234  0.02997056  1
  O  O259  1  1.07250651  0.51946234  0.36330389  1
  O  O260  1  1.07250651  0.51946234  0.69663723  1
  O  O261  1  1.07250651  0.76946234  0.02997056  1
  O  O262  1  1.07250651  0.76946234  0.36330389  1
  O  O263  1  1.07250651  0.76946234  0.69663723  1
  O  O264  1  0.42749349  0.10553766  0.30336277  1
  O  O265  1  0.42749349  0.10553766  0.63669611  1
  O  O266  1  0.42749349  0.10553766  0.97002944  1
  O  O267  1  0.42749349  0.35553766  0.30336277  1
  O  O268  1  0.42749349  0.35553766  0.63669611  1
  O  O269  1  0.42749349  0.35553766  0.97002944  1
  O  O270  1  0.42749349  0.60553766  0.30336277  1
  O  O271  1  0.42749349  0.60553766  0.63669611  1
  O  O272  1  0.42749349  0.60553766  0.97002944  1
  O  O273  1  0.42749349  0.85553766  0.30336277  1
  O  O274  1  0.42749349  0.85553766  0.63669611  1
  O  O275  1  0.42749349  0.85553766  0.97002944  1
  O  O276  1  0.92749349  0.23053766  0.30336277  1
  O  O277  1  0.92749349  0.23053766  0.63669611  1
  O  O278  1  0.92749349  0.23053766  0.97002944  1
  O  O279  1  0.92749349  0.48053766  0.30336277  1
  O  O280  1  0.92749349  0.48053766  0.63669611  1
  O  O281  1  0.92749349  0.48053766  0.97002944  1
  O  O282  1  0.92749349  0.73053766  0.30336277  1
  O  O283  1  0.92749349  0.73053766  0.63669611  1
  O  O284  1  0.92749349  0.73053766  0.97002944  1
  O  O285  1  0.92749349  0.98053766  0.30336277  1
  O  O286  1  0.92749349  0.98053766  0.63669611  1
  O  O287  1  0.92749349  0.98053766  0.97002944  1
  O  O288  1  0.57250651  0.10553766  0.19663723  1
  O  O289  1  0.57250651  0.10553766  0.52997056  1
  O  O290  1  0.57250651  0.10553766  0.86330389  1
  O  O291  1  0.57250651  0.35553766  0.19663723  1
  O  O292  1  0.57250651  0.35553766  0.52997056  1
  O  O293  1  0.57250651  0.35553766  0.86330389  1
  O  O294  1  0.57250651  0.60553766  0.19663723  1
  O  O295  1  0.57250651  0.60553766  0.52997056  1
  O  O296  1  0.57250651  0.60553766  0.86330389  1
  O  O297  1  0.57250651  0.85553766  0.19663723  1
  O  O298  1  0.57250651  0.85553766  0.52997056  1
  O  O299  1  0.57250651  0.85553766  0.86330389  1
  O  O300  1  1.07250651  0.23053766  0.19663723  1
  O  O301  1  1.07250651  0.23053766  0.52997056  1
  O  O302  1  1.07250651  0.23053766  0.86330389  1
  O  O303  1  1.07250651  0.48053766  0.19663723  1
  O  O304  1  1.07250651  0.48053766  0.52997056  1
  O  O305  1  1.07250651  0.48053766  0.86330389  1
  O  O306  1  1.07250651  0.73053766  0.19663723  1
  O  O307  1  1.07250651  0.73053766  0.52997056  1
  O  O308  1  1.07250651  0.73053766  0.86330389  1
  O  O309  1  1.07250651  0.98053766  0.19663723  1
  O  O310  1  1.07250651  0.98053766  0.52997056  1
  O  O311  1  1.07250651  0.98053766  0.86330389  1
  O  O312  1  0.78057779  -0.01549395  0.04937203  1
  O  O313  1  0.78057779  -0.01549395  0.38270536  1
  O  O314  1  0.78057779  -0.01549395  0.71603869  1
  O  O315  1  0.78057779  0.23450605  0.04937203  1
  O  O316  1  0.78057779  0.23450605  0.38270536  1
  O  O317  1  0.78057779  0.23450605  0.71603869  1
  O  O318  1  0.78057779  0.48450605  0.04937203  1
  O  O319  1  0.78057779  0.48450605  0.38270536  1
  O  O320  1  0.78057779  0.48450605  0.71603869  1
  O  O321  1  0.78057779  0.73450605  0.04937203  1
  O  O322  1  0.78057779  0.73450605  0.38270536  1
  O  O323  1  0.78057779  0.73450605  0.71603869  1
  O  O324  1  1.28057779  0.10950605  0.04937203  1
  O  O325  1  1.28057779  0.10950605  0.38270536  1
  O  O326  1  1.28057779  0.10950605  0.71603869  1
  O  O327  1  1.28057779  0.35950605  0.04937203  1
  O  O328  1  1.28057779  0.35950605  0.38270536  1
  O  O329  1  1.28057779  0.35950605  0.71603869  1
  O  O330  1  1.28057779  0.60950605  0.04937203  1
  O  O331  1  1.28057779  0.60950605  0.38270536  1
  O  O332  1  1.28057779  0.60950605  0.71603869  1
  O  O333  1  1.28057779  0.85950605  0.04937203  1
  O  O334  1  1.28057779  0.85950605  0.38270536  1
  O  O335  1  1.28057779  0.85950605  0.71603869  1
  O  O336  1  0.42749349  -0.10553766  0.13669611  1
  O  O337  1  0.42749349  -0.10553766  0.47002944  1
  O  O338  1  0.42749349  -0.10553766  0.80336277  1
  O  O339  1  0.42749349  0.14446234  0.13669611  1
  O  O340  1  0.42749349  0.14446234  0.47002944  1
  O  O341  1  0.42749349  0.14446234  0.80336277  1
  O  O342  1  0.42749349  0.39446234  0.13669611  1
  O  O343  1  0.42749349  0.39446234  0.47002944  1
  O  O344  1  0.42749349  0.39446234  0.80336277  1
  O  O345  1  0.42749349  0.64446234  0.13669611  1
  O  O346  1  0.42749349  0.64446234  0.47002944  1
  O  O347  1  0.42749349  0.64446234  0.80336277  1
  O  O348  1  0.92749349  0.01946234  0.13669611  1
  O  O349  1  0.92749349  0.01946234  0.47002944  1
  O  O350  1  0.92749349  0.01946234  0.80336277  1
  O  O351  1  0.92749349  0.26946234  0.13669611  1
  O  O352  1  0.92749349  0.26946234  0.47002944  1
  O  O353  1  0.92749349  0.26946234  0.80336277  1
  O  O354  1  0.92749349  0.51946234  0.13669611  1
  O  O355  1  0.92749349  0.51946234  0.47002944  1
  O  O356  1  0.92749349  0.51946234  0.80336277  1
  O  O357  1  0.92749349  0.76946234  0.13669611  1
  O  O358  1  0.92749349  0.76946234  0.47002944  1
  O  O359  1  0.92749349  0.76946234  0.80336277  1
  O  O360  1  0.21942221  -0.01549395  0.11729464  1
  O  O361  1  0.21942221  -0.01549395  0.45062797  1
  O  O362  1  0.21942221  -0.01549395  0.78396131  1
  O  O363  1  0.21942221  0.23450605  0.11729464  1
  O  O364  1  0.21942221  0.23450605  0.45062797  1
  O  O365  1  0.21942221  0.23450605  0.78396131  1
  O  O366  1  0.21942221  0.48450605  0.11729464  1
  O  O367  1  0.21942221  0.48450605  0.45062797  1
  O  O368  1  0.21942221  0.48450605  0.78396131  1
  O  O369  1  0.21942221  0.73450605  0.11729464  1
  O  O370  1  0.21942221  0.73450605  0.45062797  1
  O  O371  1  0.21942221  0.73450605  0.78396131  1
  O  O372  1  0.71942221  0.10950605  0.11729464  1
  O  O373  1  0.71942221  0.10950605  0.45062797  1
  O  O374  1  0.71942221  0.10950605  0.78396131  1
  O  O375  1  0.71942221  0.35950605  0.11729464  1
  O  O376  1  0.71942221  0.35950605  0.45062797  1
  O  O377  1  0.71942221  0.35950605  0.78396131  1
  O  O378  1  0.71942221  0.60950605  0.11729464  1
  O  O379  1  0.71942221  0.60950605  0.45062797  1
  O  O380  1  0.71942221  0.60950605  0.78396131  1
  O  O381  1  0.71942221  0.85950605  0.11729464  1
  O  O382  1  0.71942221  0.85950605  0.45062797  1
  O  O383  1  0.71942221  0.85950605  0.78396131  1
  O  O384  1  0.78057779  0.01549395  0.21603869  1
  O  O385  1  0.78057779  0.01549395  0.54937203  1
  O  O386  1  0.78057779  0.01549395  0.88270536  1
  O  O387  1  0.78057779  0.26549395  0.21603869  1
  O  O388  1  0.78057779  0.26549395  0.54937203  1
  O  O389  1  0.78057779  0.26549395  0.88270536  1
  O  O390  1  0.78057779  0.51549395  0.21603869  1
  O  O391  1  0.78057779  0.51549395  0.54937203  1
  O  O392  1  0.78057779  0.51549395  0.88270536  1
  O  O393  1  0.78057779  0.76549395  0.21603869  1
  O  O394  1  0.78057779  0.76549395  0.54937203  1
  O  O395  1  0.78057779  0.76549395  0.88270536  1
  O  O396  1  1.28057779  0.14049395  0.21603869  1
  O  O397  1  1.28057779  0.14049395  0.54937203  1
  O  O398  1  1.28057779  0.14049395  0.88270536  1
  O  O399  1  1.28057779  0.39049395  0.21603869  1
  O  O400  1  1.28057779  0.39049395  0.54937203  1
  O  O401  1  1.28057779  0.39049395  0.88270536  1
  O  O402  1  1.28057779  0.64049395  0.21603869  1
  O  O403  1  1.28057779  0.64049395  0.54937203  1
  O  O404  1  1.28057779  0.64049395  0.88270536  1
  O  O405  1  1.28057779  0.89049395  0.21603869  1
  O  O406  1  1.28057779  0.89049395  0.54937203  1
  O  O407  1  1.28057779  0.89049395  0.88270536  1
  O  O408  1  0.64278372  -0.00963104  0.14160898  1
  O  O409  1  0.64278372  -0.00963104  0.47494231  1
  O  O410  1  0.64278372  -0.00963104  0.80827565  1
  O  O411  1  0.64278372  0.24036896  0.14160898  1
  O  O412  1  0.64278372  0.24036896  0.47494231  1
  O  O413  1  0.64278372  0.24036896  0.80827565  1
  O  O414  1  0.64278372  0.49036896  0.14160898  1
  O  O415  1  0.64278372  0.49036896  0.47494231  1
  O  O416  1  0.64278372  0.49036896  0.80827565  1
  O  O417  1  0.64278372  0.74036896  0.14160898  1
  O  O418  1  0.64278372  0.74036896  0.47494231  1
  O  O419  1  0.64278372  0.74036896  0.80827565  1
  O  O420  1  1.14278372  0.11536896  0.14160898  1
  O  O421  1  1.14278372  0.11536896  0.47494231  1
  O  O422  1  1.14278372  0.11536896  0.80827565  1
  O  O423  1  1.14278372  0.36536896  0.14160898  1
  O  O424  1  1.14278372  0.36536896  0.47494231  1
  O  O425  1  1.14278372  0.36536896  0.80827565  1
  O  O426  1  1.14278372  0.61536896  0.14160898  1
  O  O427  1  1.14278372  0.61536896  0.47494231  1
  O  O428  1  1.14278372  0.61536896  0.80827565  1
  O  O429  1  1.14278372  0.86536896  0.14160898  1
  O  O430  1  1.14278372  0.86536896  0.47494231  1
  O  O431  1  1.14278372  0.86536896  0.80827565  1
