# generated using pymatgen
data_Ba4Nb2O9
_symmetry_space_group_name_H-M   'P 1'
_cell_length_a   18.26347317
_cell_length_b   18.26347317
_cell_length_c   16.59771928
_cell_angle_alpha   90.00000000
_cell_angle_beta   90.00000000
_cell_angle_gamma   120.00000000
_symmetry_Int_Tables_number   1
_chemical_formula_structural   Ba4Nb2O9
_chemical_formula_sum   'Ba72 Nb36 O162'
_cell_volume   4794.52722064
_cell_formula_units_Z   18
loop_
 _symmetry_equiv_pos_site_id
 _symmetry_equiv_pos_as_xyz
  1  'x, y, z'
loop_
 _atom_site_type_symbol
 _atom_site_label
 _atom_site_symmetry_multiplicity
 _atom_site_fract_x
 _atom_site_fract_y
 _atom_site_fract_z
 _atom_site_occupancy
  Ba  Ba0  1  0.00000000  0.00000000  0.75000000  1
  Ba  Ba1  1  0.00000000  0.33333333  0.75000000  1
  Ba  Ba2  1  0.00000000  0.66666667  0.75000000  1
  Ba  Ba3  1  0.33333333  0.00000000  0.75000000  1
  Ba  Ba4  1  0.33333333  0.33333333  0.75000000  1
  Ba  Ba5  1  0.33333333  0.66666667  0.75000000  1
  Ba  Ba6  1  0.66666667  0.00000000  0.75000000  1
  Ba  Ba7  1  0.66666667  0.33333333  0.75000000  1
  Ba  Ba8  1  0.66666667  0.66666667  0.75000000  1
  Ba  Ba9  1  0.00000000  0.00000000  0.25000000  1
  Ba  Ba10  1  0.00000000  0.33333333  0.25000000  1
  Ba  Ba11  1  0.00000000  0.66666667  0.25000000  1
  Ba  Ba12  1  0.33333333  0.00000000  0.25000000  1
  Ba  Ba13  1  0.33333333  0.33333333  0.25000000  1
  Ba  Ba14  1  0.33333333  0.66666667  0.25000000  1
  Ba  Ba15  1  0.66666667  0.00000000  0.25000000  1
  Ba  Ba16  1  0.66666667  0.33333333  0.25000000  1
  Ba  Ba17  1  0.66666667  0.66666667  0.25000000  1
  Ba  Ba18  1  0.22222222  0.11111111  0.63639797  1
  Ba  Ba19  1  0.22222222  0.44444444  0.63639797  1
  Ba  Ba20  1  0.22222222  0.77777778  0.63639797  1
  Ba  Ba21  1  0.55555556  0.11111111  0.63639797  1
  Ba  Ba22  1  0.55555556  0.44444444  0.63639797  1
  Ba  Ba23  1  0.55555556  0.77777778  0.63639797  1
  Ba  Ba24  1  0.88888889  0.11111111  0.63639797  1
  Ba  Ba25  1  0.88888889  0.44444444  0.63639797  1
  Ba  Ba26  1  0.88888889  0.77777778  0.63639797  1
  Ba  Ba27  1  0.11111111  0.22222222  0.13639797  1
  Ba  Ba28  1  0.11111111  0.55555556  0.13639797  1
  Ba  Ba29  1  0.11111111  0.88888889  0.13639797  1
  Ba  Ba30  1  0.44444444  0.22222222  0.13639797  1
  Ba  Ba31  1  0.44444444  0.55555556  0.13639797  1
  Ba  Ba32  1  0.44444444  0.88888889  0.13639797  1
  Ba  Ba33  1  0.77777778  0.22222222  0.13639797  1
  Ba  Ba34  1  0.77777778  0.55555556  0.13639797  1
  Ba  Ba35  1  0.77777778  0.88888889  0.13639797  1
  Ba  Ba36  1  0.11111111  0.22222222  0.36360203  1
  Ba  Ba37  1  0.11111111  0.55555556  0.36360203  1
  Ba  Ba38  1  0.11111111  0.88888889  0.36360203  1
  Ba  Ba39  1  0.44444444  0.22222222  0.36360203  1
  Ba  Ba40  1  0.44444444  0.55555556  0.36360203  1
  Ba  Ba41  1  0.44444444  0.88888889  0.36360203  1
  Ba  Ba42  1  0.77777778  0.22222222  0.36360203  1
  Ba  Ba43  1  0.77777778  0.55555556  0.36360203  1
  Ba  Ba44  1  0.77777778  0.88888889  0.36360203  1
  Ba  Ba45  1  0.22222222  0.11111111  0.86360203  1
  Ba  Ba46  1  0.22222222  0.44444444  0.86360203  1
  Ba  Ba47  1  0.22222222  0.77777778  0.86360203  1
  Ba  Ba48  1  0.55555556  0.11111111  0.86360203  1
  Ba  Ba49  1  0.55555556  0.44444444  0.86360203  1
  Ba  Ba50  1  0.55555556  0.77777778  0.86360203  1
  Ba  Ba51  1  0.88888889  0.11111111  0.86360203  1
  Ba  Ba52  1  0.88888889  0.44444444  0.86360203  1
  Ba  Ba53  1  0.88888889  0.77777778  0.86360203  1
  Ba  Ba54  1  0.00000000  0.00000000  0.50000000  1
  Ba  Ba55  1  0.00000000  0.33333333  0.50000000  1
  Ba  Ba56  1  0.00000000  0.66666667  0.50000000  1
  Ba  Ba57  1  0.33333333  0.00000000  0.50000000  1
  Ba  Ba58  1  0.33333333  0.33333333  0.50000000  1
  Ba  Ba59  1  0.33333333  0.66666667  0.50000000  1
  Ba  Ba60  1  0.66666667  0.00000000  0.50000000  1
  Ba  Ba61  1  0.66666667  0.33333333  0.50000000  1
  Ba  Ba62  1  0.66666667  0.66666667  0.50000000  1
  Ba  Ba63  1  0.00000000  0.00000000  0.00000000  1
  Ba  Ba64  1  0.00000000  0.33333333  0.00000000  1
  Ba  Ba65  1  0.00000000  0.66666667  0.00000000  1
  Ba  Ba66  1  0.33333333  0.00000000  0.00000000  1
  Ba  Ba67  1  0.33333333  0.33333333  0.00000000  1
  Ba  Ba68  1  0.33333333  0.66666667  0.00000000  1
  Ba  Ba69  1  0.66666667  0.00000000  0.00000000  1
  Ba  Ba70  1  0.66666667  0.33333333  0.00000000  1
  Ba  Ba71  1  0.66666667  0.66666667  0.00000000  1
  Nb  Nb72  1  0.22222222  0.11111111  0.34076425  1
  Nb  Nb73  1  0.22222222  0.44444444  0.34076425  1
  Nb  Nb74  1  0.22222222  0.77777778  0.34076425  1
  Nb  Nb75  1  0.55555556  0.11111111  0.34076425  1
  Nb  Nb76  1  0.55555556  0.44444444  0.34076425  1
  Nb  Nb77  1  0.55555556  0.77777778  0.34076425  1
  Nb  Nb78  1  0.88888889  0.11111111  0.34076425  1
  Nb  Nb79  1  0.88888889  0.44444444  0.34076425  1
  Nb  Nb80  1  0.88888889  0.77777778  0.34076425  1
  Nb  Nb81  1  0.11111111  0.22222222  0.84076425  1
  Nb  Nb82  1  0.11111111  0.55555556  0.84076425  1
  Nb  Nb83  1  0.11111111  0.88888889  0.84076425  1
  Nb  Nb84  1  0.44444444  0.22222222  0.84076425  1
  Nb  Nb85  1  0.44444444  0.55555556  0.84076425  1
  Nb  Nb86  1  0.44444444  0.88888889  0.84076425  1
  Nb  Nb87  1  0.77777778  0.22222222  0.84076425  1
  Nb  Nb88  1  0.77777778  0.55555556  0.84076425  1
  Nb  Nb89  1  0.77777778  0.88888889  0.84076425  1
  Nb  Nb90  1  0.11111111  0.22222222  0.65923575  1
  Nb  Nb91  1  0.11111111  0.55555556  0.65923575  1
  Nb  Nb92  1  0.11111111  0.88888889  0.65923575  1
  Nb  Nb93  1  0.44444444  0.22222222  0.65923575  1
  Nb  Nb94  1  0.44444444  0.55555556  0.65923575  1
  Nb  Nb95  1  0.44444444  0.88888889  0.65923575  1
  Nb  Nb96  1  0.77777778  0.22222222  0.65923575  1
  Nb  Nb97  1  0.77777778  0.55555556  0.65923575  1
  Nb  Nb98  1  0.77777778  0.88888889  0.65923575  1
  Nb  Nb99  1  0.22222222  0.11111111  0.15923575  1
  Nb  Nb100  1  0.22222222  0.44444444  0.15923575  1
  Nb  Nb101  1  0.22222222  0.77777778  0.15923575  1
  Nb  Nb102  1  0.55555556  0.11111111  0.15923575  1
  Nb  Nb103  1  0.55555556  0.44444444  0.15923575  1
  Nb  Nb104  1  0.55555556  0.77777778  0.15923575  1
  Nb  Nb105  1  0.88888889  0.11111111  0.15923575  1
  Nb  Nb106  1  0.88888889  0.44444444  0.15923575  1
  Nb  Nb107  1  0.88888889  0.77777778  0.15923575  1
  O  O108  1  0.17649213  0.31960150  0.75000000  1
  O  O109  1  0.17649213  0.65293484  0.75000000  1
  O  O110  1  0.17649213  0.98626817  0.75000000  1
  O  O111  1  0.50982547  0.31960150  0.75000000  1
  O  O112  1  0.50982547  0.65293484  0.75000000  1
  O  O113  1  0.50982547  0.98626817  0.75000000  1
  O  O114  1  0.84315880  0.31960150  0.75000000  1
  O  O115  1  0.84315880  0.65293484  0.75000000  1
  O  O116  1  0.84315880  0.98626817  0.75000000  1
  O  O117  1  0.01373183  0.19022396  0.75000000  1
  O  O118  1  0.01373183  0.52355730  0.75000000  1
  O  O119  1  0.01373183  0.85689063  0.75000000  1
  O  O120  1  0.34706516  0.19022396  0.75000000  1
  O  O121  1  0.34706516  0.52355730  0.75000000  1
  O  O122  1  0.34706516  0.85689063  0.75000000  1
  O  O123  1  0.68039850  0.19022396  0.75000000  1
  O  O124  1  0.68039850  0.52355730  0.75000000  1
  O  O125  1  0.68039850  0.85689063  0.75000000  1
  O  O126  1  0.14310937  0.15684120  0.75000000  1
  O  O127  1  0.14310937  0.49017453  0.75000000  1
  O  O128  1  0.14310937  0.82350787  0.75000000  1
  O  O129  1  0.47644270  0.15684120  0.75000000  1
  O  O130  1  0.47644270  0.49017453  0.75000000  1
  O  O131  1  0.47644270  0.82350787  0.75000000  1
  O  O132  1  0.80977604  0.15684120  0.75000000  1
  O  O133  1  0.80977604  0.49017453  0.75000000  1
  O  O134  1  0.80977604  0.82350787  0.75000000  1
  O  O135  1  0.15684120  0.01373183  0.25000000  1
  O  O136  1  0.15684120  0.34706516  0.25000000  1
  O  O137  1  0.15684120  0.68039850  0.25000000  1
  O  O138  1  0.49017453  0.01373183  0.25000000  1
  O  O139  1  0.49017453  0.34706516  0.25000000  1
  O  O140  1  0.49017453  0.68039850  0.25000000  1
  O  O141  1  0.82350787  0.01373183  0.25000000  1
  O  O142  1  0.82350787  0.34706516  0.25000000  1
  O  O143  1  0.82350787  0.68039850  0.25000000  1
  O  O144  1  0.31960150  0.14310937  0.25000000  1
  O  O145  1  0.31960150  0.47644270  0.25000000  1
  O  O146  1  0.31960150  0.80977604  0.25000000  1
  O  O147  1  0.65293484  0.14310937  0.25000000  1
  O  O148  1  0.65293484  0.47644270  0.25000000  1
  O  O149  1  0.65293484  0.80977604  0.25000000  1
  O  O150  1  0.98626817  0.14310937  0.25000000  1
  O  O151  1  0.98626817  0.47644270  0.25000000  1
  O  O152  1  0.98626817  0.80977604  0.25000000  1
  O  O153  1  0.19022396  0.17649213  0.25000000  1
  O  O154  1  0.19022396  0.50982547  0.25000000  1
  O  O155  1  0.19022396  0.84315880  0.25000000  1
  O  O156  1  0.52355730  0.17649213  0.25000000  1
  O  O157  1  0.52355730  0.50982547  0.25000000  1
  O  O158  1  0.52355730  0.84315880  0.25000000  1
  O  O159  1  0.85689063  0.17649213  0.25000000  1
  O  O160  1  0.85689063  0.50982547  0.25000000  1
  O  O161  1  0.85689063  0.84315880  0.25000000  1
  O  O162  1  0.03518979  0.11747250  0.60871150  1
  O  O163  1  0.03518979  0.45080583  0.60871150  1
  O  O164  1  0.03518979  0.78413917  0.60871150  1
  O  O165  1  0.36852313  0.11747250  0.60871150  1
  O  O166  1  0.36852313  0.45080583  0.60871150  1
  O  O167  1  0.36852313  0.78413917  0.60871150  1
  O  O168  1  0.70185646  0.11747250  0.60871150  1
  O  O169  1  0.70185646  0.45080583  0.60871150  1
  O  O170  1  0.70185646  0.78413917  0.60871150  1
  O  O171  1  0.21586083  0.25105063  0.60871150  1
  O  O172  1  0.21586083  0.58438396  0.60871150  1
  O  O173  1  0.21586083  0.91771729  0.60871150  1
  O  O174  1  0.54919417  0.25105063  0.60871150  1
  O  O175  1  0.54919417  0.58438396  0.60871150  1
  O  O176  1  0.54919417  0.91771729  0.60871150  1
  O  O177  1  0.88252750  0.25105063  0.60871150  1
  O  O178  1  0.88252750  0.58438396  0.60871150  1
  O  O179  1  0.88252750  0.91771729  0.60871150  1
  O  O180  1  0.08228271  0.29814354  0.60871150  1
  O  O181  1  0.08228271  0.63147687  0.60871150  1
  O  O182  1  0.08228271  0.96481021  0.60871150  1
  O  O183  1  0.41561604  0.29814354  0.60871150  1
  O  O184  1  0.41561604  0.63147687  0.60871150  1
  O  O185  1  0.41561604  0.96481021  0.60871150  1
  O  O186  1  0.74894937  0.29814354  0.60871150  1
  O  O187  1  0.74894937  0.63147687  0.60871150  1
  O  O188  1  0.74894937  0.96481021  0.60871150  1
  O  O189  1  0.29814354  0.21586083  0.10871150  1
  O  O190  1  0.29814354  0.54919417  0.10871150  1
  O  O191  1  0.29814354  0.88252750  0.10871150  1
  O  O192  1  0.63147687  0.21586083  0.10871150  1
  O  O193  1  0.63147687  0.54919417  0.10871150  1
  O  O194  1  0.63147687  0.88252750  0.10871150  1
  O  O195  1  0.96481021  0.21586083  0.10871150  1
  O  O196  1  0.96481021  0.54919417  0.10871150  1
  O  O197  1  0.96481021  0.88252750  0.10871150  1
  O  O198  1  0.11747250  0.08228271  0.10871150  1
  O  O199  1  0.11747250  0.41561604  0.10871150  1
  O  O200  1  0.11747250  0.74894937  0.10871150  1
  O  O201  1  0.45080583  0.08228271  0.10871150  1
  O  O202  1  0.45080583  0.41561604  0.10871150  1
  O  O203  1  0.45080583  0.74894937  0.10871150  1
  O  O204  1  0.78413917  0.08228271  0.10871150  1
  O  O205  1  0.78413917  0.41561604  0.10871150  1
  O  O206  1  0.78413917  0.74894937  0.10871150  1
  O  O207  1  0.25105063  0.03518979  0.10871150  1
  O  O208  1  0.25105063  0.36852313  0.10871150  1
  O  O209  1  0.25105063  0.70185646  0.10871150  1
  O  O210  1  0.58438396  0.03518979  0.10871150  1
  O  O211  1  0.58438396  0.36852313  0.10871150  1
  O  O212  1  0.58438396  0.70185646  0.10871150  1
  O  O213  1  0.91771729  0.03518979  0.10871150  1
  O  O214  1  0.91771729  0.36852313  0.10871150  1
  O  O215  1  0.91771729  0.70185646  0.10871150  1
  O  O216  1  0.29814354  0.21586083  0.39128850  1
  O  O217  1  0.29814354  0.54919417  0.39128850  1
  O  O218  1  0.29814354  0.88252750  0.39128850  1
  O  O219  1  0.63147687  0.21586083  0.39128850  1
  O  O220  1  0.63147687  0.54919417  0.39128850  1
  O  O221  1  0.63147687  0.88252750  0.39128850  1
  O  O222  1  0.96481021  0.21586083  0.39128850  1
  O  O223  1  0.96481021  0.54919417  0.39128850  1
  O  O224  1  0.96481021  0.88252750  0.39128850  1
  O  O225  1  0.11747250  0.08228271  0.39128850  1
  O  O226  1  0.11747250  0.41561604  0.39128850  1
  O  O227  1  0.11747250  0.74894937  0.39128850  1
  O  O228  1  0.45080583  0.08228271  0.39128850  1
  O  O229  1  0.45080583  0.41561604  0.39128850  1
  O  O230  1  0.45080583  0.74894937  0.39128850  1
  O  O231  1  0.78413917  0.08228271  0.39128850  1
  O  O232  1  0.78413917  0.41561604  0.39128850  1
  O  O233  1  0.78413917  0.74894937  0.39128850  1
  O  O234  1  0.25105063  0.03518979  0.39128850  1
  O  O235  1  0.25105063  0.36852313  0.39128850  1
  O  O236  1  0.25105063  0.70185646  0.39128850  1
  O  O237  1  0.58438396  0.03518979  0.39128850  1
  O  O238  1  0.58438396  0.36852313  0.39128850  1
  O  O239  1  0.58438396  0.70185646  0.39128850  1
  O  O240  1  0.91771729  0.03518979  0.39128850  1
  O  O241  1  0.91771729  0.36852313  0.39128850  1
  O  O242  1  0.91771729  0.70185646  0.39128850  1
  O  O243  1  0.03518979  0.11747250  0.89128850  1
  O  O244  1  0.03518979  0.45080583  0.89128850  1
  O  O245  1  0.03518979  0.78413917  0.89128850  1
  O  O246  1  0.36852313  0.11747250  0.89128850  1
  O  O247  1  0.36852313  0.45080583  0.89128850  1
  O  O248  1  0.36852313  0.78413917  0.89128850  1
  O  O249  1  0.70185646  0.11747250  0.89128850  1
  O  O250  1  0.70185646  0.45080583  0.89128850  1
  O  O251  1  0.70185646  0.78413917  0.89128850  1
  O  O252  1  0.21586083  0.25105063  0.89128850  1
  O  O253  1  0.21586083  0.58438396  0.89128850  1
  O  O254  1  0.21586083  0.91771729  0.89128850  1
  O  O255  1  0.54919417  0.25105063  0.89128850  1
  O  O256  1  0.54919417  0.58438396  0.89128850  1
  O  O257  1  0.54919417  0.91771729  0.89128850  1
  O  O258  1  0.88252750  0.25105063  0.89128850  1
  O  O259  1  0.88252750  0.58438396  0.89128850  1
  O  O260  1  0.88252750  0.91771729  0.89128850  1
  O  O261  1  0.08228271  0.29814354  0.89128850  1
  O  O262  1  0.08228271  0.63147687  0.89128850  1
  O  O263  1  0.08228271  0.96481021  0.89128850  1
  O  O264  1  0.41561604  0.29814354  0.89128850  1
  O  O265  1  0.41561604  0.63147687  0.89128850  1
  O  O266  1  0.41561604  0.96481021  0.89128850  1
  O  O267  1  0.74894937  0.29814354  0.89128850  1
  O  O268  1  0.74894937  0.63147687  0.89128850  1
  O  O269  1  0.74894937  0.96481021  0.89128850  1
