# generated using pymatgen
data_Nb2SnO6
_symmetry_space_group_name_H-M   'P 1'
_cell_length_a   17.16898090
_cell_length_b   14.72549433
_cell_length_c   16.80245189
_cell_angle_alpha   90.00000000
_cell_angle_beta   91.59560460
_cell_angle_gamma   90.00000000
_symmetry_Int_Tables_number   1
_chemical_formula_structural   Nb2SnO6
_chemical_formula_sum   'Nb72 Sn36 O216'
_cell_volume   4246.37781505
_cell_formula_units_Z   36
loop_
 _symmetry_equiv_pos_site_id
 _symmetry_equiv_pos_as_xyz
  1  'x, y, z'
loop_
 _atom_site_type_symbol
 _atom_site_label
 _atom_site_symmetry_multiplicity
 _atom_site_fract_x
 _atom_site_fract_y
 _atom_site_fract_z
 _atom_site_occupancy
  Nb  Nb0  1  0.66950159  0.08665675  0.05736543  1
  Nb  Nb1  1  0.66950159  0.08665675  0.39069877  1
  Nb  Nb2  1  0.66950159  0.08665675  0.72403210  1
  Nb  Nb3  1  0.66950159  0.41999008  0.05736543  1
  Nb  Nb4  1  0.66950159  0.41999008  0.39069877  1
  Nb  Nb5  1  0.66950159  0.41999008  0.72403210  1
  Nb  Nb6  1  0.66950159  0.75332341  0.05736543  1
  Nb  Nb7  1  0.66950159  0.75332341  0.39069877  1
  Nb  Nb8  1  0.66950159  0.75332341  0.72403210  1
  Nb  Nb9  1  1.16950159  0.25332341  0.05736543  1
  Nb  Nb10  1  1.16950159  0.25332341  0.39069877  1
  Nb  Nb11  1  1.16950159  0.25332341  0.72403210  1
  Nb  Nb12  1  1.16950159  0.58665675  0.05736543  1
  Nb  Nb13  1  1.16950159  0.58665675  0.39069877  1
  Nb  Nb14  1  1.16950159  0.58665675  0.72403210  1
  Nb  Nb15  1  1.16950159  0.91999008  0.05736543  1
  Nb  Nb16  1  1.16950159  0.91999008  0.39069877  1
  Nb  Nb17  1  1.16950159  0.91999008  0.72403210  1
  Nb  Nb18  1  0.33049841  0.08665675  0.10930123  1
  Nb  Nb19  1  0.33049841  0.08665675  0.44263457  1
  Nb  Nb20  1  0.33049841  0.08665675  0.77596790  1
  Nb  Nb21  1  0.33049841  0.41999008  0.10930123  1
  Nb  Nb22  1  0.33049841  0.41999008  0.44263457  1
  Nb  Nb23  1  0.33049841  0.41999008  0.77596790  1
  Nb  Nb24  1  0.33049841  0.75332341  0.10930123  1
  Nb  Nb25  1  0.33049841  0.75332341  0.44263457  1
  Nb  Nb26  1  0.33049841  0.75332341  0.77596790  1
  Nb  Nb27  1  0.83049841  0.25332341  0.10930123  1
  Nb  Nb28  1  0.83049841  0.25332341  0.44263457  1
  Nb  Nb29  1  0.83049841  0.25332341  0.77596790  1
  Nb  Nb30  1  0.83049841  0.58665675  0.10930123  1
  Nb  Nb31  1  0.83049841  0.58665675  0.44263457  1
  Nb  Nb32  1  0.83049841  0.58665675  0.77596790  1
  Nb  Nb33  1  0.83049841  0.91999008  0.10930123  1
  Nb  Nb34  1  0.83049841  0.91999008  0.44263457  1
  Nb  Nb35  1  0.83049841  0.91999008  0.77596790  1
  Nb  Nb36  1  0.33049841  -0.08665675  0.27596790  1
  Nb  Nb37  1  0.33049841  -0.08665675  0.60930123  1
  Nb  Nb38  1  0.33049841  -0.08665675  0.94263457  1
  Nb  Nb39  1  0.33049841  0.24667659  0.27596790  1
  Nb  Nb40  1  0.33049841  0.24667659  0.60930123  1
  Nb  Nb41  1  0.33049841  0.24667659  0.94263457  1
  Nb  Nb42  1  0.33049841  0.58000992  0.27596790  1
  Nb  Nb43  1  0.33049841  0.58000992  0.60930123  1
  Nb  Nb44  1  0.33049841  0.58000992  0.94263457  1
  Nb  Nb45  1  0.83049841  0.08000992  0.27596790  1
  Nb  Nb46  1  0.83049841  0.08000992  0.60930123  1
  Nb  Nb47  1  0.83049841  0.08000992  0.94263457  1
  Nb  Nb48  1  0.83049841  0.41334325  0.27596790  1
  Nb  Nb49  1  0.83049841  0.41334325  0.60930123  1
  Nb  Nb50  1  0.83049841  0.41334325  0.94263457  1
  Nb  Nb51  1  0.83049841  0.74667659  0.27596790  1
  Nb  Nb52  1  0.83049841  0.74667659  0.60930123  1
  Nb  Nb53  1  0.83049841  0.74667659  0.94263457  1
  Nb  Nb54  1  0.66950159  -0.08665675  0.22403210  1
  Nb  Nb55  1  0.66950159  -0.08665675  0.55736543  1
  Nb  Nb56  1  0.66950159  -0.08665675  0.89069877  1
  Nb  Nb57  1  0.66950159  0.24667659  0.22403210  1
  Nb  Nb58  1  0.66950159  0.24667659  0.55736543  1
  Nb  Nb59  1  0.66950159  0.24667659  0.89069877  1
  Nb  Nb60  1  0.66950159  0.58000992  0.22403210  1
  Nb  Nb61  1  0.66950159  0.58000992  0.55736543  1
  Nb  Nb62  1  0.66950159  0.58000992  0.89069877  1
  Nb  Nb63  1  1.16950159  0.08000992  0.22403210  1
  Nb  Nb64  1  1.16950159  0.08000992  0.55736543  1
  Nb  Nb65  1  1.16950159  0.08000992  0.89069877  1
  Nb  Nb66  1  1.16950159  0.41334325  0.22403210  1
  Nb  Nb67  1  1.16950159  0.41334325  0.55736543  1
  Nb  Nb68  1  1.16950159  0.41334325  0.89069877  1
  Nb  Nb69  1  1.16950159  0.74667659  0.22403210  1
  Nb  Nb70  1  1.16950159  0.74667659  0.55736543  1
  Nb  Nb71  1  1.16950159  0.74667659  0.89069877  1
  Sn  Sn72  1  0.50000000  -0.08953975  0.08333333  1
  Sn  Sn73  1  0.50000000  -0.08953975  0.41666667  1
  Sn  Sn74  1  0.50000000  -0.08953975  0.75000000  1
  Sn  Sn75  1  0.50000000  0.24379359  0.08333333  1
  Sn  Sn76  1  0.50000000  0.24379359  0.41666667  1
  Sn  Sn77  1  0.50000000  0.24379359  0.75000000  1
  Sn  Sn78  1  0.50000000  0.57712692  0.08333333  1
  Sn  Sn79  1  0.50000000  0.57712692  0.41666667  1
  Sn  Sn80  1  0.50000000  0.57712692  0.75000000  1
  Sn  Sn81  1  1.00000000  0.07712692  0.08333333  1
  Sn  Sn82  1  1.00000000  0.07712692  0.41666667  1
  Sn  Sn83  1  1.00000000  0.07712692  0.75000000  1
  Sn  Sn84  1  1.00000000  0.41046025  0.08333333  1
  Sn  Sn85  1  1.00000000  0.41046025  0.41666667  1
  Sn  Sn86  1  1.00000000  0.41046025  0.75000000  1
  Sn  Sn87  1  1.00000000  0.74379359  0.08333333  1
  Sn  Sn88  1  1.00000000  0.74379359  0.41666667  1
  Sn  Sn89  1  1.00000000  0.74379359  0.75000000  1
  Sn  Sn90  1  0.50000000  0.08953975  0.25000000  1
  Sn  Sn91  1  0.50000000  0.08953975  0.58333333  1
  Sn  Sn92  1  0.50000000  0.08953975  0.91666667  1
  Sn  Sn93  1  0.50000000  0.42287308  0.25000000  1
  Sn  Sn94  1  0.50000000  0.42287308  0.58333333  1
  Sn  Sn95  1  0.50000000  0.42287308  0.91666667  1
  Sn  Sn96  1  0.50000000  0.75620641  0.25000000  1
  Sn  Sn97  1  0.50000000  0.75620641  0.58333333  1
  Sn  Sn98  1  0.50000000  0.75620641  0.91666667  1
  Sn  Sn99  1  1.00000000  0.25620641  0.25000000  1
  Sn  Sn100  1  1.00000000  0.25620641  0.58333333  1
  Sn  Sn101  1  1.00000000  0.25620641  0.91666667  1
  Sn  Sn102  1  1.00000000  0.58953975  0.25000000  1
  Sn  Sn103  1  1.00000000  0.58953975  0.58333333  1
  Sn  Sn104  1  1.00000000  0.58953975  0.91666667  1
  Sn  Sn105  1  1.00000000  0.92287308  0.25000000  1
  Sn  Sn106  1  1.00000000  0.92287308  0.58333333  1
  Sn  Sn107  1  1.00000000  0.92287308  0.91666667  1
  O  O108  1  0.78017075  0.02022137  0.04921430  1
  O  O109  1  0.78017075  0.02022137  0.38254764  1
  O  O110  1  0.78017075  0.02022137  0.71588097  1
  O  O111  1  0.78017075  0.35355471  0.04921430  1
  O  O112  1  0.78017075  0.35355471  0.38254764  1
  O  O113  1  0.78017075  0.35355471  0.71588097  1
  O  O114  1  0.78017075  0.68688804  0.04921430  1
  O  O115  1  0.78017075  0.68688804  0.38254764  1
  O  O116  1  0.78017075  0.68688804  0.71588097  1
  O  O117  1  1.28017075  0.18688804  0.04921430  1
  O  O118  1  1.28017075  0.18688804  0.38254764  1
  O  O119  1  1.28017075  0.18688804  0.71588097  1
  O  O120  1  1.28017075  0.52022137  0.04921430  1
  O  O121  1  1.28017075  0.52022137  0.38254764  1
  O  O122  1  1.28017075  0.52022137  0.71588097  1
  O  O123  1  1.28017075  0.85355471  0.04921430  1
  O  O124  1  1.28017075  0.85355471  0.38254764  1
  O  O125  1  1.28017075  0.85355471  0.71588097  1
  O  O126  1  0.21982925  0.02022137  0.11745236  1
  O  O127  1  0.21982925  0.02022137  0.45078570  1
  O  O128  1  0.21982925  0.02022137  0.78411903  1
  O  O129  1  0.21982925  0.35355471  0.11745236  1
  O  O130  1  0.21982925  0.35355471  0.45078570  1
  O  O131  1  0.21982925  0.35355471  0.78411903  1
  O  O132  1  0.21982925  0.68688804  0.11745236  1
  O  O133  1  0.21982925  0.68688804  0.45078570  1
  O  O134  1  0.21982925  0.68688804  0.78411903  1
  O  O135  1  0.71982925  0.18688804  0.11745236  1
  O  O136  1  0.71982925  0.18688804  0.45078570  1
  O  O137  1  0.71982925  0.18688804  0.78411903  1
  O  O138  1  0.71982925  0.52022137  0.11745236  1
  O  O139  1  0.71982925  0.52022137  0.45078570  1
  O  O140  1  0.71982925  0.52022137  0.78411903  1
  O  O141  1  0.71982925  0.85355471  0.11745236  1
  O  O142  1  0.71982925  0.85355471  0.45078570  1
  O  O143  1  0.71982925  0.85355471  0.78411903  1
  O  O144  1  0.21982925  -0.02022137  0.28411903  1
  O  O145  1  0.21982925  -0.02022137  0.61745236  1
  O  O146  1  0.21982925  -0.02022137  0.95078570  1
  O  O147  1  0.21982925  0.31311196  0.28411903  1
  O  O148  1  0.21982925  0.31311196  0.61745236  1
  O  O149  1  0.21982925  0.31311196  0.95078570  1
  O  O150  1  0.21982925  0.64644529  0.28411903  1
  O  O151  1  0.21982925  0.64644529  0.61745236  1
  O  O152  1  0.21982925  0.64644529  0.95078570  1
  O  O153  1  0.71982925  0.14644529  0.28411903  1
  O  O154  1  0.71982925  0.14644529  0.61745236  1
  O  O155  1  0.71982925  0.14644529  0.95078570  1
  O  O156  1  0.71982925  0.47977863  0.28411903  1
  O  O157  1  0.71982925  0.47977863  0.61745236  1
  O  O158  1  0.71982925  0.47977863  0.95078570  1
  O  O159  1  0.71982925  0.81311196  0.28411903  1
  O  O160  1  0.71982925  0.81311196  0.61745236  1
  O  O161  1  0.71982925  0.81311196  0.95078570  1
  O  O162  1  0.78017075  -0.02022137  0.21588097  1
  O  O163  1  0.78017075  -0.02022137  0.54921430  1
  O  O164  1  0.78017075  -0.02022137  0.88254764  1
  O  O165  1  0.78017075  0.31311196  0.21588097  1
  O  O166  1  0.78017075  0.31311196  0.54921430  1
  O  O167  1  0.78017075  0.31311196  0.88254764  1
  O  O168  1  0.78017075  0.64644529  0.21588097  1
  O  O169  1  0.78017075  0.64644529  0.54921430  1
  O  O170  1  0.78017075  0.64644529  0.88254764  1
  O  O171  1  1.28017075  0.14644529  0.21588097  1
  O  O172  1  1.28017075  0.14644529  0.54921430  1
  O  O173  1  1.28017075  0.14644529  0.88254764  1
  O  O174  1  1.28017075  0.47977863  0.21588097  1
  O  O175  1  1.28017075  0.47977863  0.54921430  1
  O  O176  1  1.28017075  0.47977863  0.88254764  1
  O  O177  1  1.28017075  0.81311196  0.21588097  1
  O  O178  1  1.28017075  0.81311196  0.54921430  1
  O  O179  1  1.28017075  0.81311196  0.88254764  1
  O  O180  1  0.64136570  0.01180913  0.14118558  1
  O  O181  1  0.64136570  0.01180913  0.47451891  1
  O  O182  1  0.64136570  0.01180913  0.80785224  1
  O  O183  1  0.64136570  0.34514246  0.14118558  1
  O  O184  1  0.64136570  0.34514246  0.47451891  1
  O  O185  1  0.64136570  0.34514246  0.80785224  1
  O  O186  1  0.64136570  0.67847580  0.14118558  1
  O  O187  1  0.64136570  0.67847580  0.47451891  1
  O  O188  1  0.64136570  0.67847580  0.80785224  1
  O  O189  1  1.14136570  0.17847580  0.14118558  1
  O  O190  1  1.14136570  0.17847580  0.47451891  1
  O  O191  1  1.14136570  0.17847580  0.80785224  1
  O  O192  1  1.14136570  0.51180913  0.14118558  1
  O  O193  1  1.14136570  0.51180913  0.47451891  1
  O  O194  1  1.14136570  0.51180913  0.80785224  1
  O  O195  1  1.14136570  0.84514246  0.14118558  1
  O  O196  1  1.14136570  0.84514246  0.47451891  1
  O  O197  1  1.14136570  0.84514246  0.80785224  1
  O  O198  1  0.35863430  0.01180913  0.02548109  1
  O  O199  1  0.35863430  0.01180913  0.35881442  1
  O  O200  1  0.35863430  0.01180913  0.69214776  1
  O  O201  1  0.35863430  0.34514246  0.02548109  1
  O  O202  1  0.35863430  0.34514246  0.35881442  1
  O  O203  1  0.35863430  0.34514246  0.69214776  1
  O  O204  1  0.35863430  0.67847580  0.02548109  1
  O  O205  1  0.35863430  0.67847580  0.35881442  1
  O  O206  1  0.35863430  0.67847580  0.69214776  1
  O  O207  1  0.85863430  0.17847580  0.02548109  1
  O  O208  1  0.85863430  0.17847580  0.35881442  1
  O  O209  1  0.85863430  0.17847580  0.69214776  1
  O  O210  1  0.85863430  0.51180913  0.02548109  1
  O  O211  1  0.85863430  0.51180913  0.35881442  1
  O  O212  1  0.85863430  0.51180913  0.69214776  1
  O  O213  1  0.85863430  0.84514246  0.02548109  1
  O  O214  1  0.85863430  0.84514246  0.35881442  1
  O  O215  1  0.85863430  0.84514246  0.69214776  1
  O  O216  1  0.57203078  -0.14099804  0.19565268  1
  O  O217  1  0.57203078  -0.14099804  0.52898602  1
  O  O218  1  0.57203078  -0.14099804  0.86231935  1
  O  O219  1  0.57203078  0.19233529  0.19565268  1
  O  O220  1  0.57203078  0.19233529  0.52898602  1
  O  O221  1  0.57203078  0.19233529  0.86231935  1
  O  O222  1  0.57203078  0.52566863  0.19565268  1
  O  O223  1  0.57203078  0.52566863  0.52898602  1
  O  O224  1  0.57203078  0.52566863  0.86231935  1
  O  O225  1  1.07203078  0.02566863  0.19565268  1
  O  O226  1  1.07203078  0.02566863  0.52898602  1
  O  O227  1  1.07203078  0.02566863  0.86231935  1
  O  O228  1  1.07203078  0.35900196  0.19565268  1
  O  O229  1  1.07203078  0.35900196  0.52898602  1
  O  O230  1  1.07203078  0.35900196  0.86231935  1
  O  O231  1  1.07203078  0.69233529  0.19565268  1
  O  O232  1  1.07203078  0.69233529  0.52898602  1
  O  O233  1  1.07203078  0.69233529  0.86231935  1
  O  O234  1  0.42796922  -0.14099804  0.30434732  1
  O  O235  1  0.42796922  -0.14099804  0.63768065  1
  O  O236  1  0.42796922  -0.14099804  0.97101398  1
  O  O237  1  0.42796922  0.19233529  0.30434732  1
  O  O238  1  0.42796922  0.19233529  0.63768065  1
  O  O239  1  0.42796922  0.19233529  0.97101398  1
  O  O240  1  0.42796922  0.52566863  0.30434732  1
  O  O241  1  0.42796922  0.52566863  0.63768065  1
  O  O242  1  0.42796922  0.52566863  0.97101398  1
  O  O243  1  0.92796922  0.02566863  0.30434732  1
  O  O244  1  0.92796922  0.02566863  0.63768065  1
  O  O245  1  0.92796922  0.02566863  0.97101398  1
  O  O246  1  0.92796922  0.35900196  0.30434732  1
  O  O247  1  0.92796922  0.35900196  0.63768065  1
  O  O248  1  0.92796922  0.35900196  0.97101398  1
  O  O249  1  0.92796922  0.69233529  0.30434732  1
  O  O250  1  0.92796922  0.69233529  0.63768065  1
  O  O251  1  0.92796922  0.69233529  0.97101398  1
  O  O252  1  0.42796922  0.14099804  0.13768065  1
  O  O253  1  0.42796922  0.14099804  0.47101398  1
  O  O254  1  0.42796922  0.14099804  0.80434732  1
  O  O255  1  0.42796922  0.47433137  0.13768065  1
  O  O256  1  0.42796922  0.47433137  0.47101398  1
  O  O257  1  0.42796922  0.47433137  0.80434732  1
  O  O258  1  0.42796922  0.80766471  0.13768065  1
  O  O259  1  0.42796922  0.80766471  0.47101398  1
  O  O260  1  0.42796922  0.80766471  0.80434732  1
  O  O261  1  0.92796922  0.30766471  0.13768065  1
  O  O262  1  0.92796922  0.30766471  0.47101398  1
  O  O263  1  0.92796922  0.30766471  0.80434732  1
  O  O264  1  0.92796922  0.64099804  0.13768065  1
  O  O265  1  0.92796922  0.64099804  0.47101398  1
  O  O266  1  0.92796922  0.64099804  0.80434732  1
  O  O267  1  0.92796922  0.97433137  0.13768065  1
  O  O268  1  0.92796922  0.97433137  0.47101398  1
  O  O269  1  0.92796922  0.97433137  0.80434732  1
  O  O270  1  0.57203078  0.14099804  0.02898602  1
  O  O271  1  0.57203078  0.14099804  0.36231935  1
  O  O272  1  0.57203078  0.14099804  0.69565268  1
  O  O273  1  0.57203078  0.47433137  0.02898602  1
  O  O274  1  0.57203078  0.47433137  0.36231935  1
  O  O275  1  0.57203078  0.47433137  0.69565268  1
  O  O276  1  0.57203078  0.80766471  0.02898602  1
  O  O277  1  0.57203078  0.80766471  0.36231935  1
  O  O278  1  0.57203078  0.80766471  0.69565268  1
  O  O279  1  1.07203078  0.30766471  0.02898602  1
  O  O280  1  1.07203078  0.30766471  0.36231935  1
  O  O281  1  1.07203078  0.30766471  0.69565268  1
  O  O282  1  1.07203078  0.64099804  0.02898602  1
  O  O283  1  1.07203078  0.64099804  0.36231935  1
  O  O284  1  1.07203078  0.64099804  0.69565268  1
  O  O285  1  1.07203078  0.97433137  0.02898602  1
  O  O286  1  1.07203078  0.97433137  0.36231935  1
  O  O287  1  1.07203078  0.97433137  0.69565268  1
  O  O288  1  0.64136570  -0.01180913  0.30785224  1
  O  O289  1  0.64136570  -0.01180913  0.64118558  1
  O  O290  1  0.64136570  -0.01180913  0.97451891  1
  O  O291  1  0.64136570  0.32152420  0.30785224  1
  O  O292  1  0.64136570  0.32152420  0.64118558  1
  O  O293  1  0.64136570  0.32152420  0.97451891  1
  O  O294  1  0.64136570  0.65485754  0.30785224  1
  O  O295  1  0.64136570  0.65485754  0.64118558  1
  O  O296  1  0.64136570  0.65485754  0.97451891  1
  O  O297  1  1.14136570  0.15485754  0.30785224  1
  O  O298  1  1.14136570  0.15485754  0.64118558  1
  O  O299  1  1.14136570  0.15485754  0.97451891  1
  O  O300  1  1.14136570  0.48819087  0.30785224  1
  O  O301  1  1.14136570  0.48819087  0.64118558  1
  O  O302  1  1.14136570  0.48819087  0.97451891  1
  O  O303  1  1.14136570  0.82152420  0.30785224  1
  O  O304  1  1.14136570  0.82152420  0.64118558  1
  O  O305  1  1.14136570  0.82152420  0.97451891  1
  O  O306  1  0.35863430  -0.01180913  0.19214776  1
  O  O307  1  0.35863430  -0.01180913  0.52548109  1
  O  O308  1  0.35863430  -0.01180913  0.85881442  1
  O  O309  1  0.35863430  0.32152420  0.19214776  1
  O  O310  1  0.35863430  0.32152420  0.52548109  1
  O  O311  1  0.35863430  0.32152420  0.85881442  1
  O  O312  1  0.35863430  0.65485754  0.19214776  1
  O  O313  1  0.35863430  0.65485754  0.52548109  1
  O  O314  1  0.35863430  0.65485754  0.85881442  1
  O  O315  1  0.85863430  0.15485754  0.19214776  1
  O  O316  1  0.85863430  0.15485754  0.52548109  1
  O  O317  1  0.85863430  0.15485754  0.85881442  1
  O  O318  1  0.85863430  0.48819087  0.19214776  1
  O  O319  1  0.85863430  0.48819087  0.52548109  1
  O  O320  1  0.85863430  0.48819087  0.85881442  1
  O  O321  1  0.85863430  0.82152420  0.19214776  1
  O  O322  1  0.85863430  0.82152420  0.52548109  1
  O  O323  1  0.85863430  0.82152420  0.85881442  1
