# generated using pymatgen
data_Cs2NaAsO4
_symmetry_space_group_name_H-M   'P 1'
_cell_length_a   18.08627986
_cell_length_b   18.37712338
_cell_length_c   16.43503455
_cell_angle_alpha   90.00000000
_cell_angle_beta   92.46140695
_cell_angle_gamma   90.00000000
_symmetry_Int_Tables_number   1
_chemical_formula_structural   Cs2NaAsO4
_chemical_formula_sum   'Cs72 Na36 As36 O144'
_cell_volume   5457.53492708
_cell_formula_units_Z   36
loop_
 _symmetry_equiv_pos_site_id
 _symmetry_equiv_pos_as_xyz
  1  'x, y, z'
loop_
 _atom_site_type_symbol
 _atom_site_label
 _atom_site_symmetry_multiplicity
 _atom_site_fract_x
 _atom_site_fract_y
 _atom_site_fract_z
 _atom_site_occupancy
  Cs  Cs0  1  0.27915793  0.08333333  0.40689897  1
  Cs  Cs1  1  0.27915793  0.08333333  0.90689897  1
  Cs  Cs2  1  0.27915793  0.41666667  0.40689897  1
  Cs  Cs3  1  0.27915793  0.41666667  0.90689897  1
  Cs  Cs4  1  0.27915793  0.75000000  0.40689897  1
  Cs  Cs5  1  0.27915793  0.75000000  0.90689897  1
  Cs  Cs6  1  0.61249127  0.08333333  0.40689897  1
  Cs  Cs7  1  0.61249127  0.08333333  0.90689897  1
  Cs  Cs8  1  0.61249127  0.41666667  0.40689897  1
  Cs  Cs9  1  0.61249127  0.41666667  0.90689897  1
  Cs  Cs10  1  0.61249127  0.75000000  0.40689897  1
  Cs  Cs11  1  0.61249127  0.75000000  0.90689897  1
  Cs  Cs12  1  0.94582460  0.08333333  0.40689897  1
  Cs  Cs13  1  0.94582460  0.08333333  0.90689897  1
  Cs  Cs14  1  0.94582460  0.41666667  0.40689897  1
  Cs  Cs15  1  0.94582460  0.41666667  0.90689897  1
  Cs  Cs16  1  0.94582460  0.75000000  0.40689897  1
  Cs  Cs17  1  0.94582460  0.75000000  0.90689897  1
  Cs  Cs18  1  0.05417540  0.25000000  0.09310103  1
  Cs  Cs19  1  0.05417540  0.25000000  0.59310103  1
  Cs  Cs20  1  0.05417540  0.58333333  0.09310103  1
  Cs  Cs21  1  0.05417540  0.58333333  0.59310103  1
  Cs  Cs22  1  0.05417540  0.91666667  0.09310103  1
  Cs  Cs23  1  0.05417540  0.91666667  0.59310103  1
  Cs  Cs24  1  0.38750873  0.25000000  0.09310103  1
  Cs  Cs25  1  0.38750873  0.25000000  0.59310103  1
  Cs  Cs26  1  0.38750873  0.58333333  0.09310103  1
  Cs  Cs27  1  0.38750873  0.58333333  0.59310103  1
  Cs  Cs28  1  0.38750873  0.91666667  0.09310103  1
  Cs  Cs29  1  0.38750873  0.91666667  0.59310103  1
  Cs  Cs30  1  0.72084207  0.25000000  0.09310103  1
  Cs  Cs31  1  0.72084207  0.25000000  0.59310103  1
  Cs  Cs32  1  0.72084207  0.58333333  0.09310103  1
  Cs  Cs33  1  0.72084207  0.58333333  0.59310103  1
  Cs  Cs34  1  0.72084207  0.91666667  0.09310103  1
  Cs  Cs35  1  0.72084207  0.91666667  0.59310103  1
  Cs  Cs36  1  0.09964846  0.08333333  0.25468198  1
  Cs  Cs37  1  0.09964846  0.08333333  0.75468198  1
  Cs  Cs38  1  0.09964846  0.41666667  0.25468198  1
  Cs  Cs39  1  0.09964846  0.41666667  0.75468198  1
  Cs  Cs40  1  0.09964846  0.75000000  0.25468198  1
  Cs  Cs41  1  0.09964846  0.75000000  0.75468198  1
  Cs  Cs42  1  0.43298179  0.08333333  0.25468198  1
  Cs  Cs43  1  0.43298179  0.08333333  0.75468198  1
  Cs  Cs44  1  0.43298179  0.41666667  0.25468198  1
  Cs  Cs45  1  0.43298179  0.41666667  0.75468198  1
  Cs  Cs46  1  0.43298179  0.75000000  0.25468198  1
  Cs  Cs47  1  0.43298179  0.75000000  0.75468198  1
  Cs  Cs48  1  0.76631513  0.08333333  0.25468198  1
  Cs  Cs49  1  0.76631513  0.08333333  0.75468198  1
  Cs  Cs50  1  0.76631513  0.41666667  0.25468198  1
  Cs  Cs51  1  0.76631513  0.41666667  0.75468198  1
  Cs  Cs52  1  0.76631513  0.75000000  0.25468198  1
  Cs  Cs53  1  0.76631513  0.75000000  0.75468198  1
  Cs  Cs54  1  0.23368487  0.25000000  0.24531802  1
  Cs  Cs55  1  0.23368487  0.25000000  0.74531802  1
  Cs  Cs56  1  0.23368487  0.58333333  0.24531802  1
  Cs  Cs57  1  0.23368487  0.58333333  0.74531802  1
  Cs  Cs58  1  0.23368487  0.91666667  0.24531802  1
  Cs  Cs59  1  0.23368487  0.91666667  0.74531802  1
  Cs  Cs60  1  0.56701821  0.25000000  0.24531802  1
  Cs  Cs61  1  0.56701821  0.25000000  0.74531802  1
  Cs  Cs62  1  0.56701821  0.58333333  0.24531802  1
  Cs  Cs63  1  0.56701821  0.58333333  0.74531802  1
  Cs  Cs64  1  0.56701821  0.91666667  0.24531802  1
  Cs  Cs65  1  0.56701821  0.91666667  0.74531802  1
  Cs  Cs66  1  0.90035154  0.25000000  0.24531802  1
  Cs  Cs67  1  0.90035154  0.25000000  0.74531802  1
  Cs  Cs68  1  0.90035154  0.58333333  0.24531802  1
  Cs  Cs69  1  0.90035154  0.58333333  0.74531802  1
  Cs  Cs70  1  0.90035154  0.91666667  0.24531802  1
  Cs  Cs71  1  0.90035154  0.91666667  0.74531802  1
  Na  Na72  1  0.21241960  0.25000000  0.48807853  1
  Na  Na73  1  0.21241960  0.25000000  0.98807853  1
  Na  Na74  1  0.21241960  0.58333333  0.48807853  1
  Na  Na75  1  0.21241960  0.58333333  0.98807853  1
  Na  Na76  1  0.21241960  0.91666667  0.48807853  1
  Na  Na77  1  0.21241960  0.91666667  0.98807853  1
  Na  Na78  1  0.54575293  0.25000000  0.48807853  1
  Na  Na79  1  0.54575293  0.25000000  0.98807853  1
  Na  Na80  1  0.54575293  0.58333333  0.48807853  1
  Na  Na81  1  0.54575293  0.58333333  0.98807853  1
  Na  Na82  1  0.54575293  0.91666667  0.48807853  1
  Na  Na83  1  0.54575293  0.91666667  0.98807853  1
  Na  Na84  1  0.87908626  0.25000000  0.48807853  1
  Na  Na85  1  0.87908626  0.25000000  0.98807853  1
  Na  Na86  1  0.87908626  0.58333333  0.48807853  1
  Na  Na87  1  0.87908626  0.58333333  0.98807853  1
  Na  Na88  1  0.87908626  0.91666667  0.48807853  1
  Na  Na89  1  0.87908626  0.91666667  0.98807853  1
  Na  Na90  1  0.12091374  0.08333333  0.01192147  1
  Na  Na91  1  0.12091374  0.08333333  0.51192147  1
  Na  Na92  1  0.12091374  0.41666667  0.01192147  1
  Na  Na93  1  0.12091374  0.41666667  0.51192147  1
  Na  Na94  1  0.12091374  0.75000000  0.01192147  1
  Na  Na95  1  0.12091374  0.75000000  0.51192147  1
  Na  Na96  1  0.45424707  0.08333333  0.01192147  1
  Na  Na97  1  0.45424707  0.08333333  0.51192147  1
  Na  Na98  1  0.45424707  0.41666667  0.01192147  1
  Na  Na99  1  0.45424707  0.41666667  0.51192147  1
  Na  Na100  1  0.45424707  0.75000000  0.01192147  1
  Na  Na101  1  0.45424707  0.75000000  0.51192147  1
  Na  Na102  1  0.78758040  0.08333333  0.01192147  1
  Na  Na103  1  0.78758040  0.08333333  0.51192147  1
  Na  Na104  1  0.78758040  0.41666667  0.01192147  1
  Na  Na105  1  0.78758040  0.41666667  0.51192147  1
  Na  Na106  1  0.78758040  0.75000000  0.01192147  1
  Na  Na107  1  0.78758040  0.75000000  0.51192147  1
  As  As108  1  0.26268620  0.08333333  0.12039770  1
  As  As109  1  0.26268620  0.08333333  0.62039770  1
  As  As110  1  0.26268620  0.41666667  0.12039770  1
  As  As111  1  0.26268620  0.41666667  0.62039770  1
  As  As112  1  0.26268620  0.75000000  0.12039770  1
  As  As113  1  0.26268620  0.75000000  0.62039770  1
  As  As114  1  0.59601954  0.08333333  0.12039770  1
  As  As115  1  0.59601954  0.08333333  0.62039770  1
  As  As116  1  0.59601954  0.41666667  0.12039770  1
  As  As117  1  0.59601954  0.41666667  0.62039770  1
  As  As118  1  0.59601954  0.75000000  0.12039770  1
  As  As119  1  0.59601954  0.75000000  0.62039770  1
  As  As120  1  0.92935287  0.08333333  0.12039770  1
  As  As121  1  0.92935287  0.08333333  0.62039770  1
  As  As122  1  0.92935287  0.41666667  0.12039770  1
  As  As123  1  0.92935287  0.41666667  0.62039770  1
  As  As124  1  0.92935287  0.75000000  0.12039770  1
  As  As125  1  0.92935287  0.75000000  0.62039770  1
  As  As126  1  0.07064713  0.25000000  0.37960230  1
  As  As127  1  0.07064713  0.25000000  0.87960230  1
  As  As128  1  0.07064713  0.58333333  0.37960230  1
  As  As129  1  0.07064713  0.58333333  0.87960230  1
  As  As130  1  0.07064713  0.91666667  0.37960230  1
  As  As131  1  0.07064713  0.91666667  0.87960230  1
  As  As132  1  0.40398046  0.25000000  0.37960230  1
  As  As133  1  0.40398046  0.25000000  0.87960230  1
  As  As134  1  0.40398046  0.58333333  0.37960230  1
  As  As135  1  0.40398046  0.58333333  0.87960230  1
  As  As136  1  0.40398046  0.91666667  0.37960230  1
  As  As137  1  0.40398046  0.91666667  0.87960230  1
  As  As138  1  0.73731380  0.25000000  0.37960230  1
  As  As139  1  0.73731380  0.25000000  0.87960230  1
  As  As140  1  0.73731380  0.58333333  0.37960230  1
  As  As141  1  0.73731380  0.58333333  0.87960230  1
  As  As142  1  0.73731380  0.91666667  0.37960230  1
  As  As143  1  0.73731380  0.91666667  0.87960230  1
  O  O144  1  0.11843155  0.32506901  0.41650456  1
  O  O145  1  0.11843155  0.32506901  0.91650456  1
  O  O146  1  0.11843155  0.65840234  0.41650456  1
  O  O147  1  0.11843155  0.65840234  0.91650456  1
  O  O148  1  0.11843155  0.99173567  0.41650456  1
  O  O149  1  0.11843155  0.99173567  0.91650456  1
  O  O150  1  0.45176488  0.32506901  0.41650456  1
  O  O151  1  0.45176488  0.32506901  0.91650456  1
  O  O152  1  0.45176488  0.65840234  0.41650456  1
  O  O153  1  0.45176488  0.65840234  0.91650456  1
  O  O154  1  0.45176488  0.99173567  0.41650456  1
  O  O155  1  0.45176488  0.99173567  0.91650456  1
  O  O156  1  0.78509822  0.32506901  0.41650456  1
  O  O157  1  0.78509822  0.32506901  0.91650456  1
  O  O158  1  0.78509822  0.65840234  0.41650456  1
  O  O159  1  0.78509822  0.65840234  0.91650456  1
  O  O160  1  0.78509822  0.99173567  0.41650456  1
  O  O161  1  0.78509822  0.99173567  0.91650456  1
  O  O162  1  0.21490178  0.15840234  0.08349544  1
  O  O163  1  0.21490178  0.15840234  0.58349544  1
  O  O164  1  0.21490178  0.49173567  0.08349544  1
  O  O165  1  0.21490178  0.49173567  0.58349544  1
  O  O166  1  0.21490178  0.82506901  0.08349544  1
  O  O167  1  0.21490178  0.82506901  0.58349544  1
  O  O168  1  0.54823512  0.15840234  0.08349544  1
  O  O169  1  0.54823512  0.15840234  0.58349544  1
  O  O170  1  0.54823512  0.49173567  0.08349544  1
  O  O171  1  0.54823512  0.49173567  0.58349544  1
  O  O172  1  0.54823512  0.82506901  0.08349544  1
  O  O173  1  0.54823512  0.82506901  0.58349544  1
  O  O174  1  0.88156845  0.15840234  0.08349544  1
  O  O175  1  0.88156845  0.15840234  0.58349544  1
  O  O176  1  0.88156845  0.49173567  0.08349544  1
  O  O177  1  0.88156845  0.49173567  0.58349544  1
  O  O178  1  0.88156845  0.82506901  0.08349544  1
  O  O179  1  0.88156845  0.82506901  0.58349544  1
  O  O180  1  0.21490178  0.00826433  0.08349544  1
  O  O181  1  0.21490178  0.00826433  0.58349544  1
  O  O182  1  0.21490178  0.34159766  0.08349544  1
  O  O183  1  0.21490178  0.34159766  0.58349544  1
  O  O184  1  0.21490178  0.67493099  0.08349544  1
  O  O185  1  0.21490178  0.67493099  0.58349544  1
  O  O186  1  0.54823512  0.00826433  0.08349544  1
  O  O187  1  0.54823512  0.00826433  0.58349544  1
  O  O188  1  0.54823512  0.34159766  0.08349544  1
  O  O189  1  0.54823512  0.34159766  0.58349544  1
  O  O190  1  0.54823512  0.67493099  0.08349544  1
  O  O191  1  0.54823512  0.67493099  0.58349544  1
  O  O192  1  0.88156845  0.00826433  0.08349544  1
  O  O193  1  0.88156845  0.00826433  0.58349544  1
  O  O194  1  0.88156845  0.34159766  0.08349544  1
  O  O195  1  0.88156845  0.34159766  0.58349544  1
  O  O196  1  0.88156845  0.67493099  0.08349544  1
  O  O197  1  0.88156845  0.67493099  0.58349544  1
  O  O198  1  0.11843155  0.17493099  0.41650456  1
  O  O199  1  0.11843155  0.17493099  0.91650456  1
  O  O200  1  0.11843155  0.50826433  0.41650456  1
  O  O201  1  0.11843155  0.50826433  0.91650456  1
  O  O202  1  0.11843155  0.84159766  0.41650456  1
  O  O203  1  0.11843155  0.84159766  0.91650456  1
  O  O204  1  0.45176488  0.17493099  0.41650456  1
  O  O205  1  0.45176488  0.17493099  0.91650456  1
  O  O206  1  0.45176488  0.50826433  0.41650456  1
  O  O207  1  0.45176488  0.50826433  0.91650456  1
  O  O208  1  0.45176488  0.84159766  0.41650456  1
  O  O209  1  0.45176488  0.84159766  0.91650456  1
  O  O210  1  0.78509822  0.17493099  0.41650456  1
  O  O211  1  0.78509822  0.17493099  0.91650456  1
  O  O212  1  0.78509822  0.50826433  0.41650456  1
  O  O213  1  0.78509822  0.50826433  0.91650456  1
  O  O214  1  0.78509822  0.84159766  0.41650456  1
  O  O215  1  0.78509822  0.84159766  0.91650456  1
  O  O216  1  0.31547598  0.25000000  0.41417038  1
  O  O217  1  0.31547598  0.25000000  0.91417038  1
  O  O218  1  0.31547598  0.58333333  0.41417038  1
  O  O219  1  0.31547598  0.58333333  0.91417038  1
  O  O220  1  0.31547598  0.91666667  0.41417038  1
  O  O221  1  0.31547598  0.91666667  0.91417038  1
  O  O222  1  0.64880932  0.25000000  0.41417038  1
  O  O223  1  0.64880932  0.25000000  0.91417038  1
  O  O224  1  0.64880932  0.58333333  0.41417038  1
  O  O225  1  0.64880932  0.58333333  0.91417038  1
  O  O226  1  0.64880932  0.91666667  0.41417038  1
  O  O227  1  0.64880932  0.91666667  0.91417038  1
  O  O228  1  0.98214265  0.25000000  0.41417038  1
  O  O229  1  0.98214265  0.25000000  0.91417038  1
  O  O230  1  0.98214265  0.58333333  0.41417038  1
  O  O231  1  0.98214265  0.58333333  0.91417038  1
  O  O232  1  0.98214265  0.91666667  0.41417038  1
  O  O233  1  0.98214265  0.91666667  0.91417038  1
  O  O234  1  0.06750218  0.25000000  0.27501193  1
  O  O235  1  0.06750218  0.25000000  0.77501193  1
  O  O236  1  0.06750218  0.58333333  0.27501193  1
  O  O237  1  0.06750218  0.58333333  0.77501193  1
  O  O238  1  0.06750218  0.91666667  0.27501193  1
  O  O239  1  0.06750218  0.91666667  0.77501193  1
  O  O240  1  0.40083551  0.25000000  0.27501193  1
  O  O241  1  0.40083551  0.25000000  0.77501193  1
  O  O242  1  0.40083551  0.58333333  0.27501193  1
  O  O243  1  0.40083551  0.58333333  0.77501193  1
  O  O244  1  0.40083551  0.91666667  0.27501193  1
  O  O245  1  0.40083551  0.91666667  0.77501193  1
  O  O246  1  0.73416885  0.25000000  0.27501193  1
  O  O247  1  0.73416885  0.25000000  0.77501193  1
  O  O248  1  0.73416885  0.58333333  0.27501193  1
  O  O249  1  0.73416885  0.58333333  0.77501193  1
  O  O250  1  0.73416885  0.91666667  0.27501193  1
  O  O251  1  0.73416885  0.91666667  0.77501193  1
  O  O252  1  0.01785735  0.08333333  0.08582962  1
  O  O253  1  0.01785735  0.08333333  0.58582962  1
  O  O254  1  0.01785735  0.41666667  0.08582962  1
  O  O255  1  0.01785735  0.41666667  0.58582962  1
  O  O256  1  0.01785735  0.75000000  0.08582962  1
  O  O257  1  0.01785735  0.75000000  0.58582962  1
  O  O258  1  0.35119068  0.08333333  0.08582962  1
  O  O259  1  0.35119068  0.08333333  0.58582962  1
  O  O260  1  0.35119068  0.41666667  0.08582962  1
  O  O261  1  0.35119068  0.41666667  0.58582962  1
  O  O262  1  0.35119068  0.75000000  0.08582962  1
  O  O263  1  0.35119068  0.75000000  0.58582962  1
  O  O264  1  0.68452402  0.08333333  0.08582962  1
  O  O265  1  0.68452402  0.08333333  0.58582962  1
  O  O266  1  0.68452402  0.41666667  0.08582962  1
  O  O267  1  0.68452402  0.41666667  0.58582962  1
  O  O268  1  0.68452402  0.75000000  0.08582962  1
  O  O269  1  0.68452402  0.75000000  0.58582962  1
  O  O270  1  0.26583115  0.08333333  0.22498807  1
  O  O271  1  0.26583115  0.08333333  0.72498807  1
  O  O272  1  0.26583115  0.41666667  0.22498807  1
  O  O273  1  0.26583115  0.41666667  0.72498807  1
  O  O274  1  0.26583115  0.75000000  0.22498807  1
  O  O275  1  0.26583115  0.75000000  0.72498807  1
  O  O276  1  0.59916449  0.08333333  0.22498807  1
  O  O277  1  0.59916449  0.08333333  0.72498807  1
  O  O278  1  0.59916449  0.41666667  0.22498807  1
  O  O279  1  0.59916449  0.41666667  0.72498807  1
  O  O280  1  0.59916449  0.75000000  0.22498807  1
  O  O281  1  0.59916449  0.75000000  0.72498807  1
  O  O282  1  0.93249782  0.08333333  0.22498807  1
  O  O283  1  0.93249782  0.08333333  0.72498807  1
  O  O284  1  0.93249782  0.41666667  0.22498807  1
  O  O285  1  0.93249782  0.41666667  0.72498807  1
  O  O286  1  0.93249782  0.75000000  0.22498807  1
  O  O287  1  0.93249782  0.75000000  0.72498807  1
