# generated using pymatgen
data_SbAsO3
_symmetry_space_group_name_H-M   'P 1'
_cell_length_a   13.33843244
_cell_length_b   12.89699825
_cell_length_c   13.35966309
_cell_angle_alpha   90.00000000
_cell_angle_beta   125.78932844
_cell_angle_gamma   90.00000000
_symmetry_Int_Tables_number   1
_chemical_formula_structural   SbAsO3
_chemical_formula_sum   'Sb24 As24 O72'
_cell_volume   1864.24203565
_cell_formula_units_Z   24
loop_
 _symmetry_equiv_pos_site_id
 _symmetry_equiv_pos_as_xyz
  1  'x, y, z'
loop_
 _atom_site_type_symbol
 _atom_site_label
 _atom_site_symmetry_multiplicity
 _atom_site_fract_x
 _atom_site_fract_y
 _atom_site_fract_z
 _atom_site_occupancy
  Sb  Sb0  1  0.10794746  0.35612239  0.16687940  1
  Sb  Sb1  1  0.10794746  0.35612239  0.66687940  1
  Sb  Sb2  1  0.44128080  0.35612239  0.16687940  1
  Sb  Sb3  1  0.44128080  0.35612239  0.66687940  1
  Sb  Sb4  1  0.77461413  0.35612239  0.16687940  1
  Sb  Sb5  1  0.77461413  0.35612239  0.66687940  1
  Sb  Sb6  1  0.22538587  0.85612239  0.08312060  1
  Sb  Sb7  1  0.22538587  0.85612239  0.58312060  1
  Sb  Sb8  1  0.55871920  0.85612239  0.08312060  1
  Sb  Sb9  1  0.55871920  0.85612239  0.58312060  1
  Sb  Sb10  1  0.89205254  0.85612239  0.08312060  1
  Sb  Sb11  1  0.89205254  0.85612239  0.58312060  1
  Sb  Sb12  1  0.22538587  0.64387761  0.33312060  1
  Sb  Sb13  1  0.22538587  0.64387761  0.83312060  1
  Sb  Sb14  1  0.55871920  0.64387761  0.33312060  1
  Sb  Sb15  1  0.55871920  0.64387761  0.83312060  1
  Sb  Sb16  1  0.89205254  0.64387761  0.33312060  1
  Sb  Sb17  1  0.89205254  0.64387761  0.83312060  1
  Sb  Sb18  1  0.10794746  0.14387761  0.41687940  1
  Sb  Sb19  1  0.10794746  0.14387761  0.91687940  1
  Sb  Sb20  1  0.44128080  0.14387761  0.41687940  1
  Sb  Sb21  1  0.44128080  0.14387761  0.91687940  1
  Sb  Sb22  1  0.77461413  0.14387761  0.41687940  1
  Sb  Sb23  1  0.77461413  0.14387761  0.91687940  1
  As  As24  1  0.07654261  0.09063373  0.13423495  1
  As  As25  1  0.07654261  0.09063373  0.63423495  1
  As  As26  1  0.40987594  0.09063373  0.13423495  1
  As  As27  1  0.40987594  0.09063373  0.63423495  1
  As  As28  1  0.74320928  0.09063373  0.13423495  1
  As  As29  1  0.74320928  0.09063373  0.63423495  1
  As  As30  1  0.25679072  0.59063373  0.11576505  1
  As  As31  1  0.25679072  0.59063373  0.61576505  1
  As  As32  1  0.59012406  0.59063373  0.11576505  1
  As  As33  1  0.59012406  0.59063373  0.61576505  1
  As  As34  1  0.92345739  0.59063373  0.11576505  1
  As  As35  1  0.92345739  0.59063373  0.61576505  1
  As  As36  1  0.25679072  0.90936627  0.36576505  1
  As  As37  1  0.25679072  0.90936627  0.86576505  1
  As  As38  1  0.59012406  0.90936627  0.36576505  1
  As  As39  1  0.59012406  0.90936627  0.86576505  1
  As  As40  1  0.92345739  0.90936627  0.36576505  1
  As  As41  1  0.92345739  0.90936627  0.86576505  1
  As  As42  1  0.07654261  0.40936627  0.38423495  1
  As  As43  1  0.07654261  0.40936627  0.88423495  1
  As  As44  1  0.40987594  0.40936627  0.38423495  1
  As  As45  1  0.40987594  0.40936627  0.88423495  1
  As  As46  1  0.74320928  0.40936627  0.38423495  1
  As  As47  1  0.74320928  0.40936627  0.88423495  1
  O  O48  1  0.28977460  0.36241996  0.23047652  1
  O  O49  1  0.28977460  0.36241996  0.73047652  1
  O  O50  1  0.62310793  0.36241996  0.23047652  1
  O  O51  1  0.62310793  0.36241996  0.73047652  1
  O  O52  1  0.95644126  0.36241996  0.23047652  1
  O  O53  1  0.95644126  0.36241996  0.73047652  1
  O  O54  1  0.04355874  0.86241996  0.01952348  1
  O  O55  1  0.04355874  0.86241996  0.51952348  1
  O  O56  1  0.37689207  0.86241996  0.01952348  1
  O  O57  1  0.37689207  0.86241996  0.51952348  1
  O  O58  1  0.71022540  0.86241996  0.01952348  1
  O  O59  1  0.71022540  0.86241996  0.51952348  1
  O  O60  1  0.04355874  0.63758004  0.26952348  1
  O  O61  1  0.04355874  0.63758004  0.76952348  1
  O  O62  1  0.37689207  0.63758004  0.26952348  1
  O  O63  1  0.37689207  0.63758004  0.76952348  1
  O  O64  1  0.71022540  0.63758004  0.26952348  1
  O  O65  1  0.71022540  0.63758004  0.76952348  1
  O  O66  1  0.28977460  0.13758004  0.48047652  1
  O  O67  1  0.28977460  0.13758004  0.98047652  1
  O  O68  1  0.62310793  0.13758004  0.48047652  1
  O  O69  1  0.62310793  0.13758004  0.98047652  1
  O  O70  1  0.95644126  0.13758004  0.48047652  1
  O  O71  1  0.95644126  0.13758004  0.98047652  1
  O  O72  1  0.18167670  0.08967331  0.09005575  1
  O  O73  1  0.18167670  0.08967331  0.59005575  1
  O  O74  1  0.51501003  0.08967331  0.09005575  1
  O  O75  1  0.51501003  0.08967331  0.59005575  1
  O  O76  1  0.84834337  0.08967331  0.09005575  1
  O  O77  1  0.84834337  0.08967331  0.59005575  1
  O  O78  1  0.15165663  0.58967331  0.15994425  1
  O  O79  1  0.15165663  0.58967331  0.65994425  1
  O  O80  1  0.48498997  0.58967331  0.15994425  1
  O  O81  1  0.48498997  0.58967331  0.65994425  1
  O  O82  1  0.81832330  0.58967331  0.15994425  1
  O  O83  1  0.81832330  0.58967331  0.65994425  1
  O  O84  1  0.15165663  0.91032669  0.40994425  1
  O  O85  1  0.15165663  0.91032669  0.90994425  1
  O  O86  1  0.48498997  0.91032669  0.40994425  1
  O  O87  1  0.48498997  0.91032669  0.90994425  1
  O  O88  1  0.81832330  0.91032669  0.40994425  1
  O  O89  1  0.81832330  0.91032669  0.90994425  1
  O  O90  1  0.18167670  0.41032669  0.34005575  1
  O  O91  1  0.18167670  0.41032669  0.84005575  1
  O  O92  1  0.51501003  0.41032669  0.34005575  1
  O  O93  1  0.51501003  0.41032669  0.84005575  1
  O  O94  1  0.84834337  0.41032669  0.34005575  1
  O  O95  1  0.84834337  0.41032669  0.84005575  1
  O  O96  1  0.12596071  0.20844425  0.22389233  1
  O  O97  1  0.12596071  0.20844425  0.72389233  1
  O  O98  1  0.45929404  0.20844425  0.22389233  1
  O  O99  1  0.45929404  0.20844425  0.72389233  1
  O  O100  1  0.79262738  0.20844425  0.22389233  1
  O  O101  1  0.79262738  0.20844425  0.72389233  1
  O  O102  1  0.20737262  0.70844425  0.02610767  1
  O  O103  1  0.20737262  0.70844425  0.52610767  1
  O  O104  1  0.54070596  0.70844425  0.02610767  1
  O  O105  1  0.54070596  0.70844425  0.52610767  1
  O  O106  1  0.87403929  0.70844425  0.02610767  1
  O  O107  1  0.87403929  0.70844425  0.52610767  1
  O  O108  1  0.20737262  0.79155575  0.27610767  1
  O  O109  1  0.20737262  0.79155575  0.77610767  1
  O  O110  1  0.54070596  0.79155575  0.27610767  1
  O  O111  1  0.54070596  0.79155575  0.77610767  1
  O  O112  1  0.87403929  0.79155575  0.27610767  1
  O  O113  1  0.87403929  0.79155575  0.77610767  1
  O  O114  1  0.12596071  0.29155575  0.47389233  1
  O  O115  1  0.12596071  0.29155575  0.97389233  1
  O  O116  1  0.45929404  0.29155575  0.47389233  1
  O  O117  1  0.45929404  0.29155575  0.97389233  1
  O  O118  1  0.79262738  0.29155575  0.47389233  1
  O  O119  1  0.79262738  0.29155575  0.97389233  1
