# generated using pymatgen
data_NaCaVO4
_symmetry_space_group_name_H-M   'P 1'
_cell_length_a   17.57865221
_cell_length_b   18.48347793
_cell_length_c   14.15527722
_cell_angle_alpha   90.00000000
_cell_angle_beta   90.00000000
_cell_angle_gamma   90.00000000
_symmetry_Int_Tables_number   1
_chemical_formula_structural   NaCaVO4
_chemical_formula_sum   'Na48 Ca48 V48 O192'
_cell_volume   4599.25666378
_cell_formula_units_Z   48
loop_
 _symmetry_equiv_pos_site_id
 _symmetry_equiv_pos_as_xyz
  1  'x, y, z'
loop_
 _atom_site_type_symbol
 _atom_site_label
 _atom_site_symmetry_multiplicity
 _atom_site_fract_x
 _atom_site_fract_y
 _atom_site_fract_z
 _atom_site_occupancy
  Na  Na0  1  0.16666667  0.16107935  0.37500000  1
  Na  Na1  1  0.16666667  0.16107935  0.87500000  1
  Na  Na2  1  0.16666667  0.66107935  0.37500000  1
  Na  Na3  1  0.16666667  0.66107935  0.87500000  1
  Na  Na4  1  0.50000000  0.16107935  0.37500000  1
  Na  Na5  1  0.50000000  0.16107935  0.87500000  1
  Na  Na6  1  0.50000000  0.66107935  0.37500000  1
  Na  Na7  1  0.50000000  0.66107935  0.87500000  1
  Na  Na8  1  0.83333333  0.16107935  0.37500000  1
  Na  Na9  1  0.83333333  0.16107935  0.87500000  1
  Na  Na10  1  0.83333333  0.66107935  0.37500000  1
  Na  Na11  1  0.83333333  0.66107935  0.87500000  1
  Na  Na12  1  0.33333333  0.41107935  0.37500000  1
  Na  Na13  1  0.33333333  0.41107935  0.87500000  1
  Na  Na14  1  0.33333333  0.91107935  0.37500000  1
  Na  Na15  1  0.33333333  0.91107935  0.87500000  1
  Na  Na16  1  0.66666667  0.41107935  0.37500000  1
  Na  Na17  1  0.66666667  0.41107935  0.87500000  1
  Na  Na18  1  0.66666667  0.91107935  0.37500000  1
  Na  Na19  1  0.66666667  0.91107935  0.87500000  1
  Na  Na20  1  1.00000000  0.41107935  0.37500000  1
  Na  Na21  1  1.00000000  0.41107935  0.87500000  1
  Na  Na22  1  1.00000000  0.91107935  0.37500000  1
  Na  Na23  1  1.00000000  0.91107935  0.87500000  1
  Na  Na24  1  0.16666667  -0.16107935  0.12500000  1
  Na  Na25  1  0.16666667  -0.16107935  0.62500000  1
  Na  Na26  1  0.16666667  0.33892065  0.12500000  1
  Na  Na27  1  0.16666667  0.33892065  0.62500000  1
  Na  Na28  1  0.50000000  -0.16107935  0.12500000  1
  Na  Na29  1  0.50000000  -0.16107935  0.62500000  1
  Na  Na30  1  0.50000000  0.33892065  0.12500000  1
  Na  Na31  1  0.50000000  0.33892065  0.62500000  1
  Na  Na32  1  0.83333333  -0.16107935  0.12500000  1
  Na  Na33  1  0.83333333  -0.16107935  0.62500000  1
  Na  Na34  1  0.83333333  0.33892065  0.12500000  1
  Na  Na35  1  0.83333333  0.33892065  0.62500000  1
  Na  Na36  1  0.33333333  0.08892065  0.12500000  1
  Na  Na37  1  0.33333333  0.08892065  0.62500000  1
  Na  Na38  1  0.33333333  0.58892065  0.12500000  1
  Na  Na39  1  0.33333333  0.58892065  0.62500000  1
  Na  Na40  1  0.66666667  0.08892065  0.12500000  1
  Na  Na41  1  0.66666667  0.08892065  0.62500000  1
  Na  Na42  1  0.66666667  0.58892065  0.12500000  1
  Na  Na43  1  0.66666667  0.58892065  0.62500000  1
  Na  Na44  1  1.00000000  0.08892065  0.12500000  1
  Na  Na45  1  1.00000000  0.08892065  0.62500000  1
  Na  Na46  1  1.00000000  0.58892065  0.12500000  1
  Na  Na47  1  1.00000000  0.58892065  0.62500000  1
  Ca  Ca48  1  0.16666667  0.00000000  0.25000000  1
  Ca  Ca49  1  0.16666667  0.00000000  0.75000000  1
  Ca  Ca50  1  0.16666667  0.50000000  0.25000000  1
  Ca  Ca51  1  0.16666667  0.50000000  0.75000000  1
  Ca  Ca52  1  0.50000000  0.00000000  0.25000000  1
  Ca  Ca53  1  0.50000000  0.00000000  0.75000000  1
  Ca  Ca54  1  0.50000000  0.50000000  0.25000000  1
  Ca  Ca55  1  0.50000000  0.50000000  0.75000000  1
  Ca  Ca56  1  0.83333333  0.00000000  0.25000000  1
  Ca  Ca57  1  0.83333333  0.00000000  0.75000000  1
  Ca  Ca58  1  0.83333333  0.50000000  0.25000000  1
  Ca  Ca59  1  0.83333333  0.50000000  0.75000000  1
  Ca  Ca60  1  0.33333333  0.25000000  0.25000000  1
  Ca  Ca61  1  0.33333333  0.25000000  0.75000000  1
  Ca  Ca62  1  0.33333333  0.75000000  0.25000000  1
  Ca  Ca63  1  0.33333333  0.75000000  0.75000000  1
  Ca  Ca64  1  0.66666667  0.25000000  0.25000000  1
  Ca  Ca65  1  0.66666667  0.25000000  0.75000000  1
  Ca  Ca66  1  0.66666667  0.75000000  0.25000000  1
  Ca  Ca67  1  0.66666667  0.75000000  0.75000000  1
  Ca  Ca68  1  1.00000000  0.25000000  0.25000000  1
  Ca  Ca69  1  1.00000000  0.25000000  0.75000000  1
  Ca  Ca70  1  1.00000000  0.75000000  0.25000000  1
  Ca  Ca71  1  1.00000000  0.75000000  0.75000000  1
  Ca  Ca72  1  0.16666667  0.00000000  0.00000000  1
  Ca  Ca73  1  0.16666667  0.00000000  0.50000000  1
  Ca  Ca74  1  0.16666667  0.50000000  0.00000000  1
  Ca  Ca75  1  0.16666667  0.50000000  0.50000000  1
  Ca  Ca76  1  0.50000000  0.00000000  0.00000000  1
  Ca  Ca77  1  0.50000000  0.00000000  0.50000000  1
  Ca  Ca78  1  0.50000000  0.50000000  0.00000000  1
  Ca  Ca79  1  0.50000000  0.50000000  0.50000000  1
  Ca  Ca80  1  0.83333333  0.00000000  0.00000000  1
  Ca  Ca81  1  0.83333333  0.00000000  0.50000000  1
  Ca  Ca82  1  0.83333333  0.50000000  0.00000000  1
  Ca  Ca83  1  0.83333333  0.50000000  0.50000000  1
  Ca  Ca84  1  0.33333333  0.25000000  0.00000000  1
  Ca  Ca85  1  0.33333333  0.25000000  0.50000000  1
  Ca  Ca86  1  0.33333333  0.75000000  0.00000000  1
  Ca  Ca87  1  0.33333333  0.75000000  0.50000000  1
  Ca  Ca88  1  0.66666667  0.25000000  0.00000000  1
  Ca  Ca89  1  0.66666667  0.25000000  0.50000000  1
  Ca  Ca90  1  0.66666667  0.75000000  0.00000000  1
  Ca  Ca91  1  0.66666667  0.75000000  0.50000000  1
  Ca  Ca92  1  1.00000000  0.25000000  0.00000000  1
  Ca  Ca93  1  1.00000000  0.25000000  0.50000000  1
  Ca  Ca94  1  1.00000000  0.75000000  0.00000000  1
  Ca  Ca95  1  1.00000000  0.75000000  0.50000000  1
  V  V96  1  0.16666667  -0.17653356  0.37500000  1
  V  V97  1  0.16666667  -0.17653356  0.87500000  1
  V  V98  1  0.16666667  0.32346644  0.37500000  1
  V  V99  1  0.16666667  0.32346644  0.87500000  1
  V  V100  1  0.50000000  -0.17653356  0.37500000  1
  V  V101  1  0.50000000  -0.17653356  0.87500000  1
  V  V102  1  0.50000000  0.32346644  0.37500000  1
  V  V103  1  0.50000000  0.32346644  0.87500000  1
  V  V104  1  0.83333333  -0.17653356  0.37500000  1
  V  V105  1  0.83333333  -0.17653356  0.87500000  1
  V  V106  1  0.83333333  0.32346644  0.37500000  1
  V  V107  1  0.83333333  0.32346644  0.87500000  1
  V  V108  1  0.33333333  0.07346644  0.37500000  1
  V  V109  1  0.33333333  0.07346644  0.87500000  1
  V  V110  1  0.33333333  0.57346644  0.37500000  1
  V  V111  1  0.33333333  0.57346644  0.87500000  1
  V  V112  1  0.66666667  0.07346644  0.37500000  1
  V  V113  1  0.66666667  0.07346644  0.87500000  1
  V  V114  1  0.66666667  0.57346644  0.37500000  1
  V  V115  1  0.66666667  0.57346644  0.87500000  1
  V  V116  1  1.00000000  0.07346644  0.37500000  1
  V  V117  1  1.00000000  0.07346644  0.87500000  1
  V  V118  1  1.00000000  0.57346644  0.37500000  1
  V  V119  1  1.00000000  0.57346644  0.87500000  1
  V  V120  1  0.16666667  0.17653356  0.12500000  1
  V  V121  1  0.16666667  0.17653356  0.62500000  1
  V  V122  1  0.16666667  0.67653356  0.12500000  1
  V  V123  1  0.16666667  0.67653356  0.62500000  1
  V  V124  1  0.50000000  0.17653356  0.12500000  1
  V  V125  1  0.50000000  0.17653356  0.62500000  1
  V  V126  1  0.50000000  0.67653356  0.12500000  1
  V  V127  1  0.50000000  0.67653356  0.62500000  1
  V  V128  1  0.83333333  0.17653356  0.12500000  1
  V  V129  1  0.83333333  0.17653356  0.62500000  1
  V  V130  1  0.83333333  0.67653356  0.12500000  1
  V  V131  1  0.83333333  0.67653356  0.62500000  1
  V  V132  1  0.33333333  0.42653356  0.12500000  1
  V  V133  1  0.33333333  0.42653356  0.62500000  1
  V  V134  1  0.33333333  0.92653356  0.12500000  1
  V  V135  1  0.33333333  0.92653356  0.62500000  1
  V  V136  1  0.66666667  0.42653356  0.12500000  1
  V  V137  1  0.66666667  0.42653356  0.62500000  1
  V  V138  1  0.66666667  0.92653356  0.12500000  1
  V  V139  1  0.66666667  0.92653356  0.62500000  1
  V  V140  1  1.00000000  0.42653356  0.12500000  1
  V  V141  1  1.00000000  0.42653356  0.62500000  1
  V  V142  1  1.00000000  0.92653356  0.12500000  1
  V  V143  1  1.00000000  0.92653356  0.62500000  1
  O  O144  1  0.16666667  0.12304415  0.02741956  1
  O  O145  1  0.16666667  0.12304415  0.52741956  1
  O  O146  1  0.16666667  0.62304415  0.02741956  1
  O  O147  1  0.16666667  0.62304415  0.52741956  1
  O  O148  1  0.50000000  0.12304415  0.02741956  1
  O  O149  1  0.50000000  0.12304415  0.52741956  1
  O  O150  1  0.50000000  0.62304415  0.02741956  1
  O  O151  1  0.50000000  0.62304415  0.52741956  1
  O  O152  1  0.83333333  0.12304415  0.02741956  1
  O  O153  1  0.83333333  0.12304415  0.52741956  1
  O  O154  1  0.83333333  0.62304415  0.02741956  1
  O  O155  1  0.83333333  0.62304415  0.52741956  1
  O  O156  1  0.33333333  0.37304415  0.02741956  1
  O  O157  1  0.33333333  0.37304415  0.52741956  1
  O  O158  1  0.33333333  0.87304415  0.02741956  1
  O  O159  1  0.33333333  0.87304415  0.52741956  1
  O  O160  1  0.66666667  0.37304415  0.02741956  1
  O  O161  1  0.66666667  0.37304415  0.52741956  1
  O  O162  1  0.66666667  0.87304415  0.02741956  1
  O  O163  1  0.66666667  0.87304415  0.52741956  1
  O  O164  1  1.00000000  0.37304415  0.02741956  1
  O  O165  1  1.00000000  0.37304415  0.52741956  1
  O  O166  1  1.00000000  0.87304415  0.02741956  1
  O  O167  1  1.00000000  0.87304415  0.52741956  1
  O  O168  1  0.16666667  -0.12304415  0.27741956  1
  O  O169  1  0.16666667  -0.12304415  0.77741956  1
  O  O170  1  0.16666667  0.37695585  0.27741956  1
  O  O171  1  0.16666667  0.37695585  0.77741956  1
  O  O172  1  0.50000000  -0.12304415  0.27741956  1
  O  O173  1  0.50000000  -0.12304415  0.77741956  1
  O  O174  1  0.50000000  0.37695585  0.27741956  1
  O  O175  1  0.50000000  0.37695585  0.77741956  1
  O  O176  1  0.83333333  -0.12304415  0.27741956  1
  O  O177  1  0.83333333  -0.12304415  0.77741956  1
  O  O178  1  0.83333333  0.37695585  0.27741956  1
  O  O179  1  0.83333333  0.37695585  0.77741956  1
  O  O180  1  0.33333333  0.12695585  0.27741956  1
  O  O181  1  0.33333333  0.12695585  0.77741956  1
  O  O182  1  0.33333333  0.62695585  0.27741956  1
  O  O183  1  0.33333333  0.62695585  0.77741956  1
  O  O184  1  0.66666667  0.12695585  0.27741956  1
  O  O185  1  0.66666667  0.12695585  0.77741956  1
  O  O186  1  0.66666667  0.62695585  0.27741956  1
  O  O187  1  0.66666667  0.62695585  0.77741956  1
  O  O188  1  1.00000000  0.12695585  0.27741956  1
  O  O189  1  1.00000000  0.12695585  0.77741956  1
  O  O190  1  1.00000000  0.62695585  0.27741956  1
  O  O191  1  1.00000000  0.62695585  0.77741956  1
  O  O192  1  0.16666667  -0.12304415  0.47258044  1
  O  O193  1  0.16666667  -0.12304415  0.97258044  1
  O  O194  1  0.16666667  0.37695585  0.47258044  1
  O  O195  1  0.16666667  0.37695585  0.97258044  1
  O  O196  1  0.50000000  -0.12304415  0.47258044  1
  O  O197  1  0.50000000  -0.12304415  0.97258044  1
  O  O198  1  0.50000000  0.37695585  0.47258044  1
  O  O199  1  0.50000000  0.37695585  0.97258044  1
  O  O200  1  0.83333333  -0.12304415  0.47258044  1
  O  O201  1  0.83333333  -0.12304415  0.97258044  1
  O  O202  1  0.83333333  0.37695585  0.47258044  1
  O  O203  1  0.83333333  0.37695585  0.97258044  1
  O  O204  1  0.33333333  0.12695585  0.47258044  1
  O  O205  1  0.33333333  0.12695585  0.97258044  1
  O  O206  1  0.33333333  0.62695585  0.47258044  1
  O  O207  1  0.33333333  0.62695585  0.97258044  1
  O  O208  1  0.66666667  0.12695585  0.47258044  1
  O  O209  1  0.66666667  0.12695585  0.97258044  1
  O  O210  1  0.66666667  0.62695585  0.47258044  1
  O  O211  1  0.66666667  0.62695585  0.97258044  1
  O  O212  1  1.00000000  0.12695585  0.47258044  1
  O  O213  1  1.00000000  0.12695585  0.97258044  1
  O  O214  1  1.00000000  0.62695585  0.47258044  1
  O  O215  1  1.00000000  0.62695585  0.97258044  1
  O  O216  1  0.16666667  0.12304415  0.22258044  1
  O  O217  1  0.16666667  0.12304415  0.72258044  1
  O  O218  1  0.16666667  0.62304415  0.22258044  1
  O  O219  1  0.16666667  0.62304415  0.72258044  1
  O  O220  1  0.50000000  0.12304415  0.22258044  1
  O  O221  1  0.50000000  0.12304415  0.72258044  1
  O  O222  1  0.50000000  0.62304415  0.22258044  1
  O  O223  1  0.50000000  0.62304415  0.72258044  1
  O  O224  1  0.83333333  0.12304415  0.22258044  1
  O  O225  1  0.83333333  0.12304415  0.72258044  1
  O  O226  1  0.83333333  0.62304415  0.22258044  1
  O  O227  1  0.83333333  0.62304415  0.72258044  1
  O  O228  1  0.33333333  0.37304415  0.22258044  1
  O  O229  1  0.33333333  0.37304415  0.72258044  1
  O  O230  1  0.33333333  0.87304415  0.22258044  1
  O  O231  1  0.33333333  0.87304415  0.72258044  1
  O  O232  1  0.66666667  0.37304415  0.22258044  1
  O  O233  1  0.66666667  0.37304415  0.72258044  1
  O  O234  1  0.66666667  0.87304415  0.22258044  1
  O  O235  1  0.66666667  0.87304415  0.72258044  1
  O  O236  1  1.00000000  0.37304415  0.22258044  1
  O  O237  1  1.00000000  0.37304415  0.72258044  1
  O  O238  1  1.00000000  0.87304415  0.22258044  1
  O  O239  1  1.00000000  0.87304415  0.72258044  1
  O  O240  1  0.08033407  0.01761892  0.37500000  1
  O  O241  1  0.08033407  0.01761892  0.87500000  1
  O  O242  1  0.08033407  0.51761892  0.37500000  1
  O  O243  1  0.08033407  0.51761892  0.87500000  1
  O  O244  1  0.41366741  0.01761892  0.37500000  1
  O  O245  1  0.41366741  0.01761892  0.87500000  1
  O  O246  1  0.41366741  0.51761892  0.37500000  1
  O  O247  1  0.41366741  0.51761892  0.87500000  1
  O  O248  1  0.74700074  0.01761892  0.37500000  1
  O  O249  1  0.74700074  0.01761892  0.87500000  1
  O  O250  1  0.74700074  0.51761892  0.37500000  1
  O  O251  1  0.74700074  0.51761892  0.87500000  1
  O  O252  1  0.24700074  0.26761892  0.37500000  1
  O  O253  1  0.24700074  0.26761892  0.87500000  1
  O  O254  1  0.24700074  0.76761892  0.37500000  1
  O  O255  1  0.24700074  0.76761892  0.87500000  1
  O  O256  1  0.58033407  0.26761892  0.37500000  1
  O  O257  1  0.58033407  0.26761892  0.87500000  1
  O  O258  1  0.58033407  0.76761892  0.37500000  1
  O  O259  1  0.58033407  0.76761892  0.87500000  1
  O  O260  1  0.91366741  0.26761892  0.37500000  1
  O  O261  1  0.91366741  0.26761892  0.87500000  1
  O  O262  1  0.91366741  0.76761892  0.37500000  1
  O  O263  1  0.91366741  0.76761892  0.87500000  1
  O  O264  1  0.25299926  -0.01761892  0.12500000  1
  O  O265  1  0.25299926  -0.01761892  0.62500000  1
  O  O266  1  0.25299926  0.48238108  0.12500000  1
  O  O267  1  0.25299926  0.48238108  0.62500000  1
  O  O268  1  0.58633259  -0.01761892  0.12500000  1
  O  O269  1  0.58633259  -0.01761892  0.62500000  1
  O  O270  1  0.58633259  0.48238108  0.12500000  1
  O  O271  1  0.58633259  0.48238108  0.62500000  1
  O  O272  1  0.91966593  -0.01761892  0.12500000  1
  O  O273  1  0.91966593  -0.01761892  0.62500000  1
  O  O274  1  0.91966593  0.48238108  0.12500000  1
  O  O275  1  0.91966593  0.48238108  0.62500000  1
  O  O276  1  0.41966593  0.23238108  0.12500000  1
  O  O277  1  0.41966593  0.23238108  0.62500000  1
  O  O278  1  0.41966593  0.73238108  0.12500000  1
  O  O279  1  0.41966593  0.73238108  0.62500000  1
  O  O280  1  0.75299926  0.23238108  0.12500000  1
  O  O281  1  0.75299926  0.23238108  0.62500000  1
  O  O282  1  0.75299926  0.73238108  0.12500000  1
  O  O283  1  0.75299926  0.73238108  0.62500000  1
  O  O284  1  1.08633259  0.23238108  0.12500000  1
  O  O285  1  1.08633259  0.23238108  0.62500000  1
  O  O286  1  1.08633259  0.73238108  0.12500000  1
  O  O287  1  1.08633259  0.73238108  0.62500000  1
  O  O288  1  0.25299926  0.01761892  0.37500000  1
  O  O289  1  0.25299926  0.01761892  0.87500000  1
  O  O290  1  0.25299926  0.51761892  0.37500000  1
  O  O291  1  0.25299926  0.51761892  0.87500000  1
  O  O292  1  0.58633259  0.01761892  0.37500000  1
  O  O293  1  0.58633259  0.01761892  0.87500000  1
  O  O294  1  0.58633259  0.51761892  0.37500000  1
  O  O295  1  0.58633259  0.51761892  0.87500000  1
  O  O296  1  0.91966593  0.01761892  0.37500000  1
  O  O297  1  0.91966593  0.01761892  0.87500000  1
  O  O298  1  0.91966593  0.51761892  0.37500000  1
  O  O299  1  0.91966593  0.51761892  0.87500000  1
  O  O300  1  0.41966593  0.26761892  0.37500000  1
  O  O301  1  0.41966593  0.26761892  0.87500000  1
  O  O302  1  0.41966593  0.76761892  0.37500000  1
  O  O303  1  0.41966593  0.76761892  0.87500000  1
  O  O304  1  0.75299926  0.26761892  0.37500000  1
  O  O305  1  0.75299926  0.26761892  0.87500000  1
  O  O306  1  0.75299926  0.76761892  0.37500000  1
  O  O307  1  0.75299926  0.76761892  0.87500000  1
  O  O308  1  1.08633259  0.26761892  0.37500000  1
  O  O309  1  1.08633259  0.26761892  0.87500000  1
  O  O310  1  1.08633259  0.76761892  0.37500000  1
  O  O311  1  1.08633259  0.76761892  0.87500000  1
  O  O312  1  0.08033407  -0.01761892  0.12500000  1
  O  O313  1  0.08033407  -0.01761892  0.62500000  1
  O  O314  1  0.08033407  0.48238108  0.12500000  1
  O  O315  1  0.08033407  0.48238108  0.62500000  1
  O  O316  1  0.41366741  -0.01761892  0.12500000  1
  O  O317  1  0.41366741  -0.01761892  0.62500000  1
  O  O318  1  0.41366741  0.48238108  0.12500000  1
  O  O319  1  0.41366741  0.48238108  0.62500000  1
  O  O320  1  0.74700074  -0.01761892  0.12500000  1
  O  O321  1  0.74700074  -0.01761892  0.62500000  1
  O  O322  1  0.74700074  0.48238108  0.12500000  1
  O  O323  1  0.74700074  0.48238108  0.62500000  1
  O  O324  1  0.24700074  0.23238108  0.12500000  1
  O  O325  1  0.24700074  0.23238108  0.62500000  1
  O  O326  1  0.24700074  0.73238108  0.12500000  1
  O  O327  1  0.24700074  0.73238108  0.62500000  1
  O  O328  1  0.58033407  0.23238108  0.12500000  1
  O  O329  1  0.58033407  0.23238108  0.62500000  1
  O  O330  1  0.58033407  0.73238108  0.12500000  1
  O  O331  1  0.58033407  0.73238108  0.62500000  1
  O  O332  1  0.91366741  0.23238108  0.12500000  1
  O  O333  1  0.91366741  0.23238108  0.62500000  1
  O  O334  1  0.91366741  0.73238108  0.12500000  1
  O  O335  1  0.91366741  0.73238108  0.62500000  1
