# generated using pymatgen
data_Ba2BiSbO6
_symmetry_space_group_name_H-M   'P 1'
_cell_length_a   20.89892179
_cell_length_b   18.08975989
_cell_length_c   18.28999075
_cell_angle_alpha   90.00000000
_cell_angle_beta   125.29264498
_cell_angle_gamma   90.00000000
_symmetry_Int_Tables_number   1
_chemical_formula_structural   Ba2BiSbO6
_chemical_formula_sum   'Ba72 Bi36 Sb36 O216'
_cell_volume   5643.81823224
_cell_formula_units_Z   36
loop_
 _symmetry_equiv_pos_site_id
 _symmetry_equiv_pos_as_xyz
  1  'x, y, z'
loop_
 _atom_site_type_symbol
 _atom_site_label
 _atom_site_symmetry_multiplicity
 _atom_site_fract_x
 _atom_site_fract_y
 _atom_site_fract_z
 _atom_site_occupancy
  Ba  Ba0  1  0.12434308  -0.00000000  0.24822756  1
  Ba  Ba1  1  0.12434308  -0.00000000  0.58156090  1
  Ba  Ba2  1  0.12434308  -0.00000000  0.91489423  1
  Ba  Ba3  1  0.12434308  0.33333333  0.24822756  1
  Ba  Ba4  1  0.12434308  0.33333333  0.58156090  1
  Ba  Ba5  1  0.12434308  0.33333333  0.91489423  1
  Ba  Ba6  1  0.12434308  0.66666667  0.24822756  1
  Ba  Ba7  1  0.12434308  0.66666667  0.58156090  1
  Ba  Ba8  1  0.12434308  0.66666667  0.91489423  1
  Ba  Ba9  1  0.62434308  -0.00000000  0.24822756  1
  Ba  Ba10  1  0.62434308  -0.00000000  0.58156090  1
  Ba  Ba11  1  0.62434308  -0.00000000  0.91489423  1
  Ba  Ba12  1  0.62434308  0.33333333  0.24822756  1
  Ba  Ba13  1  0.62434308  0.33333333  0.58156090  1
  Ba  Ba14  1  0.62434308  0.33333333  0.91489423  1
  Ba  Ba15  1  0.62434308  0.66666667  0.24822756  1
  Ba  Ba16  1  0.62434308  0.66666667  0.58156090  1
  Ba  Ba17  1  0.62434308  0.66666667  0.91489423  1
  Ba  Ba18  1  0.37434308  0.16666667  0.24822756  1
  Ba  Ba19  1  0.37434308  0.16666667  0.58156090  1
  Ba  Ba20  1  0.37434308  0.16666667  0.91489423  1
  Ba  Ba21  1  0.37434308  0.50000000  0.24822756  1
  Ba  Ba22  1  0.37434308  0.50000000  0.58156090  1
  Ba  Ba23  1  0.37434308  0.50000000  0.91489423  1
  Ba  Ba24  1  0.37434308  0.83333333  0.24822756  1
  Ba  Ba25  1  0.37434308  0.83333333  0.58156090  1
  Ba  Ba26  1  0.37434308  0.83333333  0.91489423  1
  Ba  Ba27  1  0.87434308  0.16666667  0.24822756  1
  Ba  Ba28  1  0.87434308  0.16666667  0.58156090  1
  Ba  Ba29  1  0.87434308  0.16666667  0.91489423  1
  Ba  Ba30  1  0.87434308  0.50000000  0.24822756  1
  Ba  Ba31  1  0.87434308  0.50000000  0.58156090  1
  Ba  Ba32  1  0.87434308  0.50000000  0.91489423  1
  Ba  Ba33  1  0.87434308  0.83333333  0.24822756  1
  Ba  Ba34  1  0.87434308  0.83333333  0.58156090  1
  Ba  Ba35  1  0.87434308  0.83333333  0.91489423  1
  Ba  Ba36  1  0.37565692  0.00000000  0.08510577  1
  Ba  Ba37  1  0.37565692  0.00000000  0.41843910  1
  Ba  Ba38  1  0.37565692  0.00000000  0.75177244  1
  Ba  Ba39  1  0.37565692  0.33333333  0.08510577  1
  Ba  Ba40  1  0.37565692  0.33333333  0.41843910  1
  Ba  Ba41  1  0.37565692  0.33333333  0.75177244  1
  Ba  Ba42  1  0.37565692  0.66666667  0.08510577  1
  Ba  Ba43  1  0.37565692  0.66666667  0.41843910  1
  Ba  Ba44  1  0.37565692  0.66666667  0.75177244  1
  Ba  Ba45  1  0.87565692  0.00000000  0.08510577  1
  Ba  Ba46  1  0.87565692  0.00000000  0.41843910  1
  Ba  Ba47  1  0.87565692  0.00000000  0.75177244  1
  Ba  Ba48  1  0.87565692  0.33333333  0.08510577  1
  Ba  Ba49  1  0.87565692  0.33333333  0.41843910  1
  Ba  Ba50  1  0.87565692  0.33333333  0.75177244  1
  Ba  Ba51  1  0.87565692  0.66666667  0.08510577  1
  Ba  Ba52  1  0.87565692  0.66666667  0.41843910  1
  Ba  Ba53  1  0.87565692  0.66666667  0.75177244  1
  Ba  Ba54  1  0.62565692  0.16666667  0.08510577  1
  Ba  Ba55  1  0.62565692  0.16666667  0.41843910  1
  Ba  Ba56  1  0.62565692  0.16666667  0.75177244  1
  Ba  Ba57  1  0.62565692  0.50000000  0.08510577  1
  Ba  Ba58  1  0.62565692  0.50000000  0.41843910  1
  Ba  Ba59  1  0.62565692  0.50000000  0.75177244  1
  Ba  Ba60  1  0.62565692  0.83333333  0.08510577  1
  Ba  Ba61  1  0.62565692  0.83333333  0.41843910  1
  Ba  Ba62  1  0.62565692  0.83333333  0.75177244  1
  Ba  Ba63  1  1.12565692  0.16666667  0.08510577  1
  Ba  Ba64  1  1.12565692  0.16666667  0.41843910  1
  Ba  Ba65  1  1.12565692  0.16666667  0.75177244  1
  Ba  Ba66  1  1.12565692  0.50000000  0.08510577  1
  Ba  Ba67  1  1.12565692  0.50000000  0.41843910  1
  Ba  Ba68  1  1.12565692  0.50000000  0.75177244  1
  Ba  Ba69  1  1.12565692  0.83333333  0.08510577  1
  Ba  Ba70  1  1.12565692  0.83333333  0.41843910  1
  Ba  Ba71  1  1.12565692  0.83333333  0.75177244  1
  Bi  Bi72  1  0.00000000  0.00000000  0.00000000  1
  Bi  Bi73  1  -0.00000000  0.00000000  0.33333333  1
  Bi  Bi74  1  -0.00000000  0.00000000  0.66666667  1
  Bi  Bi75  1  0.00000000  0.33333333  0.00000000  1
  Bi  Bi76  1  -0.00000000  0.33333333  0.33333333  1
  Bi  Bi77  1  -0.00000000  0.33333333  0.66666667  1
  Bi  Bi78  1  0.00000000  0.66666667  0.00000000  1
  Bi  Bi79  1  -0.00000000  0.66666667  0.33333333  1
  Bi  Bi80  1  -0.00000000  0.66666667  0.66666667  1
  Bi  Bi81  1  0.50000000  0.00000000  0.00000000  1
  Bi  Bi82  1  0.50000000  0.00000000  0.33333333  1
  Bi  Bi83  1  0.50000000  0.00000000  0.66666667  1
  Bi  Bi84  1  0.50000000  0.33333333  0.00000000  1
  Bi  Bi85  1  0.50000000  0.33333333  0.33333333  1
  Bi  Bi86  1  0.50000000  0.33333333  0.66666667  1
  Bi  Bi87  1  0.50000000  0.66666667  0.00000000  1
  Bi  Bi88  1  0.50000000  0.66666667  0.33333333  1
  Bi  Bi89  1  0.50000000  0.66666667  0.66666667  1
  Bi  Bi90  1  0.25000000  0.16666667  0.00000000  1
  Bi  Bi91  1  0.25000000  0.16666667  0.33333333  1
  Bi  Bi92  1  0.25000000  0.16666667  0.66666667  1
  Bi  Bi93  1  0.25000000  0.50000000  0.00000000  1
  Bi  Bi94  1  0.25000000  0.50000000  0.33333333  1
  Bi  Bi95  1  0.25000000  0.50000000  0.66666667  1
  Bi  Bi96  1  0.25000000  0.83333333  0.00000000  1
  Bi  Bi97  1  0.25000000  0.83333333  0.33333333  1
  Bi  Bi98  1  0.25000000  0.83333333  0.66666667  1
  Bi  Bi99  1  0.75000000  0.16666667  0.00000000  1
  Bi  Bi100  1  0.75000000  0.16666667  0.33333333  1
  Bi  Bi101  1  0.75000000  0.16666667  0.66666667  1
  Bi  Bi102  1  0.75000000  0.50000000  0.00000000  1
  Bi  Bi103  1  0.75000000  0.50000000  0.33333333  1
  Bi  Bi104  1  0.75000000  0.50000000  0.66666667  1
  Bi  Bi105  1  0.75000000  0.83333333  0.00000000  1
  Bi  Bi106  1  0.75000000  0.83333333  0.33333333  1
  Bi  Bi107  1  0.75000000  0.83333333  0.66666667  1
  Sb  Sb108  1  0.25000000  0.00000000  0.16666667  1
  Sb  Sb109  1  0.25000000  0.00000000  0.50000000  1
  Sb  Sb110  1  0.25000000  0.00000000  0.83333333  1
  Sb  Sb111  1  0.25000000  0.33333333  0.16666667  1
  Sb  Sb112  1  0.25000000  0.33333333  0.50000000  1
  Sb  Sb113  1  0.25000000  0.33333333  0.83333333  1
  Sb  Sb114  1  0.25000000  0.66666667  0.16666667  1
  Sb  Sb115  1  0.25000000  0.66666667  0.50000000  1
  Sb  Sb116  1  0.25000000  0.66666667  0.83333333  1
  Sb  Sb117  1  0.75000000  0.00000000  0.16666667  1
  Sb  Sb118  1  0.75000000  0.00000000  0.50000000  1
  Sb  Sb119  1  0.75000000  0.00000000  0.83333333  1
  Sb  Sb120  1  0.75000000  0.33333333  0.16666667  1
  Sb  Sb121  1  0.75000000  0.33333333  0.50000000  1
  Sb  Sb122  1  0.75000000  0.33333333  0.83333333  1
  Sb  Sb123  1  0.75000000  0.66666667  0.16666667  1
  Sb  Sb124  1  0.75000000  0.66666667  0.50000000  1
  Sb  Sb125  1  0.75000000  0.66666667  0.83333333  1
  Sb  Sb126  1  0.50000000  0.16666667  0.16666667  1
  Sb  Sb127  1  0.50000000  0.16666667  0.50000000  1
  Sb  Sb128  1  0.50000000  0.16666667  0.83333333  1
  Sb  Sb129  1  0.50000000  0.50000000  0.16666667  1
  Sb  Sb130  1  0.50000000  0.50000000  0.50000000  1
  Sb  Sb131  1  0.50000000  0.50000000  0.83333333  1
  Sb  Sb132  1  0.50000000  0.83333333  0.16666667  1
  Sb  Sb133  1  0.50000000  0.83333333  0.50000000  1
  Sb  Sb134  1  0.50000000  0.83333333  0.83333333  1
  Sb  Sb135  1  1.00000000  0.16666667  0.16666667  1
  Sb  Sb136  1  1.00000000  0.16666667  0.50000000  1
  Sb  Sb137  1  1.00000000  0.16666667  0.83333333  1
  Sb  Sb138  1  1.00000000  0.50000000  0.16666667  1
  Sb  Sb139  1  1.00000000  0.50000000  0.50000000  1
  Sb  Sb140  1  1.00000000  0.50000000  0.83333333  1
  Sb  Sb141  1  1.00000000  0.83333333  0.16666667  1
  Sb  Sb142  1  1.00000000  0.83333333  0.50000000  1
  Sb  Sb143  1  1.00000000  0.83333333  0.83333333  1
  O  O144  1  0.26613435  -0.07824916  0.10068129  1
  O  O145  1  0.26613435  -0.07824916  0.43401462  1
  O  O146  1  0.26613435  -0.07824916  0.76734795  1
  O  O147  1  0.26613435  0.25508418  0.10068129  1
  O  O148  1  0.26613435  0.25508418  0.43401462  1
  O  O149  1  0.26613435  0.25508418  0.76734795  1
  O  O150  1  0.26613435  0.58841751  0.10068129  1
  O  O151  1  0.26613435  0.58841751  0.43401462  1
  O  O152  1  0.26613435  0.58841751  0.76734795  1
  O  O153  1  0.76613435  -0.07824916  0.10068129  1
  O  O154  1  0.76613435  -0.07824916  0.43401462  1
  O  O155  1  0.76613435  -0.07824916  0.76734795  1
  O  O156  1  0.76613435  0.25508418  0.10068129  1
  O  O157  1  0.76613435  0.25508418  0.43401462  1
  O  O158  1  0.76613435  0.25508418  0.76734795  1
  O  O159  1  0.76613435  0.58841751  0.10068129  1
  O  O160  1  0.76613435  0.58841751  0.43401462  1
  O  O161  1  0.76613435  0.58841751  0.76734795  1
  O  O162  1  0.51613435  0.08841751  0.10068129  1
  O  O163  1  0.51613435  0.08841751  0.43401462  1
  O  O164  1  0.51613435  0.08841751  0.76734795  1
  O  O165  1  0.51613435  0.42175084  0.10068129  1
  O  O166  1  0.51613435  0.42175084  0.43401462  1
  O  O167  1  0.51613435  0.42175084  0.76734795  1
  O  O168  1  0.51613435  0.75508418  0.10068129  1
  O  O169  1  0.51613435  0.75508418  0.43401462  1
  O  O170  1  0.51613435  0.75508418  0.76734795  1
  O  O171  1  1.01613435  0.08841751  0.10068129  1
  O  O172  1  1.01613435  0.08841751  0.43401462  1
  O  O173  1  1.01613435  0.08841751  0.76734795  1
  O  O174  1  1.01613435  0.42175084  0.10068129  1
  O  O175  1  1.01613435  0.42175084  0.43401462  1
  O  O176  1  1.01613435  0.42175084  0.76734795  1
  O  O177  1  1.01613435  0.75508418  0.10068129  1
  O  O178  1  1.01613435  0.75508418  0.43401462  1
  O  O179  1  1.01613435  0.75508418  0.76734795  1
  O  O180  1  0.23386565  -0.07824916  0.23265205  1
  O  O181  1  0.23386565  -0.07824916  0.56598538  1
  O  O182  1  0.23386565  -0.07824916  0.89931871  1
  O  O183  1  0.23386565  0.25508418  0.23265205  1
  O  O184  1  0.23386565  0.25508418  0.56598538  1
  O  O185  1  0.23386565  0.25508418  0.89931871  1
  O  O186  1  0.23386565  0.58841751  0.23265205  1
  O  O187  1  0.23386565  0.58841751  0.56598538  1
  O  O188  1  0.23386565  0.58841751  0.89931871  1
  O  O189  1  0.73386565  -0.07824916  0.23265205  1
  O  O190  1  0.73386565  -0.07824916  0.56598538  1
  O  O191  1  0.73386565  -0.07824916  0.89931871  1
  O  O192  1  0.73386565  0.25508418  0.23265205  1
  O  O193  1  0.73386565  0.25508418  0.56598538  1
  O  O194  1  0.73386565  0.25508418  0.89931871  1
  O  O195  1  0.73386565  0.58841751  0.23265205  1
  O  O196  1  0.73386565  0.58841751  0.56598538  1
  O  O197  1  0.73386565  0.58841751  0.89931871  1
  O  O198  1  0.48386565  0.08841751  0.23265205  1
  O  O199  1  0.48386565  0.08841751  0.56598538  1
  O  O200  1  0.48386565  0.08841751  0.89931871  1
  O  O201  1  0.48386565  0.42175084  0.23265205  1
  O  O202  1  0.48386565  0.42175084  0.56598538  1
  O  O203  1  0.48386565  0.42175084  0.89931871  1
  O  O204  1  0.48386565  0.75508418  0.23265205  1
  O  O205  1  0.48386565  0.75508418  0.56598538  1
  O  O206  1  0.48386565  0.75508418  0.89931871  1
  O  O207  1  0.98386565  0.08841751  0.23265205  1
  O  O208  1  0.98386565  0.08841751  0.56598538  1
  O  O209  1  0.98386565  0.08841751  0.89931871  1
  O  O210  1  0.98386565  0.42175084  0.23265205  1
  O  O211  1  0.98386565  0.42175084  0.56598538  1
  O  O212  1  0.98386565  0.42175084  0.89931871  1
  O  O213  1  0.98386565  0.75508418  0.23265205  1
  O  O214  1  0.98386565  0.75508418  0.56598538  1
  O  O215  1  0.98386565  0.75508418  0.89931871  1
  O  O216  1  0.23386565  0.07824916  0.23265205  1
  O  O217  1  0.23386565  0.07824916  0.56598538  1
  O  O218  1  0.23386565  0.07824916  0.89931871  1
  O  O219  1  0.23386565  0.41158249  0.23265205  1
  O  O220  1  0.23386565  0.41158249  0.56598538  1
  O  O221  1  0.23386565  0.41158249  0.89931871  1
  O  O222  1  0.23386565  0.74491582  0.23265205  1
  O  O223  1  0.23386565  0.74491582  0.56598538  1
  O  O224  1  0.23386565  0.74491582  0.89931871  1
  O  O225  1  0.73386565  0.07824916  0.23265205  1
  O  O226  1  0.73386565  0.07824916  0.56598538  1
  O  O227  1  0.73386565  0.07824916  0.89931871  1
  O  O228  1  0.73386565  0.41158249  0.23265205  1
  O  O229  1  0.73386565  0.41158249  0.56598538  1
  O  O230  1  0.73386565  0.41158249  0.89931871  1
  O  O231  1  0.73386565  0.74491582  0.23265205  1
  O  O232  1  0.73386565  0.74491582  0.56598538  1
  O  O233  1  0.73386565  0.74491582  0.89931871  1
  O  O234  1  0.48386565  0.24491582  0.23265205  1
  O  O235  1  0.48386565  0.24491582  0.56598538  1
  O  O236  1  0.48386565  0.24491582  0.89931871  1
  O  O237  1  0.48386565  0.57824916  0.23265205  1
  O  O238  1  0.48386565  0.57824916  0.56598538  1
  O  O239  1  0.48386565  0.57824916  0.89931871  1
  O  O240  1  0.48386565  0.91158249  0.23265205  1
  O  O241  1  0.48386565  0.91158249  0.56598538  1
  O  O242  1  0.48386565  0.91158249  0.89931871  1
  O  O243  1  0.98386565  0.24491582  0.23265205  1
  O  O244  1  0.98386565  0.24491582  0.56598538  1
  O  O245  1  0.98386565  0.24491582  0.89931871  1
  O  O246  1  0.98386565  0.57824916  0.23265205  1
  O  O247  1  0.98386565  0.57824916  0.56598538  1
  O  O248  1  0.98386565  0.57824916  0.89931871  1
  O  O249  1  0.98386565  0.91158249  0.23265205  1
  O  O250  1  0.98386565  0.91158249  0.56598538  1
  O  O251  1  0.98386565  0.91158249  0.89931871  1
  O  O252  1  0.26613435  0.07824916  0.10068129  1
  O  O253  1  0.26613435  0.07824916  0.43401462  1
  O  O254  1  0.26613435  0.07824916  0.76734795  1
  O  O255  1  0.26613435  0.41158249  0.10068129  1
  O  O256  1  0.26613435  0.41158249  0.43401462  1
  O  O257  1  0.26613435  0.41158249  0.76734795  1
  O  O258  1  0.26613435  0.74491582  0.10068129  1
  O  O259  1  0.26613435  0.74491582  0.43401462  1
  O  O260  1  0.26613435  0.74491582  0.76734795  1
  O  O261  1  0.76613435  0.07824916  0.10068129  1
  O  O262  1  0.76613435  0.07824916  0.43401462  1
  O  O263  1  0.76613435  0.07824916  0.76734795  1
  O  O264  1  0.76613435  0.41158249  0.10068129  1
  O  O265  1  0.76613435  0.41158249  0.43401462  1
  O  O266  1  0.76613435  0.41158249  0.76734795  1
  O  O267  1  0.76613435  0.74491582  0.10068129  1
  O  O268  1  0.76613435  0.74491582  0.43401462  1
  O  O269  1  0.76613435  0.74491582  0.76734795  1
  O  O270  1  0.51613435  0.24491582  0.10068129  1
  O  O271  1  0.51613435  0.24491582  0.43401462  1
  O  O272  1  0.51613435  0.24491582  0.76734795  1
  O  O273  1  0.51613435  0.57824916  0.10068129  1
  O  O274  1  0.51613435  0.57824916  0.43401462  1
  O  O275  1  0.51613435  0.57824916  0.76734795  1
  O  O276  1  0.51613435  0.91158249  0.10068129  1
  O  O277  1  0.51613435  0.91158249  0.43401462  1
  O  O278  1  0.51613435  0.91158249  0.76734795  1
  O  O279  1  1.01613435  0.24491582  0.10068129  1
  O  O280  1  1.01613435  0.24491582  0.43401462  1
  O  O281  1  1.01613435  0.24491582  0.76734795  1
  O  O282  1  1.01613435  0.57824916  0.10068129  1
  O  O283  1  1.01613435  0.57824916  0.43401462  1
  O  O284  1  1.01613435  0.57824916  0.76734795  1
  O  O285  1  1.01613435  0.91158249  0.10068129  1
  O  O286  1  1.01613435  0.91158249  0.43401462  1
  O  O287  1  1.01613435  0.91158249  0.76734795  1
  O  O288  1  0.36582833  -0.00000000  0.26371656  1
  O  O289  1  0.36582833  -0.00000000  0.59704989  1
  O  O290  1  0.36582833  -0.00000000  0.93038323  1
  O  O291  1  0.36582833  0.33333333  0.26371656  1
  O  O292  1  0.36582833  0.33333333  0.59704989  1
  O  O293  1  0.36582833  0.33333333  0.93038323  1
  O  O294  1  0.36582833  0.66666667  0.26371656  1
  O  O295  1  0.36582833  0.66666667  0.59704989  1
  O  O296  1  0.36582833  0.66666667  0.93038323  1
  O  O297  1  0.86582833  -0.00000000  0.26371656  1
  O  O298  1  0.86582833  -0.00000000  0.59704989  1
  O  O299  1  0.86582833  -0.00000000  0.93038323  1
  O  O300  1  0.86582833  0.33333333  0.26371656  1
  O  O301  1  0.86582833  0.33333333  0.59704989  1
  O  O302  1  0.86582833  0.33333333  0.93038323  1
  O  O303  1  0.86582833  0.66666667  0.26371656  1
  O  O304  1  0.86582833  0.66666667  0.59704989  1
  O  O305  1  0.86582833  0.66666667  0.93038323  1
  O  O306  1  0.61582833  0.16666667  0.26371656  1
  O  O307  1  0.61582833  0.16666667  0.59704989  1
  O  O308  1  0.61582833  0.16666667  0.93038323  1
  O  O309  1  0.61582833  0.50000000  0.26371656  1
  O  O310  1  0.61582833  0.50000000  0.59704989  1
  O  O311  1  0.61582833  0.50000000  0.93038323  1
  O  O312  1  0.61582833  0.83333333  0.26371656  1
  O  O313  1  0.61582833  0.83333333  0.59704989  1
  O  O314  1  0.61582833  0.83333333  0.93038323  1
  O  O315  1  1.11582833  0.16666667  0.26371656  1
  O  O316  1  1.11582833  0.16666667  0.59704989  1
  O  O317  1  1.11582833  0.16666667  0.93038323  1
  O  O318  1  1.11582833  0.50000000  0.26371656  1
  O  O319  1  1.11582833  0.50000000  0.59704989  1
  O  O320  1  1.11582833  0.50000000  0.93038323  1
  O  O321  1  1.11582833  0.83333333  0.26371656  1
  O  O322  1  1.11582833  0.83333333  0.59704989  1
  O  O323  1  1.11582833  0.83333333  0.93038323  1
  O  O324  1  0.13417167  0.00000000  0.06961677  1
  O  O325  1  0.13417167  0.00000000  0.40295011  1
  O  O326  1  0.13417167  0.00000000  0.73628344  1
  O  O327  1  0.13417167  0.33333333  0.06961677  1
  O  O328  1  0.13417167  0.33333333  0.40295011  1
  O  O329  1  0.13417167  0.33333333  0.73628344  1
  O  O330  1  0.13417167  0.66666667  0.06961677  1
  O  O331  1  0.13417167  0.66666667  0.40295011  1
  O  O332  1  0.13417167  0.66666667  0.73628344  1
  O  O333  1  0.63417167  0.00000000  0.06961677  1
  O  O334  1  0.63417167  0.00000000  0.40295011  1
  O  O335  1  0.63417167  0.00000000  0.73628344  1
  O  O336  1  0.63417167  0.33333333  0.06961677  1
  O  O337  1  0.63417167  0.33333333  0.40295011  1
  O  O338  1  0.63417167  0.33333333  0.73628344  1
  O  O339  1  0.63417167  0.66666667  0.06961677  1
  O  O340  1  0.63417167  0.66666667  0.40295011  1
  O  O341  1  0.63417167  0.66666667  0.73628344  1
  O  O342  1  0.38417167  0.16666667  0.06961677  1
  O  O343  1  0.38417167  0.16666667  0.40295011  1
  O  O344  1  0.38417167  0.16666667  0.73628344  1
  O  O345  1  0.38417167  0.50000000  0.06961677  1
  O  O346  1  0.38417167  0.50000000  0.40295011  1
  O  O347  1  0.38417167  0.50000000  0.73628344  1
  O  O348  1  0.38417167  0.83333333  0.06961677  1
  O  O349  1  0.38417167  0.83333333  0.40295011  1
  O  O350  1  0.38417167  0.83333333  0.73628344  1
  O  O351  1  0.88417167  0.16666667  0.06961677  1
  O  O352  1  0.88417167  0.16666667  0.40295011  1
  O  O353  1  0.88417167  0.16666667  0.73628344  1
  O  O354  1  0.88417167  0.50000000  0.06961677  1
  O  O355  1  0.88417167  0.50000000  0.40295011  1
  O  O356  1  0.88417167  0.50000000  0.73628344  1
  O  O357  1  0.88417167  0.83333333  0.06961677  1
  O  O358  1  0.88417167  0.83333333  0.40295011  1
  O  O359  1  0.88417167  0.83333333  0.73628344  1
