# generated using pymatgen
data_NaIn(SiO3)2
_symmetry_space_group_name_H-M   'P 1'
_cell_length_a   9.98911506
_cell_length_b   9.17844828
_cell_length_c   10.82114047
_cell_angle_alpha   90.00000000
_cell_angle_beta   107.71233549
_cell_angle_gamma   90.00000000
_symmetry_Int_Tables_number   1
_chemical_formula_structural   NaIn(SiO3)2
_chemical_formula_sum   'Na8 In8 Si16 O48'
_cell_volume   945.10066776
_cell_formula_units_Z   8
loop_
 _symmetry_equiv_pos_site_id
 _symmetry_equiv_pos_as_xyz
  1  'x, y, z'
loop_
 _atom_site_type_symbol
 _atom_site_label
 _atom_site_symmetry_multiplicity
 _atom_site_fract_x
 _atom_site_fract_y
 _atom_site_fract_z
 _atom_site_occupancy
  Na  Na0  1  0.50000000  0.20028992  0.37500000  1
  Na  Na1  1  0.50000000  0.20028992  0.87500000  1
  Na  Na2  1  1.00000000  0.70028992  0.37500000  1
  Na  Na3  1  1.00000000  0.70028992  0.87500000  1
  Na  Na4  1  0.50000000  -0.20028992  0.12500000  1
  Na  Na5  1  0.50000000  -0.20028992  0.62500000  1
  Na  Na6  1  1.00000000  0.29971008  0.12500000  1
  Na  Na7  1  1.00000000  0.29971008  0.62500000  1
  In  In8  1  0.50000000  -0.39543880  0.37500000  1
  In  In9  1  0.50000000  -0.39543880  0.87500000  1
  In  In10  1  1.00000000  0.10456120  0.37500000  1
  In  In11  1  1.00000000  0.10456120  0.87500000  1
  In  In12  1  0.50000000  0.39543880  0.12500000  1
  In  In13  1  0.50000000  0.39543880  0.62500000  1
  In  In14  1  1.00000000  0.89543880  0.12500000  1
  In  In15  1  1.00000000  0.89543880  0.62500000  1
  Si  Si16  1  0.70749019  0.08628270  0.12298106  1
  Si  Si17  1  0.70749019  0.08628270  0.62298106  1
  Si  Si18  1  1.20749019  0.58628270  0.12298106  1
  Si  Si19  1  1.20749019  0.58628270  0.62298106  1
  Si  Si20  1  0.29250981  0.08628270  0.12701894  1
  Si  Si21  1  0.29250981  0.08628270  0.62701894  1
  Si  Si22  1  0.79250981  0.58628270  0.12701894  1
  Si  Si23  1  0.79250981  0.58628270  0.62701894  1
  Si  Si24  1  0.70749019  -0.08628270  0.37298106  1
  Si  Si25  1  0.70749019  -0.08628270  0.87298106  1
  Si  Si26  1  1.20749019  0.41371730  0.37298106  1
  Si  Si27  1  1.20749019  0.41371730  0.87298106  1
  Si  Si28  1  0.29250981  -0.08628270  0.37701894  1
  Si  Si29  1  0.29250981  -0.08628270  0.87701894  1
  Si  Si30  1  0.79250981  0.41371730  0.37701894  1
  Si  Si31  1  0.79250981  0.41371730  0.87701894  1
  O  O32  1  0.35757960  0.24563537  0.16399393  1
  O  O33  1  0.35757960  0.24563537  0.66399393  1
  O  O34  1  0.85757960  0.74563537  0.16399393  1
  O  O35  1  0.85757960  0.74563537  0.66399393  1
  O  O36  1  0.65026561  -0.01143407  0.48717298  1
  O  O37  1  0.65026561  -0.01143407  0.98717298  1
  O  O38  1  1.15026561  0.48856593  0.48717298  1
  O  O39  1  1.15026561  0.48856593  0.98717298  1
  O  O40  1  0.65026561  0.01143407  0.23717298  1
  O  O41  1  0.65026561  0.01143407  0.73717298  1
  O  O42  1  1.15026561  0.51143407  0.23717298  1
  O  O43  1  1.15026561  0.51143407  0.73717298  1
  O  O44  1  0.34973439  0.01143407  0.01282702  1
  O  O45  1  0.34973439  0.01143407  0.51282702  1
  O  O46  1  0.84973439  0.51143407  0.01282702  1
  O  O47  1  0.84973439  0.51143407  0.51282702  1
  O  O48  1  0.88022422  -0.08171494  0.42124617  1
  O  O49  1  0.88022422  -0.08171494  0.92124617  1
  O  O50  1  1.38022422  0.41828506  0.42124617  1
  O  O51  1  1.38022422  0.41828506  0.92124617  1
  O  O52  1  0.11977578  -0.08171494  0.32875383  1
  O  O53  1  0.11977578  -0.08171494  0.82875383  1
  O  O54  1  0.61977578  0.41828506  0.32875383  1
  O  O55  1  0.61977578  0.41828506  0.82875383  1
  O  O56  1  0.64242040  0.24563537  0.08600607  1
  O  O57  1  0.64242040  0.24563537  0.58600607  1
  O  O58  1  1.14242040  0.74563537  0.08600607  1
  O  O59  1  1.14242040  0.74563537  0.58600607  1
  O  O60  1  0.88022422  0.08171494  0.17124617  1
  O  O61  1  0.88022422  0.08171494  0.67124617  1
  O  O62  1  1.38022422  0.58171494  0.17124617  1
  O  O63  1  1.38022422  0.58171494  0.67124617  1
  O  O64  1  0.64242040  -0.24563537  0.33600607  1
  O  O65  1  0.64242040  -0.24563537  0.83600607  1
  O  O66  1  1.14242040  0.25436463  0.33600607  1
  O  O67  1  1.14242040  0.25436463  0.83600607  1
  O  O68  1  0.35757960  -0.24563537  0.41399393  1
  O  O69  1  0.35757960  -0.24563537  0.91399393  1
  O  O70  1  0.85757960  0.25436463  0.41399393  1
  O  O71  1  0.85757960  0.25436463  0.91399393  1
  O  O72  1  0.11977578  0.08171494  0.07875383  1
  O  O73  1  0.11977578  0.08171494  0.57875383  1
  O  O74  1  0.61977578  0.58171494  0.07875383  1
  O  O75  1  0.61977578  0.58171494  0.57875383  1
  O  O76  1  0.34973439  -0.01143407  0.26282702  1
  O  O77  1  0.34973439  -0.01143407  0.76282702  1
  O  O78  1  0.84973439  0.48856593  0.26282702  1
  O  O79  1  0.84973439  0.48856593  0.76282702  1
