# generated using pymatgen
data_KNaLaTaO5
_symmetry_space_group_name_H-M   'P 1'
_cell_length_a   16.30917481
_cell_length_b   16.30917481
_cell_length_c   16.48923345
_cell_angle_alpha   90.00000000
_cell_angle_beta   90.00000000
_cell_angle_gamma   90.00000000
_symmetry_Int_Tables_number   1
_chemical_formula_structural   KNaLaTaO5
_chemical_formula_sum   'K32 Na32 La32 Ta32 O160'
_cell_volume   4385.95773463
_cell_formula_units_Z   32
loop_
 _symmetry_equiv_pos_site_id
 _symmetry_equiv_pos_as_xyz
  1  'x, y, z'
loop_
 _atom_site_type_symbol
 _atom_site_label
 _atom_site_symmetry_multiplicity
 _atom_site_fract_x
 _atom_site_fract_y
 _atom_site_fract_z
 _atom_site_occupancy
  K  K0  1  0.75000000  0.50000000  0.00000000  1
  K  K1  1  0.75000000  0.50000000  0.50000000  1
  K  K2  1  0.25000000  0.50000000  0.00000000  1
  K  K3  1  0.25000000  0.50000000  0.50000000  1
  K  K4  1  0.50000000  0.25000000  0.00000000  1
  K  K5  1  0.50000000  0.25000000  0.50000000  1
  K  K6  1  0.75000000  -0.00000000  0.00000000  1
  K  K7  1  0.75000000  -0.00000000  0.50000000  1
  K  K8  1  -0.00000000  0.25000000  0.00000000  1
  K  K9  1  -0.00000000  0.25000000  0.50000000  1
  K  K10  1  0.25000000  0.00000000  0.00000000  1
  K  K11  1  0.25000000  0.00000000  0.50000000  1
  K  K12  1  0.50000000  -0.25000000  0.00000000  1
  K  K13  1  0.50000000  -0.25000000  0.50000000  1
  K  K14  1  -0.00000000  -0.25000000  0.00000000  1
  K  K15  1  -0.00000000  -0.25000000  0.50000000  1
  K  K16  1  0.75000000  0.75000000  0.00000000  1
  K  K17  1  0.75000000  0.75000000  0.50000000  1
  K  K18  1  0.25000000  0.75000000  0.00000000  1
  K  K19  1  0.25000000  0.75000000  0.50000000  1
  K  K20  1  0.50000000  0.50000000  0.00000000  1
  K  K21  1  0.50000000  0.50000000  0.50000000  1
  K  K22  1  0.75000000  0.25000000  0.00000000  1
  K  K23  1  0.75000000  0.25000000  0.50000000  1
  K  K24  1  -0.00000000  0.50000000  0.00000000  1
  K  K25  1  -0.00000000  0.50000000  0.50000000  1
  K  K26  1  0.25000000  0.25000000  0.00000000  1
  K  K27  1  0.25000000  0.25000000  0.50000000  1
  K  K28  1  0.50000000  -0.00000000  0.00000000  1
  K  K29  1  0.50000000  -0.00000000  0.50000000  1
  K  K30  1  0.00000000  0.00000000  0.00000000  1
  K  K31  1  0.00000000  0.00000000  0.50000000  1
  Na  Na32  1  0.62500000  0.62500000  0.12092683  1
  Na  Na33  1  0.62500000  0.62500000  0.62092683  1
  Na  Na34  1  0.12500000  0.62500000  0.12092683  1
  Na  Na35  1  0.12500000  0.62500000  0.62092683  1
  Na  Na36  1  0.37500000  0.37500000  0.12092683  1
  Na  Na37  1  0.37500000  0.37500000  0.62092683  1
  Na  Na38  1  0.62500000  0.12500000  0.12092683  1
  Na  Na39  1  0.62500000  0.12500000  0.62092683  1
  Na  Na40  1  -0.12500000  0.37500000  0.12092683  1
  Na  Na41  1  -0.12500000  0.37500000  0.62092683  1
  Na  Na42  1  0.12500000  0.12500000  0.12092683  1
  Na  Na43  1  0.12500000  0.12500000  0.62092683  1
  Na  Na44  1  0.37500000  -0.12500000  0.12092683  1
  Na  Na45  1  0.37500000  -0.12500000  0.62092683  1
  Na  Na46  1  -0.12500000  -0.12500000  0.12092683  1
  Na  Na47  1  -0.12500000  -0.12500000  0.62092683  1
  Na  Na48  1  0.87500000  0.62500000  0.37907317  1
  Na  Na49  1  0.87500000  0.62500000  0.87907317  1
  Na  Na50  1  0.37500000  0.62500000  0.37907317  1
  Na  Na51  1  0.37500000  0.62500000  0.87907317  1
  Na  Na52  1  0.62500000  0.37500000  0.37907317  1
  Na  Na53  1  0.62500000  0.37500000  0.87907317  1
  Na  Na54  1  0.87500000  0.12500000  0.37907317  1
  Na  Na55  1  0.87500000  0.12500000  0.87907317  1
  Na  Na56  1  0.12500000  0.37500000  0.37907317  1
  Na  Na57  1  0.12500000  0.37500000  0.87907317  1
  Na  Na58  1  0.37500000  0.12500000  0.37907317  1
  Na  Na59  1  0.37500000  0.12500000  0.87907317  1
  Na  Na60  1  0.62500000  -0.12500000  0.37907317  1
  Na  Na61  1  0.62500000  -0.12500000  0.87907317  1
  Na  Na62  1  0.12500000  -0.12500000  0.37907317  1
  Na  Na63  1  0.12500000  -0.12500000  0.87907317  1
  La  La64  1  0.75000000  0.50000000  0.25000000  1
  La  La65  1  0.75000000  0.50000000  0.75000000  1
  La  La66  1  0.25000000  0.50000000  0.25000000  1
  La  La67  1  0.25000000  0.50000000  0.75000000  1
  La  La68  1  0.50000000  0.25000000  0.25000000  1
  La  La69  1  0.50000000  0.25000000  0.75000000  1
  La  La70  1  0.75000000  -0.00000000  0.25000000  1
  La  La71  1  0.75000000  -0.00000000  0.75000000  1
  La  La72  1  -0.00000000  0.25000000  0.25000000  1
  La  La73  1  -0.00000000  0.25000000  0.75000000  1
  La  La74  1  0.25000000  0.00000000  0.25000000  1
  La  La75  1  0.25000000  0.00000000  0.75000000  1
  La  La76  1  0.50000000  -0.25000000  0.25000000  1
  La  La77  1  0.50000000  -0.25000000  0.75000000  1
  La  La78  1  -0.00000000  -0.25000000  0.25000000  1
  La  La79  1  -0.00000000  -0.25000000  0.75000000  1
  La  La80  1  0.75000000  0.75000000  0.25000000  1
  La  La81  1  0.75000000  0.75000000  0.75000000  1
  La  La82  1  0.25000000  0.75000000  0.25000000  1
  La  La83  1  0.25000000  0.75000000  0.75000000  1
  La  La84  1  0.50000000  0.50000000  0.25000000  1
  La  La85  1  0.50000000  0.50000000  0.75000000  1
  La  La86  1  0.75000000  0.25000000  0.25000000  1
  La  La87  1  0.75000000  0.25000000  0.75000000  1
  La  La88  1  -0.00000000  0.50000000  0.25000000  1
  La  La89  1  -0.00000000  0.50000000  0.75000000  1
  La  La90  1  0.25000000  0.25000000  0.25000000  1
  La  La91  1  0.25000000  0.25000000  0.75000000  1
  La  La92  1  0.50000000  -0.00000000  0.25000000  1
  La  La93  1  0.50000000  -0.00000000  0.75000000  1
  La  La94  1  0.00000000  0.00000000  0.25000000  1
  La  La95  1  0.00000000  0.00000000  0.75000000  1
  Ta  Ta96  1  0.87500000  0.62500000  0.12732665  1
  Ta  Ta97  1  0.87500000  0.62500000  0.62732665  1
  Ta  Ta98  1  0.37500000  0.62500000  0.12732665  1
  Ta  Ta99  1  0.37500000  0.62500000  0.62732665  1
  Ta  Ta100  1  0.62500000  0.37500000  0.12732665  1
  Ta  Ta101  1  0.62500000  0.37500000  0.62732665  1
  Ta  Ta102  1  0.87500000  0.12500000  0.12732665  1
  Ta  Ta103  1  0.87500000  0.12500000  0.62732665  1
  Ta  Ta104  1  0.12500000  0.37500000  0.12732665  1
  Ta  Ta105  1  0.12500000  0.37500000  0.62732665  1
  Ta  Ta106  1  0.37500000  0.12500000  0.12732665  1
  Ta  Ta107  1  0.37500000  0.12500000  0.62732665  1
  Ta  Ta108  1  0.62500000  -0.12500000  0.12732665  1
  Ta  Ta109  1  0.62500000  -0.12500000  0.62732665  1
  Ta  Ta110  1  0.12500000  -0.12500000  0.12732665  1
  Ta  Ta111  1  0.12500000  -0.12500000  0.62732665  1
  Ta  Ta112  1  0.62500000  0.62500000  0.37267335  1
  Ta  Ta113  1  0.62500000  0.62500000  0.87267335  1
  Ta  Ta114  1  0.12500000  0.62500000  0.37267335  1
  Ta  Ta115  1  0.12500000  0.62500000  0.87267335  1
  Ta  Ta116  1  0.37500000  0.37500000  0.37267335  1
  Ta  Ta117  1  0.37500000  0.37500000  0.87267335  1
  Ta  Ta118  1  0.62500000  0.12500000  0.37267335  1
  Ta  Ta119  1  0.62500000  0.12500000  0.87267335  1
  Ta  Ta120  1  -0.12500000  0.37500000  0.37267335  1
  Ta  Ta121  1  -0.12500000  0.37500000  0.87267335  1
  Ta  Ta122  1  0.12500000  0.12500000  0.37267335  1
  Ta  Ta123  1  0.12500000  0.12500000  0.87267335  1
  Ta  Ta124  1  0.37500000  -0.12500000  0.37267335  1
  Ta  Ta125  1  0.37500000  -0.12500000  0.87267335  1
  Ta  Ta126  1  -0.12500000  -0.12500000  0.37267335  1
  Ta  Ta127  1  -0.12500000  -0.12500000  0.87267335  1
  O  O128  1  0.87500000  0.62500000  0.01517614  1
  O  O129  1  0.87500000  0.62500000  0.51517614  1
  O  O130  1  0.37500000  0.62500000  0.01517614  1
  O  O131  1  0.37500000  0.62500000  0.51517614  1
  O  O132  1  0.62500000  0.37500000  0.01517614  1
  O  O133  1  0.62500000  0.37500000  0.51517614  1
  O  O134  1  0.87500000  0.12500000  0.01517614  1
  O  O135  1  0.87500000  0.12500000  0.51517614  1
  O  O136  1  0.12500000  0.37500000  0.01517614  1
  O  O137  1  0.12500000  0.37500000  0.51517614  1
  O  O138  1  0.37500000  0.12500000  0.01517614  1
  O  O139  1  0.37500000  0.12500000  0.51517614  1
  O  O140  1  0.62500000  -0.12500000  0.01517614  1
  O  O141  1  0.62500000  -0.12500000  0.51517614  1
  O  O142  1  0.12500000  -0.12500000  0.01517614  1
  O  O143  1  0.12500000  -0.12500000  0.51517614  1
  O  O144  1  0.62500000  0.48997932  0.16272194  1
  O  O145  1  0.62500000  0.48997932  0.66272194  1
  O  O146  1  0.12500000  0.48997932  0.16272194  1
  O  O147  1  0.12500000  0.48997932  0.66272194  1
  O  O148  1  0.37500000  0.23997932  0.16272194  1
  O  O149  1  0.37500000  0.23997932  0.66272194  1
  O  O150  1  0.62500000  -0.01002068  0.16272194  1
  O  O151  1  0.62500000  -0.01002068  0.66272194  1
  O  O152  1  -0.12500000  0.23997932  0.16272194  1
  O  O153  1  -0.12500000  0.23997932  0.66272194  1
  O  O154  1  0.12500000  -0.01002068  0.16272194  1
  O  O155  1  0.12500000  -0.01002068  0.66272194  1
  O  O156  1  0.37500000  -0.26002068  0.16272194  1
  O  O157  1  0.37500000  -0.26002068  0.66272194  1
  O  O158  1  -0.12500000  -0.26002068  0.16272194  1
  O  O159  1  -0.12500000  -0.26002068  0.66272194  1
  O  O160  1  0.76002068  0.62500000  0.16272194  1
  O  O161  1  0.76002068  0.62500000  0.66272194  1
  O  O162  1  0.26002068  0.62500000  0.16272194  1
  O  O163  1  0.26002068  0.62500000  0.66272194  1
  O  O164  1  0.51002068  0.37500000  0.16272194  1
  O  O165  1  0.51002068  0.37500000  0.66272194  1
  O  O166  1  0.76002068  0.12500000  0.16272194  1
  O  O167  1  0.76002068  0.12500000  0.66272194  1
  O  O168  1  0.01002068  0.37500000  0.16272194  1
  O  O169  1  0.01002068  0.37500000  0.66272194  1
  O  O170  1  0.26002068  0.12500000  0.16272194  1
  O  O171  1  0.26002068  0.12500000  0.66272194  1
  O  O172  1  0.51002068  -0.12500000  0.16272194  1
  O  O173  1  0.51002068  -0.12500000  0.66272194  1
  O  O174  1  0.01002068  -0.12500000  0.16272194  1
  O  O175  1  0.01002068  -0.12500000  0.66272194  1
  O  O176  1  0.73997932  0.37500000  0.16272194  1
  O  O177  1  0.73997932  0.37500000  0.66272194  1
  O  O178  1  0.23997932  0.37500000  0.16272194  1
  O  O179  1  0.23997932  0.37500000  0.66272194  1
  O  O180  1  0.48997932  0.12500000  0.16272194  1
  O  O181  1  0.48997932  0.12500000  0.66272194  1
  O  O182  1  0.73997932  -0.12500000  0.16272194  1
  O  O183  1  0.73997932  -0.12500000  0.66272194  1
  O  O184  1  -0.01002068  0.12500000  0.16272194  1
  O  O185  1  -0.01002068  0.12500000  0.66272194  1
  O  O186  1  0.23997932  -0.12500000  0.16272194  1
  O  O187  1  0.23997932  -0.12500000  0.66272194  1
  O  O188  1  0.48997932  -0.37500000  0.16272194  1
  O  O189  1  0.48997932  -0.37500000  0.66272194  1
  O  O190  1  -0.01002068  -0.37500000  0.16272194  1
  O  O191  1  -0.01002068  -0.37500000  0.66272194  1
  O  O192  1  0.87500000  0.51002068  0.16272194  1
  O  O193  1  0.87500000  0.51002068  0.66272194  1
  O  O194  1  0.37500000  0.51002068  0.16272194  1
  O  O195  1  0.37500000  0.51002068  0.66272194  1
  O  O196  1  0.62500000  0.26002068  0.16272194  1
  O  O197  1  0.62500000  0.26002068  0.66272194  1
  O  O198  1  0.87500000  0.01002068  0.16272194  1
  O  O199  1  0.87500000  0.01002068  0.66272194  1
  O  O200  1  0.12500000  0.26002068  0.16272194  1
  O  O201  1  0.12500000  0.26002068  0.66272194  1
  O  O202  1  0.37500000  0.01002068  0.16272194  1
  O  O203  1  0.37500000  0.01002068  0.66272194  1
  O  O204  1  0.62500000  -0.23997932  0.16272194  1
  O  O205  1  0.62500000  -0.23997932  0.66272194  1
  O  O206  1  0.12500000  -0.23997932  0.16272194  1
  O  O207  1  0.12500000  -0.23997932  0.66272194  1
  O  O208  1  0.87500000  0.48997932  0.33727806  1
  O  O209  1  0.87500000  0.48997932  0.83727806  1
  O  O210  1  0.37500000  0.48997932  0.33727806  1
  O  O211  1  0.37500000  0.48997932  0.83727806  1
  O  O212  1  0.62500000  0.23997932  0.33727806  1
  O  O213  1  0.62500000  0.23997932  0.83727806  1
  O  O214  1  0.87500000  -0.01002068  0.33727806  1
  O  O215  1  0.87500000  -0.01002068  0.83727806  1
  O  O216  1  0.12500000  0.23997932  0.33727806  1
  O  O217  1  0.12500000  0.23997932  0.83727806  1
  O  O218  1  0.37500000  -0.01002068  0.33727806  1
  O  O219  1  0.37500000  -0.01002068  0.83727806  1
  O  O220  1  0.62500000  -0.26002068  0.33727806  1
  O  O221  1  0.62500000  -0.26002068  0.83727806  1
  O  O222  1  0.12500000  -0.26002068  0.33727806  1
  O  O223  1  0.12500000  -0.26002068  0.83727806  1
  O  O224  1  0.76002068  0.37500000  0.33727806  1
  O  O225  1  0.76002068  0.37500000  0.83727806  1
  O  O226  1  0.26002068  0.37500000  0.33727806  1
  O  O227  1  0.26002068  0.37500000  0.83727806  1
  O  O228  1  0.51002068  0.12500000  0.33727806  1
  O  O229  1  0.51002068  0.12500000  0.83727806  1
  O  O230  1  0.76002068  -0.12500000  0.33727806  1
  O  O231  1  0.76002068  -0.12500000  0.83727806  1
  O  O232  1  0.01002068  0.12500000  0.33727806  1
  O  O233  1  0.01002068  0.12500000  0.83727806  1
  O  O234  1  0.26002068  -0.12500000  0.33727806  1
  O  O235  1  0.26002068  -0.12500000  0.83727806  1
  O  O236  1  0.51002068  -0.37500000  0.33727806  1
  O  O237  1  0.51002068  -0.37500000  0.83727806  1
  O  O238  1  0.01002068  -0.37500000  0.33727806  1
  O  O239  1  0.01002068  -0.37500000  0.83727806  1
  O  O240  1  0.73997932  0.62500000  0.33727806  1
  O  O241  1  0.73997932  0.62500000  0.83727806  1
  O  O242  1  0.23997932  0.62500000  0.33727806  1
  O  O243  1  0.23997932  0.62500000  0.83727806  1
  O  O244  1  0.48997932  0.37500000  0.33727806  1
  O  O245  1  0.48997932  0.37500000  0.83727806  1
  O  O246  1  0.73997932  0.12500000  0.33727806  1
  O  O247  1  0.73997932  0.12500000  0.83727806  1
  O  O248  1  -0.01002068  0.37500000  0.33727806  1
  O  O249  1  -0.01002068  0.37500000  0.83727806  1
  O  O250  1  0.23997932  0.12500000  0.33727806  1
  O  O251  1  0.23997932  0.12500000  0.83727806  1
  O  O252  1  0.48997932  -0.12500000  0.33727806  1
  O  O253  1  0.48997932  -0.12500000  0.83727806  1
  O  O254  1  -0.01002068  -0.12500000  0.33727806  1
  O  O255  1  -0.01002068  -0.12500000  0.83727806  1
  O  O256  1  0.62500000  0.51002068  0.33727806  1
  O  O257  1  0.62500000  0.51002068  0.83727806  1
  O  O258  1  0.12500000  0.51002068  0.33727806  1
  O  O259  1  0.12500000  0.51002068  0.83727806  1
  O  O260  1  0.37500000  0.26002068  0.33727806  1
  O  O261  1  0.37500000  0.26002068  0.83727806  1
  O  O262  1  0.62500000  0.01002068  0.33727806  1
  O  O263  1  0.62500000  0.01002068  0.83727806  1
  O  O264  1  -0.12500000  0.26002068  0.33727806  1
  O  O265  1  -0.12500000  0.26002068  0.83727806  1
  O  O266  1  0.12500000  0.01002068  0.33727806  1
  O  O267  1  0.12500000  0.01002068  0.83727806  1
  O  O268  1  0.37500000  -0.23997932  0.33727806  1
  O  O269  1  0.37500000  -0.23997932  0.83727806  1
  O  O270  1  -0.12500000  -0.23997932  0.33727806  1
  O  O271  1  -0.12500000  -0.23997932  0.83727806  1
  O  O272  1  0.62500000  0.62500000  0.48482386  1
  O  O273  1  0.62500000  0.62500000  0.98482386  1
  O  O274  1  0.12500000  0.62500000  0.48482386  1
  O  O275  1  0.12500000  0.62500000  0.98482386  1
  O  O276  1  0.37500000  0.37500000  0.48482386  1
  O  O277  1  0.37500000  0.37500000  0.98482386  1
  O  O278  1  0.62500000  0.12500000  0.48482386  1
  O  O279  1  0.62500000  0.12500000  0.98482386  1
  O  O280  1  -0.12500000  0.37500000  0.48482386  1
  O  O281  1  -0.12500000  0.37500000  0.98482386  1
  O  O282  1  0.12500000  0.12500000  0.48482386  1
  O  O283  1  0.12500000  0.12500000  0.98482386  1
  O  O284  1  0.37500000  -0.12500000  0.48482386  1
  O  O285  1  0.37500000  -0.12500000  0.98482386  1
  O  O286  1  -0.12500000  -0.12500000  0.48482386  1
  O  O287  1  -0.12500000  -0.12500000  0.98482386  1
