# generated using pymatgen
data_KSrVO4
_symmetry_space_group_name_H-M   'P 1'
_cell_length_a   17.45807938
_cell_length_b   14.90609890
_cell_length_c   19.82655562
_cell_angle_alpha   90.00000000
_cell_angle_beta   90.00000000
_cell_angle_gamma   90.00000000
_symmetry_Int_Tables_number   1
_chemical_formula_structural   KSrVO4
_chemical_formula_sum   'K48 Sr48 V48 O192'
_cell_volume   5159.50140192
_cell_formula_units_Z   48
loop_
 _symmetry_equiv_pos_site_id
 _symmetry_equiv_pos_as_xyz
  1  'x, y, z'
loop_
 _atom_site_type_symbol
 _atom_site_label
 _atom_site_symmetry_multiplicity
 _atom_site_fract_x
 _atom_site_fract_y
 _atom_site_fract_z
 _atom_site_occupancy
  K  K0  1  0.16106041  0.04689962  0.28888184  1
  K  K1  1  0.16106041  0.04689962  0.78888184  1
  K  K2  1  0.16106041  0.54689962  0.28888184  1
  K  K3  1  0.16106041  0.54689962  0.78888184  1
  K  K4  1  0.49439374  0.04689962  0.28888184  1
  K  K5  1  0.49439374  0.04689962  0.78888184  1
  K  K6  1  0.49439374  0.54689962  0.28888184  1
  K  K7  1  0.49439374  0.54689962  0.78888184  1
  K  K8  1  0.82772707  0.04689962  0.28888184  1
  K  K9  1  0.82772707  0.04689962  0.78888184  1
  K  K10  1  0.82772707  0.54689962  0.28888184  1
  K  K11  1  0.82772707  0.54689962  0.78888184  1
  K  K12  1  0.17227293  0.29689962  0.46111816  1
  K  K13  1  0.17227293  0.29689962  0.96111816  1
  K  K14  1  0.17227293  0.79689962  0.46111816  1
  K  K15  1  0.17227293  0.79689962  0.96111816  1
  K  K16  1  0.50560626  0.29689962  0.46111816  1
  K  K17  1  0.50560626  0.29689962  0.96111816  1
  K  K18  1  0.50560626  0.79689962  0.46111816  1
  K  K19  1  0.50560626  0.79689962  0.96111816  1
  K  K20  1  0.83893959  0.29689962  0.46111816  1
  K  K21  1  0.83893959  0.29689962  0.96111816  1
  K  K22  1  0.83893959  0.79689962  0.46111816  1
  K  K23  1  0.83893959  0.79689962  0.96111816  1
  K  K24  1  0.00560626  0.45310038  0.03888184  1
  K  K25  1  0.00560626  0.45310038  0.53888184  1
  K  K26  1  0.00560626  0.95310038  0.03888184  1
  K  K27  1  0.00560626  0.95310038  0.53888184  1
  K  K28  1  0.33893959  0.45310038  0.03888184  1
  K  K29  1  0.33893959  0.45310038  0.53888184  1
  K  K30  1  0.33893959  0.95310038  0.03888184  1
  K  K31  1  0.33893959  0.95310038  0.53888184  1
  K  K32  1  0.67227293  0.45310038  0.03888184  1
  K  K33  1  0.67227293  0.45310038  0.53888184  1
  K  K34  1  0.67227293  0.95310038  0.03888184  1
  K  K35  1  0.67227293  0.95310038  0.53888184  1
  K  K36  1  0.32772707  0.20310038  0.21111816  1
  K  K37  1  0.32772707  0.20310038  0.71111816  1
  K  K38  1  0.32772707  0.70310038  0.21111816  1
  K  K39  1  0.32772707  0.70310038  0.71111816  1
  K  K40  1  0.66106041  0.20310038  0.21111816  1
  K  K41  1  0.66106041  0.20310038  0.71111816  1
  K  K42  1  0.66106041  0.70310038  0.21111816  1
  K  K43  1  0.66106041  0.70310038  0.71111816  1
  K  K44  1  0.99439374  0.20310038  0.21111816  1
  K  K45  1  0.99439374  0.20310038  0.71111816  1
  K  K46  1  0.99439374  0.70310038  0.21111816  1
  K  K47  1  0.99439374  0.70310038  0.71111816  1
  Sr  Sr48  1  0.32613085  0.12470382  0.40121981  1
  Sr  Sr49  1  0.32613085  0.12470382  0.90121981  1
  Sr  Sr50  1  0.32613085  0.62470382  0.40121981  1
  Sr  Sr51  1  0.32613085  0.62470382  0.90121981  1
  Sr  Sr52  1  0.65946418  0.12470382  0.40121981  1
  Sr  Sr53  1  0.65946418  0.12470382  0.90121981  1
  Sr  Sr54  1  0.65946418  0.62470382  0.40121981  1
  Sr  Sr55  1  0.65946418  0.62470382  0.90121981  1
  Sr  Sr56  1  0.99279751  0.12470382  0.40121981  1
  Sr  Sr57  1  0.99279751  0.12470382  0.90121981  1
  Sr  Sr58  1  0.99279751  0.62470382  0.40121981  1
  Sr  Sr59  1  0.99279751  0.62470382  0.90121981  1
  Sr  Sr60  1  0.15946418  0.12529618  0.09878019  1
  Sr  Sr61  1  0.15946418  0.12529618  0.59878019  1
  Sr  Sr62  1  0.15946418  0.62529618  0.09878019  1
  Sr  Sr63  1  0.15946418  0.62529618  0.59878019  1
  Sr  Sr64  1  0.49279751  0.12529618  0.09878019  1
  Sr  Sr65  1  0.49279751  0.12529618  0.59878019  1
  Sr  Sr66  1  0.49279751  0.62529618  0.09878019  1
  Sr  Sr67  1  0.49279751  0.62529618  0.59878019  1
  Sr  Sr68  1  0.82613085  0.12529618  0.09878019  1
  Sr  Sr69  1  0.82613085  0.12529618  0.59878019  1
  Sr  Sr70  1  0.82613085  0.62529618  0.09878019  1
  Sr  Sr71  1  0.82613085  0.62529618  0.59878019  1
  Sr  Sr72  1  0.17386915  0.37529618  0.15121981  1
  Sr  Sr73  1  0.17386915  0.37529618  0.65121981  1
  Sr  Sr74  1  0.17386915  0.87529618  0.15121981  1
  Sr  Sr75  1  0.17386915  0.87529618  0.65121981  1
  Sr  Sr76  1  0.50720249  0.37529618  0.15121981  1
  Sr  Sr77  1  0.50720249  0.37529618  0.65121981  1
  Sr  Sr78  1  0.50720249  0.87529618  0.15121981  1
  Sr  Sr79  1  0.50720249  0.87529618  0.65121981  1
  Sr  Sr80  1  0.84053582  0.37529618  0.15121981  1
  Sr  Sr81  1  0.84053582  0.37529618  0.65121981  1
  Sr  Sr82  1  0.84053582  0.87529618  0.15121981  1
  Sr  Sr83  1  0.84053582  0.87529618  0.65121981  1
  Sr  Sr84  1  0.00720249  0.37470382  0.34878019  1
  Sr  Sr85  1  0.00720249  0.37470382  0.84878019  1
  Sr  Sr86  1  0.00720249  0.87470382  0.34878019  1
  Sr  Sr87  1  0.00720249  0.87470382  0.84878019  1
  Sr  Sr88  1  0.34053582  0.37470382  0.34878019  1
  Sr  Sr89  1  0.34053582  0.37470382  0.84878019  1
  Sr  Sr90  1  0.34053582  0.87470382  0.34878019  1
  Sr  Sr91  1  0.34053582  0.87470382  0.84878019  1
  Sr  Sr92  1  0.67386915  0.37470382  0.34878019  1
  Sr  Sr93  1  0.67386915  0.37470382  0.84878019  1
  Sr  Sr94  1  0.67386915  0.87470382  0.34878019  1
  Sr  Sr95  1  0.67386915  0.87470382  0.84878019  1
  V  V96  1  0.16103565  0.26256433  0.29187500  1
  V  V97  1  0.16103565  0.26256433  0.79187500  1
  V  V98  1  0.16103565  0.76256433  0.29187500  1
  V  V99  1  0.16103565  0.76256433  0.79187500  1
  V  V100  1  0.49436899  0.26256433  0.29187500  1
  V  V101  1  0.49436899  0.26256433  0.79187500  1
  V  V102  1  0.49436899  0.76256433  0.29187500  1
  V  V103  1  0.49436899  0.76256433  0.79187500  1
  V  V104  1  0.82770232  0.26256433  0.29187500  1
  V  V105  1  0.82770232  0.26256433  0.79187500  1
  V  V106  1  0.82770232  0.76256433  0.29187500  1
  V  V107  1  0.82770232  0.76256433  0.79187500  1
  V  V108  1  0.00563101  0.23743567  0.04187500  1
  V  V109  1  0.00563101  0.23743567  0.54187500  1
  V  V110  1  0.00563101  0.73743567  0.04187500  1
  V  V111  1  0.00563101  0.73743567  0.54187500  1
  V  V112  1  0.33896435  0.23743567  0.04187500  1
  V  V113  1  0.33896435  0.23743567  0.54187500  1
  V  V114  1  0.33896435  0.73743567  0.04187500  1
  V  V115  1  0.33896435  0.73743567  0.54187500  1
  V  V116  1  0.67229768  0.23743567  0.04187500  1
  V  V117  1  0.67229768  0.23743567  0.54187500  1
  V  V118  1  0.67229768  0.73743567  0.04187500  1
  V  V119  1  0.67229768  0.73743567  0.54187500  1
  V  V120  1  0.32770232  0.48743567  0.20812500  1
  V  V121  1  0.32770232  0.48743567  0.70812500  1
  V  V122  1  0.32770232  0.98743567  0.20812500  1
  V  V123  1  0.32770232  0.98743567  0.70812500  1
  V  V124  1  0.66103565  0.48743567  0.20812500  1
  V  V125  1  0.66103565  0.48743567  0.70812500  1
  V  V126  1  0.66103565  0.98743567  0.20812500  1
  V  V127  1  0.66103565  0.98743567  0.70812500  1
  V  V128  1  0.99436899  0.48743567  0.20812500  1
  V  V129  1  0.99436899  0.48743567  0.70812500  1
  V  V130  1  0.99436899  0.98743567  0.20812500  1
  V  V131  1  0.99436899  0.98743567  0.70812500  1
  V  V132  1  0.17229768  0.01256433  0.45812500  1
  V  V133  1  0.17229768  0.01256433  0.95812500  1
  V  V134  1  0.17229768  0.51256433  0.45812500  1
  V  V135  1  0.17229768  0.51256433  0.95812500  1
  V  V136  1  0.50563101  0.01256433  0.45812500  1
  V  V137  1  0.50563101  0.01256433  0.95812500  1
  V  V138  1  0.50563101  0.51256433  0.45812500  1
  V  V139  1  0.50563101  0.51256433  0.95812500  1
  V  V140  1  0.83896435  0.01256433  0.45812500  1
  V  V141  1  0.83896435  0.01256433  0.95812500  1
  V  V142  1  0.83896435  0.51256433  0.45812500  1
  V  V143  1  0.83896435  0.51256433  0.95812500  1
  O  O144  1  0.16911319  0.46462307  0.03743552  1
  O  O145  1  0.16911319  0.46462307  0.53743552  1
  O  O146  1  0.16911319  0.96462307  0.03743552  1
  O  O147  1  0.16911319  0.96462307  0.53743552  1
  O  O148  1  0.50244652  0.46462307  0.03743552  1
  O  O149  1  0.50244652  0.46462307  0.53743552  1
  O  O150  1  0.50244652  0.96462307  0.03743552  1
  O  O151  1  0.50244652  0.96462307  0.53743552  1
  O  O152  1  0.83577986  0.46462307  0.03743552  1
  O  O153  1  0.83577986  0.46462307  0.53743552  1
  O  O154  1  0.83577986  0.96462307  0.03743552  1
  O  O155  1  0.83577986  0.96462307  0.53743552  1
  O  O156  1  0.08209121  0.27908092  0.08675651  1
  O  O157  1  0.08209121  0.27908092  0.58675651  1
  O  O158  1  0.08209121  0.77908092  0.08675651  1
  O  O159  1  0.08209121  0.77908092  0.58675651  1
  O  O160  1  0.41542454  0.27908092  0.08675651  1
  O  O161  1  0.41542454  0.27908092  0.58675651  1
  O  O162  1  0.41542454  0.77908092  0.08675651  1
  O  O163  1  0.41542454  0.77908092  0.58675651  1
  O  O164  1  0.74875788  0.27908092  0.08675651  1
  O  O165  1  0.74875788  0.27908092  0.58675651  1
  O  O166  1  0.74875788  0.77908092  0.08675651  1
  O  O167  1  0.74875788  0.77908092  0.58675651  1
  O  O168  1  0.08457546  0.22091908  0.33675651  1
  O  O169  1  0.08457546  0.22091908  0.83675651  1
  O  O170  1  0.08457546  0.72091908  0.33675651  1
  O  O171  1  0.08457546  0.72091908  0.83675651  1
  O  O172  1  0.41790879  0.22091908  0.33675651  1
  O  O173  1  0.41790879  0.22091908  0.83675651  1
  O  O174  1  0.41790879  0.72091908  0.33675651  1
  O  O175  1  0.41790879  0.72091908  0.83675651  1
  O  O176  1  0.75124212  0.22091908  0.33675651  1
  O  O177  1  0.75124212  0.22091908  0.83675651  1
  O  O178  1  0.75124212  0.72091908  0.33675651  1
  O  O179  1  0.75124212  0.72091908  0.83675651  1
  O  O180  1  0.02467292  0.12575931  0.03110517  1
  O  O181  1  0.02467292  0.12575931  0.53110517  1
  O  O182  1  0.02467292  0.62575931  0.03110517  1
  O  O183  1  0.02467292  0.62575931  0.53110517  1
  O  O184  1  0.35800626  0.12575931  0.03110517  1
  O  O185  1  0.35800626  0.12575931  0.53110517  1
  O  O186  1  0.35800626  0.62575931  0.03110517  1
  O  O187  1  0.35800626  0.62575931  0.53110517  1
  O  O188  1  0.69133959  0.12575931  0.03110517  1
  O  O189  1  0.69133959  0.12575931  0.53110517  1
  O  O190  1  0.69133959  0.62575931  0.03110517  1
  O  O191  1  0.69133959  0.62575931  0.53110517  1
  O  O192  1  0.24875788  0.47091908  0.41324349  1
  O  O193  1  0.24875788  0.47091908  0.91324349  1
  O  O194  1  0.24875788  0.97091908  0.41324349  1
  O  O195  1  0.24875788  0.97091908  0.91324349  1
  O  O196  1  0.58209121  0.47091908  0.41324349  1
  O  O197  1  0.58209121  0.47091908  0.91324349  1
  O  O198  1  0.58209121  0.97091908  0.41324349  1
  O  O199  1  0.58209121  0.97091908  0.91324349  1
  O  O200  1  0.91542454  0.47091908  0.41324349  1
  O  O201  1  0.91542454  0.47091908  0.91324349  1
  O  O202  1  0.91542454  0.97091908  0.41324349  1
  O  O203  1  0.91542454  0.97091908  0.91324349  1
  O  O204  1  0.19133959  0.12424069  0.46889483  1
  O  O205  1  0.19133959  0.12424069  0.96889483  1
  O  O206  1  0.19133959  0.62424069  0.46889483  1
  O  O207  1  0.19133959  0.62424069  0.96889483  1
  O  O208  1  0.52467292  0.12424069  0.46889483  1
  O  O209  1  0.52467292  0.12424069  0.96889483  1
  O  O210  1  0.52467292  0.62424069  0.46889483  1
  O  O211  1  0.52467292  0.62424069  0.96889483  1
  O  O212  1  0.85800626  0.12424069  0.46889483  1
  O  O213  1  0.85800626  0.12424069  0.96889483  1
  O  O214  1  0.85800626  0.62424069  0.46889483  1
  O  O215  1  0.85800626  0.62424069  0.96889483  1
  O  O216  1  0.25421864  0.25721314  0.08474301  1
  O  O217  1  0.25421864  0.25721314  0.58474301  1
  O  O218  1  0.25421864  0.75721314  0.08474301  1
  O  O219  1  0.25421864  0.75721314  0.58474301  1
  O  O220  1  0.58755197  0.25721314  0.08474301  1
  O  O221  1  0.58755197  0.25721314  0.58474301  1
  O  O222  1  0.58755197  0.75721314  0.08474301  1
  O  O223  1  0.58755197  0.75721314  0.58474301  1
  O  O224  1  0.92088530  0.25721314  0.08474301  1
  O  O225  1  0.92088530  0.25721314  0.58474301  1
  O  O226  1  0.92088530  0.75721314  0.08474301  1
  O  O227  1  0.92088530  0.75721314  0.58474301  1
  O  O228  1  0.08755197  0.49278686  0.41525699  1
  O  O229  1  0.08755197  0.49278686  0.91525699  1
  O  O230  1  0.08755197  0.99278686  0.41525699  1
  O  O231  1  0.08755197  0.99278686  0.91525699  1
  O  O232  1  0.42088530  0.49278686  0.41525699  1
  O  O233  1  0.42088530  0.49278686  0.91525699  1
  O  O234  1  0.42088530  0.99278686  0.41525699  1
  O  O235  1  0.42088530  0.99278686  0.91525699  1
  O  O236  1  0.75421864  0.49278686  0.41525699  1
  O  O237  1  0.75421864  0.49278686  0.91525699  1
  O  O238  1  0.75421864  0.99278686  0.41525699  1
  O  O239  1  0.75421864  0.99278686  0.91525699  1
  O  O240  1  0.33088681  0.03537693  0.28743552  1
  O  O241  1  0.33088681  0.03537693  0.78743552  1
  O  O242  1  0.33088681  0.53537693  0.28743552  1
  O  O243  1  0.33088681  0.53537693  0.78743552  1
  O  O244  1  0.66422014  0.03537693  0.28743552  1
  O  O245  1  0.66422014  0.03537693  0.78743552  1
  O  O246  1  0.66422014  0.53537693  0.28743552  1
  O  O247  1  0.66422014  0.53537693  0.78743552  1
  O  O248  1  0.99755348  0.03537693  0.28743552  1
  O  O249  1  0.99755348  0.03537693  0.78743552  1
  O  O250  1  0.99755348  0.53537693  0.28743552  1
  O  O251  1  0.99755348  0.53537693  0.78743552  1
  O  O252  1  0.25124212  0.02908092  0.16324349  1
  O  O253  1  0.25124212  0.02908092  0.66324349  1
  O  O254  1  0.25124212  0.52908092  0.16324349  1
  O  O255  1  0.25124212  0.52908092  0.66324349  1
  O  O256  1  0.58457546  0.02908092  0.16324349  1
  O  O257  1  0.58457546  0.02908092  0.66324349  1
  O  O258  1  0.58457546  0.52908092  0.16324349  1
  O  O259  1  0.58457546  0.52908092  0.66324349  1
  O  O260  1  0.91790879  0.02908092  0.16324349  1
  O  O261  1  0.91790879  0.02908092  0.66324349  1
  O  O262  1  0.91790879  0.52908092  0.16324349  1
  O  O263  1  0.91790879  0.52908092  0.66324349  1
  O  O264  1  0.00244652  0.28537693  0.46256448  1
  O  O265  1  0.00244652  0.28537693  0.96256448  1
  O  O266  1  0.00244652  0.78537693  0.46256448  1
  O  O267  1  0.00244652  0.78537693  0.96256448  1
  O  O268  1  0.33577986  0.28537693  0.46256448  1
  O  O269  1  0.33577986  0.28537693  0.96256448  1
  O  O270  1  0.33577986  0.78537693  0.46256448  1
  O  O271  1  0.33577986  0.78537693  0.96256448  1
  O  O272  1  0.66911319  0.28537693  0.46256448  1
  O  O273  1  0.66911319  0.28537693  0.96256448  1
  O  O274  1  0.66911319  0.78537693  0.46256448  1
  O  O275  1  0.66911319  0.78537693  0.96256448  1
  O  O276  1  0.16422014  0.21462307  0.21256448  1
  O  O277  1  0.16422014  0.21462307  0.71256448  1
  O  O278  1  0.16422014  0.71462307  0.21256448  1
  O  O279  1  0.16422014  0.71462307  0.71256448  1
  O  O280  1  0.49755348  0.21462307  0.21256448  1
  O  O281  1  0.49755348  0.21462307  0.71256448  1
  O  O282  1  0.49755348  0.71462307  0.21256448  1
  O  O283  1  0.49755348  0.71462307  0.71256448  1
  O  O284  1  0.83088681  0.21462307  0.21256448  1
  O  O285  1  0.83088681  0.21462307  0.71256448  1
  O  O286  1  0.83088681  0.71462307  0.21256448  1
  O  O287  1  0.83088681  0.71462307  0.71256448  1
  O  O288  1  0.07911470  0.00721314  0.16525699  1
  O  O289  1  0.07911470  0.00721314  0.66525699  1
  O  O290  1  0.07911470  0.50721314  0.16525699  1
  O  O291  1  0.07911470  0.50721314  0.66525699  1
  O  O292  1  0.41244803  0.00721314  0.16525699  1
  O  O293  1  0.41244803  0.00721314  0.66525699  1
  O  O294  1  0.41244803  0.50721314  0.16525699  1
  O  O295  1  0.41244803  0.50721314  0.66525699  1
  O  O296  1  0.74578136  0.00721314  0.16525699  1
  O  O297  1  0.74578136  0.00721314  0.66525699  1
  O  O298  1  0.74578136  0.50721314  0.16525699  1
  O  O299  1  0.74578136  0.50721314  0.66525699  1
  O  O300  1  0.14199374  0.37424069  0.28110517  1
  O  O301  1  0.14199374  0.37424069  0.78110517  1
  O  O302  1  0.14199374  0.87424069  0.28110517  1
  O  O303  1  0.14199374  0.87424069  0.78110517  1
  O  O304  1  0.47532708  0.37424069  0.28110517  1
  O  O305  1  0.47532708  0.37424069  0.78110517  1
  O  O306  1  0.47532708  0.87424069  0.28110517  1
  O  O307  1  0.47532708  0.87424069  0.78110517  1
  O  O308  1  0.80866041  0.37424069  0.28110517  1
  O  O309  1  0.80866041  0.37424069  0.78110517  1
  O  O310  1  0.80866041  0.87424069  0.28110517  1
  O  O311  1  0.80866041  0.87424069  0.78110517  1
  O  O312  1  0.24578136  0.24278686  0.33474301  1
  O  O313  1  0.24578136  0.24278686  0.83474301  1
  O  O314  1  0.24578136  0.74278686  0.33474301  1
  O  O315  1  0.24578136  0.74278686  0.83474301  1
  O  O316  1  0.57911470  0.24278686  0.33474301  1
  O  O317  1  0.57911470  0.24278686  0.83474301  1
  O  O318  1  0.57911470  0.74278686  0.33474301  1
  O  O319  1  0.57911470  0.74278686  0.83474301  1
  O  O320  1  0.91244803  0.24278686  0.33474301  1
  O  O321  1  0.91244803  0.24278686  0.83474301  1
  O  O322  1  0.91244803  0.74278686  0.33474301  1
  O  O323  1  0.91244803  0.74278686  0.83474301  1
  O  O324  1  0.30866041  0.37575931  0.21889483  1
  O  O325  1  0.30866041  0.37575931  0.71889483  1
  O  O326  1  0.30866041  0.87575931  0.21889483  1
  O  O327  1  0.30866041  0.87575931  0.71889483  1
  O  O328  1  0.64199374  0.37575931  0.21889483  1
  O  O329  1  0.64199374  0.37575931  0.71889483  1
  O  O330  1  0.64199374  0.87575931  0.21889483  1
  O  O331  1  0.64199374  0.87575931  0.71889483  1
  O  O332  1  0.97532708  0.37575931  0.21889483  1
  O  O333  1  0.97532708  0.37575931  0.71889483  1
  O  O334  1  0.97532708  0.87575931  0.21889483  1
  O  O335  1  0.97532708  0.87575931  0.71889483  1
