# generated using pymatgen
data_KSbO2
_symmetry_space_group_name_H-M   'P 1'
_cell_length_a   15.70937737
_cell_length_b   16.69312179
_cell_length_c   16.83123124
_cell_angle_alpha   90.00000000
_cell_angle_beta   124.60149337
_cell_angle_gamma   90.00000000
_symmetry_Int_Tables_number   1
_chemical_formula_structural   KSbO2
_chemical_formula_sum   'K48 Sb48 O96'
_cell_volume   3633.09205856
_cell_formula_units_Z   48
loop_
 _symmetry_equiv_pos_site_id
 _symmetry_equiv_pos_as_xyz
  1  'x, y, z'
loop_
 _atom_site_type_symbol
 _atom_site_label
 _atom_site_symmetry_multiplicity
 _atom_site_fract_x
 _atom_site_fract_y
 _atom_site_fract_z
 _atom_site_occupancy
  K  K0  1  0.25000000  0.06810243  0.08333333  1
  K  K1  1  0.25000000  0.06810243  0.41666667  1
  K  K2  1  0.25000000  0.06810243  0.75000000  1
  K  K3  1  0.25000000  0.56810243  0.08333333  1
  K  K4  1  0.25000000  0.56810243  0.41666667  1
  K  K5  1  0.25000000  0.56810243  0.75000000  1
  K  K6  1  0.75000000  0.06810243  0.08333333  1
  K  K7  1  0.75000000  0.06810243  0.41666667  1
  K  K8  1  0.75000000  0.06810243  0.75000000  1
  K  K9  1  0.75000000  0.56810243  0.08333333  1
  K  K10  1  0.75000000  0.56810243  0.41666667  1
  K  K11  1  0.75000000  0.56810243  0.75000000  1
  K  K12  1  0.50000000  0.31810243  0.08333333  1
  K  K13  1  0.50000000  0.31810243  0.41666667  1
  K  K14  1  0.50000000  0.31810243  0.75000000  1
  K  K15  1  0.50000000  0.81810243  0.08333333  1
  K  K16  1  0.50000000  0.81810243  0.41666667  1
  K  K17  1  0.50000000  0.81810243  0.75000000  1
  K  K18  1  1.00000000  0.31810243  0.08333333  1
  K  K19  1  1.00000000  0.31810243  0.41666667  1
  K  K20  1  1.00000000  0.31810243  0.75000000  1
  K  K21  1  1.00000000  0.81810243  0.08333333  1
  K  K22  1  1.00000000  0.81810243  0.41666667  1
  K  K23  1  1.00000000  0.81810243  0.75000000  1
  K  K24  1  0.25000000  -0.06810243  0.25000000  1
  K  K25  1  0.25000000  -0.06810243  0.58333333  1
  K  K26  1  0.25000000  -0.06810243  0.91666667  1
  K  K27  1  0.25000000  0.43189757  0.25000000  1
  K  K28  1  0.25000000  0.43189757  0.58333333  1
  K  K29  1  0.25000000  0.43189757  0.91666667  1
  K  K30  1  0.75000000  -0.06810243  0.25000000  1
  K  K31  1  0.75000000  -0.06810243  0.58333333  1
  K  K32  1  0.75000000  -0.06810243  0.91666667  1
  K  K33  1  0.75000000  0.43189757  0.25000000  1
  K  K34  1  0.75000000  0.43189757  0.58333333  1
  K  K35  1  0.75000000  0.43189757  0.91666667  1
  K  K36  1  0.50000000  0.18189757  0.25000000  1
  K  K37  1  0.50000000  0.18189757  0.58333333  1
  K  K38  1  0.50000000  0.18189757  0.91666667  1
  K  K39  1  0.50000000  0.68189757  0.25000000  1
  K  K40  1  0.50000000  0.68189757  0.58333333  1
  K  K41  1  0.50000000  0.68189757  0.91666667  1
  K  K42  1  1.00000000  0.18189757  0.25000000  1
  K  K43  1  1.00000000  0.18189757  0.58333333  1
  K  K44  1  1.00000000  0.18189757  0.91666667  1
  K  K45  1  1.00000000  0.68189757  0.25000000  1
  K  K46  1  1.00000000  0.68189757  0.58333333  1
  K  K47  1  1.00000000  0.68189757  0.91666667  1
  Sb  Sb48  1  0.25000000  0.20113292  0.25000000  1
  Sb  Sb49  1  0.25000000  0.20113292  0.58333333  1
  Sb  Sb50  1  0.25000000  0.20113292  0.91666667  1
  Sb  Sb51  1  0.25000000  0.70113292  0.25000000  1
  Sb  Sb52  1  0.25000000  0.70113292  0.58333333  1
  Sb  Sb53  1  0.25000000  0.70113292  0.91666667  1
  Sb  Sb54  1  0.75000000  0.20113292  0.25000000  1
  Sb  Sb55  1  0.75000000  0.20113292  0.58333333  1
  Sb  Sb56  1  0.75000000  0.20113292  0.91666667  1
  Sb  Sb57  1  0.75000000  0.70113292  0.25000000  1
  Sb  Sb58  1  0.75000000  0.70113292  0.58333333  1
  Sb  Sb59  1  0.75000000  0.70113292  0.91666667  1
  Sb  Sb60  1  0.50000000  0.45113292  0.25000000  1
  Sb  Sb61  1  0.50000000  0.45113292  0.58333333  1
  Sb  Sb62  1  0.50000000  0.45113292  0.91666667  1
  Sb  Sb63  1  0.50000000  0.95113292  0.25000000  1
  Sb  Sb64  1  0.50000000  0.95113292  0.58333333  1
  Sb  Sb65  1  0.50000000  0.95113292  0.91666667  1
  Sb  Sb66  1  1.00000000  0.45113292  0.25000000  1
  Sb  Sb67  1  1.00000000  0.45113292  0.58333333  1
  Sb  Sb68  1  1.00000000  0.45113292  0.91666667  1
  Sb  Sb69  1  1.00000000  0.95113292  0.25000000  1
  Sb  Sb70  1  1.00000000  0.95113292  0.58333333  1
  Sb  Sb71  1  1.00000000  0.95113292  0.91666667  1
  Sb  Sb72  1  0.25000000  -0.20113292  0.08333333  1
  Sb  Sb73  1  0.25000000  -0.20113292  0.41666667  1
  Sb  Sb74  1  0.25000000  -0.20113292  0.75000000  1
  Sb  Sb75  1  0.25000000  0.29886708  0.08333333  1
  Sb  Sb76  1  0.25000000  0.29886708  0.41666667  1
  Sb  Sb77  1  0.25000000  0.29886708  0.75000000  1
  Sb  Sb78  1  0.75000000  -0.20113292  0.08333333  1
  Sb  Sb79  1  0.75000000  -0.20113292  0.41666667  1
  Sb  Sb80  1  0.75000000  -0.20113292  0.75000000  1
  Sb  Sb81  1  0.75000000  0.29886708  0.08333333  1
  Sb  Sb82  1  0.75000000  0.29886708  0.41666667  1
  Sb  Sb83  1  0.75000000  0.29886708  0.75000000  1
  Sb  Sb84  1  0.50000000  0.04886708  0.08333333  1
  Sb  Sb85  1  0.50000000  0.04886708  0.41666667  1
  Sb  Sb86  1  0.50000000  0.04886708  0.75000000  1
  Sb  Sb87  1  0.50000000  0.54886708  0.08333333  1
  Sb  Sb88  1  0.50000000  0.54886708  0.41666667  1
  Sb  Sb89  1  0.50000000  0.54886708  0.75000000  1
  Sb  Sb90  1  1.00000000  0.04886708  0.08333333  1
  Sb  Sb91  1  1.00000000  0.04886708  0.41666667  1
  Sb  Sb92  1  1.00000000  0.04886708  0.75000000  1
  Sb  Sb93  1  1.00000000  0.54886708  0.08333333  1
  Sb  Sb94  1  1.00000000  0.54886708  0.41666667  1
  Sb  Sb95  1  1.00000000  0.54886708  0.75000000  1
  O  O96  1  0.40874600  -0.02606921  0.09438058  1
  O  O97  1  0.40874600  -0.02606921  0.42771391  1
  O  O98  1  0.40874600  -0.02606921  0.76104725  1
  O  O99  1  0.40874600  0.47393079  0.09438058  1
  O  O100  1  0.40874600  0.47393079  0.42771391  1
  O  O101  1  0.40874600  0.47393079  0.76104725  1
  O  O102  1  0.90874600  -0.02606921  0.09438058  1
  O  O103  1  0.90874600  -0.02606921  0.42771391  1
  O  O104  1  0.90874600  -0.02606921  0.76104725  1
  O  O105  1  0.90874600  0.47393079  0.09438058  1
  O  O106  1  0.90874600  0.47393079  0.42771391  1
  O  O107  1  0.90874600  0.47393079  0.76104725  1
  O  O108  1  0.65874600  0.22393079  0.09438058  1
  O  O109  1  0.65874600  0.22393079  0.42771391  1
  O  O110  1  0.65874600  0.22393079  0.76104725  1
  O  O111  1  0.65874600  0.72393079  0.09438058  1
  O  O112  1  0.65874600  0.72393079  0.42771391  1
  O  O113  1  0.65874600  0.72393079  0.76104725  1
  O  O114  1  1.15874600  0.22393079  0.09438058  1
  O  O115  1  1.15874600  0.22393079  0.42771391  1
  O  O116  1  1.15874600  0.22393079  0.76104725  1
  O  O117  1  1.15874600  0.72393079  0.09438058  1
  O  O118  1  1.15874600  0.72393079  0.42771391  1
  O  O119  1  1.15874600  0.72393079  0.76104725  1
  O  O120  1  0.09125400  -0.02606921  0.07228609  1
  O  O121  1  0.09125400  -0.02606921  0.40561942  1
  O  O122  1  0.09125400  -0.02606921  0.73895275  1
  O  O123  1  0.09125400  0.47393079  0.07228609  1
  O  O124  1  0.09125400  0.47393079  0.40561942  1
  O  O125  1  0.09125400  0.47393079  0.73895275  1
  O  O126  1  0.59125400  -0.02606921  0.07228609  1
  O  O127  1  0.59125400  -0.02606921  0.40561942  1
  O  O128  1  0.59125400  -0.02606921  0.73895275  1
  O  O129  1  0.59125400  0.47393079  0.07228609  1
  O  O130  1  0.59125400  0.47393079  0.40561942  1
  O  O131  1  0.59125400  0.47393079  0.73895275  1
  O  O132  1  0.34125400  0.22393079  0.07228609  1
  O  O133  1  0.34125400  0.22393079  0.40561942  1
  O  O134  1  0.34125400  0.22393079  0.73895275  1
  O  O135  1  0.34125400  0.72393079  0.07228609  1
  O  O136  1  0.34125400  0.72393079  0.40561942  1
  O  O137  1  0.34125400  0.72393079  0.73895275  1
  O  O138  1  0.84125400  0.22393079  0.07228609  1
  O  O139  1  0.84125400  0.22393079  0.40561942  1
  O  O140  1  0.84125400  0.22393079  0.73895275  1
  O  O141  1  0.84125400  0.72393079  0.07228609  1
  O  O142  1  0.84125400  0.72393079  0.40561942  1
  O  O143  1  0.84125400  0.72393079  0.73895275  1
  O  O144  1  0.40874600  0.02606921  0.26104725  1
  O  O145  1  0.40874600  0.02606921  0.59438058  1
  O  O146  1  0.40874600  0.02606921  0.92771391  1
  O  O147  1  0.40874600  0.52606921  0.26104725  1
  O  O148  1  0.40874600  0.52606921  0.59438058  1
  O  O149  1  0.40874600  0.52606921  0.92771391  1
  O  O150  1  0.90874600  0.02606921  0.26104725  1
  O  O151  1  0.90874600  0.02606921  0.59438058  1
  O  O152  1  0.90874600  0.02606921  0.92771391  1
  O  O153  1  0.90874600  0.52606921  0.26104725  1
  O  O154  1  0.90874600  0.52606921  0.59438058  1
  O  O155  1  0.90874600  0.52606921  0.92771391  1
  O  O156  1  0.65874600  0.27606921  0.26104725  1
  O  O157  1  0.65874600  0.27606921  0.59438058  1
  O  O158  1  0.65874600  0.27606921  0.92771391  1
  O  O159  1  0.65874600  0.77606921  0.26104725  1
  O  O160  1  0.65874600  0.77606921  0.59438058  1
  O  O161  1  0.65874600  0.77606921  0.92771391  1
  O  O162  1  1.15874600  0.27606921  0.26104725  1
  O  O163  1  1.15874600  0.27606921  0.59438058  1
  O  O164  1  1.15874600  0.27606921  0.92771391  1
  O  O165  1  1.15874600  0.77606921  0.26104725  1
  O  O166  1  1.15874600  0.77606921  0.59438058  1
  O  O167  1  1.15874600  0.77606921  0.92771391  1
  O  O168  1  0.09125400  0.02606921  0.23895275  1
  O  O169  1  0.09125400  0.02606921  0.57228609  1
  O  O170  1  0.09125400  0.02606921  0.90561942  1
  O  O171  1  0.09125400  0.52606921  0.23895275  1
  O  O172  1  0.09125400  0.52606921  0.57228609  1
  O  O173  1  0.09125400  0.52606921  0.90561942  1
  O  O174  1  0.59125400  0.02606921  0.23895275  1
  O  O175  1  0.59125400  0.02606921  0.57228609  1
  O  O176  1  0.59125400  0.02606921  0.90561942  1
  O  O177  1  0.59125400  0.52606921  0.23895275  1
  O  O178  1  0.59125400  0.52606921  0.57228609  1
  O  O179  1  0.59125400  0.52606921  0.90561942  1
  O  O180  1  0.34125400  0.27606921  0.23895275  1
  O  O181  1  0.34125400  0.27606921  0.57228609  1
  O  O182  1  0.34125400  0.27606921  0.90561942  1
  O  O183  1  0.34125400  0.77606921  0.23895275  1
  O  O184  1  0.34125400  0.77606921  0.57228609  1
  O  O185  1  0.34125400  0.77606921  0.90561942  1
  O  O186  1  0.84125400  0.27606921  0.23895275  1
  O  O187  1  0.84125400  0.27606921  0.57228609  1
  O  O188  1  0.84125400  0.27606921  0.90561942  1
  O  O189  1  0.84125400  0.77606921  0.23895275  1
  O  O190  1  0.84125400  0.77606921  0.57228609  1
  O  O191  1  0.84125400  0.77606921  0.90561942  1
