# generated using pymatgen
data_BaGa2B2O7
_symmetry_space_group_name_H-M   'P 1'
_cell_length_a   11.74181667
_cell_length_b   8.71362279
_cell_length_c   11.59961362
_cell_angle_alpha   90.00000000
_cell_angle_beta   90.00000000
_cell_angle_gamma   90.00000000
_symmetry_Int_Tables_number   1
_chemical_formula_structural   BaGa2B2O7
_chemical_formula_sum   'Ba8 Ga16 B16 O56'
_cell_volume   1186.80009927
_cell_formula_units_Z   8
loop_
 _symmetry_equiv_pos_site_id
 _symmetry_equiv_pos_as_xyz
  1  'x, y, z'
loop_
 _atom_site_type_symbol
 _atom_site_label
 _atom_site_symmetry_multiplicity
 _atom_site_fract_x
 _atom_site_fract_y
 _atom_site_fract_z
 _atom_site_occupancy
  Ba  Ba0  1  0.50000000  0.30607892  0.12500000  1
  Ba  Ba1  1  0.50000000  0.30607892  0.62500000  1
  Ba  Ba2  1  1.00000000  0.80607892  0.12500000  1
  Ba  Ba3  1  1.00000000  0.80607892  0.62500000  1
  Ba  Ba4  1  0.50000000  -0.30607892  0.37500000  1
  Ba  Ba5  1  0.50000000  -0.30607892  0.87500000  1
  Ba  Ba6  1  1.00000000  0.19392108  0.37500000  1
  Ba  Ba7  1  1.00000000  0.19392108  0.87500000  1
  Ga  Ga8  1  0.79103963  0.08112184  0.12500000  1
  Ga  Ga9  1  0.79103963  0.08112184  0.62500000  1
  Ga  Ga10  1  1.29103963  0.58112184  0.12500000  1
  Ga  Ga11  1  1.29103963  0.58112184  0.62500000  1
  Ga  Ga12  1  0.79103963  -0.08112184  0.37500000  1
  Ga  Ga13  1  0.79103963  -0.08112184  0.87500000  1
  Ga  Ga14  1  1.29103963  0.41887816  0.37500000  1
  Ga  Ga15  1  1.29103963  0.41887816  0.87500000  1
  Ga  Ga16  1  0.20896037  0.08112184  0.12500000  1
  Ga  Ga17  1  0.20896037  0.08112184  0.62500000  1
  Ga  Ga18  1  0.70896037  0.58112184  0.12500000  1
  Ga  Ga19  1  0.70896037  0.58112184  0.62500000  1
  Ga  Ga20  1  0.20896037  -0.08112184  0.37500000  1
  Ga  Ga21  1  0.20896037  -0.08112184  0.87500000  1
  Ga  Ga22  1  0.70896037  0.41887816  0.37500000  1
  Ga  Ga23  1  0.70896037  0.41887816  0.87500000  1
  B  B24  1  0.38879195  0.10619557  0.37500000  1
  B  B25  1  0.38879195  0.10619557  0.87500000  1
  B  B26  1  0.88879195  0.60619557  0.37500000  1
  B  B27  1  0.88879195  0.60619557  0.87500000  1
  B  B28  1  0.61120805  -0.10619557  0.12500000  1
  B  B29  1  0.61120805  -0.10619557  0.62500000  1
  B  B30  1  1.11120805  0.39380443  0.12500000  1
  B  B31  1  1.11120805  0.39380443  0.62500000  1
  B  B32  1  0.38879195  -0.10619557  0.12500000  1
  B  B33  1  0.38879195  -0.10619557  0.62500000  1
  B  B34  1  0.88879195  0.39380443  0.12500000  1
  B  B35  1  0.88879195  0.39380443  0.62500000  1
  B  B36  1  0.61120805  0.10619557  0.37500000  1
  B  B37  1  0.61120805  0.10619557  0.87500000  1
  B  B38  1  1.11120805  0.60619557  0.37500000  1
  B  B39  1  1.11120805  0.60619557  0.87500000  1
  O  O40  1  0.86715691  0.00000000  0.25000000  1
  O  O41  1  0.86715691  0.00000000  0.75000000  1
  O  O42  1  1.36715691  0.50000000  0.25000000  1
  O  O43  1  1.36715691  0.50000000  0.75000000  1
  O  O44  1  0.50000000  -0.16656790  0.12500000  1
  O  O45  1  0.50000000  -0.16656790  0.62500000  1
  O  O46  1  1.00000000  0.33343210  0.12500000  1
  O  O47  1  1.00000000  0.33343210  0.62500000  1
  O  O48  1  0.13284309  -0.00000000  0.00000000  1
  O  O49  1  0.13284309  -0.00000000  0.50000000  1
  O  O50  1  0.63284309  0.50000000  0.00000000  1
  O  O51  1  0.63284309  0.50000000  0.50000000  1
  O  O52  1  0.63299999  0.04877930  0.12500000  1
  O  O53  1  0.63299999  0.04877930  0.62500000  1
  O  O54  1  1.13299999  0.54877930  0.12500000  1
  O  O55  1  1.13299999  0.54877930  0.62500000  1
  O  O56  1  0.13284309  -0.00000000  0.25000000  1
  O  O57  1  0.13284309  -0.00000000  0.75000000  1
  O  O58  1  0.63284309  0.50000000  0.25000000  1
  O  O59  1  0.63284309  0.50000000  0.75000000  1
  O  O60  1  0.86715691  0.00000000  0.00000000  1
  O  O61  1  0.86715691  0.00000000  0.50000000  1
  O  O62  1  1.36715691  0.50000000  0.00000000  1
  O  O63  1  1.36715691  0.50000000  0.50000000  1
  O  O64  1  0.50000000  0.16656790  0.37500000  1
  O  O65  1  0.50000000  0.16656790  0.87500000  1
  O  O66  1  1.00000000  0.66656790  0.37500000  1
  O  O67  1  1.00000000  0.66656790  0.87500000  1
  O  O68  1  0.69956468  0.20707117  0.37500000  1
  O  O69  1  0.69956468  0.20707117  0.87500000  1
  O  O70  1  1.19956468  0.70707117  0.37500000  1
  O  O71  1  1.19956468  0.70707117  0.87500000  1
  O  O72  1  0.36700001  -0.04877930  0.37500000  1
  O  O73  1  0.36700001  -0.04877930  0.87500000  1
  O  O74  1  0.86700001  0.45122070  0.37500000  1
  O  O75  1  0.86700001  0.45122070  0.87500000  1
  O  O76  1  0.69956468  -0.20707117  0.12500000  1
  O  O77  1  0.69956468  -0.20707117  0.62500000  1
  O  O78  1  1.19956468  0.29292883  0.12500000  1
  O  O79  1  1.19956468  0.29292883  0.62500000  1
  O  O80  1  0.30043532  -0.20707117  0.12500000  1
  O  O81  1  0.30043532  -0.20707117  0.62500000  1
  O  O82  1  0.80043532  0.29292883  0.12500000  1
  O  O83  1  0.80043532  0.29292883  0.62500000  1
  O  O84  1  0.36700001  0.04877930  0.12500000  1
  O  O85  1  0.36700001  0.04877930  0.62500000  1
  O  O86  1  0.86700001  0.54877930  0.12500000  1
  O  O87  1  0.86700001  0.54877930  0.62500000  1
  O  O88  1  0.63299999  -0.04877930  0.37500000  1
  O  O89  1  0.63299999  -0.04877930  0.87500000  1
  O  O90  1  1.13299999  0.45122070  0.37500000  1
  O  O91  1  1.13299999  0.45122070  0.87500000  1
  O  O92  1  0.30043532  0.20707117  0.37500000  1
  O  O93  1  0.30043532  0.20707117  0.87500000  1
  O  O94  1  0.80043532  0.70707117  0.37500000  1
  O  O95  1  0.80043532  0.70707117  0.87500000  1
