# generated using pymatgen
data_Sr3MgPtO6
_symmetry_space_group_name_H-M   'P 1'
_cell_length_a   9.58244012
_cell_length_b   9.58244012
_cell_length_c   11.10771319
_cell_angle_alpha   90.00000000
_cell_angle_beta   90.00000000
_cell_angle_gamma   120.00000000
_symmetry_Int_Tables_number   1
_chemical_formula_structural   Sr3MgPtO6
_chemical_formula_sum   'Sr18 Mg6 Pt6 O36'
_cell_volume   883.29854866
_cell_formula_units_Z   6
loop_
 _symmetry_equiv_pos_site_id
 _symmetry_equiv_pos_as_xyz
  1  'x, y, z'
loop_
 _atom_site_type_symbol
 _atom_site_label
 _atom_site_symmetry_multiplicity
 _atom_site_fract_x
 _atom_site_fract_y
 _atom_site_fract_z
 _atom_site_occupancy
  Sr  Sr0  1  -0.33333333  -0.03191559  0.58333333  1
  Sr  Sr1  1  0.33333333  0.30141774  0.91666667  1
  Sr  Sr2  1  -0.00000000  0.63475107  1.25000000  1
  Sr  Sr3  1  0.03191559  -0.30141774  0.58333333  1
  Sr  Sr4  1  0.69858226  0.03191559  0.91666667  1
  Sr  Sr5  1  0.36524893  0.36524893  1.25000000  1
  Sr  Sr6  1  -0.30141774  -0.33333333  0.41666667  1
  Sr  Sr7  1  0.36524893  0.00000000  0.75000000  1
  Sr  Sr8  1  0.03191559  0.33333333  1.08333333  1
  Sr  Sr9  1  0.33333333  0.03191559  0.41666667  1
  Sr  Sr10  1  1.00000000  0.36524893  0.75000000  1
  Sr  Sr11  1  0.66666667  0.69858226  1.08333333  1
  Sr  Sr12  1  -0.03191559  0.30141774  0.41666667  1
  Sr  Sr13  1  0.63475107  0.63475107  0.75000000  1
  Sr  Sr14  1  0.30141774  0.96808441  1.08333333  1
  Sr  Sr15  1  0.30141774  0.33333333  0.58333333  1
  Sr  Sr16  1  0.96808441  0.66666667  0.91666667  1
  Sr  Sr17  1  0.63475107  1.00000000  1.25000000  1
  Mg  Mg18  1  -0.00000000  -0.00000000  0.25000000  1
  Mg  Mg19  1  0.66666667  0.33333333  0.58333333  1
  Mg  Mg20  1  0.33333333  0.66666667  0.91666667  1
  Mg  Mg21  1  0.00000000  0.00000000  0.75000000  1
  Mg  Mg22  1  0.66666667  0.33333333  1.08333333  1
  Mg  Mg23  1  0.33333333  0.66666667  1.41666667  1
  Pt  Pt24  1  -0.00000000  -0.00000000  -0.00000000  1
  Pt  Pt25  1  0.66666667  0.33333333  0.33333333  1
  Pt  Pt26  1  0.33333333  0.66666667  0.66666667  1
  Pt  Pt27  1  -0.00000000  -0.00000000  0.50000000  1
  Pt  Pt28  1  0.66666667  0.33333333  0.83333333  1
  Pt  Pt29  1  0.33333333  0.66666667  1.16666667  1
  O  O30  1  0.17280923  0.02088936  0.61578251  1
  O  O31  1  0.83947590  0.35422269  0.94911584  1
  O  O32  1  0.50614257  0.68755603  1.28244917  1
  O  O33  1  -0.02088936  0.15191988  0.61578251  1
  O  O34  1  0.64577731  0.48525321  0.94911584  1
  O  O35  1  0.31244397  0.81858654  1.28244917  1
  O  O36  1  -0.15191988  -0.17280923  0.61578251  1
  O  O37  1  0.51474679  0.16052410  0.94911584  1
  O  O38  1  0.18141346  0.49385743  1.28244917  1
  O  O39  1  -0.51474679  -0.35422269  0.55088416  1
  O  O40  1  0.15191988  -0.02088936  0.88421749  1
  O  O41  1  -0.18141346  0.31244397  1.21755083  1
  O  O42  1  0.35422269  -0.16052410  0.55088416  1
  O  O43  1  1.02088936  0.17280923  0.88421749  1
  O  O44  1  0.68755603  0.50614257  1.21755083  1
  O  O45  1  0.16052410  0.51474679  0.55088416  1
  O  O46  1  0.82719077  0.84808012  0.88421749  1
  O  O47  1  0.49385743  1.18141346  1.21755083  1
  O  O48  1  -0.17280923  -0.02088936  0.38421749  1
  O  O49  1  0.49385743  0.31244397  0.71755083  1
  O  O50  1  0.16052410  0.64577731  1.05088416  1
  O  O51  1  0.02088936  -0.15191988  0.38421749  1
  O  O52  1  0.68755603  0.18141346  0.71755083  1
  O  O53  1  0.35422269  0.51474679  1.05088416  1
  O  O54  1  0.15191988  0.17280923  0.38421749  1
  O  O55  1  0.81858654  0.50614257  0.71755083  1
  O  O56  1  0.48525321  0.83947590  1.05088416  1
  O  O57  1  0.51474679  0.35422269  0.44911584  1
  O  O58  1  1.18141346  0.68755603  0.78244917  1
  O  O59  1  0.84808012  1.02088936  1.11578251  1
  O  O60  1  -0.16052410  -0.51474679  0.44911584  1
  O  O61  1  0.50614257  -0.18141346  0.78244917  1
  O  O62  1  0.17280923  0.15191988  1.11578251  1
  O  O63  1  -0.35422269  0.16052410  0.44911584  1
  O  O64  1  0.31244397  0.49385743  0.78244917  1
  O  O65  1  -0.02088936  0.82719077  1.11578251  1
