# generated using pymatgen
data_Ba2TiO4
_symmetry_space_group_name_H-M   'P 1'
_cell_length_a   12.29811925
_cell_length_b   15.35885672
_cell_length_c   11.79576539
_cell_angle_alpha   90.00000000
_cell_angle_beta   117.16888030
_cell_angle_gamma   90.00000000
_symmetry_Int_Tables_number   1
_chemical_formula_structural   Ba2TiO4
_chemical_formula_sum   'Ba32 Ti16 O64'
_cell_volume   1982.21145658
_cell_formula_units_Z   16
loop_
 _symmetry_equiv_pos_site_id
 _symmetry_equiv_pos_as_xyz
  1  'x, y, z'
loop_
 _atom_site_type_symbol
 _atom_site_label
 _atom_site_symmetry_multiplicity
 _atom_site_fract_x
 _atom_site_fract_y
 _atom_site_fract_z
 _atom_site_occupancy
  Ba  Ba0  1  0.48828663  0.49978542  0.69798873  1
  Ba  Ba1  1  0.48828663  0.99978542  0.69798873  1
  Ba  Ba2  1  0.98828663  0.49978542  0.69798873  1
  Ba  Ba3  1  0.98828663  0.99978542  0.69798873  1
  Ba  Ba4  1  0.01171337  0.24978542  0.80201127  1
  Ba  Ba5  1  0.01171337  0.74978542  0.80201127  1
  Ba  Ba6  1  0.51171337  0.24978542  0.80201127  1
  Ba  Ba7  1  0.51171337  0.74978542  0.80201127  1
  Ba  Ba8  1  0.01171337  0.00021458  0.30201127  1
  Ba  Ba9  1  0.01171337  0.50021458  0.30201127  1
  Ba  Ba10  1  0.51171337  0.00021458  0.30201127  1
  Ba  Ba11  1  0.51171337  0.50021458  0.30201127  1
  Ba  Ba12  1  0.48828663  0.25021458  0.19798873  1
  Ba  Ba13  1  0.48828663  0.75021458  0.19798873  1
  Ba  Ba14  1  0.98828663  0.25021458  0.19798873  1
  Ba  Ba15  1  0.98828663  0.75021458  0.19798873  1
  Ba  Ba16  1  0.15245896  0.32845777  0.57375722  1
  Ba  Ba17  1  0.15245896  0.82845777  0.57375722  1
  Ba  Ba18  1  0.65245896  0.32845777  0.57375722  1
  Ba  Ba19  1  0.65245896  0.82845777  0.57375722  1
  Ba  Ba20  1  0.34754104  0.07845777  0.92624278  1
  Ba  Ba21  1  0.34754104  0.57845777  0.92624278  1
  Ba  Ba22  1  0.84754104  0.07845777  0.92624278  1
  Ba  Ba23  1  0.84754104  0.57845777  0.92624278  1
  Ba  Ba24  1  0.34754104  0.17154223  0.42624278  1
  Ba  Ba25  1  0.34754104  0.67154223  0.42624278  1
  Ba  Ba26  1  0.84754104  0.17154223  0.42624278  1
  Ba  Ba27  1  0.84754104  0.67154223  0.42624278  1
  Ba  Ba28  1  0.15245896  0.42154223  0.07375722  1
  Ba  Ba29  1  0.15245896  0.92154223  0.07375722  1
  Ba  Ba30  1  0.65245896  0.42154223  0.07375722  1
  Ba  Ba31  1  0.65245896  0.92154223  0.07375722  1
  Ti  Ti32  1  0.17190085  0.11025681  0.58276025  1
  Ti  Ti33  1  0.17190085  0.61025681  0.58276025  1
  Ti  Ti34  1  0.67190085  0.11025681  0.58276025  1
  Ti  Ti35  1  0.67190085  0.61025681  0.58276025  1
  Ti  Ti36  1  0.32809915  0.36025681  0.91723975  1
  Ti  Ti37  1  0.32809915  0.86025681  0.91723975  1
  Ti  Ti38  1  0.82809915  0.36025681  0.91723975  1
  Ti  Ti39  1  0.82809915  0.86025681  0.91723975  1
  Ti  Ti40  1  0.32809915  0.38974319  0.41723975  1
  Ti  Ti41  1  0.32809915  0.88974319  0.41723975  1
  Ti  Ti42  1  0.82809915  0.38974319  0.41723975  1
  Ti  Ti43  1  0.82809915  0.88974319  0.41723975  1
  Ti  Ti44  1  0.17190085  0.13974319  0.08276025  1
  Ti  Ti45  1  0.17190085  0.63974319  0.08276025  1
  Ti  Ti46  1  0.67190085  0.13974319  0.08276025  1
  Ti  Ti47  1  0.67190085  0.63974319  0.08276025  1
  O  O48  1  0.13046511  0.15973960  0.42567343  1
  O  O49  1  0.13046511  0.65973960  0.42567343  1
  O  O50  1  0.63046511  0.15973960  0.42567343  1
  O  O51  1  0.63046511  0.65973960  0.42567343  1
  O  O52  1  0.36953489  0.40973960  0.07432657  1
  O  O53  1  0.36953489  0.90973960  0.07432657  1
  O  O54  1  0.86953489  0.40973960  0.07432657  1
  O  O55  1  0.86953489  0.90973960  0.07432657  1
  O  O56  1  0.36953489  0.34026040  0.57432657  1
  O  O57  1  0.36953489  0.84026040  0.57432657  1
  O  O58  1  0.86953489  0.34026040  0.57432657  1
  O  O59  1  0.86953489  0.84026040  0.57432657  1
  O  O60  1  0.13046511  0.09026040  0.92567343  1
  O  O61  1  0.13046511  0.59026040  0.92567343  1
  O  O62  1  0.63046511  0.09026040  0.92567343  1
  O  O63  1  0.63046511  0.59026040  0.92567343  1
  O  O64  1  0.06972699  0.16413717  0.63680735  1
  O  O65  1  0.06972699  0.66413717  0.63680735  1
  O  O66  1  0.56972699  0.16413717  0.63680735  1
  O  O67  1  0.56972699  0.66413717  0.63680735  1
  O  O68  1  0.43027301  0.41413717  0.86319265  1
  O  O69  1  0.43027301  0.91413717  0.86319265  1
  O  O70  1  0.93027301  0.41413717  0.86319265  1
  O  O71  1  0.93027301  0.91413717  0.86319265  1
  O  O72  1  0.43027301  0.33586283  0.36319265  1
  O  O73  1  0.43027301  0.83586283  0.36319265  1
  O  O74  1  0.93027301  0.33586283  0.36319265  1
  O  O75  1  0.93027301  0.83586283  0.36319265  1
  O  O76  1  0.06972699  0.08586283  0.13680735  1
  O  O77  1  0.06972699  0.58586283  0.13680735  1
  O  O78  1  0.56972699  0.08586283  0.13680735  1
  O  O79  1  0.56972699  0.58586283  0.13680735  1
  O  O80  1  0.33477034  0.12958324  0.68999687  1
  O  O81  1  0.33477034  0.62958324  0.68999687  1
  O  O82  1  0.83477034  0.12958324  0.68999687  1
  O  O83  1  0.83477034  0.62958324  0.68999687  1
  O  O84  1  0.16522966  0.37958324  0.81000313  1
  O  O85  1  0.16522966  0.87958324  0.81000313  1
  O  O86  1  0.66522966  0.37958324  0.81000313  1
  O  O87  1  0.66522966  0.87958324  0.81000313  1
  O  O88  1  0.16522966  0.37041676  0.31000313  1
  O  O89  1  0.16522966  0.87041676  0.31000313  1
  O  O90  1  0.66522966  0.37041676  0.31000313  1
  O  O91  1  0.66522966  0.87041676  0.31000313  1
  O  O92  1  0.33477034  0.12041676  0.18999687  1
  O  O93  1  0.33477034  0.62041676  0.18999687  1
  O  O94  1  0.83477034  0.12041676  0.18999687  1
  O  O95  1  0.83477034  0.62041676  0.18999687  1
  O  O96  1  0.36268589  0.00531792  0.43458492  1
  O  O97  1  0.36268589  0.50531792  0.43458492  1
  O  O98  1  0.86268589  0.00531792  0.43458492  1
  O  O99  1  0.86268589  0.50531792  0.43458492  1
  O  O100  1  0.13731411  0.25531792  0.06541508  1
  O  O101  1  0.13731411  0.75531792  0.06541508  1
  O  O102  1  0.63731411  0.25531792  0.06541508  1
  O  O103  1  0.63731411  0.75531792  0.06541508  1
  O  O104  1  0.13731411  0.49468208  0.56541508  1
  O  O105  1  0.13731411  0.99468208  0.56541508  1
  O  O106  1  0.63731411  0.49468208  0.56541508  1
  O  O107  1  0.63731411  0.99468208  0.56541508  1
  O  O108  1  0.36268589  0.24468208  0.93458492  1
  O  O109  1  0.36268589  0.74468208  0.93458492  1
  O  O110  1  0.86268589  0.24468208  0.93458492  1
  O  O111  1  0.86268589  0.74468208  0.93458492  1
