# generated using pymatgen
data_K3AuO
_symmetry_space_group_name_H-M   'P 1'
_cell_length_a   15.76778248
_cell_length_b   15.76778248
_cell_length_c   15.76778248
_cell_angle_alpha   90.00000000
_cell_angle_beta   90.00000000
_cell_angle_gamma   90.00000000
_symmetry_Int_Tables_number   1
_chemical_formula_structural   K3AuO
_chemical_formula_sum   'K81 Au27 O27'
_cell_volume   3920.23281871
_cell_formula_units_Z   27
loop_
 _symmetry_equiv_pos_site_id
 _symmetry_equiv_pos_as_xyz
  1  'x, y, z'
loop_
 _atom_site_type_symbol
 _atom_site_label
 _atom_site_symmetry_multiplicity
 _atom_site_fract_x
 _atom_site_fract_y
 _atom_site_fract_z
 _atom_site_occupancy
  K  K0  1  0.00000000  0.16666667  0.16666667  1
  K  K1  1  0.00000000  0.16666667  0.50000000  1
  K  K2  1  0.00000000  0.16666667  0.83333333  1
  K  K3  1  0.00000000  0.50000000  0.16666667  1
  K  K4  1  0.00000000  0.50000000  0.50000000  1
  K  K5  1  0.00000000  0.50000000  0.83333333  1
  K  K6  1  0.00000000  0.83333333  0.16666667  1
  K  K7  1  0.00000000  0.83333333  0.50000000  1
  K  K8  1  0.00000000  0.83333333  0.83333333  1
  K  K9  1  0.33333333  0.16666667  0.16666667  1
  K  K10  1  0.33333333  0.16666667  0.50000000  1
  K  K11  1  0.33333333  0.16666667  0.83333333  1
  K  K12  1  0.33333333  0.50000000  0.16666667  1
  K  K13  1  0.33333333  0.50000000  0.50000000  1
  K  K14  1  0.33333333  0.50000000  0.83333333  1
  K  K15  1  0.33333333  0.83333333  0.16666667  1
  K  K16  1  0.33333333  0.83333333  0.50000000  1
  K  K17  1  0.33333333  0.83333333  0.83333333  1
  K  K18  1  0.66666667  0.16666667  0.16666667  1
  K  K19  1  0.66666667  0.16666667  0.50000000  1
  K  K20  1  0.66666667  0.16666667  0.83333333  1
  K  K21  1  0.66666667  0.50000000  0.16666667  1
  K  K22  1  0.66666667  0.50000000  0.50000000  1
  K  K23  1  0.66666667  0.50000000  0.83333333  1
  K  K24  1  0.66666667  0.83333333  0.16666667  1
  K  K25  1  0.66666667  0.83333333  0.50000000  1
  K  K26  1  0.66666667  0.83333333  0.83333333  1
  K  K27  1  0.16666667  0.16666667  0.00000000  1
  K  K28  1  0.16666667  0.16666667  0.33333333  1
  K  K29  1  0.16666667  0.16666667  0.66666667  1
  K  K30  1  0.16666667  0.50000000  0.00000000  1
  K  K31  1  0.16666667  0.50000000  0.33333333  1
  K  K32  1  0.16666667  0.50000000  0.66666667  1
  K  K33  1  0.16666667  0.83333333  0.00000000  1
  K  K34  1  0.16666667  0.83333333  0.33333333  1
  K  K35  1  0.16666667  0.83333333  0.66666667  1
  K  K36  1  0.50000000  0.16666667  0.00000000  1
  K  K37  1  0.50000000  0.16666667  0.33333333  1
  K  K38  1  0.50000000  0.16666667  0.66666667  1
  K  K39  1  0.50000000  0.50000000  0.00000000  1
  K  K40  1  0.50000000  0.50000000  0.33333333  1
  K  K41  1  0.50000000  0.50000000  0.66666667  1
  K  K42  1  0.50000000  0.83333333  0.00000000  1
  K  K43  1  0.50000000  0.83333333  0.33333333  1
  K  K44  1  0.50000000  0.83333333  0.66666667  1
  K  K45  1  0.83333333  0.16666667  0.00000000  1
  K  K46  1  0.83333333  0.16666667  0.33333333  1
  K  K47  1  0.83333333  0.16666667  0.66666667  1
  K  K48  1  0.83333333  0.50000000  0.00000000  1
  K  K49  1  0.83333333  0.50000000  0.33333333  1
  K  K50  1  0.83333333  0.50000000  0.66666667  1
  K  K51  1  0.83333333  0.83333333  0.00000000  1
  K  K52  1  0.83333333  0.83333333  0.33333333  1
  K  K53  1  0.83333333  0.83333333  0.66666667  1
  K  K54  1  0.16666667  0.00000000  0.16666667  1
  K  K55  1  0.16666667  0.00000000  0.50000000  1
  K  K56  1  0.16666667  0.00000000  0.83333333  1
  K  K57  1  0.16666667  0.33333333  0.16666667  1
  K  K58  1  0.16666667  0.33333333  0.50000000  1
  K  K59  1  0.16666667  0.33333333  0.83333333  1
  K  K60  1  0.16666667  0.66666667  0.16666667  1
  K  K61  1  0.16666667  0.66666667  0.50000000  1
  K  K62  1  0.16666667  0.66666667  0.83333333  1
  K  K63  1  0.50000000  0.00000000  0.16666667  1
  K  K64  1  0.50000000  0.00000000  0.50000000  1
  K  K65  1  0.50000000  0.00000000  0.83333333  1
  K  K66  1  0.50000000  0.33333333  0.16666667  1
  K  K67  1  0.50000000  0.33333333  0.50000000  1
  K  K68  1  0.50000000  0.33333333  0.83333333  1
  K  K69  1  0.50000000  0.66666667  0.16666667  1
  K  K70  1  0.50000000  0.66666667  0.50000000  1
  K  K71  1  0.50000000  0.66666667  0.83333333  1
  K  K72  1  0.83333333  0.00000000  0.16666667  1
  K  K73  1  0.83333333  0.00000000  0.50000000  1
  K  K74  1  0.83333333  0.00000000  0.83333333  1
  K  K75  1  0.83333333  0.33333333  0.16666667  1
  K  K76  1  0.83333333  0.33333333  0.50000000  1
  K  K77  1  0.83333333  0.33333333  0.83333333  1
  K  K78  1  0.83333333  0.66666667  0.16666667  1
  K  K79  1  0.83333333  0.66666667  0.50000000  1
  K  K80  1  0.83333333  0.66666667  0.83333333  1
  Au  Au81  1  0.00000000  0.00000000  0.00000000  1
  Au  Au82  1  0.00000000  0.00000000  0.33333333  1
  Au  Au83  1  0.00000000  0.00000000  0.66666667  1
  Au  Au84  1  0.00000000  0.33333333  0.00000000  1
  Au  Au85  1  0.00000000  0.33333333  0.33333333  1
  Au  Au86  1  0.00000000  0.33333333  0.66666667  1
  Au  Au87  1  0.00000000  0.66666667  0.00000000  1
  Au  Au88  1  0.00000000  0.66666667  0.33333333  1
  Au  Au89  1  0.00000000  0.66666667  0.66666667  1
  Au  Au90  1  0.33333333  0.00000000  0.00000000  1
  Au  Au91  1  0.33333333  0.00000000  0.33333333  1
  Au  Au92  1  0.33333333  0.00000000  0.66666667  1
  Au  Au93  1  0.33333333  0.33333333  0.00000000  1
  Au  Au94  1  0.33333333  0.33333333  0.33333333  1
  Au  Au95  1  0.33333333  0.33333333  0.66666667  1
  Au  Au96  1  0.33333333  0.66666667  0.00000000  1
  Au  Au97  1  0.33333333  0.66666667  0.33333333  1
  Au  Au98  1  0.33333333  0.66666667  0.66666667  1
  Au  Au99  1  0.66666667  0.00000000  0.00000000  1
  Au  Au100  1  0.66666667  0.00000000  0.33333333  1
  Au  Au101  1  0.66666667  0.00000000  0.66666667  1
  Au  Au102  1  0.66666667  0.33333333  0.00000000  1
  Au  Au103  1  0.66666667  0.33333333  0.33333333  1
  Au  Au104  1  0.66666667  0.33333333  0.66666667  1
  Au  Au105  1  0.66666667  0.66666667  0.00000000  1
  Au  Au106  1  0.66666667  0.66666667  0.33333333  1
  Au  Au107  1  0.66666667  0.66666667  0.66666667  1
  O  O108  1  0.16666667  0.16666667  0.16666667  1
  O  O109  1  0.16666667  0.16666667  0.50000000  1
  O  O110  1  0.16666667  0.16666667  0.83333333  1
  O  O111  1  0.16666667  0.50000000  0.16666667  1
  O  O112  1  0.16666667  0.50000000  0.50000000  1
  O  O113  1  0.16666667  0.50000000  0.83333333  1
  O  O114  1  0.16666667  0.83333333  0.16666667  1
  O  O115  1  0.16666667  0.83333333  0.50000000  1
  O  O116  1  0.16666667  0.83333333  0.83333333  1
  O  O117  1  0.50000000  0.16666667  0.16666667  1
  O  O118  1  0.50000000  0.16666667  0.50000000  1
  O  O119  1  0.50000000  0.16666667  0.83333333  1
  O  O120  1  0.50000000  0.50000000  0.16666667  1
  O  O121  1  0.50000000  0.50000000  0.50000000  1
  O  O122  1  0.50000000  0.50000000  0.83333333  1
  O  O123  1  0.50000000  0.83333333  0.16666667  1
  O  O124  1  0.50000000  0.83333333  0.50000000  1
  O  O125  1  0.50000000  0.83333333  0.83333333  1
  O  O126  1  0.83333333  0.16666667  0.16666667  1
  O  O127  1  0.83333333  0.16666667  0.50000000  1
  O  O128  1  0.83333333  0.16666667  0.83333333  1
  O  O129  1  0.83333333  0.50000000  0.16666667  1
  O  O130  1  0.83333333  0.50000000  0.50000000  1
  O  O131  1  0.83333333  0.50000000  0.83333333  1
  O  O132  1  0.83333333  0.83333333  0.16666667  1
  O  O133  1  0.83333333  0.83333333  0.50000000  1
  O  O134  1  0.83333333  0.83333333  0.83333333  1
