# generated using pymatgen
data_Na2PtO2
_symmetry_space_group_name_H-M   'P 1'
_cell_length_a   9.40311975
_cell_length_b   9.07270880
_cell_length_c   9.33899615
_cell_angle_alpha   90.00000000
_cell_angle_beta   90.00000000
_cell_angle_gamma   90.00000000
_symmetry_Int_Tables_number   1
_chemical_formula_structural   Na2PtO2
_chemical_formula_sum   'Na24 Pt12 O24'
_cell_volume   796.72626677
_cell_formula_units_Z   12
loop_
 _symmetry_equiv_pos_site_id
 _symmetry_equiv_pos_as_xyz
  1  'x, y, z'
loop_
 _atom_site_type_symbol
 _atom_site_label
 _atom_site_symmetry_multiplicity
 _atom_site_fract_x
 _atom_site_fract_y
 _atom_site_fract_z
 _atom_site_occupancy
  Na  Na0  1  0.00000000  0.00000000  0.67622847  1
  Na  Na1  1  0.00000000  0.50000000  0.67622847  1
  Na  Na2  1  0.33333333  0.00000000  0.67622847  1
  Na  Na3  1  0.33333333  0.50000000  0.67622847  1
  Na  Na4  1  0.66666667  0.00000000  0.67622847  1
  Na  Na5  1  0.66666667  0.50000000  0.67622847  1
  Na  Na6  1  0.16666667  0.25000000  1.17622847  1
  Na  Na7  1  0.16666667  0.75000000  1.17622847  1
  Na  Na8  1  0.50000000  0.25000000  1.17622847  1
  Na  Na9  1  0.50000000  0.75000000  1.17622847  1
  Na  Na10  1  0.83333333  0.25000000  1.17622847  1
  Na  Na11  1  0.83333333  0.75000000  1.17622847  1
  Na  Na12  1  -0.00000000  0.00000000  0.32377153  1
  Na  Na13  1  -0.00000000  0.50000000  0.32377153  1
  Na  Na14  1  0.33333333  0.00000000  0.32377153  1
  Na  Na15  1  0.33333333  0.50000000  0.32377153  1
  Na  Na16  1  0.66666667  0.00000000  0.32377153  1
  Na  Na17  1  0.66666667  0.50000000  0.32377153  1
  Na  Na18  1  0.16666667  0.25000000  0.82377153  1
  Na  Na19  1  0.16666667  0.75000000  0.82377153  1
  Na  Na20  1  0.50000000  0.25000000  0.82377153  1
  Na  Na21  1  0.50000000  0.75000000  0.82377153  1
  Na  Na22  1  0.83333333  0.25000000  0.82377153  1
  Na  Na23  1  0.83333333  0.75000000  0.82377153  1
  Pt  Pt24  1  0.00000000  0.00000000  0.00000000  1
  Pt  Pt25  1  0.00000000  0.50000000  0.00000000  1
  Pt  Pt26  1  0.33333333  0.00000000  0.00000000  1
  Pt  Pt27  1  0.33333333  0.50000000  0.00000000  1
  Pt  Pt28  1  0.66666667  0.00000000  0.00000000  1
  Pt  Pt29  1  0.66666667  0.50000000  0.00000000  1
  Pt  Pt30  1  0.16666667  0.25000000  0.50000000  1
  Pt  Pt31  1  0.16666667  0.75000000  0.50000000  1
  Pt  Pt32  1  0.50000000  0.25000000  0.50000000  1
  Pt  Pt33  1  0.50000000  0.75000000  0.50000000  1
  Pt  Pt34  1  0.83333333  0.25000000  0.50000000  1
  Pt  Pt35  1  0.83333333  0.75000000  0.50000000  1
  O  O36  1  0.00000000  0.25000000  0.35967583  1
  O  O37  1  0.00000000  0.75000000  0.35967583  1
  O  O38  1  0.33333333  0.25000000  0.35967583  1
  O  O39  1  0.33333333  0.75000000  0.35967583  1
  O  O40  1  0.66666667  0.25000000  0.35967583  1
  O  O41  1  0.66666667  0.75000000  0.35967583  1
  O  O42  1  0.16666667  0.50000000  0.85967583  1
  O  O43  1  0.16666667  1.00000000  0.85967583  1
  O  O44  1  0.50000000  0.50000000  0.85967583  1
  O  O45  1  0.50000000  1.00000000  0.85967583  1
  O  O46  1  0.83333333  0.50000000  0.85967583  1
  O  O47  1  0.83333333  1.00000000  0.85967583  1
  O  O48  1  0.16666667  0.00000000  0.14032417  1
  O  O49  1  0.16666667  0.50000000  0.14032417  1
  O  O50  1  0.50000000  0.00000000  0.14032417  1
  O  O51  1  0.50000000  0.50000000  0.14032417  1
  O  O52  1  0.83333333  0.00000000  0.14032417  1
  O  O53  1  0.83333333  0.50000000  0.14032417  1
  O  O54  1  0.33333333  0.25000000  0.64032417  1
  O  O55  1  0.33333333  0.75000000  0.64032417  1
  O  O56  1  0.66666667  0.25000000  0.64032417  1
  O  O57  1  0.66666667  0.75000000  0.64032417  1
  O  O58  1  1.00000000  0.25000000  0.64032417  1
  O  O59  1  1.00000000  0.75000000  0.64032417  1
