# generated using pymatgen
data_CaTaAlO5
_symmetry_space_group_name_H-M   'P 1'
_cell_length_a   20.11112931
_cell_length_b   17.85712498
_cell_length_c   14.74612981
_cell_angle_alpha   90.00000000
_cell_angle_beta   114.42885506
_cell_angle_gamma   90.00000000
_symmetry_Int_Tables_number   1
_chemical_formula_structural   CaTaAlO5
_chemical_formula_sum   'Ca48 Ta48 Al48 O240'
_cell_volume   4821.63479810
_cell_formula_units_Z   48
loop_
 _symmetry_equiv_pos_site_id
 _symmetry_equiv_pos_as_xyz
  1  'x, y, z'
loop_
 _atom_site_type_symbol
 _atom_site_label
 _atom_site_symmetry_multiplicity
 _atom_site_fract_x
 _atom_site_fract_y
 _atom_site_fract_z
 _atom_site_occupancy
  Ca  Ca0  1  0.16666667  -0.08369325  0.12500000  1
  Ca  Ca1  1  0.16666667  -0.08369325  0.62500000  1
  Ca  Ca2  1  0.16666667  0.41630675  0.12500000  1
  Ca  Ca3  1  0.16666667  0.41630675  0.62500000  1
  Ca  Ca4  1  0.50000000  -0.08369325  0.12500000  1
  Ca  Ca5  1  0.50000000  -0.08369325  0.62500000  1
  Ca  Ca6  1  0.50000000  0.41630675  0.12500000  1
  Ca  Ca7  1  0.50000000  0.41630675  0.62500000  1
  Ca  Ca8  1  0.83333333  -0.08369325  0.12500000  1
  Ca  Ca9  1  0.83333333  -0.08369325  0.62500000  1
  Ca  Ca10  1  0.83333333  0.41630675  0.12500000  1
  Ca  Ca11  1  0.83333333  0.41630675  0.62500000  1
  Ca  Ca12  1  0.33333333  0.16630675  0.12500000  1
  Ca  Ca13  1  0.33333333  0.16630675  0.62500000  1
  Ca  Ca14  1  0.33333333  0.66630675  0.12500000  1
  Ca  Ca15  1  0.33333333  0.66630675  0.62500000  1
  Ca  Ca16  1  0.66666667  0.16630675  0.12500000  1
  Ca  Ca17  1  0.66666667  0.16630675  0.62500000  1
  Ca  Ca18  1  0.66666667  0.66630675  0.12500000  1
  Ca  Ca19  1  0.66666667  0.66630675  0.62500000  1
  Ca  Ca20  1  1.00000000  0.16630675  0.12500000  1
  Ca  Ca21  1  1.00000000  0.16630675  0.62500000  1
  Ca  Ca22  1  1.00000000  0.66630675  0.12500000  1
  Ca  Ca23  1  1.00000000  0.66630675  0.62500000  1
  Ca  Ca24  1  0.16666667  0.08369325  0.37500000  1
  Ca  Ca25  1  0.16666667  0.08369325  0.87500000  1
  Ca  Ca26  1  0.16666667  0.58369325  0.37500000  1
  Ca  Ca27  1  0.16666667  0.58369325  0.87500000  1
  Ca  Ca28  1  0.50000000  0.08369325  0.37500000  1
  Ca  Ca29  1  0.50000000  0.08369325  0.87500000  1
  Ca  Ca30  1  0.50000000  0.58369325  0.37500000  1
  Ca  Ca31  1  0.50000000  0.58369325  0.87500000  1
  Ca  Ca32  1  0.83333333  0.08369325  0.37500000  1
  Ca  Ca33  1  0.83333333  0.08369325  0.87500000  1
  Ca  Ca34  1  0.83333333  0.58369325  0.37500000  1
  Ca  Ca35  1  0.83333333  0.58369325  0.87500000  1
  Ca  Ca36  1  0.33333333  0.33369325  0.37500000  1
  Ca  Ca37  1  0.33333333  0.33369325  0.87500000  1
  Ca  Ca38  1  0.33333333  0.83369325  0.37500000  1
  Ca  Ca39  1  0.33333333  0.83369325  0.87500000  1
  Ca  Ca40  1  0.66666667  0.33369325  0.37500000  1
  Ca  Ca41  1  0.66666667  0.33369325  0.87500000  1
  Ca  Ca42  1  0.66666667  0.83369325  0.37500000  1
  Ca  Ca43  1  0.66666667  0.83369325  0.87500000  1
  Ca  Ca44  1  1.00000000  0.33369325  0.37500000  1
  Ca  Ca45  1  1.00000000  0.33369325  0.87500000  1
  Ca  Ca46  1  1.00000000  0.83369325  0.37500000  1
  Ca  Ca47  1  1.00000000  0.83369325  0.87500000  1
  Ta  Ta48  1  0.00000000  -0.00000000  0.25000000  1
  Ta  Ta49  1  0.00000000  -0.00000000  0.75000000  1
  Ta  Ta50  1  0.00000000  0.50000000  0.25000000  1
  Ta  Ta51  1  0.00000000  0.50000000  0.75000000  1
  Ta  Ta52  1  0.33333333  -0.00000000  0.25000000  1
  Ta  Ta53  1  0.33333333  -0.00000000  0.75000000  1
  Ta  Ta54  1  0.33333333  0.50000000  0.25000000  1
  Ta  Ta55  1  0.33333333  0.50000000  0.75000000  1
  Ta  Ta56  1  0.66666667  -0.00000000  0.25000000  1
  Ta  Ta57  1  0.66666667  -0.00000000  0.75000000  1
  Ta  Ta58  1  0.66666667  0.50000000  0.25000000  1
  Ta  Ta59  1  0.66666667  0.50000000  0.75000000  1
  Ta  Ta60  1  0.16666667  0.25000000  0.25000000  1
  Ta  Ta61  1  0.16666667  0.25000000  0.75000000  1
  Ta  Ta62  1  0.16666667  0.75000000  0.25000000  1
  Ta  Ta63  1  0.16666667  0.75000000  0.75000000  1
  Ta  Ta64  1  0.50000000  0.25000000  0.25000000  1
  Ta  Ta65  1  0.50000000  0.25000000  0.75000000  1
  Ta  Ta66  1  0.50000000  0.75000000  0.25000000  1
  Ta  Ta67  1  0.50000000  0.75000000  0.75000000  1
  Ta  Ta68  1  0.83333333  0.25000000  0.25000000  1
  Ta  Ta69  1  0.83333333  0.25000000  0.75000000  1
  Ta  Ta70  1  0.83333333  0.75000000  0.25000000  1
  Ta  Ta71  1  0.83333333  0.75000000  0.75000000  1
  Ta  Ta72  1  0.00000000  0.00000000  0.00000000  1
  Ta  Ta73  1  -0.00000000  0.00000000  0.50000000  1
  Ta  Ta74  1  0.00000000  0.50000000  0.00000000  1
  Ta  Ta75  1  -0.00000000  0.50000000  0.50000000  1
  Ta  Ta76  1  0.33333333  0.00000000  0.00000000  1
  Ta  Ta77  1  0.33333333  0.00000000  0.50000000  1
  Ta  Ta78  1  0.33333333  0.50000000  0.00000000  1
  Ta  Ta79  1  0.33333333  0.50000000  0.50000000  1
  Ta  Ta80  1  0.66666667  0.00000000  0.00000000  1
  Ta  Ta81  1  0.66666667  0.00000000  0.50000000  1
  Ta  Ta82  1  0.66666667  0.50000000  0.00000000  1
  Ta  Ta83  1  0.66666667  0.50000000  0.50000000  1
  Ta  Ta84  1  0.16666667  0.25000000  0.00000000  1
  Ta  Ta85  1  0.16666667  0.25000000  0.50000000  1
  Ta  Ta86  1  0.16666667  0.75000000  0.00000000  1
  Ta  Ta87  1  0.16666667  0.75000000  0.50000000  1
  Ta  Ta88  1  0.50000000  0.25000000  0.00000000  1
  Ta  Ta89  1  0.50000000  0.25000000  0.50000000  1
  Ta  Ta90  1  0.50000000  0.75000000  0.00000000  1
  Ta  Ta91  1  0.50000000  0.75000000  0.50000000  1
  Ta  Ta92  1  0.83333333  0.25000000  0.00000000  1
  Ta  Ta93  1  0.83333333  0.25000000  0.50000000  1
  Ta  Ta94  1  0.83333333  0.75000000  0.00000000  1
  Ta  Ta95  1  0.83333333  0.75000000  0.50000000  1
  Al  Al96  1  0.16666667  0.09193720  0.12500000  1
  Al  Al97  1  0.16666667  0.09193720  0.62500000  1
  Al  Al98  1  0.16666667  0.59193720  0.12500000  1
  Al  Al99  1  0.16666667  0.59193720  0.62500000  1
  Al  Al100  1  0.50000000  0.09193720  0.12500000  1
  Al  Al101  1  0.50000000  0.09193720  0.62500000  1
  Al  Al102  1  0.50000000  0.59193720  0.12500000  1
  Al  Al103  1  0.50000000  0.59193720  0.62500000  1
  Al  Al104  1  0.83333333  0.09193720  0.12500000  1
  Al  Al105  1  0.83333333  0.09193720  0.62500000  1
  Al  Al106  1  0.83333333  0.59193720  0.12500000  1
  Al  Al107  1  0.83333333  0.59193720  0.62500000  1
  Al  Al108  1  0.33333333  0.34193720  0.12500000  1
  Al  Al109  1  0.33333333  0.34193720  0.62500000  1
  Al  Al110  1  0.33333333  0.84193720  0.12500000  1
  Al  Al111  1  0.33333333  0.84193720  0.62500000  1
  Al  Al112  1  0.66666667  0.34193720  0.12500000  1
  Al  Al113  1  0.66666667  0.34193720  0.62500000  1
  Al  Al114  1  0.66666667  0.84193720  0.12500000  1
  Al  Al115  1  0.66666667  0.84193720  0.62500000  1
  Al  Al116  1  1.00000000  0.34193720  0.12500000  1
  Al  Al117  1  1.00000000  0.34193720  0.62500000  1
  Al  Al118  1  1.00000000  0.84193720  0.12500000  1
  Al  Al119  1  1.00000000  0.84193720  0.62500000  1
  Al  Al120  1  0.16666667  -0.09193720  0.37500000  1
  Al  Al121  1  0.16666667  -0.09193720  0.87500000  1
  Al  Al122  1  0.16666667  0.40806280  0.37500000  1
  Al  Al123  1  0.16666667  0.40806280  0.87500000  1
  Al  Al124  1  0.50000000  -0.09193720  0.37500000  1
  Al  Al125  1  0.50000000  -0.09193720  0.87500000  1
  Al  Al126  1  0.50000000  0.40806280  0.37500000  1
  Al  Al127  1  0.50000000  0.40806280  0.87500000  1
  Al  Al128  1  0.83333333  -0.09193720  0.37500000  1
  Al  Al129  1  0.83333333  -0.09193720  0.87500000  1
  Al  Al130  1  0.83333333  0.40806280  0.37500000  1
  Al  Al131  1  0.83333333  0.40806280  0.87500000  1
  Al  Al132  1  0.33333333  0.15806280  0.37500000  1
  Al  Al133  1  0.33333333  0.15806280  0.87500000  1
  Al  Al134  1  0.33333333  0.65806280  0.37500000  1
  Al  Al135  1  0.33333333  0.65806280  0.87500000  1
  Al  Al136  1  0.66666667  0.15806280  0.37500000  1
  Al  Al137  1  0.66666667  0.15806280  0.87500000  1
  Al  Al138  1  0.66666667  0.65806280  0.37500000  1
  Al  Al139  1  0.66666667  0.65806280  0.87500000  1
  Al  Al140  1  1.00000000  0.15806280  0.37500000  1
  Al  Al141  1  1.00000000  0.15806280  0.87500000  1
  Al  Al142  1  1.00000000  0.65806280  0.37500000  1
  Al  Al143  1  1.00000000  0.65806280  0.87500000  1
  O  O144  1  0.16666667  -0.21232304  0.12500000  1
  O  O145  1  0.16666667  -0.21232304  0.62500000  1
  O  O146  1  0.16666667  0.28767696  0.12500000  1
  O  O147  1  0.16666667  0.28767696  0.62500000  1
  O  O148  1  0.50000000  -0.21232304  0.12500000  1
  O  O149  1  0.50000000  -0.21232304  0.62500000  1
  O  O150  1  0.50000000  0.28767696  0.12500000  1
  O  O151  1  0.50000000  0.28767696  0.62500000  1
  O  O152  1  0.83333333  -0.21232304  0.12500000  1
  O  O153  1  0.83333333  -0.21232304  0.62500000  1
  O  O154  1  0.83333333  0.28767696  0.12500000  1
  O  O155  1  0.83333333  0.28767696  0.62500000  1
  O  O156  1  0.33333333  0.03767696  0.12500000  1
  O  O157  1  0.33333333  0.03767696  0.62500000  1
  O  O158  1  0.33333333  0.53767696  0.12500000  1
  O  O159  1  0.33333333  0.53767696  0.62500000  1
  O  O160  1  0.66666667  0.03767696  0.12500000  1
  O  O161  1  0.66666667  0.03767696  0.62500000  1
  O  O162  1  0.66666667  0.53767696  0.12500000  1
  O  O163  1  0.66666667  0.53767696  0.62500000  1
  O  O164  1  1.00000000  0.03767696  0.12500000  1
  O  O165  1  1.00000000  0.03767696  0.62500000  1
  O  O166  1  1.00000000  0.53767696  0.12500000  1
  O  O167  1  1.00000000  0.53767696  0.62500000  1
  O  O168  1  0.16666667  0.21232304  0.37500000  1
  O  O169  1  0.16666667  0.21232304  0.87500000  1
  O  O170  1  0.16666667  0.71232304  0.37500000  1
  O  O171  1  0.16666667  0.71232304  0.87500000  1
  O  O172  1  0.50000000  0.21232304  0.37500000  1
  O  O173  1  0.50000000  0.21232304  0.87500000  1
  O  O174  1  0.50000000  0.71232304  0.37500000  1
  O  O175  1  0.50000000  0.71232304  0.87500000  1
  O  O176  1  0.83333333  0.21232304  0.37500000  1
  O  O177  1  0.83333333  0.21232304  0.87500000  1
  O  O178  1  0.83333333  0.71232304  0.37500000  1
  O  O179  1  0.83333333  0.71232304  0.87500000  1
  O  O180  1  0.33333333  0.46232304  0.37500000  1
  O  O181  1  0.33333333  0.46232304  0.87500000  1
  O  O182  1  0.33333333  0.96232304  0.37500000  1
  O  O183  1  0.33333333  0.96232304  0.87500000  1
  O  O184  1  0.66666667  0.46232304  0.37500000  1
  O  O185  1  0.66666667  0.46232304  0.87500000  1
  O  O186  1  0.66666667  0.96232304  0.37500000  1
  O  O187  1  0.66666667  0.96232304  0.87500000  1
  O  O188  1  1.00000000  0.46232304  0.37500000  1
  O  O189  1  1.00000000  0.46232304  0.87500000  1
  O  O190  1  1.00000000  0.96232304  0.37500000  1
  O  O191  1  1.00000000  0.96232304  0.87500000  1
  O  O192  1  0.13135428  -0.14814250  0.44343199  1
  O  O193  1  0.13135428  -0.14814250  0.94343199  1
  O  O194  1  0.13135428  0.35185750  0.44343199  1
  O  O195  1  0.13135428  0.35185750  0.94343199  1
  O  O196  1  0.46468761  -0.14814250  0.44343199  1
  O  O197  1  0.46468761  -0.14814250  0.94343199  1
  O  O198  1  0.46468761  0.35185750  0.44343199  1
  O  O199  1  0.46468761  0.35185750  0.94343199  1
  O  O200  1  0.79802094  -0.14814250  0.44343199  1
  O  O201  1  0.79802094  -0.14814250  0.94343199  1
  O  O202  1  0.79802094  0.35185750  0.44343199  1
  O  O203  1  0.79802094  0.35185750  0.94343199  1
  O  O204  1  0.29802094  0.10185750  0.44343199  1
  O  O205  1  0.29802094  0.10185750  0.94343199  1
  O  O206  1  0.29802094  0.60185750  0.44343199  1
  O  O207  1  0.29802094  0.60185750  0.94343199  1
  O  O208  1  0.63135428  0.10185750  0.44343199  1
  O  O209  1  0.63135428  0.10185750  0.94343199  1
  O  O210  1  0.63135428  0.60185750  0.44343199  1
  O  O211  1  0.63135428  0.60185750  0.94343199  1
  O  O212  1  0.96468761  0.10185750  0.44343199  1
  O  O213  1  0.96468761  0.10185750  0.94343199  1
  O  O214  1  0.96468761  0.60185750  0.44343199  1
  O  O215  1  0.96468761  0.60185750  0.94343199  1
  O  O216  1  0.20197906  -0.14814250  0.30656801  1
  O  O217  1  0.20197906  -0.14814250  0.80656801  1
  O  O218  1  0.20197906  0.35185750  0.30656801  1
  O  O219  1  0.20197906  0.35185750  0.80656801  1
  O  O220  1  0.53531239  -0.14814250  0.30656801  1
  O  O221  1  0.53531239  -0.14814250  0.80656801  1
  O  O222  1  0.53531239  0.35185750  0.30656801  1
  O  O223  1  0.53531239  0.35185750  0.80656801  1
  O  O224  1  0.86864572  -0.14814250  0.30656801  1
  O  O225  1  0.86864572  -0.14814250  0.80656801  1
  O  O226  1  0.86864572  0.35185750  0.30656801  1
  O  O227  1  0.86864572  0.35185750  0.80656801  1
  O  O228  1  0.36864572  0.10185750  0.30656801  1
  O  O229  1  0.36864572  0.10185750  0.80656801  1
  O  O230  1  0.36864572  0.60185750  0.30656801  1
  O  O231  1  0.36864572  0.60185750  0.80656801  1
  O  O232  1  0.70197906  0.10185750  0.30656801  1
  O  O233  1  0.70197906  0.10185750  0.80656801  1
  O  O234  1  0.70197906  0.60185750  0.30656801  1
  O  O235  1  0.70197906  0.60185750  0.80656801  1
  O  O236  1  1.03531239  0.10185750  0.30656801  1
  O  O237  1  1.03531239  0.10185750  0.80656801  1
  O  O238  1  1.03531239  0.60185750  0.30656801  1
  O  O239  1  1.03531239  0.60185750  0.80656801  1
  O  O240  1  0.20197906  0.14814250  0.05656801  1
  O  O241  1  0.20197906  0.14814250  0.55656801  1
  O  O242  1  0.20197906  0.64814250  0.05656801  1
  O  O243  1  0.20197906  0.64814250  0.55656801  1
  O  O244  1  0.53531239  0.14814250  0.05656801  1
  O  O245  1  0.53531239  0.14814250  0.55656801  1
  O  O246  1  0.53531239  0.64814250  0.05656801  1
  O  O247  1  0.53531239  0.64814250  0.55656801  1
  O  O248  1  0.86864572  0.14814250  0.05656801  1
  O  O249  1  0.86864572  0.14814250  0.55656801  1
  O  O250  1  0.86864572  0.64814250  0.05656801  1
  O  O251  1  0.86864572  0.64814250  0.55656801  1
  O  O252  1  0.36864572  0.39814250  0.05656801  1
  O  O253  1  0.36864572  0.39814250  0.55656801  1
  O  O254  1  0.36864572  0.89814250  0.05656801  1
  O  O255  1  0.36864572  0.89814250  0.55656801  1
  O  O256  1  0.70197906  0.39814250  0.05656801  1
  O  O257  1  0.70197906  0.39814250  0.55656801  1
  O  O258  1  0.70197906  0.89814250  0.05656801  1
  O  O259  1  0.70197906  0.89814250  0.55656801  1
  O  O260  1  1.03531239  0.39814250  0.05656801  1
  O  O261  1  1.03531239  0.39814250  0.55656801  1
  O  O262  1  1.03531239  0.89814250  0.05656801  1
  O  O263  1  1.03531239  0.89814250  0.55656801  1
  O  O264  1  0.13135428  0.14814250  0.19343199  1
  O  O265  1  0.13135428  0.14814250  0.69343199  1
  O  O266  1  0.13135428  0.64814250  0.19343199  1
  O  O267  1  0.13135428  0.64814250  0.69343199  1
  O  O268  1  0.46468761  0.14814250  0.19343199  1
  O  O269  1  0.46468761  0.14814250  0.69343199  1
  O  O270  1  0.46468761  0.64814250  0.19343199  1
  O  O271  1  0.46468761  0.64814250  0.69343199  1
  O  O272  1  0.79802094  0.14814250  0.19343199  1
  O  O273  1  0.79802094  0.14814250  0.69343199  1
  O  O274  1  0.79802094  0.64814250  0.19343199  1
  O  O275  1  0.79802094  0.64814250  0.69343199  1
  O  O276  1  0.29802094  0.39814250  0.19343199  1
  O  O277  1  0.29802094  0.39814250  0.69343199  1
  O  O278  1  0.29802094  0.89814250  0.19343199  1
  O  O279  1  0.29802094  0.89814250  0.69343199  1
  O  O280  1  0.63135428  0.39814250  0.19343199  1
  O  O281  1  0.63135428  0.39814250  0.69343199  1
  O  O282  1  0.63135428  0.89814250  0.19343199  1
  O  O283  1  0.63135428  0.89814250  0.69343199  1
  O  O284  1  0.96468761  0.39814250  0.19343199  1
  O  O285  1  0.96468761  0.39814250  0.69343199  1
  O  O286  1  0.96468761  0.89814250  0.19343199  1
  O  O287  1  0.96468761  0.89814250  0.69343199  1
  O  O288  1  0.10317446  0.02877850  0.04286019  1
  O  O289  1  0.10317446  0.02877850  0.54286019  1
  O  O290  1  0.10317446  0.52877850  0.04286019  1
  O  O291  1  0.10317446  0.52877850  0.54286019  1
  O  O292  1  0.43650779  0.02877850  0.04286019  1
  O  O293  1  0.43650779  0.02877850  0.54286019  1
  O  O294  1  0.43650779  0.52877850  0.04286019  1
  O  O295  1  0.43650779  0.52877850  0.54286019  1
  O  O296  1  0.76984112  0.02877850  0.04286019  1
  O  O297  1  0.76984112  0.02877850  0.54286019  1
  O  O298  1  0.76984112  0.52877850  0.04286019  1
  O  O299  1  0.76984112  0.52877850  0.54286019  1
  O  O300  1  0.26984112  0.27877850  0.04286019  1
  O  O301  1  0.26984112  0.27877850  0.54286019  1
  O  O302  1  0.26984112  0.77877850  0.04286019  1
  O  O303  1  0.26984112  0.77877850  0.54286019  1
  O  O304  1  0.60317446  0.27877850  0.04286019  1
  O  O305  1  0.60317446  0.27877850  0.54286019  1
  O  O306  1  0.60317446  0.77877850  0.04286019  1
  O  O307  1  0.60317446  0.77877850  0.54286019  1
  O  O308  1  0.93650779  0.27877850  0.04286019  1
  O  O309  1  0.93650779  0.27877850  0.54286019  1
  O  O310  1  0.93650779  0.77877850  0.04286019  1
  O  O311  1  0.93650779  0.77877850  0.54286019  1
  O  O312  1  0.23015888  0.02877850  0.20713981  1
  O  O313  1  0.23015888  0.02877850  0.70713981  1
  O  O314  1  0.23015888  0.52877850  0.20713981  1
  O  O315  1  0.23015888  0.52877850  0.70713981  1
  O  O316  1  0.56349221  0.02877850  0.20713981  1
  O  O317  1  0.56349221  0.02877850  0.70713981  1
  O  O318  1  0.56349221  0.52877850  0.20713981  1
  O  O319  1  0.56349221  0.52877850  0.70713981  1
  O  O320  1  0.89682554  0.02877850  0.20713981  1
  O  O321  1  0.89682554  0.02877850  0.70713981  1
  O  O322  1  0.89682554  0.52877850  0.20713981  1
  O  O323  1  0.89682554  0.52877850  0.70713981  1
  O  O324  1  0.39682554  0.27877850  0.20713981  1
  O  O325  1  0.39682554  0.27877850  0.70713981  1
  O  O326  1  0.39682554  0.77877850  0.20713981  1
  O  O327  1  0.39682554  0.77877850  0.70713981  1
  O  O328  1  0.73015888  0.27877850  0.20713981  1
  O  O329  1  0.73015888  0.27877850  0.70713981  1
  O  O330  1  0.73015888  0.77877850  0.20713981  1
  O  O331  1  0.73015888  0.77877850  0.70713981  1
  O  O332  1  1.06349221  0.27877850  0.20713981  1
  O  O333  1  1.06349221  0.27877850  0.70713981  1
  O  O334  1  1.06349221  0.77877850  0.20713981  1
  O  O335  1  1.06349221  0.77877850  0.70713981  1
  O  O336  1  0.23015888  -0.02877850  0.45713981  1
  O  O337  1  0.23015888  -0.02877850  0.95713981  1
  O  O338  1  0.23015888  0.47122150  0.45713981  1
  O  O339  1  0.23015888  0.47122150  0.95713981  1
  O  O340  1  0.56349221  -0.02877850  0.45713981  1
  O  O341  1  0.56349221  -0.02877850  0.95713981  1
  O  O342  1  0.56349221  0.47122150  0.45713981  1
  O  O343  1  0.56349221  0.47122150  0.95713981  1
  O  O344  1  0.89682554  -0.02877850  0.45713981  1
  O  O345  1  0.89682554  -0.02877850  0.95713981  1
  O  O346  1  0.89682554  0.47122150  0.45713981  1
  O  O347  1  0.89682554  0.47122150  0.95713981  1
  O  O348  1  0.39682554  0.22122150  0.45713981  1
  O  O349  1  0.39682554  0.22122150  0.95713981  1
  O  O350  1  0.39682554  0.72122150  0.45713981  1
  O  O351  1  0.39682554  0.72122150  0.95713981  1
  O  O352  1  0.73015888  0.22122150  0.45713981  1
  O  O353  1  0.73015888  0.22122150  0.95713981  1
  O  O354  1  0.73015888  0.72122150  0.45713981  1
  O  O355  1  0.73015888  0.72122150  0.95713981  1
  O  O356  1  1.06349221  0.22122150  0.45713981  1
  O  O357  1  1.06349221  0.22122150  0.95713981  1
  O  O358  1  1.06349221  0.72122150  0.45713981  1
  O  O359  1  1.06349221  0.72122150  0.95713981  1
  O  O360  1  0.10317446  -0.02877850  0.29286019  1
  O  O361  1  0.10317446  -0.02877850  0.79286019  1
  O  O362  1  0.10317446  0.47122150  0.29286019  1
  O  O363  1  0.10317446  0.47122150  0.79286019  1
  O  O364  1  0.43650779  -0.02877850  0.29286019  1
  O  O365  1  0.43650779  -0.02877850  0.79286019  1
  O  O366  1  0.43650779  0.47122150  0.29286019  1
  O  O367  1  0.43650779  0.47122150  0.79286019  1
  O  O368  1  0.76984112  -0.02877850  0.29286019  1
  O  O369  1  0.76984112  -0.02877850  0.79286019  1
  O  O370  1  0.76984112  0.47122150  0.29286019  1
  O  O371  1  0.76984112  0.47122150  0.79286019  1
  O  O372  1  0.26984112  0.22122150  0.29286019  1
  O  O373  1  0.26984112  0.22122150  0.79286019  1
  O  O374  1  0.26984112  0.72122150  0.29286019  1
  O  O375  1  0.26984112  0.72122150  0.79286019  1
  O  O376  1  0.60317446  0.22122150  0.29286019  1
  O  O377  1  0.60317446  0.22122150  0.79286019  1
  O  O378  1  0.60317446  0.72122150  0.29286019  1
  O  O379  1  0.60317446  0.72122150  0.79286019  1
  O  O380  1  0.93650779  0.22122150  0.29286019  1
  O  O381  1  0.93650779  0.22122150  0.79286019  1
  O  O382  1  0.93650779  0.72122150  0.29286019  1
  O  O383  1  0.93650779  0.72122150  0.79286019  1
