# generated using pymatgen
data_CaLaGaO4
_symmetry_space_group_name_H-M   'P 1'
_cell_length_a   11.74172125
_cell_length_b   13.63644405
_cell_length_c   10.63898419
_cell_angle_alpha   90.00000000
_cell_angle_beta   90.00000000
_cell_angle_gamma   90.00000000
_symmetry_Int_Tables_number   1
_chemical_formula_structural   CaLaGaO4
_chemical_formula_sum   'Ca16 La16 Ga16 O64'
_cell_volume   1703.46440985
_cell_formula_units_Z   16
loop_
 _symmetry_equiv_pos_site_id
 _symmetry_equiv_pos_as_xyz
  1  'x, y, z'
loop_
 _atom_site_type_symbol
 _atom_site_label
 _atom_site_symmetry_multiplicity
 _atom_site_fract_x
 _atom_site_fract_y
 _atom_site_fract_z
 _atom_site_occupancy
  Ca  Ca0  1  0.00000000  0.00000000  0.00000000  1
  Ca  Ca1  1  0.00000000  0.00000000  0.50000000  1
  Ca  Ca2  1  0.00000000  0.50000000  0.00000000  1
  Ca  Ca3  1  0.00000000  0.50000000  0.50000000  1
  Ca  Ca4  1  0.50000000  0.00000000  0.25000000  1
  Ca  Ca5  1  0.50000000  0.00000000  0.75000000  1
  Ca  Ca6  1  0.50000000  0.50000000  0.25000000  1
  Ca  Ca7  1  0.50000000  0.50000000  0.75000000  1
  Ca  Ca8  1  0.00000000  0.25000000  0.00000000  1
  Ca  Ca9  1  0.00000000  0.25000000  0.50000000  1
  Ca  Ca10  1  0.00000000  0.75000000  0.00000000  1
  Ca  Ca11  1  0.00000000  0.75000000  0.50000000  1
  Ca  Ca12  1  0.50000000  0.25000000  0.25000000  1
  Ca  Ca13  1  0.50000000  0.25000000  0.75000000  1
  Ca  Ca14  1  0.50000000  0.75000000  0.25000000  1
  Ca  Ca15  1  0.50000000  0.75000000  0.75000000  1
  La  La16  1  0.22056337  0.37500000  0.25572460  1
  La  La17  1  0.22056337  0.37500000  0.75572460  1
  La  La18  1  0.22056337  0.87500000  0.25572460  1
  La  La19  1  0.22056337  0.87500000  0.75572460  1
  La  La20  1  0.72056337  0.37500000  0.49427540  1
  La  La21  1  0.72056337  0.37500000  0.99427540  1
  La  La22  1  0.72056337  0.87500000  0.49427540  1
  La  La23  1  0.72056337  0.87500000  0.99427540  1
  La  La24  1  0.27943663  0.12500000  0.00572460  1
  La  La25  1  0.27943663  0.12500000  0.50572460  1
  La  La26  1  0.27943663  0.62500000  0.00572460  1
  La  La27  1  0.27943663  0.62500000  0.50572460  1
  La  La28  1  0.77943663  0.12500000  0.24427540  1
  La  La29  1  0.77943663  0.12500000  0.74427540  1
  La  La30  1  0.77943663  0.62500000  0.24427540  1
  La  La31  1  0.77943663  0.62500000  0.74427540  1
  Ga  Ga32  1  0.91045366  0.37500000  0.21620263  1
  Ga  Ga33  1  0.91045366  0.37500000  0.71620263  1
  Ga  Ga34  1  0.91045366  0.87500000  0.21620263  1
  Ga  Ga35  1  0.91045366  0.87500000  0.71620263  1
  Ga  Ga36  1  0.08954634  0.12500000  0.28379737  1
  Ga  Ga37  1  0.08954634  0.12500000  0.78379737  1
  Ga  Ga38  1  0.08954634  0.62500000  0.28379737  1
  Ga  Ga39  1  0.08954634  0.62500000  0.78379737  1
  Ga  Ga40  1  0.58954634  0.12500000  0.46620263  1
  Ga  Ga41  1  0.58954634  0.12500000  0.96620263  1
  Ga  Ga42  1  0.58954634  0.62500000  0.46620263  1
  Ga  Ga43  1  0.58954634  0.62500000  0.96620263  1
  Ga  Ga44  1  0.41045366  0.37500000  0.03379737  1
  Ga  Ga45  1  0.41045366  0.37500000  0.53379737  1
  Ga  Ga46  1  0.41045366  0.87500000  0.03379737  1
  Ga  Ga47  1  0.41045366  0.87500000  0.53379737  1
  O  O48  1  0.83820165  0.48089964  0.13438117  1
  O  O49  1  0.83820165  0.48089964  0.63438117  1
  O  O50  1  0.83820165  0.98089964  0.13438117  1
  O  O51  1  0.83820165  0.98089964  0.63438117  1
  O  O52  1  0.83820165  0.26910036  0.13438117  1
  O  O53  1  0.83820165  0.26910036  0.63438117  1
  O  O54  1  0.83820165  0.76910036  0.13438117  1
  O  O55  1  0.83820165  0.76910036  0.63438117  1
  O  O56  1  0.94706092  0.12500000  0.36349269  1
  O  O57  1  0.94706092  0.12500000  0.86349269  1
  O  O58  1  0.94706092  0.62500000  0.36349269  1
  O  O59  1  0.94706092  0.62500000  0.86349269  1
  O  O60  1  0.40902949  0.37500000  0.36295663  1
  O  O61  1  0.40902949  0.37500000  0.86295663  1
  O  O62  1  0.40902949  0.87500000  0.36295663  1
  O  O63  1  0.40902949  0.87500000  0.86295663  1
  O  O64  1  0.33820165  0.26910036  0.11561883  1
  O  O65  1  0.33820165  0.26910036  0.61561883  1
  O  O66  1  0.33820165  0.76910036  0.11561883  1
  O  O67  1  0.33820165  0.76910036  0.61561883  1
  O  O68  1  0.55293908  0.37500000  0.11349269  1
  O  O69  1  0.55293908  0.37500000  0.61349269  1
  O  O70  1  0.55293908  0.87500000  0.11349269  1
  O  O71  1  0.55293908  0.87500000  0.61349269  1
  O  O72  1  0.66179835  0.01910036  0.38438117  1
  O  O73  1  0.66179835  0.01910036  0.88438117  1
  O  O74  1  0.66179835  0.51910036  0.38438117  1
  O  O75  1  0.66179835  0.51910036  0.88438117  1
  O  O76  1  0.59097051  0.12500000  0.13704337  1
  O  O77  1  0.59097051  0.12500000  0.63704337  1
  O  O78  1  0.59097051  0.62500000  0.13704337  1
  O  O79  1  0.59097051  0.62500000  0.63704337  1
  O  O80  1  0.33820165  0.48089964  0.11561883  1
  O  O81  1  0.33820165  0.48089964  0.61561883  1
  O  O82  1  0.33820165  0.98089964  0.11561883  1
  O  O83  1  0.33820165  0.98089964  0.61561883  1
  O  O84  1  0.90902949  0.37500000  0.38704337  1
  O  O85  1  0.90902949  0.37500000  0.88704337  1
  O  O86  1  0.90902949  0.87500000  0.38704337  1
  O  O87  1  0.90902949  0.87500000  0.88704337  1
  O  O88  1  0.09097051  0.12500000  0.11295663  1
  O  O89  1  0.09097051  0.12500000  0.61295663  1
  O  O90  1  0.09097051  0.62500000  0.11295663  1
  O  O91  1  0.09097051  0.62500000  0.61295663  1
  O  O92  1  0.16179835  0.01910036  0.36561883  1
  O  O93  1  0.16179835  0.01910036  0.86561883  1
  O  O94  1  0.16179835  0.51910036  0.36561883  1
  O  O95  1  0.16179835  0.51910036  0.86561883  1
  O  O96  1  0.66179835  0.23089964  0.38438117  1
  O  O97  1  0.66179835  0.23089964  0.88438117  1
  O  O98  1  0.66179835  0.73089964  0.38438117  1
  O  O99  1  0.66179835  0.73089964  0.88438117  1
  O  O100  1  0.16179835  0.23089964  0.36561883  1
  O  O101  1  0.16179835  0.23089964  0.86561883  1
  O  O102  1  0.16179835  0.73089964  0.36561883  1
  O  O103  1  0.16179835  0.73089964  0.86561883  1
  O  O104  1  0.05293908  0.37500000  0.13650731  1
  O  O105  1  0.05293908  0.37500000  0.63650731  1
  O  O106  1  0.05293908  0.87500000  0.13650731  1
  O  O107  1  0.05293908  0.87500000  0.63650731  1
  O  O108  1  0.44706092  0.12500000  0.38650731  1
  O  O109  1  0.44706092  0.12500000  0.88650731  1
  O  O110  1  0.44706092  0.62500000  0.38650731  1
  O  O111  1  0.44706092  0.62500000  0.88650731  1
