# generated using pymatgen
data_Li6ZnO4
_symmetry_space_group_name_H-M   'P 1'
_cell_length_a   9.14491697
_cell_length_b   9.14491697
_cell_length_c   9.25754596
_cell_angle_alpha   90.00000000
_cell_angle_beta   90.00000000
_cell_angle_gamma   90.00000000
_symmetry_Int_Tables_number   1
_chemical_formula_structural   Li6ZnO4
_chemical_formula_sum   'Li48 Zn8 O32'
_cell_volume   774.20399878
_cell_formula_units_Z   8
loop_
 _symmetry_equiv_pos_site_id
 _symmetry_equiv_pos_as_xyz
  1  'x, y, z'
loop_
 _atom_site_type_symbol
 _atom_site_label
 _atom_site_symmetry_multiplicity
 _atom_site_fract_x
 _atom_site_fract_y
 _atom_site_fract_z
 _atom_site_occupancy
  Li  Li0  1  0.25000000  0.25000000  0.22438303  1
  Li  Li1  1  0.25000000  0.25000000  0.72438303  1
  Li  Li2  1  0.75000000  0.75000000  0.22438303  1
  Li  Li3  1  0.75000000  0.75000000  0.72438303  1
  Li  Li4  1  0.25000000  -0.25000000  0.02561697  1
  Li  Li5  1  0.25000000  -0.25000000  0.52561697  1
  Li  Li6  1  0.75000000  0.25000000  0.02561697  1
  Li  Li7  1  0.75000000  0.25000000  0.52561697  1
  Li  Li8  1  0.50000000  0.21759498  0.25000000  1
  Li  Li9  1  0.50000000  0.21759498  0.75000000  1
  Li  Li10  1  1.00000000  0.71759498  0.25000000  1
  Li  Li11  1  1.00000000  0.71759498  0.75000000  1
  Li  Li12  1  0.21759498  -0.00000000  0.00000000  1
  Li  Li13  1  0.21759498  -0.00000000  0.50000000  1
  Li  Li14  1  0.71759498  0.50000000  0.00000000  1
  Li  Li15  1  0.71759498  0.50000000  0.50000000  1
  Li  Li16  1  0.78240502  0.00000000  0.00000000  1
  Li  Li17  1  0.78240502  0.00000000  0.50000000  1
  Li  Li18  1  1.28240502  0.50000000  0.00000000  1
  Li  Li19  1  1.28240502  0.50000000  0.50000000  1
  Li  Li20  1  0.50000000  -0.21759498  0.25000000  1
  Li  Li21  1  0.50000000  -0.21759498  0.75000000  1
  Li  Li22  1  1.00000000  0.28240502  0.25000000  1
  Li  Li23  1  1.00000000  0.28240502  0.75000000  1
  Li  Li24  1  0.50000000  0.28240502  0.00000000  1
  Li  Li25  1  0.50000000  0.28240502  0.50000000  1
  Li  Li26  1  1.00000000  0.78240502  0.00000000  1
  Li  Li27  1  1.00000000  0.78240502  0.50000000  1
  Li  Li28  1  0.28240502  -0.00000000  0.25000000  1
  Li  Li29  1  0.28240502  -0.00000000  0.75000000  1
  Li  Li30  1  0.78240502  0.50000000  0.25000000  1
  Li  Li31  1  0.78240502  0.50000000  0.75000000  1
  Li  Li32  1  0.71759498  -0.00000000  0.25000000  1
  Li  Li33  1  0.71759498  -0.00000000  0.75000000  1
  Li  Li34  1  1.21759498  0.50000000  0.25000000  1
  Li  Li35  1  1.21759498  0.50000000  0.75000000  1
  Li  Li36  1  0.25000000  -0.25000000  0.27561697  1
  Li  Li37  1  0.25000000  -0.25000000  0.77561697  1
  Li  Li38  1  0.75000000  0.25000000  0.27561697  1
  Li  Li39  1  0.75000000  0.25000000  0.77561697  1
  Li  Li40  1  0.25000000  0.25000000  0.47438303  1
  Li  Li41  1  0.25000000  0.25000000  0.97438303  1
  Li  Li42  1  0.75000000  0.75000000  0.47438303  1
  Li  Li43  1  0.75000000  0.75000000  0.97438303  1
  Li  Li44  1  0.50000000  -0.28240502  0.00000000  1
  Li  Li45  1  0.50000000  -0.28240502  0.50000000  1
  Li  Li46  1  1.00000000  0.21759498  0.00000000  1
  Li  Li47  1  1.00000000  0.21759498  0.50000000  1
  Zn  Zn48  1  0.50000000  0.00000000  0.00000000  1
  Zn  Zn49  1  0.50000000  0.00000000  0.50000000  1
  Zn  Zn50  1  1.00000000  0.50000000  0.00000000  1
  Zn  Zn51  1  1.00000000  0.50000000  0.50000000  1
  Zn  Zn52  1  0.00000000  0.00000000  0.25000000  1
  Zn  Zn53  1  0.00000000  0.00000000  0.75000000  1
  Zn  Zn54  1  0.50000000  0.50000000  0.25000000  1
  Zn  Zn55  1  0.50000000  0.50000000  0.75000000  1
  O  O56  1  0.36955149  -0.36955149  0.14403434  1
  O  O57  1  0.36955149  -0.36955149  0.64403434  1
  O  O58  1  0.86955149  0.13044851  0.14403434  1
  O  O59  1  0.86955149  0.13044851  0.64403434  1
  O  O60  1  0.36955149  -0.13044851  0.39403434  1
  O  O61  1  0.36955149  -0.13044851  0.89403434  1
  O  O62  1  0.86955149  0.36955149  0.39403434  1
  O  O63  1  0.86955149  0.36955149  0.89403434  1
  O  O64  1  0.36955149  0.13044851  0.10596566  1
  O  O65  1  0.36955149  0.13044851  0.60596566  1
  O  O66  1  0.86955149  0.63044851  0.10596566  1
  O  O67  1  0.86955149  0.63044851  0.60596566  1
  O  O68  1  0.13044851  0.13044851  0.35596566  1
  O  O69  1  0.13044851  0.13044851  0.85596566  1
  O  O70  1  0.63044851  0.63044851  0.35596566  1
  O  O71  1  0.63044851  0.63044851  0.85596566  1
  O  O72  1  0.36955149  0.36955149  0.35596566  1
  O  O73  1  0.36955149  0.36955149  0.85596566  1
  O  O74  1  0.86955149  0.86955149  0.35596566  1
  O  O75  1  0.86955149  0.86955149  0.85596566  1
  O  O76  1  0.63044851  0.13044851  0.39403434  1
  O  O77  1  0.63044851  0.13044851  0.89403434  1
  O  O78  1  1.13044851  0.63044851  0.39403434  1
  O  O79  1  1.13044851  0.63044851  0.89403434  1
  O  O80  1  0.13044851  -0.13044851  0.14403434  1
  O  O81  1  0.13044851  -0.13044851  0.64403434  1
  O  O82  1  0.63044851  0.36955149  0.14403434  1
  O  O83  1  0.63044851  0.36955149  0.64403434  1
  O  O84  1  0.63044851  -0.13044851  0.10596566  1
  O  O85  1  0.63044851  -0.13044851  0.60596566  1
  O  O86  1  1.13044851  0.36955149  0.10596566  1
  O  O87  1  1.13044851  0.36955149  0.60596566  1
