# generated using pymatgen
data_Li2SnO3
_symmetry_space_group_name_H-M   'P 1'
_cell_length_a   10.59893953
_cell_length_b   9.20275909
_cell_length_c   10.00895608
_cell_angle_alpha   90.00000000
_cell_angle_beta   100.31645332
_cell_angle_gamma   90.00000000
_symmetry_Int_Tables_number   1
_chemical_formula_structural   Li2SnO3
_chemical_formula_sum   'Li32 Sn16 O48'
_cell_volume   960.48574661
_cell_formula_units_Z   16
loop_
 _symmetry_equiv_pos_site_id
 _symmetry_equiv_pos_as_xyz
  1  'x, y, z'
loop_
 _atom_site_type_symbol
 _atom_site_label
 _atom_site_symmetry_multiplicity
 _atom_site_fract_x
 _atom_site_fract_y
 _atom_site_fract_z
 _atom_site_occupancy
  Li  Li0  1  0.38189584  -0.07808852  0.00081034  1
  Li  Li1  1  0.88189584  -0.07808852  0.00081034  1
  Li  Li2  1  0.63189584  0.42191148  0.00081034  1
  Li  Li3  1  1.13189584  0.42191148  0.00081034  1
  Li  Li4  1  0.11810416  -0.07808852  0.49918966  1
  Li  Li5  1  0.61810416  -0.07808852  0.49918966  1
  Li  Li6  1  0.36810416  0.42191148  0.49918966  1
  Li  Li7  1  0.86810416  0.42191148  0.49918966  1
  Li  Li8  1  0.11810416  0.07808852  0.99918966  1
  Li  Li9  1  0.61810416  0.07808852  0.99918966  1
  Li  Li10  1  0.36810416  0.57808852  0.99918966  1
  Li  Li11  1  0.86810416  0.57808852  0.99918966  1
  Li  Li12  1  0.38189584  0.07808852  0.50081034  1
  Li  Li13  1  0.88189584  0.07808852  0.50081034  1
  Li  Li14  1  0.63189584  0.57808852  0.50081034  1
  Li  Li15  1  1.13189584  0.57808852  0.50081034  1
  Li  Li16  1  0.12500000  0.25000000  0.50000000  1
  Li  Li17  1  0.62500000  0.25000000  0.50000000  1
  Li  Li18  1  0.37500000  0.75000000  0.50000000  1
  Li  Li19  1  0.87500000  0.75000000  0.50000000  1
  Li  Li20  1  0.12500000  -0.25000000  0.00000000  1
  Li  Li21  1  0.62500000  -0.25000000  0.00000000  1
  Li  Li22  1  0.37500000  0.25000000  0.00000000  1
  Li  Li23  1  0.87500000  0.25000000  0.00000000  1
  Li  Li24  1  0.25000000  0.41497449  0.75000000  1
  Li  Li25  1  0.75000000  0.41497449  0.75000000  1
  Li  Li26  1  0.50000000  0.91497449  0.75000000  1
  Li  Li27  1  1.00000000  0.91497449  0.75000000  1
  Li  Li28  1  0.25000000  -0.41497449  0.25000000  1
  Li  Li29  1  0.75000000  -0.41497449  0.25000000  1
  Li  Li30  1  0.50000000  0.08502551  0.25000000  1
  Li  Li31  1  1.00000000  0.08502551  0.25000000  1
  Sn  Sn32  1  0.25000000  -0.08285532  0.25000000  1
  Sn  Sn33  1  0.75000000  -0.08285532  0.25000000  1
  Sn  Sn34  1  0.50000000  0.41714468  0.25000000  1
  Sn  Sn35  1  1.00000000  0.41714468  0.25000000  1
  Sn  Sn36  1  0.25000000  0.24969851  0.25000000  1
  Sn  Sn37  1  0.75000000  0.24969851  0.25000000  1
  Sn  Sn38  1  0.50000000  0.74969851  0.25000000  1
  Sn  Sn39  1  1.00000000  0.74969851  0.25000000  1
  Sn  Sn40  1  0.25000000  -0.24969851  0.75000000  1
  Sn  Sn41  1  0.75000000  -0.24969851  0.75000000  1
  Sn  Sn42  1  0.50000000  0.25030149  0.75000000  1
  Sn  Sn43  1  1.00000000  0.25030149  0.75000000  1
  Sn  Sn44  1  0.25000000  0.08285532  0.75000000  1
  Sn  Sn45  1  0.75000000  0.08285532  0.75000000  1
  Sn  Sn46  1  0.50000000  0.58285532  0.75000000  1
  Sn  Sn47  1  1.00000000  0.58285532  0.75000000  1
  O  O48  1  0.43305448  -0.09186916  0.37026745  1
  O  O49  1  0.93305448  -0.09186916  0.37026745  1
  O  O50  1  0.68305448  0.40813084  0.37026745  1
  O  O51  1  1.18305448  0.40813084  0.37026745  1
  O  O52  1  0.18233243  0.24095491  0.86792109  1
  O  O53  1  0.68233243  0.24095491  0.86792109  1
  O  O54  1  0.43233243  0.74095491  0.86792109  1
  O  O55  1  0.93233243  0.74095491  0.86792109  1
  O  O56  1  0.06694552  -0.09186916  0.12973255  1
  O  O57  1  0.56694552  -0.09186916  0.12973255  1
  O  O58  1  0.31694552  0.40813084  0.12973255  1
  O  O59  1  0.81694552  0.40813084  0.12973255  1
  O  O60  1  0.06694552  0.09186916  0.62973255  1
  O  O61  1  0.56694552  0.09186916  0.62973255  1
  O  O62  1  0.31694552  0.59186916  0.62973255  1
  O  O63  1  0.81694552  0.59186916  0.62973255  1
  O  O64  1  0.19425391  -0.08319322  0.86791355  1
  O  O65  1  0.69425391  -0.08319322  0.86791355  1
  O  O66  1  0.44425391  0.41680678  0.86791355  1
  O  O67  1  0.94425391  0.41680678  0.86791355  1
  O  O68  1  0.31766757  0.24095491  0.63207891  1
  O  O69  1  0.81766757  0.24095491  0.63207891  1
  O  O70  1  0.56766757  0.74095491  0.63207891  1
  O  O71  1  1.06766757  0.74095491  0.63207891  1
  O  O72  1  0.31766757  -0.24095491  0.13207891  1
  O  O73  1  0.81766757  -0.24095491  0.13207891  1
  O  O74  1  0.56766757  0.25904509  0.13207891  1
  O  O75  1  1.06766757  0.25904509  0.13207891  1
  O  O76  1  0.18233243  -0.24095491  0.36792109  1
  O  O77  1  0.68233243  -0.24095491  0.36792109  1
  O  O78  1  0.43233243  0.25904509  0.36792109  1
  O  O79  1  0.93233243  0.25904509  0.36792109  1
  O  O80  1  0.19425391  0.08319322  0.36791355  1
  O  O81  1  0.69425391  0.08319322  0.36791355  1
  O  O82  1  0.44425391  0.58319322  0.36791355  1
  O  O83  1  0.94425391  0.58319322  0.36791355  1
  O  O84  1  0.30574609  -0.08319322  0.63208645  1
  O  O85  1  0.80574609  -0.08319322  0.63208645  1
  O  O86  1  0.55574609  0.41680678  0.63208645  1
  O  O87  1  1.05574609  0.41680678  0.63208645  1
  O  O88  1  0.30574609  0.08319322  0.13208645  1
  O  O89  1  0.80574609  0.08319322  0.13208645  1
  O  O90  1  0.55574609  0.58319322  0.13208645  1
  O  O91  1  1.05574609  0.58319322  0.13208645  1
  O  O92  1  0.43305448  0.09186916  0.87026745  1
  O  O93  1  0.93305448  0.09186916  0.87026745  1
  O  O94  1  0.68305448  0.59186916  0.87026745  1
  O  O95  1  1.18305448  0.59186916  0.87026745  1
