# generated using pymatgen
data_Cs2CrO4
_symmetry_space_group_name_H-M   'P 1'
_cell_length_a   16.77247735
_cell_length_b   18.68683550
_cell_length_c   22.26107476
_cell_angle_alpha   90.00000000
_cell_angle_beta   90.00000000
_cell_angle_gamma   90.00000000
_symmetry_Int_Tables_number   1
_chemical_formula_structural   Cs2CrO4
_chemical_formula_sum   'Cs96 Cr48 O192'
_cell_volume   6977.16678824
_cell_formula_units_Z   48
loop_
 _symmetry_equiv_pos_site_id
 _symmetry_equiv_pos_as_xyz
  1  'x, y, z'
loop_
 _atom_site_type_symbol
 _atom_site_label
 _atom_site_symmetry_multiplicity
 _atom_site_fract_x
 _atom_site_fract_y
 _atom_site_fract_z
 _atom_site_occupancy
  Cs  Cs0  1  0.25789366  0.08333333  0.34701065  1
  Cs  Cs1  1  0.25789366  0.08333333  0.84701065  1
  Cs  Cs2  1  0.25789366  0.41666667  0.34701065  1
  Cs  Cs3  1  0.25789366  0.41666667  0.84701065  1
  Cs  Cs4  1  0.25789366  0.75000000  0.34701065  1
  Cs  Cs5  1  0.25789366  0.75000000  0.84701065  1
  Cs  Cs6  1  0.75789366  0.08333333  0.34701065  1
  Cs  Cs7  1  0.75789366  0.08333333  0.84701065  1
  Cs  Cs8  1  0.75789366  0.41666667  0.34701065  1
  Cs  Cs9  1  0.75789366  0.41666667  0.84701065  1
  Cs  Cs10  1  0.75789366  0.75000000  0.34701065  1
  Cs  Cs11  1  0.75789366  0.75000000  0.84701065  1
  Cs  Cs12  1  0.49210634  0.25000000  0.09701065  1
  Cs  Cs13  1  0.49210634  0.25000000  0.59701065  1
  Cs  Cs14  1  0.49210634  0.58333333  0.09701065  1
  Cs  Cs15  1  0.49210634  0.58333333  0.59701065  1
  Cs  Cs16  1  0.49210634  0.91666667  0.09701065  1
  Cs  Cs17  1  0.49210634  0.91666667  0.59701065  1
  Cs  Cs18  1  0.99210634  0.25000000  0.09701065  1
  Cs  Cs19  1  0.99210634  0.25000000  0.59701065  1
  Cs  Cs20  1  0.99210634  0.58333333  0.09701065  1
  Cs  Cs21  1  0.99210634  0.58333333  0.59701065  1
  Cs  Cs22  1  0.99210634  0.91666667  0.09701065  1
  Cs  Cs23  1  0.99210634  0.91666667  0.59701065  1
  Cs  Cs24  1  0.24210634  0.25000000  0.15298935  1
  Cs  Cs25  1  0.24210634  0.25000000  0.65298935  1
  Cs  Cs26  1  0.24210634  0.58333333  0.15298935  1
  Cs  Cs27  1  0.24210634  0.58333333  0.65298935  1
  Cs  Cs28  1  0.24210634  0.91666667  0.15298935  1
  Cs  Cs29  1  0.24210634  0.91666667  0.65298935  1
  Cs  Cs30  1  0.74210634  0.25000000  0.15298935  1
  Cs  Cs31  1  0.74210634  0.25000000  0.65298935  1
  Cs  Cs32  1  0.74210634  0.58333333  0.15298935  1
  Cs  Cs33  1  0.74210634  0.58333333  0.65298935  1
  Cs  Cs34  1  0.74210634  0.91666667  0.15298935  1
  Cs  Cs35  1  0.74210634  0.91666667  0.65298935  1
  Cs  Cs36  1  0.00789366  0.08333333  0.40298935  1
  Cs  Cs37  1  0.00789366  0.08333333  0.90298935  1
  Cs  Cs38  1  0.00789366  0.41666667  0.40298935  1
  Cs  Cs39  1  0.00789366  0.41666667  0.90298935  1
  Cs  Cs40  1  0.00789366  0.75000000  0.40298935  1
  Cs  Cs41  1  0.00789366  0.75000000  0.90298935  1
  Cs  Cs42  1  0.50789366  0.08333333  0.40298935  1
  Cs  Cs43  1  0.50789366  0.08333333  0.90298935  1
  Cs  Cs44  1  0.50789366  0.41666667  0.40298935  1
  Cs  Cs45  1  0.50789366  0.41666667  0.90298935  1
  Cs  Cs46  1  0.50789366  0.75000000  0.40298935  1
  Cs  Cs47  1  0.50789366  0.75000000  0.90298935  1
  Cs  Cs48  1  0.33396573  0.25000000  0.45563939  1
  Cs  Cs49  1  0.33396573  0.25000000  0.95563939  1
  Cs  Cs50  1  0.33396573  0.58333333  0.45563939  1
  Cs  Cs51  1  0.33396573  0.58333333  0.95563939  1
  Cs  Cs52  1  0.33396573  0.91666667  0.45563939  1
  Cs  Cs53  1  0.33396573  0.91666667  0.95563939  1
  Cs  Cs54  1  0.83396573  0.25000000  0.45563939  1
  Cs  Cs55  1  0.83396573  0.25000000  0.95563939  1
  Cs  Cs56  1  0.83396573  0.58333333  0.45563939  1
  Cs  Cs57  1  0.83396573  0.58333333  0.95563939  1
  Cs  Cs58  1  0.83396573  0.91666667  0.45563939  1
  Cs  Cs59  1  0.83396573  0.91666667  0.95563939  1
  Cs  Cs60  1  0.16603427  0.08333333  0.04436061  1
  Cs  Cs61  1  0.16603427  0.08333333  0.54436061  1
  Cs  Cs62  1  0.16603427  0.41666667  0.04436061  1
  Cs  Cs63  1  0.16603427  0.41666667  0.54436061  1
  Cs  Cs64  1  0.16603427  0.75000000  0.04436061  1
  Cs  Cs65  1  0.16603427  0.75000000  0.54436061  1
  Cs  Cs66  1  0.66603427  0.08333333  0.04436061  1
  Cs  Cs67  1  0.66603427  0.08333333  0.54436061  1
  Cs  Cs68  1  0.66603427  0.41666667  0.04436061  1
  Cs  Cs69  1  0.66603427  0.41666667  0.54436061  1
  Cs  Cs70  1  0.66603427  0.75000000  0.04436061  1
  Cs  Cs71  1  0.66603427  0.75000000  0.54436061  1
  Cs  Cs72  1  0.08396573  0.25000000  0.29436061  1
  Cs  Cs73  1  0.08396573  0.25000000  0.79436061  1
  Cs  Cs74  1  0.08396573  0.58333333  0.29436061  1
  Cs  Cs75  1  0.08396573  0.58333333  0.79436061  1
  Cs  Cs76  1  0.08396573  0.91666667  0.29436061  1
  Cs  Cs77  1  0.08396573  0.91666667  0.79436061  1
  Cs  Cs78  1  0.58396573  0.25000000  0.29436061  1
  Cs  Cs79  1  0.58396573  0.25000000  0.79436061  1
  Cs  Cs80  1  0.58396573  0.58333333  0.29436061  1
  Cs  Cs81  1  0.58396573  0.58333333  0.79436061  1
  Cs  Cs82  1  0.58396573  0.91666667  0.29436061  1
  Cs  Cs83  1  0.58396573  0.91666667  0.79436061  1
  Cs  Cs84  1  0.41603427  0.08333333  0.20563939  1
  Cs  Cs85  1  0.41603427  0.08333333  0.70563939  1
  Cs  Cs86  1  0.41603427  0.41666667  0.20563939  1
  Cs  Cs87  1  0.41603427  0.41666667  0.70563939  1
  Cs  Cs88  1  0.41603427  0.75000000  0.20563939  1
  Cs  Cs89  1  0.41603427  0.75000000  0.70563939  1
  Cs  Cs90  1  0.91603427  0.08333333  0.20563939  1
  Cs  Cs91  1  0.91603427  0.08333333  0.70563939  1
  Cs  Cs92  1  0.91603427  0.41666667  0.20563939  1
  Cs  Cs93  1  0.91603427  0.41666667  0.70563939  1
  Cs  Cs94  1  0.91603427  0.75000000  0.20563939  1
  Cs  Cs95  1  0.91603427  0.75000000  0.70563939  1
  Cr  Cr96  1  0.36736431  0.25000000  0.28966227  1
  Cr  Cr97  1  0.36736431  0.25000000  0.78966227  1
  Cr  Cr98  1  0.36736431  0.58333333  0.28966227  1
  Cr  Cr99  1  0.36736431  0.58333333  0.78966227  1
  Cr  Cr100  1  0.36736431  0.91666667  0.28966227  1
  Cr  Cr101  1  0.36736431  0.91666667  0.78966227  1
  Cr  Cr102  1  0.86736431  0.25000000  0.28966227  1
  Cr  Cr103  1  0.86736431  0.25000000  0.78966227  1
  Cr  Cr104  1  0.86736431  0.58333333  0.28966227  1
  Cr  Cr105  1  0.86736431  0.58333333  0.78966227  1
  Cr  Cr106  1  0.86736431  0.91666667  0.28966227  1
  Cr  Cr107  1  0.86736431  0.91666667  0.78966227  1
  Cr  Cr108  1  0.13263569  0.08333333  0.21033773  1
  Cr  Cr109  1  0.13263569  0.08333333  0.71033773  1
  Cr  Cr110  1  0.13263569  0.41666667  0.21033773  1
  Cr  Cr111  1  0.13263569  0.41666667  0.71033773  1
  Cr  Cr112  1  0.13263569  0.75000000  0.21033773  1
  Cr  Cr113  1  0.13263569  0.75000000  0.71033773  1
  Cr  Cr114  1  0.63263569  0.08333333  0.21033773  1
  Cr  Cr115  1  0.63263569  0.08333333  0.71033773  1
  Cr  Cr116  1  0.63263569  0.41666667  0.21033773  1
  Cr  Cr117  1  0.63263569  0.41666667  0.71033773  1
  Cr  Cr118  1  0.63263569  0.75000000  0.21033773  1
  Cr  Cr119  1  0.63263569  0.75000000  0.71033773  1
  Cr  Cr120  1  0.11736431  0.25000000  0.46033773  1
  Cr  Cr121  1  0.11736431  0.25000000  0.96033773  1
  Cr  Cr122  1  0.11736431  0.58333333  0.46033773  1
  Cr  Cr123  1  0.11736431  0.58333333  0.96033773  1
  Cr  Cr124  1  0.11736431  0.91666667  0.46033773  1
  Cr  Cr125  1  0.11736431  0.91666667  0.96033773  1
  Cr  Cr126  1  0.61736431  0.25000000  0.46033773  1
  Cr  Cr127  1  0.61736431  0.25000000  0.96033773  1
  Cr  Cr128  1  0.61736431  0.58333333  0.46033773  1
  Cr  Cr129  1  0.61736431  0.58333333  0.96033773  1
  Cr  Cr130  1  0.61736431  0.91666667  0.46033773  1
  Cr  Cr131  1  0.61736431  0.91666667  0.96033773  1
  Cr  Cr132  1  0.38263569  0.08333333  0.03966227  1
  Cr  Cr133  1  0.38263569  0.08333333  0.53966227  1
  Cr  Cr134  1  0.38263569  0.41666667  0.03966227  1
  Cr  Cr135  1  0.38263569  0.41666667  0.53966227  1
  Cr  Cr136  1  0.38263569  0.75000000  0.03966227  1
  Cr  Cr137  1  0.38263569  0.75000000  0.53966227  1
  Cr  Cr138  1  0.88263569  0.08333333  0.03966227  1
  Cr  Cr139  1  0.88263569  0.08333333  0.53966227  1
  Cr  Cr140  1  0.88263569  0.41666667  0.03966227  1
  Cr  Cr141  1  0.88263569  0.41666667  0.53966227  1
  Cr  Cr142  1  0.88263569  0.75000000  0.03966227  1
  Cr  Cr143  1  0.88263569  0.75000000  0.53966227  1
  O  O144  1  0.26871144  0.25000000  0.29361518  1
  O  O145  1  0.26871144  0.25000000  0.79361518  1
  O  O146  1  0.26871144  0.58333333  0.29361518  1
  O  O147  1  0.26871144  0.58333333  0.79361518  1
  O  O148  1  0.26871144  0.91666667  0.29361518  1
  O  O149  1  0.26871144  0.91666667  0.79361518  1
  O  O150  1  0.76871144  0.25000000  0.29361518  1
  O  O151  1  0.76871144  0.25000000  0.79361518  1
  O  O152  1  0.76871144  0.58333333  0.29361518  1
  O  O153  1  0.76871144  0.58333333  0.79361518  1
  O  O154  1  0.76871144  0.91666667  0.29361518  1
  O  O155  1  0.76871144  0.91666667  0.79361518  1
  O  O156  1  0.23128856  0.08333333  0.20638482  1
  O  O157  1  0.23128856  0.08333333  0.70638482  1
  O  O158  1  0.23128856  0.41666667  0.20638482  1
  O  O159  1  0.23128856  0.41666667  0.70638482  1
  O  O160  1  0.23128856  0.75000000  0.20638482  1
  O  O161  1  0.23128856  0.75000000  0.70638482  1
  O  O162  1  0.73128856  0.08333333  0.20638482  1
  O  O163  1  0.73128856  0.08333333  0.70638482  1
  O  O164  1  0.73128856  0.41666667  0.20638482  1
  O  O165  1  0.73128856  0.41666667  0.70638482  1
  O  O166  1  0.73128856  0.75000000  0.20638482  1
  O  O167  1  0.73128856  0.75000000  0.70638482  1
  O  O168  1  0.48128856  0.08333333  0.04361518  1
  O  O169  1  0.48128856  0.08333333  0.54361518  1
  O  O170  1  0.48128856  0.41666667  0.04361518  1
  O  O171  1  0.48128856  0.41666667  0.54361518  1
  O  O172  1  0.48128856  0.75000000  0.04361518  1
  O  O173  1  0.48128856  0.75000000  0.54361518  1
  O  O174  1  0.98128856  0.08333333  0.04361518  1
  O  O175  1  0.98128856  0.08333333  0.54361518  1
  O  O176  1  0.98128856  0.41666667  0.04361518  1
  O  O177  1  0.98128856  0.41666667  0.54361518  1
  O  O178  1  0.98128856  0.75000000  0.04361518  1
  O  O179  1  0.98128856  0.75000000  0.54361518  1
  O  O180  1  0.01871144  0.25000000  0.45638482  1
  O  O181  1  0.01871144  0.25000000  0.95638482  1
  O  O182  1  0.01871144  0.58333333  0.45638482  1
  O  O183  1  0.01871144  0.58333333  0.95638482  1
  O  O184  1  0.01871144  0.91666667  0.45638482  1
  O  O185  1  0.01871144  0.91666667  0.95638482  1
  O  O186  1  0.51871144  0.25000000  0.45638482  1
  O  O187  1  0.51871144  0.25000000  0.95638482  1
  O  O188  1  0.51871144  0.58333333  0.45638482  1
  O  O189  1  0.51871144  0.58333333  0.95638482  1
  O  O190  1  0.51871144  0.91666667  0.45638482  1
  O  O191  1  0.51871144  0.91666667  0.95638482  1
  O  O192  1  0.39591204  0.25000000  0.21805133  1
  O  O193  1  0.39591204  0.25000000  0.71805133  1
  O  O194  1  0.39591204  0.58333333  0.21805133  1
  O  O195  1  0.39591204  0.58333333  0.71805133  1
  O  O196  1  0.39591204  0.91666667  0.21805133  1
  O  O197  1  0.39591204  0.91666667  0.71805133  1
  O  O198  1  0.89591204  0.25000000  0.21805133  1
  O  O199  1  0.89591204  0.25000000  0.71805133  1
  O  O200  1  0.89591204  0.58333333  0.21805133  1
  O  O201  1  0.89591204  0.58333333  0.71805133  1
  O  O202  1  0.89591204  0.91666667  0.21805133  1
  O  O203  1  0.89591204  0.91666667  0.71805133  1
  O  O204  1  0.35408796  0.08333333  0.46805133  1
  O  O205  1  0.35408796  0.08333333  0.96805133  1
  O  O206  1  0.35408796  0.41666667  0.46805133  1
  O  O207  1  0.35408796  0.41666667  0.96805133  1
  O  O208  1  0.35408796  0.75000000  0.46805133  1
  O  O209  1  0.35408796  0.75000000  0.96805133  1
  O  O210  1  0.85408796  0.08333333  0.46805133  1
  O  O211  1  0.85408796  0.08333333  0.96805133  1
  O  O212  1  0.85408796  0.41666667  0.46805133  1
  O  O213  1  0.85408796  0.41666667  0.96805133  1
  O  O214  1  0.85408796  0.75000000  0.46805133  1
  O  O215  1  0.85408796  0.75000000  0.96805133  1
  O  O216  1  0.10408796  0.08333333  0.28194867  1
  O  O217  1  0.10408796  0.08333333  0.78194867  1
  O  O218  1  0.10408796  0.41666667  0.28194867  1
  O  O219  1  0.10408796  0.41666667  0.78194867  1
  O  O220  1  0.10408796  0.75000000  0.28194867  1
  O  O221  1  0.10408796  0.75000000  0.78194867  1
  O  O222  1  0.60408796  0.08333333  0.28194867  1
  O  O223  1  0.60408796  0.08333333  0.78194867  1
  O  O224  1  0.60408796  0.41666667  0.28194867  1
  O  O225  1  0.60408796  0.41666667  0.78194867  1
  O  O226  1  0.60408796  0.75000000  0.28194867  1
  O  O227  1  0.60408796  0.75000000  0.78194867  1
  O  O228  1  0.14591204  0.25000000  0.03194867  1
  O  O229  1  0.14591204  0.25000000  0.53194867  1
  O  O230  1  0.14591204  0.58333333  0.03194867  1
  O  O231  1  0.14591204  0.58333333  0.53194867  1
  O  O232  1  0.14591204  0.91666667  0.03194867  1
  O  O233  1  0.14591204  0.91666667  0.53194867  1
  O  O234  1  0.64591204  0.25000000  0.03194867  1
  O  O235  1  0.64591204  0.25000000  0.53194867  1
  O  O236  1  0.64591204  0.58333333  0.03194867  1
  O  O237  1  0.64591204  0.58333333  0.53194867  1
  O  O238  1  0.64591204  0.91666667  0.03194867  1
  O  O239  1  0.64591204  0.91666667  0.53194867  1
  O  O240  1  0.34698459  0.15619955  0.07289058  1
  O  O241  1  0.34698459  0.15619955  0.57289058  1
  O  O242  1  0.34698459  0.48953288  0.07289058  1
  O  O243  1  0.34698459  0.48953288  0.57289058  1
  O  O244  1  0.34698459  0.82286621  0.07289058  1
  O  O245  1  0.34698459  0.82286621  0.57289058  1
  O  O246  1  0.84698459  0.15619955  0.07289058  1
  O  O247  1  0.84698459  0.15619955  0.57289058  1
  O  O248  1  0.84698459  0.48953288  0.07289058  1
  O  O249  1  0.84698459  0.48953288  0.57289058  1
  O  O250  1  0.84698459  0.82286621  0.07289058  1
  O  O251  1  0.84698459  0.82286621  0.57289058  1
  O  O252  1  0.15301541  0.32286621  0.42710942  1
  O  O253  1  0.15301541  0.32286621  0.92710942  1
  O  O254  1  0.15301541  0.65619955  0.42710942  1
  O  O255  1  0.15301541  0.65619955  0.92710942  1
  O  O256  1  0.15301541  0.98953288  0.42710942  1
  O  O257  1  0.15301541  0.98953288  0.92710942  1
  O  O258  1  0.65301541  0.32286621  0.42710942  1
  O  O259  1  0.65301541  0.32286621  0.92710942  1
  O  O260  1  0.65301541  0.65619955  0.42710942  1
  O  O261  1  0.65301541  0.65619955  0.92710942  1
  O  O262  1  0.65301541  0.98953288  0.42710942  1
  O  O263  1  0.65301541  0.98953288  0.92710942  1
  O  O264  1  0.15301541  0.17713379  0.42710942  1
  O  O265  1  0.15301541  0.17713379  0.92710942  1
  O  O266  1  0.15301541  0.51046712  0.42710942  1
  O  O267  1  0.15301541  0.51046712  0.92710942  1
  O  O268  1  0.15301541  0.84380045  0.42710942  1
  O  O269  1  0.15301541  0.84380045  0.92710942  1
  O  O270  1  0.65301541  0.17713379  0.42710942  1
  O  O271  1  0.65301541  0.17713379  0.92710942  1
  O  O272  1  0.65301541  0.51046712  0.42710942  1
  O  O273  1  0.65301541  0.51046712  0.92710942  1
  O  O274  1  0.65301541  0.84380045  0.42710942  1
  O  O275  1  0.65301541  0.84380045  0.92710942  1
  O  O276  1  0.09698459  0.15619955  0.17710942  1
  O  O277  1  0.09698459  0.15619955  0.67710942  1
  O  O278  1  0.09698459  0.48953288  0.17710942  1
  O  O279  1  0.09698459  0.48953288  0.67710942  1
  O  O280  1  0.09698459  0.82286621  0.17710942  1
  O  O281  1  0.09698459  0.82286621  0.67710942  1
  O  O282  1  0.59698459  0.15619955  0.17710942  1
  O  O283  1  0.59698459  0.15619955  0.67710942  1
  O  O284  1  0.59698459  0.48953288  0.17710942  1
  O  O285  1  0.59698459  0.48953288  0.67710942  1
  O  O286  1  0.59698459  0.82286621  0.17710942  1
  O  O287  1  0.59698459  0.82286621  0.67710942  1
  O  O288  1  0.09698459  0.01046712  0.17710942  1
  O  O289  1  0.09698459  0.01046712  0.67710942  1
  O  O290  1  0.09698459  0.34380045  0.17710942  1
  O  O291  1  0.09698459  0.34380045  0.67710942  1
  O  O292  1  0.09698459  0.67713379  0.17710942  1
  O  O293  1  0.09698459  0.67713379  0.67710942  1
  O  O294  1  0.59698459  0.01046712  0.17710942  1
  O  O295  1  0.59698459  0.01046712  0.67710942  1
  O  O296  1  0.59698459  0.34380045  0.17710942  1
  O  O297  1  0.59698459  0.34380045  0.67710942  1
  O  O298  1  0.59698459  0.67713379  0.17710942  1
  O  O299  1  0.59698459  0.67713379  0.67710942  1
  O  O300  1  0.34698459  0.01046712  0.07289058  1
  O  O301  1  0.34698459  0.01046712  0.57289058  1
  O  O302  1  0.34698459  0.34380045  0.07289058  1
  O  O303  1  0.34698459  0.34380045  0.57289058  1
  O  O304  1  0.34698459  0.67713379  0.07289058  1
  O  O305  1  0.34698459  0.67713379  0.57289058  1
  O  O306  1  0.84698459  0.01046712  0.07289058  1
  O  O307  1  0.84698459  0.01046712  0.57289058  1
  O  O308  1  0.84698459  0.34380045  0.07289058  1
  O  O309  1  0.84698459  0.34380045  0.57289058  1
  O  O310  1  0.84698459  0.67713379  0.07289058  1
  O  O311  1  0.84698459  0.67713379  0.57289058  1
  O  O312  1  0.40301541  0.17713379  0.32289058  1
  O  O313  1  0.40301541  0.17713379  0.82289058  1
  O  O314  1  0.40301541  0.51046712  0.32289058  1
  O  O315  1  0.40301541  0.51046712  0.82289058  1
  O  O316  1  0.40301541  0.84380045  0.32289058  1
  O  O317  1  0.40301541  0.84380045  0.82289058  1
  O  O318  1  0.90301541  0.17713379  0.32289058  1
  O  O319  1  0.90301541  0.17713379  0.82289058  1
  O  O320  1  0.90301541  0.51046712  0.32289058  1
  O  O321  1  0.90301541  0.51046712  0.82289058  1
  O  O322  1  0.90301541  0.84380045  0.32289058  1
  O  O323  1  0.90301541  0.84380045  0.82289058  1
  O  O324  1  0.40301541  0.32286621  0.32289058  1
  O  O325  1  0.40301541  0.32286621  0.82289058  1
  O  O326  1  0.40301541  0.65619955  0.32289058  1
  O  O327  1  0.40301541  0.65619955  0.82289058  1
  O  O328  1  0.40301541  0.98953288  0.32289058  1
  O  O329  1  0.40301541  0.98953288  0.82289058  1
  O  O330  1  0.90301541  0.32286621  0.32289058  1
  O  O331  1  0.90301541  0.32286621  0.82289058  1
  O  O332  1  0.90301541  0.65619955  0.32289058  1
  O  O333  1  0.90301541  0.65619955  0.82289058  1
  O  O334  1  0.90301541  0.98953288  0.32289058  1
  O  O335  1  0.90301541  0.98953288  0.82289058  1
