# generated using pymatgen
data_LaSb5O12
_symmetry_space_group_name_H-M   'P 1'
_cell_length_a   14.61771733
_cell_length_b   14.61771733
_cell_length_c   16.46241454
_cell_angle_alpha   90.00000000
_cell_angle_beta   90.00000000
_cell_angle_gamma   120.00000000
_symmetry_Int_Tables_number   1
_chemical_formula_structural   LaSb5O12
_chemical_formula_sum   'La12 Sb60 O144'
_cell_volume   3046.37444625
_cell_formula_units_Z   12
loop_
 _symmetry_equiv_pos_site_id
 _symmetry_equiv_pos_as_xyz
  1  'x, y, z'
loop_
 _atom_site_type_symbol
 _atom_site_label
 _atom_site_symmetry_multiplicity
 _atom_site_fract_x
 _atom_site_fract_y
 _atom_site_fract_z
 _atom_site_occupancy
  La  La0  1  -0.00000000  -0.00000000  0.50000000  1
  La  La1  1  -0.00000000  0.50000000  0.50000000  1
  La  La2  1  0.50000000  -0.00000000  0.50000000  1
  La  La3  1  0.50000000  0.50000000  0.50000000  1
  La  La4  1  0.33333333  0.16666667  0.83333333  1
  La  La5  1  0.33333333  0.66666667  0.83333333  1
  La  La6  1  0.83333333  0.16666667  0.83333333  1
  La  La7  1  0.83333333  0.66666667  0.83333333  1
  La  La8  1  0.16666667  0.33333333  1.16666667  1
  La  La9  1  0.16666667  0.83333333  1.16666667  1
  La  La10  1  0.66666667  0.33333333  1.16666667  1
  La  La11  1  0.66666667  0.83333333  1.16666667  1
  Sb  Sb12  1  -0.16666667  -0.08333333  0.33333333  1
  Sb  Sb13  1  -0.16666667  0.41666667  0.33333333  1
  Sb  Sb14  1  0.33333333  -0.08333333  0.33333333  1
  Sb  Sb15  1  0.33333333  0.41666667  0.33333333  1
  Sb  Sb16  1  0.16666667  0.08333333  0.66666667  1
  Sb  Sb17  1  0.16666667  0.58333333  0.66666667  1
  Sb  Sb18  1  0.66666667  0.08333333  0.66666667  1
  Sb  Sb19  1  0.66666667  0.58333333  0.66666667  1
  Sb  Sb20  1  -0.00000000  0.25000000  1.00000000  1
  Sb  Sb21  1  -0.00000000  0.75000000  1.00000000  1
  Sb  Sb22  1  0.50000000  0.25000000  1.00000000  1
  Sb  Sb23  1  0.50000000  0.75000000  1.00000000  1
  Sb  Sb24  1  0.08333333  -0.08333333  0.33333333  1
  Sb  Sb25  1  0.08333333  0.41666667  0.33333333  1
  Sb  Sb26  1  0.58333333  -0.08333333  0.33333333  1
  Sb  Sb27  1  0.58333333  0.41666667  0.33333333  1
  Sb  Sb28  1  0.41666667  0.08333333  0.66666667  1
  Sb  Sb29  1  0.41666667  0.58333333  0.66666667  1
  Sb  Sb30  1  0.91666667  0.08333333  0.66666667  1
  Sb  Sb31  1  0.91666667  0.58333333  0.66666667  1
  Sb  Sb32  1  0.25000000  0.25000000  1.00000000  1
  Sb  Sb33  1  0.25000000  0.75000000  1.00000000  1
  Sb  Sb34  1  0.75000000  0.25000000  1.00000000  1
  Sb  Sb35  1  0.75000000  0.75000000  1.00000000  1
  Sb  Sb36  1  0.08333333  0.16666667  0.33333333  1
  Sb  Sb37  1  0.08333333  0.66666667  0.33333333  1
  Sb  Sb38  1  0.58333333  0.16666667  0.33333333  1
  Sb  Sb39  1  0.58333333  0.66666667  0.33333333  1
  Sb  Sb40  1  0.41666667  0.33333333  0.66666667  1
  Sb  Sb41  1  0.41666667  0.83333333  0.66666667  1
  Sb  Sb42  1  0.91666667  0.33333333  0.66666667  1
  Sb  Sb43  1  0.91666667  0.83333333  0.66666667  1
  Sb  Sb44  1  0.25000000  0.50000000  1.00000000  1
  Sb  Sb45  1  0.25000000  1.00000000  1.00000000  1
  Sb  Sb46  1  0.75000000  0.50000000  1.00000000  1
  Sb  Sb47  1  0.75000000  1.00000000  1.00000000  1
  Sb  Sb48  1  -0.00000000  -0.00000000  0.84976899  1
  Sb  Sb49  1  -0.00000000  0.50000000  0.84976899  1
  Sb  Sb50  1  0.50000000  -0.00000000  0.84976899  1
  Sb  Sb51  1  0.50000000  0.50000000  0.84976899  1
  Sb  Sb52  1  0.33333333  0.16666667  1.18310232  1
  Sb  Sb53  1  0.33333333  0.66666667  1.18310232  1
  Sb  Sb54  1  0.83333333  0.16666667  1.18310232  1
  Sb  Sb55  1  0.83333333  0.66666667  1.18310232  1
  Sb  Sb56  1  0.16666667  0.33333333  1.51643566  1
  Sb  Sb57  1  0.16666667  0.83333333  1.51643566  1
  Sb  Sb58  1  0.66666667  0.33333333  1.51643566  1
  Sb  Sb59  1  0.66666667  0.83333333  1.51643566  1
  Sb  Sb60  1  0.00000000  -0.00000000  0.15023101  1
  Sb  Sb61  1  0.00000000  0.50000000  0.15023101  1
  Sb  Sb62  1  0.50000000  -0.00000000  0.15023101  1
  Sb  Sb63  1  0.50000000  0.50000000  0.15023101  1
  Sb  Sb64  1  0.33333333  0.16666667  0.48356434  1
  Sb  Sb65  1  0.33333333  0.66666667  0.48356434  1
  Sb  Sb66  1  0.83333333  0.16666667  0.48356434  1
  Sb  Sb67  1  0.83333333  0.66666667  0.48356434  1
  Sb  Sb68  1  0.16666667  0.33333333  0.81689768  1
  Sb  Sb69  1  0.16666667  0.83333333  0.81689768  1
  Sb  Sb70  1  0.66666667  0.33333333  0.81689768  1
  Sb  Sb71  1  0.66666667  0.83333333  0.81689768  1
  O  O72  1  -0.20093787  -0.10046894  0.45128057  1
  O  O73  1  -0.20093787  0.39953106  0.45128057  1
  O  O74  1  0.29906213  -0.10046894  0.45128057  1
  O  O75  1  0.29906213  0.39953106  0.45128057  1
  O  O76  1  0.13239546  0.06619773  0.78461390  1
  O  O77  1  0.13239546  0.56619773  0.78461390  1
  O  O78  1  0.63239546  0.06619773  0.78461390  1
  O  O79  1  0.63239546  0.56619773  0.78461390  1
  O  O80  1  -0.03427121  0.23286440  1.11794724  1
  O  O81  1  -0.03427121  0.73286440  1.11794724  1
  O  O82  1  0.46572879  0.23286440  1.11794724  1
  O  O83  1  0.46572879  0.73286440  1.11794724  1
  O  O84  1  0.10046894  -0.10046894  0.45128057  1
  O  O85  1  0.10046894  0.39953106  0.45128057  1
  O  O86  1  0.60046894  -0.10046894  0.45128057  1
  O  O87  1  0.60046894  0.39953106  0.45128057  1
  O  O88  1  0.43380227  0.06619773  0.78461390  1
  O  O89  1  0.43380227  0.56619773  0.78461390  1
  O  O90  1  0.93380227  0.06619773  0.78461390  1
  O  O91  1  0.93380227  0.56619773  0.78461390  1
  O  O92  1  0.26713560  0.23286440  1.11794724  1
  O  O93  1  0.26713560  0.73286440  1.11794724  1
  O  O94  1  0.76713560  0.23286440  1.11794724  1
  O  O95  1  0.76713560  0.73286440  1.11794724  1
  O  O96  1  0.10046894  0.20093787  0.45128057  1
  O  O97  1  0.10046894  0.70093787  0.45128057  1
  O  O98  1  0.60046894  0.20093787  0.45128057  1
  O  O99  1  0.60046894  0.70093787  0.45128057  1
  O  O100  1  0.43380227  0.36760454  0.78461390  1
  O  O101  1  0.43380227  0.86760454  0.78461390  1
  O  O102  1  0.93380227  0.36760454  0.78461390  1
  O  O103  1  0.93380227  0.86760454  0.78461390  1
  O  O104  1  0.26713560  0.53427121  1.11794724  1
  O  O105  1  0.26713560  1.03427121  1.11794724  1
  O  O106  1  0.76713560  0.53427121  1.11794724  1
  O  O107  1  0.76713560  1.03427121  1.11794724  1
  O  O108  1  0.20093787  0.10046894  0.54871943  1
  O  O109  1  0.20093787  0.60046894  0.54871943  1
  O  O110  1  0.70093787  0.10046894  0.54871943  1
  O  O111  1  0.70093787  0.60046894  0.54871943  1
  O  O112  1  0.53427121  0.26713560  0.88205276  1
  O  O113  1  0.53427121  0.76713560  0.88205276  1
  O  O114  1  1.03427121  0.26713560  0.88205276  1
  O  O115  1  1.03427121  0.76713560  0.88205276  1
  O  O116  1  0.36760454  0.43380227  1.21538610  1
  O  O117  1  0.36760454  0.93380227  1.21538610  1
  O  O118  1  0.86760454  0.43380227  1.21538610  1
  O  O119  1  0.86760454  0.93380227  1.21538610  1
  O  O120  1  -0.10046894  0.10046894  0.54871943  1
  O  O121  1  -0.10046894  0.60046894  0.54871943  1
  O  O122  1  0.39953106  0.10046894  0.54871943  1
  O  O123  1  0.39953106  0.60046894  0.54871943  1
  O  O124  1  0.23286440  0.26713560  0.88205276  1
  O  O125  1  0.23286440  0.76713560  0.88205276  1
  O  O126  1  0.73286440  0.26713560  0.88205276  1
  O  O127  1  0.73286440  0.76713560  0.88205276  1
  O  O128  1  0.06619773  0.43380227  1.21538610  1
  O  O129  1  0.06619773  0.93380227  1.21538610  1
  O  O130  1  0.56619773  0.43380227  1.21538610  1
  O  O131  1  0.56619773  0.93380227  1.21538610  1
  O  O132  1  -0.10046894  -0.20093787  0.54871943  1
  O  O133  1  -0.10046894  0.29906213  0.54871943  1
  O  O134  1  0.39953106  -0.20093787  0.54871943  1
  O  O135  1  0.39953106  0.29906213  0.54871943  1
  O  O136  1  0.23286440  -0.03427121  0.88205276  1
  O  O137  1  0.23286440  0.46572879  0.88205276  1
  O  O138  1  0.73286440  -0.03427121  0.88205276  1
  O  O139  1  0.73286440  0.46572879  0.88205276  1
  O  O140  1  0.06619773  0.13239546  1.21538610  1
  O  O141  1  0.06619773  0.63239546  1.21538610  1
  O  O142  1  0.56619773  0.13239546  1.21538610  1
  O  O143  1  0.56619773  0.63239546  1.21538610  1
  O  O144  1  -0.06295411  0.06295411  0.36822183  1
  O  O145  1  -0.06295411  0.56295411  0.36822183  1
  O  O146  1  0.43704589  0.06295411  0.36822183  1
  O  O147  1  0.43704589  0.56295411  0.36822183  1
  O  O148  1  0.27037922  0.22962078  0.70155516  1
  O  O149  1  0.27037922  0.72962078  0.70155516  1
  O  O150  1  0.77037922  0.22962078  0.70155516  1
  O  O151  1  0.77037922  0.72962078  0.70155516  1
  O  O152  1  0.10371256  0.39628744  1.03488850  1
  O  O153  1  0.10371256  0.89628744  1.03488850  1
  O  O154  1  0.60371256  0.39628744  1.03488850  1
  O  O155  1  0.60371256  0.89628744  1.03488850  1
  O  O156  1  0.12590822  0.06295411  0.36822183  1
  O  O157  1  0.12590822  0.56295411  0.36822183  1
  O  O158  1  0.62590822  0.06295411  0.36822183  1
  O  O159  1  0.62590822  0.56295411  0.36822183  1
  O  O160  1  0.45924155  0.22962078  0.70155516  1
  O  O161  1  0.45924155  0.72962078  0.70155516  1
  O  O162  1  0.95924155  0.22962078  0.70155516  1
  O  O163  1  0.95924155  0.72962078  0.70155516  1
  O  O164  1  0.29257488  0.39628744  1.03488850  1
  O  O165  1  0.29257488  0.89628744  1.03488850  1
  O  O166  1  0.79257488  0.39628744  1.03488850  1
  O  O167  1  0.79257488  0.89628744  1.03488850  1
  O  O168  1  -0.06295411  -0.12590822  0.36822183  1
  O  O169  1  -0.06295411  0.37409178  0.36822183  1
  O  O170  1  0.43704589  -0.12590822  0.36822183  1
  O  O171  1  0.43704589  0.37409178  0.36822183  1
  O  O172  1  0.27037922  0.04075845  0.70155516  1
  O  O173  1  0.27037922  0.54075845  0.70155516  1
  O  O174  1  0.77037922  0.04075845  0.70155516  1
  O  O175  1  0.77037922  0.54075845  0.70155516  1
  O  O176  1  0.10371256  0.20742512  1.03488850  1
  O  O177  1  0.10371256  0.70742512  1.03488850  1
  O  O178  1  0.60371256  0.20742512  1.03488850  1
  O  O179  1  0.60371256  0.70742512  1.03488850  1
  O  O180  1  -0.12590822  -0.06295411  0.63177817  1
  O  O181  1  -0.12590822  0.43704589  0.63177817  1
  O  O182  1  0.37409178  -0.06295411  0.63177817  1
  O  O183  1  0.37409178  0.43704589  0.63177817  1
  O  O184  1  0.20742512  0.10371256  0.96511150  1
  O  O185  1  0.20742512  0.60371256  0.96511150  1
  O  O186  1  0.70742512  0.10371256  0.96511150  1
  O  O187  1  0.70742512  0.60371256  0.96511150  1
  O  O188  1  0.04075845  0.27037922  1.29844484  1
  O  O189  1  0.04075845  0.77037922  1.29844484  1
  O  O190  1  0.54075845  0.27037922  1.29844484  1
  O  O191  1  0.54075845  0.77037922  1.29844484  1
  O  O192  1  0.06295411  0.12590822  0.63177817  1
  O  O193  1  0.06295411  0.62590822  0.63177817  1
  O  O194  1  0.56295411  0.12590822  0.63177817  1
  O  O195  1  0.56295411  0.62590822  0.63177817  1
  O  O196  1  0.39628744  0.29257488  0.96511150  1
  O  O197  1  0.39628744  0.79257488  0.96511150  1
  O  O198  1  0.89628744  0.29257488  0.96511150  1
  O  O199  1  0.89628744  0.79257488  0.96511150  1
  O  O200  1  0.22962078  0.45924155  1.29844484  1
  O  O201  1  0.22962078  0.95924155  1.29844484  1
  O  O202  1  0.72962078  0.45924155  1.29844484  1
  O  O203  1  0.72962078  0.95924155  1.29844484  1
  O  O204  1  0.06295411  -0.06295411  0.63177817  1
  O  O205  1  0.06295411  0.43704589  0.63177817  1
  O  O206  1  0.56295411  -0.06295411  0.63177817  1
  O  O207  1  0.56295411  0.43704589  0.63177817  1
  O  O208  1  0.39628744  0.10371256  0.96511150  1
  O  O209  1  0.39628744  0.60371256  0.96511150  1
  O  O210  1  0.89628744  0.10371256  0.96511150  1
  O  O211  1  0.89628744  0.60371256  0.96511150  1
  O  O212  1  0.22962078  0.27037922  1.29844484  1
  O  O213  1  0.22962078  0.77037922  1.29844484  1
  O  O214  1  0.72962078  0.27037922  1.29844484  1
  O  O215  1  0.72962078  0.77037922  1.29844484  1
