# generated using pymatgen
data_CsCu3O2
_symmetry_space_group_name_H-M   'P 1'
_cell_length_a   20.16599268
_cell_length_b   20.16599268
_cell_length_c   22.06318955
_cell_angle_alpha   90.00000000
_cell_angle_beta   90.00000000
_cell_angle_gamma   120.00000000
_symmetry_Int_Tables_number   1
_chemical_formula_structural   CsCu3O2
_chemical_formula_sum   'Cs64 Cu192 O128'
_cell_volume   7770.30628996
_cell_formula_units_Z   64
loop_
 _symmetry_equiv_pos_site_id
 _symmetry_equiv_pos_as_xyz
  1  'x, y, z'
loop_
 _atom_site_type_symbol
 _atom_site_label
 _atom_site_symmetry_multiplicity
 _atom_site_fract_x
 _atom_site_fract_y
 _atom_site_fract_z
 _atom_site_occupancy
  Cs  Cs0  1  0.00000000  0.00000000  0.12500000  1
  Cs  Cs1  1  0.00000000  0.00000000  0.37500000  1
  Cs  Cs2  1  0.00000000  0.00000000  0.62500000  1
  Cs  Cs3  1  0.00000000  0.00000000  0.87500000  1
  Cs  Cs4  1  -0.00000000  0.25000000  0.12500000  1
  Cs  Cs5  1  -0.00000000  0.25000000  0.37500000  1
  Cs  Cs6  1  -0.00000000  0.25000000  0.62500000  1
  Cs  Cs7  1  -0.00000000  0.25000000  0.87500000  1
  Cs  Cs8  1  -0.00000000  0.50000000  0.12500000  1
  Cs  Cs9  1  -0.00000000  0.50000000  0.37500000  1
  Cs  Cs10  1  -0.00000000  0.50000000  0.62500000  1
  Cs  Cs11  1  -0.00000000  0.50000000  0.87500000  1
  Cs  Cs12  1  0.00000000  0.75000000  0.12500000  1
  Cs  Cs13  1  0.00000000  0.75000000  0.37500000  1
  Cs  Cs14  1  0.00000000  0.75000000  0.62500000  1
  Cs  Cs15  1  0.00000000  0.75000000  0.87500000  1
  Cs  Cs16  1  0.25000000  0.00000000  0.12500000  1
  Cs  Cs17  1  0.25000000  0.00000000  0.37500000  1
  Cs  Cs18  1  0.25000000  0.00000000  0.62500000  1
  Cs  Cs19  1  0.25000000  0.00000000  0.87500000  1
  Cs  Cs20  1  0.25000000  0.25000000  0.12500000  1
  Cs  Cs21  1  0.25000000  0.25000000  0.37500000  1
  Cs  Cs22  1  0.25000000  0.25000000  0.62500000  1
  Cs  Cs23  1  0.25000000  0.25000000  0.87500000  1
  Cs  Cs24  1  0.25000000  0.50000000  0.12500000  1
  Cs  Cs25  1  0.25000000  0.50000000  0.37500000  1
  Cs  Cs26  1  0.25000000  0.50000000  0.62500000  1
  Cs  Cs27  1  0.25000000  0.50000000  0.87500000  1
  Cs  Cs28  1  0.25000000  0.75000000  0.12500000  1
  Cs  Cs29  1  0.25000000  0.75000000  0.37500000  1
  Cs  Cs30  1  0.25000000  0.75000000  0.62500000  1
  Cs  Cs31  1  0.25000000  0.75000000  0.87500000  1
  Cs  Cs32  1  0.50000000  0.00000000  0.12500000  1
  Cs  Cs33  1  0.50000000  0.00000000  0.37500000  1
  Cs  Cs34  1  0.50000000  0.00000000  0.62500000  1
  Cs  Cs35  1  0.50000000  0.00000000  0.87500000  1
  Cs  Cs36  1  0.50000000  0.25000000  0.12500000  1
  Cs  Cs37  1  0.50000000  0.25000000  0.37500000  1
  Cs  Cs38  1  0.50000000  0.25000000  0.62500000  1
  Cs  Cs39  1  0.50000000  0.25000000  0.87500000  1
  Cs  Cs40  1  0.50000000  0.50000000  0.12500000  1
  Cs  Cs41  1  0.50000000  0.50000000  0.37500000  1
  Cs  Cs42  1  0.50000000  0.50000000  0.62500000  1
  Cs  Cs43  1  0.50000000  0.50000000  0.87500000  1
  Cs  Cs44  1  0.50000000  0.75000000  0.12500000  1
  Cs  Cs45  1  0.50000000  0.75000000  0.37500000  1
  Cs  Cs46  1  0.50000000  0.75000000  0.62500000  1
  Cs  Cs47  1  0.50000000  0.75000000  0.87500000  1
  Cs  Cs48  1  0.75000000  0.00000000  0.12500000  1
  Cs  Cs49  1  0.75000000  0.00000000  0.37500000  1
  Cs  Cs50  1  0.75000000  0.00000000  0.62500000  1
  Cs  Cs51  1  0.75000000  0.00000000  0.87500000  1
  Cs  Cs52  1  0.75000000  0.25000000  0.12500000  1
  Cs  Cs53  1  0.75000000  0.25000000  0.37500000  1
  Cs  Cs54  1  0.75000000  0.25000000  0.62500000  1
  Cs  Cs55  1  0.75000000  0.25000000  0.87500000  1
  Cs  Cs56  1  0.75000000  0.50000000  0.12500000  1
  Cs  Cs57  1  0.75000000  0.50000000  0.37500000  1
  Cs  Cs58  1  0.75000000  0.50000000  0.62500000  1
  Cs  Cs59  1  0.75000000  0.50000000  0.87500000  1
  Cs  Cs60  1  0.75000000  0.75000000  0.12500000  1
  Cs  Cs61  1  0.75000000  0.75000000  0.37500000  1
  Cs  Cs62  1  0.75000000  0.75000000  0.62500000  1
  Cs  Cs63  1  0.75000000  0.75000000  0.87500000  1
  Cu  Cu64  1  0.12500000  0.12500000  0.00000000  1
  Cu  Cu65  1  0.12500000  0.12500000  0.25000000  1
  Cu  Cu66  1  0.12500000  0.12500000  0.50000000  1
  Cu  Cu67  1  0.12500000  0.12500000  0.75000000  1
  Cu  Cu68  1  0.12500000  0.37500000  0.00000000  1
  Cu  Cu69  1  0.12500000  0.37500000  0.25000000  1
  Cu  Cu70  1  0.12500000  0.37500000  0.50000000  1
  Cu  Cu71  1  0.12500000  0.37500000  0.75000000  1
  Cu  Cu72  1  0.12500000  0.62500000  0.00000000  1
  Cu  Cu73  1  0.12500000  0.62500000  0.25000000  1
  Cu  Cu74  1  0.12500000  0.62500000  0.50000000  1
  Cu  Cu75  1  0.12500000  0.62500000  0.75000000  1
  Cu  Cu76  1  0.12500000  0.87500000  0.00000000  1
  Cu  Cu77  1  0.12500000  0.87500000  0.25000000  1
  Cu  Cu78  1  0.12500000  0.87500000  0.50000000  1
  Cu  Cu79  1  0.12500000  0.87500000  0.75000000  1
  Cu  Cu80  1  0.37500000  0.12500000  0.00000000  1
  Cu  Cu81  1  0.37500000  0.12500000  0.25000000  1
  Cu  Cu82  1  0.37500000  0.12500000  0.50000000  1
  Cu  Cu83  1  0.37500000  0.12500000  0.75000000  1
  Cu  Cu84  1  0.37500000  0.37500000  0.00000000  1
  Cu  Cu85  1  0.37500000  0.37500000  0.25000000  1
  Cu  Cu86  1  0.37500000  0.37500000  0.50000000  1
  Cu  Cu87  1  0.37500000  0.37500000  0.75000000  1
  Cu  Cu88  1  0.37500000  0.62500000  0.00000000  1
  Cu  Cu89  1  0.37500000  0.62500000  0.25000000  1
  Cu  Cu90  1  0.37500000  0.62500000  0.50000000  1
  Cu  Cu91  1  0.37500000  0.62500000  0.75000000  1
  Cu  Cu92  1  0.37500000  0.87500000  0.00000000  1
  Cu  Cu93  1  0.37500000  0.87500000  0.25000000  1
  Cu  Cu94  1  0.37500000  0.87500000  0.50000000  1
  Cu  Cu95  1  0.37500000  0.87500000  0.75000000  1
  Cu  Cu96  1  0.62500000  0.12500000  0.00000000  1
  Cu  Cu97  1  0.62500000  0.12500000  0.25000000  1
  Cu  Cu98  1  0.62500000  0.12500000  0.50000000  1
  Cu  Cu99  1  0.62500000  0.12500000  0.75000000  1
  Cu  Cu100  1  0.62500000  0.37500000  0.00000000  1
  Cu  Cu101  1  0.62500000  0.37500000  0.25000000  1
  Cu  Cu102  1  0.62500000  0.37500000  0.50000000  1
  Cu  Cu103  1  0.62500000  0.37500000  0.75000000  1
  Cu  Cu104  1  0.62500000  0.62500000  0.00000000  1
  Cu  Cu105  1  0.62500000  0.62500000  0.25000000  1
  Cu  Cu106  1  0.62500000  0.62500000  0.50000000  1
  Cu  Cu107  1  0.62500000  0.62500000  0.75000000  1
  Cu  Cu108  1  0.62500000  0.87500000  0.00000000  1
  Cu  Cu109  1  0.62500000  0.87500000  0.25000000  1
  Cu  Cu110  1  0.62500000  0.87500000  0.50000000  1
  Cu  Cu111  1  0.62500000  0.87500000  0.75000000  1
  Cu  Cu112  1  0.87500000  0.12500000  0.00000000  1
  Cu  Cu113  1  0.87500000  0.12500000  0.25000000  1
  Cu  Cu114  1  0.87500000  0.12500000  0.50000000  1
  Cu  Cu115  1  0.87500000  0.12500000  0.75000000  1
  Cu  Cu116  1  0.87500000  0.37500000  0.00000000  1
  Cu  Cu117  1  0.87500000  0.37500000  0.25000000  1
  Cu  Cu118  1  0.87500000  0.37500000  0.50000000  1
  Cu  Cu119  1  0.87500000  0.37500000  0.75000000  1
  Cu  Cu120  1  0.87500000  0.62500000  0.00000000  1
  Cu  Cu121  1  0.87500000  0.62500000  0.25000000  1
  Cu  Cu122  1  0.87500000  0.62500000  0.50000000  1
  Cu  Cu123  1  0.87500000  0.62500000  0.75000000  1
  Cu  Cu124  1  0.87500000  0.87500000  0.00000000  1
  Cu  Cu125  1  0.87500000  0.87500000  0.25000000  1
  Cu  Cu126  1  0.87500000  0.87500000  0.50000000  1
  Cu  Cu127  1  0.87500000  0.87500000  0.75000000  1
  Cu  Cu128  1  -0.00000000  0.12500000  0.00000000  1
  Cu  Cu129  1  -0.00000000  0.12500000  0.25000000  1
  Cu  Cu130  1  -0.00000000  0.12500000  0.50000000  1
  Cu  Cu131  1  -0.00000000  0.12500000  0.75000000  1
  Cu  Cu132  1  0.00000000  0.37500000  0.00000000  1
  Cu  Cu133  1  0.00000000  0.37500000  0.25000000  1
  Cu  Cu134  1  0.00000000  0.37500000  0.50000000  1
  Cu  Cu135  1  0.00000000  0.37500000  0.75000000  1
  Cu  Cu136  1  -0.00000000  0.62500000  0.00000000  1
  Cu  Cu137  1  -0.00000000  0.62500000  0.25000000  1
  Cu  Cu138  1  -0.00000000  0.62500000  0.50000000  1
  Cu  Cu139  1  -0.00000000  0.62500000  0.75000000  1
  Cu  Cu140  1  -0.00000000  0.87500000  0.00000000  1
  Cu  Cu141  1  -0.00000000  0.87500000  0.25000000  1
  Cu  Cu142  1  -0.00000000  0.87500000  0.50000000  1
  Cu  Cu143  1  -0.00000000  0.87500000  0.75000000  1
  Cu  Cu144  1  0.25000000  0.12500000  0.00000000  1
  Cu  Cu145  1  0.25000000  0.12500000  0.25000000  1
  Cu  Cu146  1  0.25000000  0.12500000  0.50000000  1
  Cu  Cu147  1  0.25000000  0.12500000  0.75000000  1
  Cu  Cu148  1  0.25000000  0.37500000  0.00000000  1
  Cu  Cu149  1  0.25000000  0.37500000  0.25000000  1
  Cu  Cu150  1  0.25000000  0.37500000  0.50000000  1
  Cu  Cu151  1  0.25000000  0.37500000  0.75000000  1
  Cu  Cu152  1  0.25000000  0.62500000  0.00000000  1
  Cu  Cu153  1  0.25000000  0.62500000  0.25000000  1
  Cu  Cu154  1  0.25000000  0.62500000  0.50000000  1
  Cu  Cu155  1  0.25000000  0.62500000  0.75000000  1
  Cu  Cu156  1  0.25000000  0.87500000  0.00000000  1
  Cu  Cu157  1  0.25000000  0.87500000  0.25000000  1
  Cu  Cu158  1  0.25000000  0.87500000  0.50000000  1
  Cu  Cu159  1  0.25000000  0.87500000  0.75000000  1
  Cu  Cu160  1  0.50000000  0.12500000  0.00000000  1
  Cu  Cu161  1  0.50000000  0.12500000  0.25000000  1
  Cu  Cu162  1  0.50000000  0.12500000  0.50000000  1
  Cu  Cu163  1  0.50000000  0.12500000  0.75000000  1
  Cu  Cu164  1  0.50000000  0.37500000  0.00000000  1
  Cu  Cu165  1  0.50000000  0.37500000  0.25000000  1
  Cu  Cu166  1  0.50000000  0.37500000  0.50000000  1
  Cu  Cu167  1  0.50000000  0.37500000  0.75000000  1
  Cu  Cu168  1  0.50000000  0.62500000  0.00000000  1
  Cu  Cu169  1  0.50000000  0.62500000  0.25000000  1
  Cu  Cu170  1  0.50000000  0.62500000  0.50000000  1
  Cu  Cu171  1  0.50000000  0.62500000  0.75000000  1
  Cu  Cu172  1  0.50000000  0.87500000  0.00000000  1
  Cu  Cu173  1  0.50000000  0.87500000  0.25000000  1
  Cu  Cu174  1  0.50000000  0.87500000  0.50000000  1
  Cu  Cu175  1  0.50000000  0.87500000  0.75000000  1
  Cu  Cu176  1  0.75000000  0.12500000  0.00000000  1
  Cu  Cu177  1  0.75000000  0.12500000  0.25000000  1
  Cu  Cu178  1  0.75000000  0.12500000  0.50000000  1
  Cu  Cu179  1  0.75000000  0.12500000  0.75000000  1
  Cu  Cu180  1  0.75000000  0.37500000  0.00000000  1
  Cu  Cu181  1  0.75000000  0.37500000  0.25000000  1
  Cu  Cu182  1  0.75000000  0.37500000  0.50000000  1
  Cu  Cu183  1  0.75000000  0.37500000  0.75000000  1
  Cu  Cu184  1  0.75000000  0.62500000  0.00000000  1
  Cu  Cu185  1  0.75000000  0.62500000  0.25000000  1
  Cu  Cu186  1  0.75000000  0.62500000  0.50000000  1
  Cu  Cu187  1  0.75000000  0.62500000  0.75000000  1
  Cu  Cu188  1  0.75000000  0.87500000  0.00000000  1
  Cu  Cu189  1  0.75000000  0.87500000  0.25000000  1
  Cu  Cu190  1  0.75000000  0.87500000  0.50000000  1
  Cu  Cu191  1  0.75000000  0.87500000  0.75000000  1
  Cu  Cu192  1  0.12500000  0.00000000  0.00000000  1
  Cu  Cu193  1  0.12500000  0.00000000  0.25000000  1
  Cu  Cu194  1  0.12500000  0.00000000  0.50000000  1
  Cu  Cu195  1  0.12500000  0.00000000  0.75000000  1
  Cu  Cu196  1  0.12500000  0.25000000  0.00000000  1
  Cu  Cu197  1  0.12500000  0.25000000  0.25000000  1
  Cu  Cu198  1  0.12500000  0.25000000  0.50000000  1
  Cu  Cu199  1  0.12500000  0.25000000  0.75000000  1
  Cu  Cu200  1  0.12500000  0.50000000  0.00000000  1
  Cu  Cu201  1  0.12500000  0.50000000  0.25000000  1
  Cu  Cu202  1  0.12500000  0.50000000  0.50000000  1
  Cu  Cu203  1  0.12500000  0.50000000  0.75000000  1
  Cu  Cu204  1  0.12500000  0.75000000  0.00000000  1
  Cu  Cu205  1  0.12500000  0.75000000  0.25000000  1
  Cu  Cu206  1  0.12500000  0.75000000  0.50000000  1
  Cu  Cu207  1  0.12500000  0.75000000  0.75000000  1
  Cu  Cu208  1  0.37500000  0.00000000  0.00000000  1
  Cu  Cu209  1  0.37500000  0.00000000  0.25000000  1
  Cu  Cu210  1  0.37500000  0.00000000  0.50000000  1
  Cu  Cu211  1  0.37500000  0.00000000  0.75000000  1
  Cu  Cu212  1  0.37500000  0.25000000  0.00000000  1
  Cu  Cu213  1  0.37500000  0.25000000  0.25000000  1
  Cu  Cu214  1  0.37500000  0.25000000  0.50000000  1
  Cu  Cu215  1  0.37500000  0.25000000  0.75000000  1
  Cu  Cu216  1  0.37500000  0.50000000  0.00000000  1
  Cu  Cu217  1  0.37500000  0.50000000  0.25000000  1
  Cu  Cu218  1  0.37500000  0.50000000  0.50000000  1
  Cu  Cu219  1  0.37500000  0.50000000  0.75000000  1
  Cu  Cu220  1  0.37500000  0.75000000  0.00000000  1
  Cu  Cu221  1  0.37500000  0.75000000  0.25000000  1
  Cu  Cu222  1  0.37500000  0.75000000  0.50000000  1
  Cu  Cu223  1  0.37500000  0.75000000  0.75000000  1
  Cu  Cu224  1  0.62500000  0.00000000  0.00000000  1
  Cu  Cu225  1  0.62500000  0.00000000  0.25000000  1
  Cu  Cu226  1  0.62500000  0.00000000  0.50000000  1
  Cu  Cu227  1  0.62500000  0.00000000  0.75000000  1
  Cu  Cu228  1  0.62500000  0.25000000  0.00000000  1
  Cu  Cu229  1  0.62500000  0.25000000  0.25000000  1
  Cu  Cu230  1  0.62500000  0.25000000  0.50000000  1
  Cu  Cu231  1  0.62500000  0.25000000  0.75000000  1
  Cu  Cu232  1  0.62500000  0.50000000  0.00000000  1
  Cu  Cu233  1  0.62500000  0.50000000  0.25000000  1
  Cu  Cu234  1  0.62500000  0.50000000  0.50000000  1
  Cu  Cu235  1  0.62500000  0.50000000  0.75000000  1
  Cu  Cu236  1  0.62500000  0.75000000  0.00000000  1
  Cu  Cu237  1  0.62500000  0.75000000  0.25000000  1
  Cu  Cu238  1  0.62500000  0.75000000  0.50000000  1
  Cu  Cu239  1  0.62500000  0.75000000  0.75000000  1
  Cu  Cu240  1  0.87500000  0.00000000  0.00000000  1
  Cu  Cu241  1  0.87500000  0.00000000  0.25000000  1
  Cu  Cu242  1  0.87500000  0.00000000  0.50000000  1
  Cu  Cu243  1  0.87500000  0.00000000  0.75000000  1
  Cu  Cu244  1  0.87500000  0.25000000  0.00000000  1
  Cu  Cu245  1  0.87500000  0.25000000  0.25000000  1
  Cu  Cu246  1  0.87500000  0.25000000  0.50000000  1
  Cu  Cu247  1  0.87500000  0.25000000  0.75000000  1
  Cu  Cu248  1  0.87500000  0.50000000  0.00000000  1
  Cu  Cu249  1  0.87500000  0.50000000  0.25000000  1
  Cu  Cu250  1  0.87500000  0.50000000  0.50000000  1
  Cu  Cu251  1  0.87500000  0.50000000  0.75000000  1
  Cu  Cu252  1  0.87500000  0.75000000  0.00000000  1
  Cu  Cu253  1  0.87500000  0.75000000  0.25000000  1
  Cu  Cu254  1  0.87500000  0.75000000  0.50000000  1
  Cu  Cu255  1  0.87500000  0.75000000  0.75000000  1
  O  O256  1  0.16666667  0.08333333  0.20019650  1
  O  O257  1  0.16666667  0.08333333  0.45019650  1
  O  O258  1  0.16666667  0.08333333  0.70019650  1
  O  O259  1  0.16666667  0.08333333  0.95019650  1
  O  O260  1  0.16666667  0.33333333  0.20019650  1
  O  O261  1  0.16666667  0.33333333  0.45019650  1
  O  O262  1  0.16666667  0.33333333  0.70019650  1
  O  O263  1  0.16666667  0.33333333  0.95019650  1
  O  O264  1  0.16666667  0.58333333  0.20019650  1
  O  O265  1  0.16666667  0.58333333  0.45019650  1
  O  O266  1  0.16666667  0.58333333  0.70019650  1
  O  O267  1  0.16666667  0.58333333  0.95019650  1
  O  O268  1  0.16666667  0.83333333  0.20019650  1
  O  O269  1  0.16666667  0.83333333  0.45019650  1
  O  O270  1  0.16666667  0.83333333  0.70019650  1
  O  O271  1  0.16666667  0.83333333  0.95019650  1
  O  O272  1  0.41666667  0.08333333  0.20019650  1
  O  O273  1  0.41666667  0.08333333  0.45019650  1
  O  O274  1  0.41666667  0.08333333  0.70019650  1
  O  O275  1  0.41666667  0.08333333  0.95019650  1
  O  O276  1  0.41666667  0.33333333  0.20019650  1
  O  O277  1  0.41666667  0.33333333  0.45019650  1
  O  O278  1  0.41666667  0.33333333  0.70019650  1
  O  O279  1  0.41666667  0.33333333  0.95019650  1
  O  O280  1  0.41666667  0.58333333  0.20019650  1
  O  O281  1  0.41666667  0.58333333  0.45019650  1
  O  O282  1  0.41666667  0.58333333  0.70019650  1
  O  O283  1  0.41666667  0.58333333  0.95019650  1
  O  O284  1  0.41666667  0.83333333  0.20019650  1
  O  O285  1  0.41666667  0.83333333  0.45019650  1
  O  O286  1  0.41666667  0.83333333  0.70019650  1
  O  O287  1  0.41666667  0.83333333  0.95019650  1
  O  O288  1  0.66666667  0.08333333  0.20019650  1
  O  O289  1  0.66666667  0.08333333  0.45019650  1
  O  O290  1  0.66666667  0.08333333  0.70019650  1
  O  O291  1  0.66666667  0.08333333  0.95019650  1
  O  O292  1  0.66666667  0.33333333  0.20019650  1
  O  O293  1  0.66666667  0.33333333  0.45019650  1
  O  O294  1  0.66666667  0.33333333  0.70019650  1
  O  O295  1  0.66666667  0.33333333  0.95019650  1
  O  O296  1  0.66666667  0.58333333  0.20019650  1
  O  O297  1  0.66666667  0.58333333  0.45019650  1
  O  O298  1  0.66666667  0.58333333  0.70019650  1
  O  O299  1  0.66666667  0.58333333  0.95019650  1
  O  O300  1  0.66666667  0.83333333  0.20019650  1
  O  O301  1  0.66666667  0.83333333  0.45019650  1
  O  O302  1  0.66666667  0.83333333  0.70019650  1
  O  O303  1  0.66666667  0.83333333  0.95019650  1
  O  O304  1  0.91666667  0.08333333  0.20019650  1
  O  O305  1  0.91666667  0.08333333  0.45019650  1
  O  O306  1  0.91666667  0.08333333  0.70019650  1
  O  O307  1  0.91666667  0.08333333  0.95019650  1
  O  O308  1  0.91666667  0.33333333  0.20019650  1
  O  O309  1  0.91666667  0.33333333  0.45019650  1
  O  O310  1  0.91666667  0.33333333  0.70019650  1
  O  O311  1  0.91666667  0.33333333  0.95019650  1
  O  O312  1  0.91666667  0.58333333  0.20019650  1
  O  O313  1  0.91666667  0.58333333  0.45019650  1
  O  O314  1  0.91666667  0.58333333  0.70019650  1
  O  O315  1  0.91666667  0.58333333  0.95019650  1
  O  O316  1  0.91666667  0.83333333  0.20019650  1
  O  O317  1  0.91666667  0.83333333  0.45019650  1
  O  O318  1  0.91666667  0.83333333  0.70019650  1
  O  O319  1  0.91666667  0.83333333  0.95019650  1
  O  O320  1  0.08333333  0.16666667  0.04980350  1
  O  O321  1  0.08333333  0.16666667  0.29980350  1
  O  O322  1  0.08333333  0.16666667  0.54980350  1
  O  O323  1  0.08333333  0.16666667  0.79980350  1
  O  O324  1  0.08333333  0.41666667  0.04980350  1
  O  O325  1  0.08333333  0.41666667  0.29980350  1
  O  O326  1  0.08333333  0.41666667  0.54980350  1
  O  O327  1  0.08333333  0.41666667  0.79980350  1
  O  O328  1  0.08333333  0.66666667  0.04980350  1
  O  O329  1  0.08333333  0.66666667  0.29980350  1
  O  O330  1  0.08333333  0.66666667  0.54980350  1
  O  O331  1  0.08333333  0.66666667  0.79980350  1
  O  O332  1  0.08333333  0.91666667  0.04980350  1
  O  O333  1  0.08333333  0.91666667  0.29980350  1
  O  O334  1  0.08333333  0.91666667  0.54980350  1
  O  O335  1  0.08333333  0.91666667  0.79980350  1
  O  O336  1  0.33333333  0.16666667  0.04980350  1
  O  O337  1  0.33333333  0.16666667  0.29980350  1
  O  O338  1  0.33333333  0.16666667  0.54980350  1
  O  O339  1  0.33333333  0.16666667  0.79980350  1
  O  O340  1  0.33333333  0.41666667  0.04980350  1
  O  O341  1  0.33333333  0.41666667  0.29980350  1
  O  O342  1  0.33333333  0.41666667  0.54980350  1
  O  O343  1  0.33333333  0.41666667  0.79980350  1
  O  O344  1  0.33333333  0.66666667  0.04980350  1
  O  O345  1  0.33333333  0.66666667  0.29980350  1
  O  O346  1  0.33333333  0.66666667  0.54980350  1
  O  O347  1  0.33333333  0.66666667  0.79980350  1
  O  O348  1  0.33333333  0.91666667  0.04980350  1
  O  O349  1  0.33333333  0.91666667  0.29980350  1
  O  O350  1  0.33333333  0.91666667  0.54980350  1
  O  O351  1  0.33333333  0.91666667  0.79980350  1
  O  O352  1  0.58333333  0.16666667  0.04980350  1
  O  O353  1  0.58333333  0.16666667  0.29980350  1
  O  O354  1  0.58333333  0.16666667  0.54980350  1
  O  O355  1  0.58333333  0.16666667  0.79980350  1
  O  O356  1  0.58333333  0.41666667  0.04980350  1
  O  O357  1  0.58333333  0.41666667  0.29980350  1
  O  O358  1  0.58333333  0.41666667  0.54980350  1
  O  O359  1  0.58333333  0.41666667  0.79980350  1
  O  O360  1  0.58333333  0.66666667  0.04980350  1
  O  O361  1  0.58333333  0.66666667  0.29980350  1
  O  O362  1  0.58333333  0.66666667  0.54980350  1
  O  O363  1  0.58333333  0.66666667  0.79980350  1
  O  O364  1  0.58333333  0.91666667  0.04980350  1
  O  O365  1  0.58333333  0.91666667  0.29980350  1
  O  O366  1  0.58333333  0.91666667  0.54980350  1
  O  O367  1  0.58333333  0.91666667  0.79980350  1
  O  O368  1  0.83333333  0.16666667  0.04980350  1
  O  O369  1  0.83333333  0.16666667  0.29980350  1
  O  O370  1  0.83333333  0.16666667  0.54980350  1
  O  O371  1  0.83333333  0.16666667  0.79980350  1
  O  O372  1  0.83333333  0.41666667  0.04980350  1
  O  O373  1  0.83333333  0.41666667  0.29980350  1
  O  O374  1  0.83333333  0.41666667  0.54980350  1
  O  O375  1  0.83333333  0.41666667  0.79980350  1
  O  O376  1  0.83333333  0.66666667  0.04980350  1
  O  O377  1  0.83333333  0.66666667  0.29980350  1
  O  O378  1  0.83333333  0.66666667  0.54980350  1
  O  O379  1  0.83333333  0.66666667  0.79980350  1
  O  O380  1  0.83333333  0.91666667  0.04980350  1
  O  O381  1  0.83333333  0.91666667  0.29980350  1
  O  O382  1  0.83333333  0.91666667  0.54980350  1
  O  O383  1  0.83333333  0.91666667  0.79980350  1
