# generated using pymatgen
data_Rb5Au3O2
_symmetry_space_group_name_H-M   'P 1'
_cell_length_a   14.62244470
_cell_length_b   14.17760523
_cell_length_c   16.92305864
_cell_angle_alpha   90.00000000
_cell_angle_beta   90.00000000
_cell_angle_gamma   90.00000000
_symmetry_Int_Tables_number   1
_chemical_formula_structural   Rb5Au3O2
_chemical_formula_sum   'Rb60 Au36 O24'
_cell_volume   3508.34041556
_cell_formula_units_Z   12
loop_
 _symmetry_equiv_pos_site_id
 _symmetry_equiv_pos_as_xyz
  1  'x, y, z'
loop_
 _atom_site_type_symbol
 _atom_site_label
 _atom_site_symmetry_multiplicity
 _atom_site_fract_x
 _atom_site_fract_y
 _atom_site_fract_z
 _atom_site_occupancy
  Rb  Rb0  1  0.08648248  0.89656690  0.16666667  1
  Rb  Rb1  1  0.08648248  0.89656690  0.50000000  1
  Rb  Rb2  1  0.08648248  0.89656690  0.83333333  1
  Rb  Rb3  1  0.58648248  0.89656690  0.16666667  1
  Rb  Rb4  1  0.58648248  0.89656690  0.50000000  1
  Rb  Rb5  1  0.58648248  0.89656690  0.83333333  1
  Rb  Rb6  1  0.41351752  0.10343310  0.16666667  1
  Rb  Rb7  1  0.41351752  0.10343310  0.50000000  1
  Rb  Rb8  1  0.41351752  0.10343310  0.83333333  1
  Rb  Rb9  1  0.91351752  0.10343310  0.16666667  1
  Rb  Rb10  1  0.91351752  0.10343310  0.50000000  1
  Rb  Rb11  1  0.91351752  0.10343310  0.83333333  1
  Rb  Rb12  1  0.00000000  0.50000000  0.00000000  1
  Rb  Rb13  1  0.00000000  0.50000000  0.33333333  1
  Rb  Rb14  1  0.00000000  0.50000000  0.66666667  1
  Rb  Rb15  1  0.50000000  0.50000000  0.00000000  1
  Rb  Rb16  1  0.50000000  0.50000000  0.33333333  1
  Rb  Rb17  1  0.50000000  0.50000000  0.66666667  1
  Rb  Rb18  1  0.25000000  0.00000000  0.00000000  1
  Rb  Rb19  1  0.25000000  0.00000000  0.33333333  1
  Rb  Rb20  1  0.25000000  0.00000000  0.66666667  1
  Rb  Rb21  1  0.75000000  0.00000000  0.00000000  1
  Rb  Rb22  1  0.75000000  0.00000000  0.33333333  1
  Rb  Rb23  1  0.75000000  0.00000000  0.66666667  1
  Rb  Rb24  1  0.05877802  0.23418417  0.00000000  1
  Rb  Rb25  1  0.05877802  0.23418417  0.33333333  1
  Rb  Rb26  1  0.05877802  0.23418417  0.66666667  1
  Rb  Rb27  1  0.55877802  0.23418417  0.00000000  1
  Rb  Rb28  1  0.55877802  0.23418417  0.33333333  1
  Rb  Rb29  1  0.55877802  0.23418417  0.66666667  1
  Rb  Rb30  1  0.44122198  0.76581583  0.00000000  1
  Rb  Rb31  1  0.44122198  0.76581583  0.33333333  1
  Rb  Rb32  1  0.44122198  0.76581583  0.66666667  1
  Rb  Rb33  1  0.94122198  0.76581583  0.00000000  1
  Rb  Rb34  1  0.94122198  0.76581583  0.33333333  1
  Rb  Rb35  1  0.94122198  0.76581583  0.66666667  1
  Rb  Rb36  1  0.30877802  0.26581583  0.00000000  1
  Rb  Rb37  1  0.30877802  0.26581583  0.33333333  1
  Rb  Rb38  1  0.30877802  0.26581583  0.66666667  1
  Rb  Rb39  1  0.80877802  0.26581583  0.00000000  1
  Rb  Rb40  1  0.80877802  0.26581583  0.33333333  1
  Rb  Rb41  1  0.80877802  0.26581583  0.66666667  1
  Rb  Rb42  1  0.19122198  0.73418417  0.00000000  1
  Rb  Rb43  1  0.19122198  0.73418417  0.33333333  1
  Rb  Rb44  1  0.19122198  0.73418417  0.66666667  1
  Rb  Rb45  1  0.69122198  0.73418417  0.00000000  1
  Rb  Rb46  1  0.69122198  0.73418417  0.33333333  1
  Rb  Rb47  1  0.69122198  0.73418417  0.66666667  1
  Rb  Rb48  1  0.16351752  0.39656690  0.16666667  1
  Rb  Rb49  1  0.16351752  0.39656690  0.50000000  1
  Rb  Rb50  1  0.16351752  0.39656690  0.83333333  1
  Rb  Rb51  1  0.66351752  0.39656690  0.16666667  1
  Rb  Rb52  1  0.66351752  0.39656690  0.50000000  1
  Rb  Rb53  1  0.66351752  0.39656690  0.83333333  1
  Rb  Rb54  1  0.33648248  0.60343310  0.16666667  1
  Rb  Rb55  1  0.33648248  0.60343310  0.50000000  1
  Rb  Rb56  1  0.33648248  0.60343310  0.83333333  1
  Rb  Rb57  1  0.83648248  0.60343310  0.16666667  1
  Rb  Rb58  1  0.83648248  0.60343310  0.50000000  1
  Rb  Rb59  1  0.83648248  0.60343310  0.83333333  1
  Au  Au60  1  0.07436168  0.64323929  0.16666667  1
  Au  Au61  1  0.07436168  0.64323929  0.50000000  1
  Au  Au62  1  0.07436168  0.64323929  0.83333333  1
  Au  Au63  1  0.57436168  0.64323929  0.16666667  1
  Au  Au64  1  0.57436168  0.64323929  0.50000000  1
  Au  Au65  1  0.57436168  0.64323929  0.83333333  1
  Au  Au66  1  0.42563832  0.35676071  0.16666667  1
  Au  Au67  1  0.42563832  0.35676071  0.50000000  1
  Au  Au68  1  0.42563832  0.35676071  0.83333333  1
  Au  Au69  1  0.92563832  0.35676071  0.16666667  1
  Au  Au70  1  0.92563832  0.35676071  0.50000000  1
  Au  Au71  1  0.92563832  0.35676071  0.83333333  1
  Au  Au72  1  0.32436168  0.85676071  0.16666667  1
  Au  Au73  1  0.32436168  0.85676071  0.50000000  1
  Au  Au74  1  0.32436168  0.85676071  0.83333333  1
  Au  Au75  1  0.82436168  0.85676071  0.16666667  1
  Au  Au76  1  0.82436168  0.85676071  0.50000000  1
  Au  Au77  1  0.82436168  0.85676071  0.83333333  1
  Au  Au78  1  0.17563832  0.14323929  0.16666667  1
  Au  Au79  1  0.17563832  0.14323929  0.50000000  1
  Au  Au80  1  0.17563832  0.14323929  0.83333333  1
  Au  Au81  1  0.67563832  0.14323929  0.16666667  1
  Au  Au82  1  0.67563832  0.14323929  0.50000000  1
  Au  Au83  1  0.67563832  0.14323929  0.83333333  1
  Au  Au84  1  0.25000000  0.50000000  0.00000000  1
  Au  Au85  1  0.25000000  0.50000000  0.33333333  1
  Au  Au86  1  0.25000000  0.50000000  0.66666667  1
  Au  Au87  1  0.75000000  0.50000000  0.00000000  1
  Au  Au88  1  0.75000000  0.50000000  0.33333333  1
  Au  Au89  1  0.75000000  0.50000000  0.66666667  1
  Au  Au90  1  0.00000000  0.00000000  0.00000000  1
  Au  Au91  1  0.00000000  0.00000000  0.33333333  1
  Au  Au92  1  0.00000000  0.00000000  0.66666667  1
  Au  Au93  1  0.50000000  0.00000000  0.00000000  1
  Au  Au94  1  0.50000000  0.00000000  0.33333333  1
  Au  Au95  1  0.50000000  0.00000000  0.66666667  1
  O  O96  1  0.08742103  0.89091104  0.00000000  1
  O  O97  1  0.08742103  0.89091104  0.33333333  1
  O  O98  1  0.08742103  0.89091104  0.66666667  1
  O  O99  1  0.58742103  0.89091104  0.00000000  1
  O  O100  1  0.58742103  0.89091104  0.33333333  1
  O  O101  1  0.58742103  0.89091104  0.66666667  1
  O  O102  1  0.41257897  0.10908896  0.00000000  1
  O  O103  1  0.41257897  0.10908896  0.33333333  1
  O  O104  1  0.41257897  0.10908896  0.66666667  1
  O  O105  1  0.91257897  0.10908896  0.00000000  1
  O  O106  1  0.91257897  0.10908896  0.33333333  1
  O  O107  1  0.91257897  0.10908896  0.66666667  1
  O  O108  1  0.33742103  0.60908896  0.00000000  1
  O  O109  1  0.33742103  0.60908896  0.33333333  1
  O  O110  1  0.33742103  0.60908896  0.66666667  1
  O  O111  1  0.83742103  0.60908896  0.00000000  1
  O  O112  1  0.83742103  0.60908896  0.33333333  1
  O  O113  1  0.83742103  0.60908896  0.66666667  1
  O  O114  1  0.16257897  0.39091104  0.00000000  1
  O  O115  1  0.16257897  0.39091104  0.33333333  1
  O  O116  1  0.16257897  0.39091104  0.66666667  1
  O  O117  1  0.66257897  0.39091104  0.00000000  1
  O  O118  1  0.66257897  0.39091104  0.33333333  1
  O  O119  1  0.66257897  0.39091104  0.66666667  1
