# generated using pymatgen
data_KVO3
_symmetry_space_group_name_H-M   'P 1'
_cell_length_a   10.41841469
_cell_length_b   10.75334927
_cell_length_c   11.37824910
_cell_angle_alpha   90.00000000
_cell_angle_beta   90.00000000
_cell_angle_gamma   90.00000000
_symmetry_Int_Tables_number   1
_chemical_formula_structural   KVO3
_chemical_formula_sum   'K16 V16 O48'
_cell_volume   1274.73769782
_cell_formula_units_Z   16
loop_
 _symmetry_equiv_pos_site_id
 _symmetry_equiv_pos_as_xyz
  1  'x, y, z'
loop_
 _atom_site_type_symbol
 _atom_site_label
 _atom_site_symmetry_multiplicity
 _atom_site_fract_x
 _atom_site_fract_y
 _atom_site_fract_z
 _atom_site_occupancy
  K  K0  1  0.03161414  0.10417501  0.37500000  1
  K  K1  1  0.03161414  0.10417501  0.87500000  1
  K  K2  1  0.53161414  0.10417501  0.37500000  1
  K  K3  1  0.53161414  0.10417501  0.87500000  1
  K  K4  1  0.03161414  0.39582499  0.12500000  1
  K  K5  1  0.03161414  0.39582499  0.62500000  1
  K  K6  1  0.53161414  0.39582499  0.12500000  1
  K  K7  1  0.53161414  0.39582499  0.62500000  1
  K  K8  1  0.46838586  0.89582499  0.12500000  1
  K  K9  1  0.46838586  0.89582499  0.62500000  1
  K  K10  1  0.96838586  0.89582499  0.12500000  1
  K  K11  1  0.96838586  0.89582499  0.62500000  1
  K  K12  1  0.46838586  0.60417501  0.37500000  1
  K  K13  1  0.46838586  0.60417501  0.87500000  1
  K  K14  1  0.96838586  0.60417501  0.37500000  1
  K  K15  1  0.96838586  0.60417501  0.87500000  1
  V  V16  1  0.23682901  0.83839258  0.37500000  1
  V  V17  1  0.23682901  0.83839258  0.87500000  1
  V  V18  1  0.73682901  0.83839258  0.37500000  1
  V  V19  1  0.73682901  0.83839258  0.87500000  1
  V  V20  1  0.23682901  0.66160742  0.12500000  1
  V  V21  1  0.23682901  0.66160742  0.62500000  1
  V  V22  1  0.73682901  0.66160742  0.12500000  1
  V  V23  1  0.73682901  0.66160742  0.62500000  1
  V  V24  1  0.26317099  0.16160742  0.12500000  1
  V  V25  1  0.26317099  0.16160742  0.62500000  1
  V  V26  1  0.76317099  0.16160742  0.12500000  1
  V  V27  1  0.76317099  0.16160742  0.62500000  1
  V  V28  1  0.26317099  0.33839258  0.37500000  1
  V  V29  1  0.26317099  0.33839258  0.87500000  1
  V  V30  1  0.76317099  0.33839258  0.37500000  1
  V  V31  1  0.76317099  0.33839258  0.87500000  1
  O  O32  1  0.19696172  0.47825368  0.37500000  1
  O  O33  1  0.19696172  0.47825368  0.87500000  1
  O  O34  1  0.69696172  0.47825368  0.37500000  1
  O  O35  1  0.69696172  0.47825368  0.87500000  1
  O  O36  1  0.19696172  0.02174632  0.12500000  1
  O  O37  1  0.19696172  0.02174632  0.62500000  1
  O  O38  1  0.69696172  0.02174632  0.12500000  1
  O  O39  1  0.69696172  0.02174632  0.62500000  1
  O  O40  1  0.30303828  0.52174632  0.12500000  1
  O  O41  1  0.30303828  0.52174632  0.62500000  1
  O  O42  1  0.80303828  0.52174632  0.12500000  1
  O  O43  1  0.80303828  0.52174632  0.62500000  1
  O  O44  1  0.30303828  0.97825368  0.37500000  1
  O  O45  1  0.30303828  0.97825368  0.87500000  1
  O  O46  1  0.80303828  0.97825368  0.37500000  1
  O  O47  1  0.80303828  0.97825368  0.87500000  1
  O  O48  1  0.42269655  0.35060753  0.37500000  1
  O  O49  1  0.42269655  0.35060753  0.87500000  1
  O  O50  1  0.92269655  0.35060753  0.37500000  1
  O  O51  1  0.92269655  0.35060753  0.87500000  1
  O  O52  1  0.42269655  0.14939247  0.12500000  1
  O  O53  1  0.42269655  0.14939247  0.62500000  1
  O  O54  1  0.92269655  0.14939247  0.12500000  1
  O  O55  1  0.92269655  0.14939247  0.62500000  1
  O  O56  1  0.07730345  0.64939247  0.12500000  1
  O  O57  1  0.07730345  0.64939247  0.62500000  1
  O  O58  1  0.57730345  0.64939247  0.12500000  1
  O  O59  1  0.57730345  0.64939247  0.62500000  1
  O  O60  1  0.07730345  0.85060753  0.37500000  1
  O  O61  1  0.07730345  0.85060753  0.87500000  1
  O  O62  1  0.57730345  0.85060753  0.37500000  1
  O  O63  1  0.57730345  0.85060753  0.87500000  1
  O  O64  1  0.29160515  0.75000000  0.00000000  1
  O  O65  1  0.29160515  0.75000000  0.50000000  1
  O  O66  1  0.79160515  0.75000000  0.00000000  1
  O  O67  1  0.79160515  0.75000000  0.50000000  1
  O  O68  1  0.20839485  0.25000000  0.25000000  1
  O  O69  1  0.20839485  0.25000000  0.75000000  1
  O  O70  1  0.70839485  0.25000000  0.25000000  1
  O  O71  1  0.70839485  0.25000000  0.75000000  1
  O  O72  1  0.20839485  0.25000000  0.00000000  1
  O  O73  1  0.20839485  0.25000000  0.50000000  1
  O  O74  1  0.70839485  0.25000000  0.00000000  1
  O  O75  1  0.70839485  0.25000000  0.50000000  1
  O  O76  1  0.29160515  0.75000000  0.25000000  1
  O  O77  1  0.29160515  0.75000000  0.75000000  1
  O  O78  1  0.79160515  0.75000000  0.25000000  1
  O  O79  1  0.79160515  0.75000000  0.75000000  1
