# generated using pymatgen
data_NbInO4
_symmetry_space_group_name_H-M   'P 1'
_cell_length_a   14.70271658
_cell_length_b   17.51251693
_cell_length_c   15.55573463
_cell_angle_alpha   90.00000000
_cell_angle_beta   90.96291520
_cell_angle_gamma   90.00000000
_symmetry_Int_Tables_number   1
_chemical_formula_structural   NbInO4
_chemical_formula_sum   'Nb54 In54 O216'
_cell_volume   4004.74939864
_cell_formula_units_Z   54
loop_
 _symmetry_equiv_pos_site_id
 _symmetry_equiv_pos_as_xyz
  1  'x, y, z'
loop_
 _atom_site_type_symbol
 _atom_site_label
 _atom_site_symmetry_multiplicity
 _atom_site_fract_x
 _atom_site_fract_y
 _atom_site_fract_z
 _atom_site_occupancy
  Nb  Nb0  1  0.00000000  0.05947608  0.08333333  1
  Nb  Nb1  1  0.00000000  0.05947608  0.41666667  1
  Nb  Nb2  1  0.00000000  0.05947608  0.75000000  1
  Nb  Nb3  1  0.00000000  0.39280941  0.08333333  1
  Nb  Nb4  1  0.00000000  0.39280941  0.41666667  1
  Nb  Nb5  1  0.00000000  0.39280941  0.75000000  1
  Nb  Nb6  1  0.00000000  0.72614275  0.08333333  1
  Nb  Nb7  1  0.00000000  0.72614275  0.41666667  1
  Nb  Nb8  1  0.00000000  0.72614275  0.75000000  1
  Nb  Nb9  1  0.33333333  0.05947608  0.08333333  1
  Nb  Nb10  1  0.33333333  0.05947608  0.41666667  1
  Nb  Nb11  1  0.33333333  0.05947608  0.75000000  1
  Nb  Nb12  1  0.33333333  0.39280941  0.08333333  1
  Nb  Nb13  1  0.33333333  0.39280941  0.41666667  1
  Nb  Nb14  1  0.33333333  0.39280941  0.75000000  1
  Nb  Nb15  1  0.33333333  0.72614275  0.08333333  1
  Nb  Nb16  1  0.33333333  0.72614275  0.41666667  1
  Nb  Nb17  1  0.33333333  0.72614275  0.75000000  1
  Nb  Nb18  1  0.66666667  0.05947608  0.08333333  1
  Nb  Nb19  1  0.66666667  0.05947608  0.41666667  1
  Nb  Nb20  1  0.66666667  0.05947608  0.75000000  1
  Nb  Nb21  1  0.66666667  0.39280941  0.08333333  1
  Nb  Nb22  1  0.66666667  0.39280941  0.41666667  1
  Nb  Nb23  1  0.66666667  0.39280941  0.75000000  1
  Nb  Nb24  1  0.66666667  0.72614275  0.08333333  1
  Nb  Nb25  1  0.66666667  0.72614275  0.41666667  1
  Nb  Nb26  1  0.66666667  0.72614275  0.75000000  1
  Nb  Nb27  1  0.00000000  0.27385725  0.25000000  1
  Nb  Nb28  1  0.00000000  0.27385725  0.58333333  1
  Nb  Nb29  1  0.00000000  0.27385725  0.91666667  1
  Nb  Nb30  1  0.00000000  0.60719059  0.25000000  1
  Nb  Nb31  1  0.00000000  0.60719059  0.58333333  1
  Nb  Nb32  1  0.00000000  0.60719059  0.91666667  1
  Nb  Nb33  1  0.00000000  0.94052392  0.25000000  1
  Nb  Nb34  1  0.00000000  0.94052392  0.58333333  1
  Nb  Nb35  1  0.00000000  0.94052392  0.91666667  1
  Nb  Nb36  1  0.33333333  0.27385725  0.25000000  1
  Nb  Nb37  1  0.33333333  0.27385725  0.58333333  1
  Nb  Nb38  1  0.33333333  0.27385725  0.91666667  1
  Nb  Nb39  1  0.33333333  0.60719059  0.25000000  1
  Nb  Nb40  1  0.33333333  0.60719059  0.58333333  1
  Nb  Nb41  1  0.33333333  0.60719059  0.91666667  1
  Nb  Nb42  1  0.33333333  0.94052392  0.25000000  1
  Nb  Nb43  1  0.33333333  0.94052392  0.58333333  1
  Nb  Nb44  1  0.33333333  0.94052392  0.91666667  1
  Nb  Nb45  1  0.66666667  0.27385725  0.25000000  1
  Nb  Nb46  1  0.66666667  0.27385725  0.58333333  1
  Nb  Nb47  1  0.66666667  0.27385725  0.91666667  1
  Nb  Nb48  1  0.66666667  0.60719059  0.25000000  1
  Nb  Nb49  1  0.66666667  0.60719059  0.58333333  1
  Nb  Nb50  1  0.66666667  0.60719059  0.91666667  1
  Nb  Nb51  1  0.66666667  0.94052392  0.25000000  1
  Nb  Nb52  1  0.66666667  0.94052392  0.58333333  1
  Nb  Nb53  1  0.66666667  0.94052392  0.91666667  1
  In  In54  1  0.16666667  0.22710743  0.08333333  1
  In  In55  1  0.16666667  0.22710743  0.41666667  1
  In  In56  1  0.16666667  0.22710743  0.75000000  1
  In  In57  1  0.16666667  0.56044077  0.08333333  1
  In  In58  1  0.16666667  0.56044077  0.41666667  1
  In  In59  1  0.16666667  0.56044077  0.75000000  1
  In  In60  1  0.16666667  0.89377410  0.08333333  1
  In  In61  1  0.16666667  0.89377410  0.41666667  1
  In  In62  1  0.16666667  0.89377410  0.75000000  1
  In  In63  1  0.50000000  0.22710743  0.08333333  1
  In  In64  1  0.50000000  0.22710743  0.41666667  1
  In  In65  1  0.50000000  0.22710743  0.75000000  1
  In  In66  1  0.50000000  0.56044077  0.08333333  1
  In  In67  1  0.50000000  0.56044077  0.41666667  1
  In  In68  1  0.50000000  0.56044077  0.75000000  1
  In  In69  1  0.50000000  0.89377410  0.08333333  1
  In  In70  1  0.50000000  0.89377410  0.41666667  1
  In  In71  1  0.50000000  0.89377410  0.75000000  1
  In  In72  1  0.83333333  0.22710743  0.08333333  1
  In  In73  1  0.83333333  0.22710743  0.41666667  1
  In  In74  1  0.83333333  0.22710743  0.75000000  1
  In  In75  1  0.83333333  0.56044077  0.08333333  1
  In  In76  1  0.83333333  0.56044077  0.41666667  1
  In  In77  1  0.83333333  0.56044077  0.75000000  1
  In  In78  1  0.83333333  0.89377410  0.08333333  1
  In  In79  1  0.83333333  0.89377410  0.41666667  1
  In  In80  1  0.83333333  0.89377410  0.75000000  1
  In  In81  1  0.16666667  0.10622590  0.25000000  1
  In  In82  1  0.16666667  0.10622590  0.58333333  1
  In  In83  1  0.16666667  0.10622590  0.91666667  1
  In  In84  1  0.16666667  0.43955923  0.25000000  1
  In  In85  1  0.16666667  0.43955923  0.58333333  1
  In  In86  1  0.16666667  0.43955923  0.91666667  1
  In  In87  1  0.16666667  0.77289257  0.25000000  1
  In  In88  1  0.16666667  0.77289257  0.58333333  1
  In  In89  1  0.16666667  0.77289257  0.91666667  1
  In  In90  1  0.50000000  0.10622590  0.25000000  1
  In  In91  1  0.50000000  0.10622590  0.58333333  1
  In  In92  1  0.50000000  0.10622590  0.91666667  1
  In  In93  1  0.50000000  0.43955923  0.25000000  1
  In  In94  1  0.50000000  0.43955923  0.58333333  1
  In  In95  1  0.50000000  0.43955923  0.91666667  1
  In  In96  1  0.50000000  0.77289257  0.25000000  1
  In  In97  1  0.50000000  0.77289257  0.58333333  1
  In  In98  1  0.50000000  0.77289257  0.91666667  1
  In  In99  1  0.83333333  0.10622590  0.25000000  1
  In  In100  1  0.83333333  0.10622590  0.58333333  1
  In  In101  1  0.83333333  0.10622590  0.91666667  1
  In  In102  1  0.83333333  0.43955923  0.25000000  1
  In  In103  1  0.83333333  0.43955923  0.58333333  1
  In  In104  1  0.83333333  0.43955923  0.91666667  1
  In  In105  1  0.83333333  0.77289257  0.25000000  1
  In  In106  1  0.83333333  0.77289257  0.58333333  1
  In  In107  1  0.83333333  0.77289257  0.91666667  1
  O  O108  1  0.24686311  0.20547930  0.19990932  1
  O  O109  1  0.24686311  0.20547930  0.53324265  1
  O  O110  1  0.24686311  0.20547930  0.86657599  1
  O  O111  1  0.24686311  0.53881263  0.19990932  1
  O  O112  1  0.24686311  0.53881263  0.53324265  1
  O  O113  1  0.24686311  0.53881263  0.86657599  1
  O  O114  1  0.24686311  0.87214596  0.19990932  1
  O  O115  1  0.24686311  0.87214596  0.53324265  1
  O  O116  1  0.24686311  0.87214596  0.86657599  1
  O  O117  1  0.58019645  0.20547930  0.19990932  1
  O  O118  1  0.58019645  0.20547930  0.53324265  1
  O  O119  1  0.58019645  0.20547930  0.86657599  1
  O  O120  1  0.58019645  0.53881263  0.19990932  1
  O  O121  1  0.58019645  0.53881263  0.53324265  1
  O  O122  1  0.58019645  0.53881263  0.86657599  1
  O  O123  1  0.58019645  0.87214596  0.19990932  1
  O  O124  1  0.58019645  0.87214596  0.53324265  1
  O  O125  1  0.58019645  0.87214596  0.86657599  1
  O  O126  1  0.91352978  0.20547930  0.19990932  1
  O  O127  1  0.91352978  0.20547930  0.53324265  1
  O  O128  1  0.91352978  0.20547930  0.86657599  1
  O  O129  1  0.91352978  0.53881263  0.19990932  1
  O  O130  1  0.91352978  0.53881263  0.53324265  1
  O  O131  1  0.91352978  0.53881263  0.86657599  1
  O  O132  1  0.91352978  0.87214596  0.19990932  1
  O  O133  1  0.91352978  0.87214596  0.53324265  1
  O  O134  1  0.91352978  0.87214596  0.86657599  1
  O  O135  1  0.08647022  0.20547930  0.30009068  1
  O  O136  1  0.08647022  0.20547930  0.63342401  1
  O  O137  1  0.08647022  0.20547930  0.96675735  1
  O  O138  1  0.08647022  0.53881263  0.30009068  1
  O  O139  1  0.08647022  0.53881263  0.63342401  1
  O  O140  1  0.08647022  0.53881263  0.96675735  1
  O  O141  1  0.08647022  0.87214596  0.30009068  1
  O  O142  1  0.08647022  0.87214596  0.63342401  1
  O  O143  1  0.08647022  0.87214596  0.96675735  1
  O  O144  1  0.41980355  0.20547930  0.30009068  1
  O  O145  1  0.41980355  0.20547930  0.63342401  1
  O  O146  1  0.41980355  0.20547930  0.96675735  1
  O  O147  1  0.41980355  0.53881263  0.30009068  1
  O  O148  1  0.41980355  0.53881263  0.63342401  1
  O  O149  1  0.41980355  0.53881263  0.96675735  1
  O  O150  1  0.41980355  0.87214596  0.30009068  1
  O  O151  1  0.41980355  0.87214596  0.63342401  1
  O  O152  1  0.41980355  0.87214596  0.96675735  1
  O  O153  1  0.75313689  0.20547930  0.30009068  1
  O  O154  1  0.75313689  0.20547930  0.63342401  1
  O  O155  1  0.75313689  0.20547930  0.96675735  1
  O  O156  1  0.75313689  0.53881263  0.30009068  1
  O  O157  1  0.75313689  0.53881263  0.63342401  1
  O  O158  1  0.75313689  0.53881263  0.96675735  1
  O  O159  1  0.75313689  0.87214596  0.30009068  1
  O  O160  1  0.75313689  0.87214596  0.63342401  1
  O  O161  1  0.75313689  0.87214596  0.96675735  1
  O  O162  1  0.08647022  0.12785404  0.13342401  1
  O  O163  1  0.08647022  0.12785404  0.46675735  1
  O  O164  1  0.08647022  0.12785404  0.80009068  1
  O  O165  1  0.08647022  0.46118737  0.13342401  1
  O  O166  1  0.08647022  0.46118737  0.46675735  1
  O  O167  1  0.08647022  0.46118737  0.80009068  1
  O  O168  1  0.08647022  0.79452070  0.13342401  1
  O  O169  1  0.08647022  0.79452070  0.46675735  1
  O  O170  1  0.08647022  0.79452070  0.80009068  1
  O  O171  1  0.41980355  0.12785404  0.13342401  1
  O  O172  1  0.41980355  0.12785404  0.46675735  1
  O  O173  1  0.41980355  0.12785404  0.80009068  1
  O  O174  1  0.41980355  0.46118737  0.13342401  1
  O  O175  1  0.41980355  0.46118737  0.46675735  1
  O  O176  1  0.41980355  0.46118737  0.80009068  1
  O  O177  1  0.41980355  0.79452070  0.13342401  1
  O  O178  1  0.41980355  0.79452070  0.46675735  1
  O  O179  1  0.41980355  0.79452070  0.80009068  1
  O  O180  1  0.75313689  0.12785404  0.13342401  1
  O  O181  1  0.75313689  0.12785404  0.46675735  1
  O  O182  1  0.75313689  0.12785404  0.80009068  1
  O  O183  1  0.75313689  0.46118737  0.13342401  1
  O  O184  1  0.75313689  0.46118737  0.46675735  1
  O  O185  1  0.75313689  0.46118737  0.80009068  1
  O  O186  1  0.75313689  0.79452070  0.13342401  1
  O  O187  1  0.75313689  0.79452070  0.46675735  1
  O  O188  1  0.75313689  0.79452070  0.80009068  1
  O  O189  1  0.24686311  0.12785404  0.03324265  1
  O  O190  1  0.24686311  0.12785404  0.36657599  1
  O  O191  1  0.24686311  0.12785404  0.69990932  1
  O  O192  1  0.24686311  0.46118737  0.03324265  1
  O  O193  1  0.24686311  0.46118737  0.36657599  1
  O  O194  1  0.24686311  0.46118737  0.69990932  1
  O  O195  1  0.24686311  0.79452070  0.03324265  1
  O  O196  1  0.24686311  0.79452070  0.36657599  1
  O  O197  1  0.24686311  0.79452070  0.69990932  1
  O  O198  1  0.58019645  0.12785404  0.03324265  1
  O  O199  1  0.58019645  0.12785404  0.36657599  1
  O  O200  1  0.58019645  0.12785404  0.69990932  1
  O  O201  1  0.58019645  0.46118737  0.03324265  1
  O  O202  1  0.58019645  0.46118737  0.36657599  1
  O  O203  1  0.58019645  0.46118737  0.69990932  1
  O  O204  1  0.58019645  0.79452070  0.03324265  1
  O  O205  1  0.58019645  0.79452070  0.36657599  1
  O  O206  1  0.58019645  0.79452070  0.69990932  1
  O  O207  1  0.91352978  0.12785404  0.03324265  1
  O  O208  1  0.91352978  0.12785404  0.36657599  1
  O  O209  1  0.91352978  0.12785404  0.69990932  1
  O  O210  1  0.91352978  0.46118737  0.03324265  1
  O  O211  1  0.91352978  0.46118737  0.36657599  1
  O  O212  1  0.91352978  0.46118737  0.69990932  1
  O  O213  1  0.91352978  0.79452070  0.03324265  1
  O  O214  1  0.91352978  0.79452070  0.36657599  1
  O  O215  1  0.91352978  0.79452070  0.69990932  1
  O  O216  1  0.26182705  0.03311256  0.18704352  1
  O  O217  1  0.26182705  0.03311256  0.52037685  1
  O  O218  1  0.26182705  0.03311256  0.85371019  1
  O  O219  1  0.26182705  0.36644589  0.18704352  1
  O  O220  1  0.26182705  0.36644589  0.52037685  1
  O  O221  1  0.26182705  0.36644589  0.85371019  1
  O  O222  1  0.26182705  0.69977923  0.18704352  1
  O  O223  1  0.26182705  0.69977923  0.52037685  1
  O  O224  1  0.26182705  0.69977923  0.85371019  1
  O  O225  1  0.59516039  0.03311256  0.18704352  1
  O  O226  1  0.59516039  0.03311256  0.52037685  1
  O  O227  1  0.59516039  0.03311256  0.85371019  1
  O  O228  1  0.59516039  0.36644589  0.18704352  1
  O  O229  1  0.59516039  0.36644589  0.52037685  1
  O  O230  1  0.59516039  0.36644589  0.85371019  1
  O  O231  1  0.59516039  0.69977923  0.18704352  1
  O  O232  1  0.59516039  0.69977923  0.52037685  1
  O  O233  1  0.59516039  0.69977923  0.85371019  1
  O  O234  1  0.92849372  0.03311256  0.18704352  1
  O  O235  1  0.92849372  0.03311256  0.52037685  1
  O  O236  1  0.92849372  0.03311256  0.85371019  1
  O  O237  1  0.92849372  0.36644589  0.18704352  1
  O  O238  1  0.92849372  0.36644589  0.52037685  1
  O  O239  1  0.92849372  0.36644589  0.85371019  1
  O  O240  1  0.92849372  0.69977923  0.18704352  1
  O  O241  1  0.92849372  0.69977923  0.52037685  1
  O  O242  1  0.92849372  0.69977923  0.85371019  1
  O  O243  1  0.07150628  0.03311256  0.31295648  1
  O  O244  1  0.07150628  0.03311256  0.64628981  1
  O  O245  1  0.07150628  0.03311256  0.97962315  1
  O  O246  1  0.07150628  0.36644589  0.31295648  1
  O  O247  1  0.07150628  0.36644589  0.64628981  1
  O  O248  1  0.07150628  0.36644589  0.97962315  1
  O  O249  1  0.07150628  0.69977923  0.31295648  1
  O  O250  1  0.07150628  0.69977923  0.64628981  1
  O  O251  1  0.07150628  0.69977923  0.97962315  1
  O  O252  1  0.40483961  0.03311256  0.31295648  1
  O  O253  1  0.40483961  0.03311256  0.64628981  1
  O  O254  1  0.40483961  0.03311256  0.97962315  1
  O  O255  1  0.40483961  0.36644589  0.31295648  1
  O  O256  1  0.40483961  0.36644589  0.64628981  1
  O  O257  1  0.40483961  0.36644589  0.97962315  1
  O  O258  1  0.40483961  0.69977923  0.31295648  1
  O  O259  1  0.40483961  0.69977923  0.64628981  1
  O  O260  1  0.40483961  0.69977923  0.97962315  1
  O  O261  1  0.73817295  0.03311256  0.31295648  1
  O  O262  1  0.73817295  0.03311256  0.64628981  1
  O  O263  1  0.73817295  0.03311256  0.97962315  1
  O  O264  1  0.73817295  0.36644589  0.31295648  1
  O  O265  1  0.73817295  0.36644589  0.64628981  1
  O  O266  1  0.73817295  0.36644589  0.97962315  1
  O  O267  1  0.73817295  0.69977923  0.31295648  1
  O  O268  1  0.73817295  0.69977923  0.64628981  1
  O  O269  1  0.73817295  0.69977923  0.97962315  1
  O  O270  1  0.07150628  0.30022077  0.14628981  1
  O  O271  1  0.07150628  0.30022077  0.47962315  1
  O  O272  1  0.07150628  0.30022077  0.81295648  1
  O  O273  1  0.07150628  0.63355411  0.14628981  1
  O  O274  1  0.07150628  0.63355411  0.47962315  1
  O  O275  1  0.07150628  0.63355411  0.81295648  1
  O  O276  1  0.07150628  0.96688744  0.14628981  1
  O  O277  1  0.07150628  0.96688744  0.47962315  1
  O  O278  1  0.07150628  0.96688744  0.81295648  1
  O  O279  1  0.40483961  0.30022077  0.14628981  1
  O  O280  1  0.40483961  0.30022077  0.47962315  1
  O  O281  1  0.40483961  0.30022077  0.81295648  1
  O  O282  1  0.40483961  0.63355411  0.14628981  1
  O  O283  1  0.40483961  0.63355411  0.47962315  1
  O  O284  1  0.40483961  0.63355411  0.81295648  1
  O  O285  1  0.40483961  0.96688744  0.14628981  1
  O  O286  1  0.40483961  0.96688744  0.47962315  1
  O  O287  1  0.40483961  0.96688744  0.81295648  1
  O  O288  1  0.73817295  0.30022077  0.14628981  1
  O  O289  1  0.73817295  0.30022077  0.47962315  1
  O  O290  1  0.73817295  0.30022077  0.81295648  1
  O  O291  1  0.73817295  0.63355411  0.14628981  1
  O  O292  1  0.73817295  0.63355411  0.47962315  1
  O  O293  1  0.73817295  0.63355411  0.81295648  1
  O  O294  1  0.73817295  0.96688744  0.14628981  1
  O  O295  1  0.73817295  0.96688744  0.47962315  1
  O  O296  1  0.73817295  0.96688744  0.81295648  1
  O  O297  1  0.26182705  0.30022077  0.02037685  1
  O  O298  1  0.26182705  0.30022077  0.35371019  1
  O  O299  1  0.26182705  0.30022077  0.68704352  1
  O  O300  1  0.26182705  0.63355411  0.02037685  1
  O  O301  1  0.26182705  0.63355411  0.35371019  1
  O  O302  1  0.26182705  0.63355411  0.68704352  1
  O  O303  1  0.26182705  0.96688744  0.02037685  1
  O  O304  1  0.26182705  0.96688744  0.35371019  1
  O  O305  1  0.26182705  0.96688744  0.68704352  1
  O  O306  1  0.59516039  0.30022077  0.02037685  1
  O  O307  1  0.59516039  0.30022077  0.35371019  1
  O  O308  1  0.59516039  0.30022077  0.68704352  1
  O  O309  1  0.59516039  0.63355411  0.02037685  1
  O  O310  1  0.59516039  0.63355411  0.35371019  1
  O  O311  1  0.59516039  0.63355411  0.68704352  1
  O  O312  1  0.59516039  0.96688744  0.02037685  1
  O  O313  1  0.59516039  0.96688744  0.35371019  1
  O  O314  1  0.59516039  0.96688744  0.68704352  1
  O  O315  1  0.92849372  0.30022077  0.02037685  1
  O  O316  1  0.92849372  0.30022077  0.35371019  1
  O  O317  1  0.92849372  0.30022077  0.68704352  1
  O  O318  1  0.92849372  0.63355411  0.02037685  1
  O  O319  1  0.92849372  0.63355411  0.35371019  1
  O  O320  1  0.92849372  0.63355411  0.68704352  1
  O  O321  1  0.92849372  0.96688744  0.02037685  1
  O  O322  1  0.92849372  0.96688744  0.35371019  1
  O  O323  1  0.92849372  0.96688744  0.68704352  1
