# generated using pymatgen
data_RbLiMoO4
_symmetry_space_group_name_H-M   'P 1'
_cell_length_a   19.45124190
_cell_length_b   22.67680558
_cell_length_c   20.09242062
_cell_angle_alpha   90.00000000
_cell_angle_beta   111.28963103
_cell_angle_gamma   90.00000000
_symmetry_Int_Tables_number   1
_chemical_formula_structural   RbLiMoO4
_chemical_formula_sum   'Rb64 Li64 Mo64 O256'
_cell_volume   8257.79531336
_cell_formula_units_Z   64
loop_
 _symmetry_equiv_pos_site_id
 _symmetry_equiv_pos_as_xyz
  1  'x, y, z'
loop_
 _atom_site_type_symbol
 _atom_site_label
 _atom_site_symmetry_multiplicity
 _atom_site_fract_x
 _atom_site_fract_y
 _atom_site_fract_z
 _atom_site_occupancy
  Rb  Rb0  1  0.37321016  0.05382096  0.24940971  1
  Rb  Rb1  1  0.37321016  0.05382096  0.74940971  1
  Rb  Rb2  1  0.37321016  0.30382096  0.24940971  1
  Rb  Rb3  1  0.37321016  0.30382096  0.74940971  1
  Rb  Rb4  1  0.37321016  0.55382096  0.24940971  1
  Rb  Rb5  1  0.37321016  0.55382096  0.74940971  1
  Rb  Rb6  1  0.37321016  0.80382096  0.24940971  1
  Rb  Rb7  1  0.37321016  0.80382096  0.74940971  1
  Rb  Rb8  1  0.87321016  0.05382096  0.24940971  1
  Rb  Rb9  1  0.87321016  0.05382096  0.74940971  1
  Rb  Rb10  1  0.87321016  0.30382096  0.24940971  1
  Rb  Rb11  1  0.87321016  0.30382096  0.74940971  1
  Rb  Rb12  1  0.87321016  0.55382096  0.24940971  1
  Rb  Rb13  1  0.87321016  0.55382096  0.74940971  1
  Rb  Rb14  1  0.87321016  0.80382096  0.24940971  1
  Rb  Rb15  1  0.87321016  0.80382096  0.74940971  1
  Rb  Rb16  1  0.62321016  0.17882096  0.24940971  1
  Rb  Rb17  1  0.62321016  0.17882096  0.74940971  1
  Rb  Rb18  1  0.62321016  0.42882096  0.24940971  1
  Rb  Rb19  1  0.62321016  0.42882096  0.74940971  1
  Rb  Rb20  1  0.62321016  0.67882096  0.24940971  1
  Rb  Rb21  1  0.62321016  0.67882096  0.74940971  1
  Rb  Rb22  1  0.62321016  0.92882096  0.24940971  1
  Rb  Rb23  1  0.62321016  0.92882096  0.74940971  1
  Rb  Rb24  1  1.12321016  0.17882096  0.24940971  1
  Rb  Rb25  1  1.12321016  0.17882096  0.74940971  1
  Rb  Rb26  1  1.12321016  0.42882096  0.24940971  1
  Rb  Rb27  1  1.12321016  0.42882096  0.74940971  1
  Rb  Rb28  1  1.12321016  0.67882096  0.24940971  1
  Rb  Rb29  1  1.12321016  0.67882096  0.74940971  1
  Rb  Rb30  1  1.12321016  0.92882096  0.24940971  1
  Rb  Rb31  1  1.12321016  0.92882096  0.74940971  1
  Rb  Rb32  1  0.37321016  -0.05382096  0.49940971  1
  Rb  Rb33  1  0.37321016  -0.05382096  0.99940971  1
  Rb  Rb34  1  0.37321016  0.19617904  0.49940971  1
  Rb  Rb35  1  0.37321016  0.19617904  0.99940971  1
  Rb  Rb36  1  0.37321016  0.44617904  0.49940971  1
  Rb  Rb37  1  0.37321016  0.44617904  0.99940971  1
  Rb  Rb38  1  0.37321016  0.69617904  0.49940971  1
  Rb  Rb39  1  0.37321016  0.69617904  0.99940971  1
  Rb  Rb40  1  0.87321016  -0.05382096  0.49940971  1
  Rb  Rb41  1  0.87321016  -0.05382096  0.99940971  1
  Rb  Rb42  1  0.87321016  0.19617904  0.49940971  1
  Rb  Rb43  1  0.87321016  0.19617904  0.99940971  1
  Rb  Rb44  1  0.87321016  0.44617904  0.49940971  1
  Rb  Rb45  1  0.87321016  0.44617904  0.99940971  1
  Rb  Rb46  1  0.87321016  0.69617904  0.49940971  1
  Rb  Rb47  1  0.87321016  0.69617904  0.99940971  1
  Rb  Rb48  1  0.62321016  0.07117904  0.49940971  1
  Rb  Rb49  1  0.62321016  0.07117904  0.99940971  1
  Rb  Rb50  1  0.62321016  0.32117904  0.49940971  1
  Rb  Rb51  1  0.62321016  0.32117904  0.99940971  1
  Rb  Rb52  1  0.62321016  0.57117904  0.49940971  1
  Rb  Rb53  1  0.62321016  0.57117904  0.99940971  1
  Rb  Rb54  1  0.62321016  0.82117904  0.49940971  1
  Rb  Rb55  1  0.62321016  0.82117904  0.99940971  1
  Rb  Rb56  1  1.12321016  0.07117904  0.49940971  1
  Rb  Rb57  1  1.12321016  0.07117904  0.99940971  1
  Rb  Rb58  1  1.12321016  0.32117904  0.49940971  1
  Rb  Rb59  1  1.12321016  0.32117904  0.99940971  1
  Rb  Rb60  1  1.12321016  0.57117904  0.49940971  1
  Rb  Rb61  1  1.12321016  0.57117904  0.99940971  1
  Rb  Rb62  1  1.12321016  0.82117904  0.49940971  1
  Rb  Rb63  1  1.12321016  0.82117904  0.99940971  1
  Li  Li64  1  0.31305149  0.06021120  0.06410363  1
  Li  Li65  1  0.31305149  0.06021120  0.56410363  1
  Li  Li66  1  0.31305149  0.31021120  0.06410363  1
  Li  Li67  1  0.31305149  0.31021120  0.56410363  1
  Li  Li68  1  0.31305149  0.56021120  0.06410363  1
  Li  Li69  1  0.31305149  0.56021120  0.56410363  1
  Li  Li70  1  0.31305149  0.81021120  0.06410363  1
  Li  Li71  1  0.31305149  0.81021120  0.56410363  1
  Li  Li72  1  0.81305149  0.06021120  0.06410363  1
  Li  Li73  1  0.81305149  0.06021120  0.56410363  1
  Li  Li74  1  0.81305149  0.31021120  0.06410363  1
  Li  Li75  1  0.81305149  0.31021120  0.56410363  1
  Li  Li76  1  0.81305149  0.56021120  0.06410363  1
  Li  Li77  1  0.81305149  0.56021120  0.56410363  1
  Li  Li78  1  0.81305149  0.81021120  0.06410363  1
  Li  Li79  1  0.81305149  0.81021120  0.56410363  1
  Li  Li80  1  0.56305149  0.18521120  0.06410363  1
  Li  Li81  1  0.56305149  0.18521120  0.56410363  1
  Li  Li82  1  0.56305149  0.43521120  0.06410363  1
  Li  Li83  1  0.56305149  0.43521120  0.56410363  1
  Li  Li84  1  0.56305149  0.68521120  0.06410363  1
  Li  Li85  1  0.56305149  0.68521120  0.56410363  1
  Li  Li86  1  0.56305149  0.93521120  0.06410363  1
  Li  Li87  1  0.56305149  0.93521120  0.56410363  1
  Li  Li88  1  1.06305149  0.18521120  0.06410363  1
  Li  Li89  1  1.06305149  0.18521120  0.56410363  1
  Li  Li90  1  1.06305149  0.43521120  0.06410363  1
  Li  Li91  1  1.06305149  0.43521120  0.56410363  1
  Li  Li92  1  1.06305149  0.68521120  0.06410363  1
  Li  Li93  1  1.06305149  0.68521120  0.56410363  1
  Li  Li94  1  1.06305149  0.93521120  0.06410363  1
  Li  Li95  1  1.06305149  0.93521120  0.56410363  1
  Li  Li96  1  0.31305149  -0.06021120  0.31410363  1
  Li  Li97  1  0.31305149  -0.06021120  0.81410363  1
  Li  Li98  1  0.31305149  0.18978880  0.31410363  1
  Li  Li99  1  0.31305149  0.18978880  0.81410363  1
  Li  Li100  1  0.31305149  0.43978880  0.31410363  1
  Li  Li101  1  0.31305149  0.43978880  0.81410363  1
  Li  Li102  1  0.31305149  0.68978880  0.31410363  1
  Li  Li103  1  0.31305149  0.68978880  0.81410363  1
  Li  Li104  1  0.81305149  -0.06021120  0.31410363  1
  Li  Li105  1  0.81305149  -0.06021120  0.81410363  1
  Li  Li106  1  0.81305149  0.18978880  0.31410363  1
  Li  Li107  1  0.81305149  0.18978880  0.81410363  1
  Li  Li108  1  0.81305149  0.43978880  0.31410363  1
  Li  Li109  1  0.81305149  0.43978880  0.81410363  1
  Li  Li110  1  0.81305149  0.68978880  0.31410363  1
  Li  Li111  1  0.81305149  0.68978880  0.81410363  1
  Li  Li112  1  0.56305149  0.06478880  0.31410363  1
  Li  Li113  1  0.56305149  0.06478880  0.81410363  1
  Li  Li114  1  0.56305149  0.31478880  0.31410363  1
  Li  Li115  1  0.56305149  0.31478880  0.81410363  1
  Li  Li116  1  0.56305149  0.56478880  0.31410363  1
  Li  Li117  1  0.56305149  0.56478880  0.81410363  1
  Li  Li118  1  0.56305149  0.81478880  0.31410363  1
  Li  Li119  1  0.56305149  0.81478880  0.81410363  1
  Li  Li120  1  1.06305149  0.06478880  0.31410363  1
  Li  Li121  1  1.06305149  0.06478880  0.81410363  1
  Li  Li122  1  1.06305149  0.31478880  0.31410363  1
  Li  Li123  1  1.06305149  0.31478880  0.81410363  1
  Li  Li124  1  1.06305149  0.56478880  0.31410363  1
  Li  Li125  1  1.06305149  0.56478880  0.81410363  1
  Li  Li126  1  1.06305149  0.81478880  0.31410363  1
  Li  Li127  1  1.06305149  0.81478880  0.81410363  1
  Mo  Mo128  1  0.25031784  0.06224521  0.37584848  1
  Mo  Mo129  1  0.25031784  0.06224521  0.87584848  1
  Mo  Mo130  1  0.25031784  0.31224521  0.37584848  1
  Mo  Mo131  1  0.25031784  0.31224521  0.87584848  1
  Mo  Mo132  1  0.25031784  0.56224521  0.37584848  1
  Mo  Mo133  1  0.25031784  0.56224521  0.87584848  1
  Mo  Mo134  1  0.25031784  0.81224521  0.37584848  1
  Mo  Mo135  1  0.25031784  0.81224521  0.87584848  1
  Mo  Mo136  1  0.75031784  0.06224521  0.37584848  1
  Mo  Mo137  1  0.75031784  0.06224521  0.87584848  1
  Mo  Mo138  1  0.75031784  0.31224521  0.37584848  1
  Mo  Mo139  1  0.75031784  0.31224521  0.87584848  1
  Mo  Mo140  1  0.75031784  0.56224521  0.37584848  1
  Mo  Mo141  1  0.75031784  0.56224521  0.87584848  1
  Mo  Mo142  1  0.75031784  0.81224521  0.37584848  1
  Mo  Mo143  1  0.75031784  0.81224521  0.87584848  1
  Mo  Mo144  1  0.50031784  0.18724521  0.37584848  1
  Mo  Mo145  1  0.50031784  0.18724521  0.87584848  1
  Mo  Mo146  1  0.50031784  0.43724522  0.37584848  1
  Mo  Mo147  1  0.50031784  0.43724522  0.87584848  1
  Mo  Mo148  1  0.50031784  0.68724521  0.37584848  1
  Mo  Mo149  1  0.50031784  0.68724521  0.87584848  1
  Mo  Mo150  1  0.50031784  0.93724521  0.37584848  1
  Mo  Mo151  1  0.50031784  0.93724521  0.87584848  1
  Mo  Mo152  1  1.00031784  0.18724521  0.37584848  1
  Mo  Mo153  1  1.00031784  0.18724521  0.87584848  1
  Mo  Mo154  1  1.00031784  0.43724522  0.37584848  1
  Mo  Mo155  1  1.00031784  0.43724522  0.87584848  1
  Mo  Mo156  1  1.00031784  0.68724521  0.37584848  1
  Mo  Mo157  1  1.00031784  0.68724521  0.87584848  1
  Mo  Mo158  1  1.00031784  0.93724521  0.37584848  1
  Mo  Mo159  1  1.00031784  0.93724521  0.87584848  1
  Mo  Mo160  1  0.25031784  -0.06224521  0.12584848  1
  Mo  Mo161  1  0.25031784  -0.06224521  0.62584848  1
  Mo  Mo162  1  0.25031784  0.18775479  0.12584848  1
  Mo  Mo163  1  0.25031784  0.18775479  0.62584848  1
  Mo  Mo164  1  0.25031784  0.43775479  0.12584848  1
  Mo  Mo165  1  0.25031784  0.43775479  0.62584848  1
  Mo  Mo166  1  0.25031784  0.68775479  0.12584848  1
  Mo  Mo167  1  0.25031784  0.68775479  0.62584848  1
  Mo  Mo168  1  0.75031784  -0.06224521  0.12584848  1
  Mo  Mo169  1  0.75031784  -0.06224521  0.62584848  1
  Mo  Mo170  1  0.75031784  0.18775479  0.12584848  1
  Mo  Mo171  1  0.75031784  0.18775479  0.62584848  1
  Mo  Mo172  1  0.75031784  0.43775479  0.12584848  1
  Mo  Mo173  1  0.75031784  0.43775479  0.62584848  1
  Mo  Mo174  1  0.75031784  0.68775479  0.12584848  1
  Mo  Mo175  1  0.75031784  0.68775479  0.62584848  1
  Mo  Mo176  1  0.50031784  0.06275479  0.12584848  1
  Mo  Mo177  1  0.50031784  0.06275479  0.62584848  1
  Mo  Mo178  1  0.50031784  0.31275479  0.12584848  1
  Mo  Mo179  1  0.50031784  0.31275479  0.62584848  1
  Mo  Mo180  1  0.50031784  0.56275479  0.12584848  1
  Mo  Mo181  1  0.50031784  0.56275479  0.62584848  1
  Mo  Mo182  1  0.50031784  0.81275479  0.12584848  1
  Mo  Mo183  1  0.50031784  0.81275479  0.62584848  1
  Mo  Mo184  1  1.00031784  0.06275479  0.12584848  1
  Mo  Mo185  1  1.00031784  0.06275479  0.62584848  1
  Mo  Mo186  1  1.00031784  0.31275479  0.12584848  1
  Mo  Mo187  1  1.00031784  0.31275479  0.62584848  1
  Mo  Mo188  1  1.00031784  0.56275479  0.12584848  1
  Mo  Mo189  1  1.00031784  0.56275479  0.62584848  1
  Mo  Mo190  1  1.00031784  0.81275479  0.12584848  1
  Mo  Mo191  1  1.00031784  0.81275479  0.62584848  1
  O  O192  1  0.27089239  0.11265747  0.11307879  1
  O  O193  1  0.27089239  0.11265747  0.61307879  1
  O  O194  1  0.27089239  0.36265747  0.11307879  1
  O  O195  1  0.27089239  0.36265747  0.61307879  1
  O  O196  1  0.27089239  0.61265747  0.11307879  1
  O  O197  1  0.27089239  0.61265747  0.61307879  1
  O  O198  1  0.27089239  0.86265747  0.11307879  1
  O  O199  1  0.27089239  0.86265747  0.61307879  1
  O  O200  1  0.77089239  0.11265747  0.11307879  1
  O  O201  1  0.77089239  0.11265747  0.61307879  1
  O  O202  1  0.77089239  0.36265747  0.11307879  1
  O  O203  1  0.77089239  0.36265747  0.61307879  1
  O  O204  1  0.77089239  0.61265747  0.11307879  1
  O  O205  1  0.77089239  0.61265747  0.61307879  1
  O  O206  1  0.77089239  0.86265747  0.11307879  1
  O  O207  1  0.77089239  0.86265747  0.61307879  1
  O  O208  1  0.52089239  0.23765747  0.11307879  1
  O  O209  1  0.52089239  0.23765747  0.61307879  1
  O  O210  1  0.52089239  0.48765747  0.11307879  1
  O  O211  1  0.52089239  0.48765747  0.61307879  1
  O  O212  1  0.52089239  0.73765747  0.11307879  1
  O  O213  1  0.52089239  0.73765747  0.61307879  1
  O  O214  1  0.52089239  0.98765747  0.11307879  1
  O  O215  1  0.52089239  0.98765747  0.61307879  1
  O  O216  1  1.02089239  0.23765747  0.11307879  1
  O  O217  1  1.02089239  0.23765747  0.61307879  1
  O  O218  1  1.02089239  0.48765747  0.11307879  1
  O  O219  1  1.02089239  0.48765747  0.61307879  1
  O  O220  1  1.02089239  0.73765747  0.11307879  1
  O  O221  1  1.02089239  0.73765747  0.61307879  1
  O  O222  1  1.02089239  0.98765747  0.11307879  1
  O  O223  1  1.02089239  0.98765747  0.61307879  1
  O  O224  1  0.25350485  0.05184809  0.46506787  1
  O  O225  1  0.25350485  0.05184809  0.96506787  1
  O  O226  1  0.25350485  0.30184809  0.46506787  1
  O  O227  1  0.25350485  0.30184809  0.96506787  1
  O  O228  1  0.25350485  0.55184809  0.46506787  1
  O  O229  1  0.25350485  0.55184809  0.96506787  1
  O  O230  1  0.25350485  0.80184809  0.46506787  1
  O  O231  1  0.25350485  0.80184809  0.96506787  1
  O  O232  1  0.75350485  0.05184809  0.46506787  1
  O  O233  1  0.75350485  0.05184809  0.96506787  1
  O  O234  1  0.75350485  0.30184809  0.46506787  1
  O  O235  1  0.75350485  0.30184809  0.96506787  1
  O  O236  1  0.75350485  0.55184809  0.46506787  1
  O  O237  1  0.75350485  0.55184809  0.96506787  1
  O  O238  1  0.75350485  0.80184809  0.46506787  1
  O  O239  1  0.75350485  0.80184809  0.96506787  1
  O  O240  1  0.50350485  0.17684809  0.46506787  1
  O  O241  1  0.50350485  0.17684809  0.96506787  1
  O  O242  1  0.50350485  0.42684809  0.46506787  1
  O  O243  1  0.50350485  0.42684809  0.96506787  1
  O  O244  1  0.50350485  0.67684809  0.46506787  1
  O  O245  1  0.50350485  0.67684809  0.96506787  1
  O  O246  1  0.50350485  0.92684809  0.46506787  1
  O  O247  1  0.50350485  0.92684809  0.96506787  1
  O  O248  1  1.00350485  0.17684809  0.46506787  1
  O  O249  1  1.00350485  0.17684809  0.96506787  1
  O  O250  1  1.00350485  0.42684809  0.46506787  1
  O  O251  1  1.00350485  0.42684809  0.96506787  1
  O  O252  1  1.00350485  0.67684809  0.46506787  1
  O  O253  1  1.00350485  0.67684809  0.96506787  1
  O  O254  1  1.00350485  0.92684809  0.46506787  1
  O  O255  1  1.00350485  0.92684809  0.96506787  1
  O  O256  1  0.31679385  -0.01500007  0.11064218  1
  O  O257  1  0.31679385  -0.01500007  0.61064218  1
  O  O258  1  0.31679385  0.23499993  0.11064218  1
  O  O259  1  0.31679385  0.23499993  0.61064218  1
  O  O260  1  0.31679385  0.48499993  0.11064218  1
  O  O261  1  0.31679385  0.48499993  0.61064218  1
  O  O262  1  0.31679385  0.73499993  0.11064218  1
  O  O263  1  0.31679385  0.73499993  0.61064218  1
  O  O264  1  0.81679385  -0.01500007  0.11064218  1
  O  O265  1  0.81679385  -0.01500007  0.61064218  1
  O  O266  1  0.81679385  0.23499993  0.11064218  1
  O  O267  1  0.81679385  0.23499993  0.61064218  1
  O  O268  1  0.81679385  0.48499993  0.11064218  1
  O  O269  1  0.81679385  0.48499993  0.61064218  1
  O  O270  1  0.81679385  0.73499993  0.11064218  1
  O  O271  1  0.81679385  0.73499993  0.61064218  1
  O  O272  1  0.56679385  0.10999993  0.11064218  1
  O  O273  1  0.56679385  0.10999993  0.61064218  1
  O  O274  1  0.56679385  0.35999993  0.11064218  1
  O  O275  1  0.56679385  0.35999993  0.61064218  1
  O  O276  1  0.56679385  0.60999993  0.11064218  1
  O  O277  1  0.56679385  0.60999993  0.61064218  1
  O  O278  1  0.56679385  0.85999993  0.11064218  1
  O  O279  1  0.56679385  0.85999993  0.61064218  1
  O  O280  1  1.06679385  0.10999993  0.11064218  1
  O  O281  1  1.06679385  0.10999993  0.61064218  1
  O  O282  1  1.06679385  0.35999993  0.11064218  1
  O  O283  1  1.06679385  0.35999993  0.61064218  1
  O  O284  1  1.06679385  0.60999993  0.11064218  1
  O  O285  1  1.06679385  0.60999993  0.61064218  1
  O  O286  1  1.06679385  0.85999993  0.11064218  1
  O  O287  1  1.06679385  0.85999993  0.61064218  1
  O  O288  1  0.31679385  0.01500007  0.36064218  1
  O  O289  1  0.31679385  0.01500007  0.86064218  1
  O  O290  1  0.31679385  0.26500007  0.36064218  1
  O  O291  1  0.31679385  0.26500007  0.86064218  1
  O  O292  1  0.31679385  0.51500007  0.36064218  1
  O  O293  1  0.31679385  0.51500007  0.86064218  1
  O  O294  1  0.31679385  0.76500007  0.36064218  1
  O  O295  1  0.31679385  0.76500007  0.86064218  1
  O  O296  1  0.81679385  0.01500007  0.36064218  1
  O  O297  1  0.81679385  0.01500007  0.86064218  1
  O  O298  1  0.81679385  0.26500007  0.36064218  1
  O  O299  1  0.81679385  0.26500007  0.86064218  1
  O  O300  1  0.81679385  0.51500007  0.36064218  1
  O  O301  1  0.81679385  0.51500007  0.86064218  1
  O  O302  1  0.81679385  0.76500007  0.36064218  1
  O  O303  1  0.81679385  0.76500007  0.86064218  1
  O  O304  1  0.56679385  0.14000007  0.36064218  1
  O  O305  1  0.56679385  0.14000007  0.86064218  1
  O  O306  1  0.56679385  0.39000007  0.36064218  1
  O  O307  1  0.56679385  0.39000007  0.86064218  1
  O  O308  1  0.56679385  0.64000007  0.36064218  1
  O  O309  1  0.56679385  0.64000007  0.86064218  1
  O  O310  1  0.56679385  0.89000007  0.36064218  1
  O  O311  1  0.56679385  0.89000007  0.86064218  1
  O  O312  1  1.06679385  0.14000007  0.36064218  1
  O  O313  1  1.06679385  0.14000007  0.86064218  1
  O  O314  1  1.06679385  0.39000007  0.36064218  1
  O  O315  1  1.06679385  0.39000007  0.86064218  1
  O  O316  1  1.06679385  0.64000007  0.36064218  1
  O  O317  1  1.06679385  0.64000007  0.86064218  1
  O  O318  1  1.06679385  0.89000007  0.36064218  1
  O  O319  1  1.06679385  0.89000007  0.86064218  1
  O  O320  1  0.25350485  -0.05184809  0.21506787  1
  O  O321  1  0.25350485  -0.05184809  0.71506787  1
  O  O322  1  0.25350485  0.19815191  0.21506787  1
  O  O323  1  0.25350485  0.19815191  0.71506787  1
  O  O324  1  0.25350485  0.44815191  0.21506787  1
  O  O325  1  0.25350485  0.44815191  0.71506787  1
  O  O326  1  0.25350485  0.69815191  0.21506787  1
  O  O327  1  0.25350485  0.69815191  0.71506787  1
  O  O328  1  0.75350485  -0.05184809  0.21506787  1
  O  O329  1  0.75350485  -0.05184809  0.71506787  1
  O  O330  1  0.75350485  0.19815191  0.21506787  1
  O  O331  1  0.75350485  0.19815191  0.71506787  1
  O  O332  1  0.75350485  0.44815191  0.21506787  1
  O  O333  1  0.75350485  0.44815191  0.71506787  1
  O  O334  1  0.75350485  0.69815191  0.21506787  1
  O  O335  1  0.75350485  0.69815191  0.71506787  1
  O  O336  1  0.50350485  0.07315191  0.21506787  1
  O  O337  1  0.50350485  0.07315191  0.71506787  1
  O  O338  1  0.50350485  0.32315191  0.21506787  1
  O  O339  1  0.50350485  0.32315191  0.71506787  1
  O  O340  1  0.50350485  0.57315191  0.21506787  1
  O  O341  1  0.50350485  0.57315191  0.71506787  1
  O  O342  1  0.50350485  0.82315191  0.21506787  1
  O  O343  1  0.50350485  0.82315191  0.71506787  1
  O  O344  1  1.00350485  0.07315191  0.21506787  1
  O  O345  1  1.00350485  0.07315191  0.71506787  1
  O  O346  1  1.00350485  0.32315191  0.21506787  1
  O  O347  1  1.00350485  0.32315191  0.71506787  1
  O  O348  1  1.00350485  0.57315191  0.21506787  1
  O  O349  1  1.00350485  0.57315191  0.71506787  1
  O  O350  1  1.00350485  0.82315191  0.21506787  1
  O  O351  1  1.00350485  0.82315191  0.71506787  1
  O  O352  1  0.15977968  0.04535221  0.31434984  1
  O  O353  1  0.15977968  0.04535221  0.81434984  1
  O  O354  1  0.15977968  0.29535221  0.31434984  1
  O  O355  1  0.15977968  0.29535221  0.81434984  1
  O  O356  1  0.15977968  0.54535221  0.31434984  1
  O  O357  1  0.15977968  0.54535221  0.81434984  1
  O  O358  1  0.15977968  0.79535221  0.31434984  1
  O  O359  1  0.15977968  0.79535221  0.81434984  1
  O  O360  1  0.65977968  0.04535221  0.31434984  1
  O  O361  1  0.65977968  0.04535221  0.81434984  1
  O  O362  1  0.65977968  0.29535221  0.31434984  1
  O  O363  1  0.65977968  0.29535221  0.81434984  1
  O  O364  1  0.65977968  0.54535221  0.31434984  1
  O  O365  1  0.65977968  0.54535221  0.81434984  1
  O  O366  1  0.65977968  0.79535221  0.31434984  1
  O  O367  1  0.65977968  0.79535221  0.81434984  1
  O  O368  1  0.40977968  0.17035221  0.31434984  1
  O  O369  1  0.40977968  0.17035221  0.81434984  1
  O  O370  1  0.40977968  0.42035221  0.31434984  1
  O  O371  1  0.40977968  0.42035221  0.81434984  1
  O  O372  1  0.40977968  0.67035221  0.31434984  1
  O  O373  1  0.40977968  0.67035221  0.81434984  1
  O  O374  1  0.40977968  0.92035221  0.31434984  1
  O  O375  1  0.40977968  0.92035221  0.81434984  1
  O  O376  1  0.90977968  0.17035221  0.31434984  1
  O  O377  1  0.90977968  0.17035221  0.81434984  1
  O  O378  1  0.90977968  0.42035221  0.31434984  1
  O  O379  1  0.90977968  0.42035221  0.81434984  1
  O  O380  1  0.90977968  0.67035221  0.31434984  1
  O  O381  1  0.90977968  0.67035221  0.81434984  1
  O  O382  1  0.90977968  0.92035221  0.31434984  1
  O  O383  1  0.90977968  0.92035221  0.81434984  1
  O  O384  1  0.15977968  -0.04535221  0.06434984  1
  O  O385  1  0.15977968  -0.04535221  0.56434984  1
  O  O386  1  0.15977968  0.20464779  0.06434984  1
  O  O387  1  0.15977968  0.20464779  0.56434984  1
  O  O388  1  0.15977968  0.45464779  0.06434984  1
  O  O389  1  0.15977968  0.45464779  0.56434984  1
  O  O390  1  0.15977968  0.70464779  0.06434984  1
  O  O391  1  0.15977968  0.70464779  0.56434984  1
  O  O392  1  0.65977968  -0.04535221  0.06434984  1
  O  O393  1  0.65977968  -0.04535221  0.56434984  1
  O  O394  1  0.65977968  0.20464779  0.06434984  1
  O  O395  1  0.65977968  0.20464779  0.56434984  1
  O  O396  1  0.65977968  0.45464779  0.06434984  1
  O  O397  1  0.65977968  0.45464779  0.56434984  1
  O  O398  1  0.65977968  0.70464779  0.06434984  1
  O  O399  1  0.65977968  0.70464779  0.56434984  1
  O  O400  1  0.40977968  0.07964779  0.06434984  1
  O  O401  1  0.40977968  0.07964779  0.56434984  1
  O  O402  1  0.40977968  0.32964779  0.06434984  1
  O  O403  1  0.40977968  0.32964779  0.56434984  1
  O  O404  1  0.40977968  0.57964779  0.06434984  1
  O  O405  1  0.40977968  0.57964779  0.56434984  1
  O  O406  1  0.40977968  0.82964779  0.06434984  1
  O  O407  1  0.40977968  0.82964779  0.56434984  1
  O  O408  1  0.90977968  0.07964779  0.06434984  1
  O  O409  1  0.90977968  0.07964779  0.56434984  1
  O  O410  1  0.90977968  0.32964779  0.06434984  1
  O  O411  1  0.90977968  0.32964779  0.56434984  1
  O  O412  1  0.90977968  0.57964779  0.06434984  1
  O  O413  1  0.90977968  0.57964779  0.56434984  1
  O  O414  1  0.90977968  0.82964779  0.06434984  1
  O  O415  1  0.90977968  0.82964779  0.56434984  1
  O  O416  1  0.27089239  -0.11265747  0.36307879  1
  O  O417  1  0.27089239  -0.11265747  0.86307879  1
  O  O418  1  0.27089239  0.13734253  0.36307879  1
  O  O419  1  0.27089239  0.13734253  0.86307879  1
  O  O420  1  0.27089239  0.38734253  0.36307879  1
  O  O421  1  0.27089239  0.38734253  0.86307879  1
  O  O422  1  0.27089239  0.63734253  0.36307879  1
  O  O423  1  0.27089239  0.63734253  0.86307879  1
  O  O424  1  0.77089239  -0.11265747  0.36307879  1
  O  O425  1  0.77089239  -0.11265747  0.86307879  1
  O  O426  1  0.77089239  0.13734253  0.36307879  1
  O  O427  1  0.77089239  0.13734253  0.86307879  1
  O  O428  1  0.77089239  0.38734253  0.36307879  1
  O  O429  1  0.77089239  0.38734253  0.86307879  1
  O  O430  1  0.77089239  0.63734253  0.36307879  1
  O  O431  1  0.77089239  0.63734253  0.86307879  1
  O  O432  1  0.52089239  0.01234253  0.36307879  1
  O  O433  1  0.52089239  0.01234253  0.86307879  1
  O  O434  1  0.52089239  0.26234253  0.36307879  1
  O  O435  1  0.52089239  0.26234253  0.86307879  1
  O  O436  1  0.52089239  0.51234253  0.36307879  1
  O  O437  1  0.52089239  0.51234253  0.86307879  1
  O  O438  1  0.52089239  0.76234253  0.36307879  1
  O  O439  1  0.52089239  0.76234253  0.86307879  1
  O  O440  1  1.02089239  0.01234253  0.36307879  1
  O  O441  1  1.02089239  0.01234253  0.86307879  1
  O  O442  1  1.02089239  0.26234253  0.36307879  1
  O  O443  1  1.02089239  0.26234253  0.86307879  1
  O  O444  1  1.02089239  0.51234253  0.36307879  1
  O  O445  1  1.02089239  0.51234253  0.86307879  1
  O  O446  1  1.02089239  0.76234253  0.36307879  1
  O  O447  1  1.02089239  0.76234253  0.86307879  1
