# generated using pymatgen
data_Ca2MgWO6
_symmetry_space_group_name_H-M   'P 1'
_cell_length_a   16.13753613
_cell_length_b   16.66737234
_cell_length_c   18.73235253
_cell_angle_alpha   90.00000000
_cell_angle_beta   124.88221341
_cell_angle_gamma   90.00000000
_symmetry_Int_Tables_number   1
_chemical_formula_structural   Ca2MgWO6
_chemical_formula_sum   'Ca72 Mg36 W36 O216'
_cell_volume   4133.18638942
_cell_formula_units_Z   36
loop_
 _symmetry_equiv_pos_site_id
 _symmetry_equiv_pos_as_xyz
  1  'x, y, z'
loop_
 _atom_site_type_symbol
 _atom_site_label
 _atom_site_symmetry_multiplicity
 _atom_site_fract_x
 _atom_site_fract_y
 _atom_site_fract_z
 _atom_site_occupancy
  Ca  Ca0  1  0.25512197  0.31547591  0.37630766  1
  Ca  Ca1  1  0.25512197  0.31547591  0.87630766  1
  Ca  Ca2  1  0.25512197  0.64880925  0.37630766  1
  Ca  Ca3  1  0.25512197  0.64880925  0.87630766  1
  Ca  Ca4  1  0.25512197  0.98214258  0.37630766  1
  Ca  Ca5  1  0.25512197  0.98214258  0.87630766  1
  Ca  Ca6  1  0.58845531  0.31547591  0.37630766  1
  Ca  Ca7  1  0.58845531  0.31547591  0.87630766  1
  Ca  Ca8  1  0.58845531  0.64880925  0.37630766  1
  Ca  Ca9  1  0.58845531  0.64880925  0.87630766  1
  Ca  Ca10  1  0.58845531  0.98214258  0.37630766  1
  Ca  Ca11  1  0.58845531  0.98214258  0.87630766  1
  Ca  Ca12  1  0.92178864  0.31547591  0.37630766  1
  Ca  Ca13  1  0.92178864  0.31547591  0.87630766  1
  Ca  Ca14  1  0.92178864  0.64880925  0.37630766  1
  Ca  Ca15  1  0.92178864  0.64880925  0.87630766  1
  Ca  Ca16  1  0.92178864  0.98214258  0.37630766  1
  Ca  Ca17  1  0.92178864  0.98214258  0.87630766  1
  Ca  Ca18  1  0.07821136  0.14880925  0.37369234  1
  Ca  Ca19  1  0.07821136  0.14880925  0.87369234  1
  Ca  Ca20  1  0.07821136  0.48214258  0.37369234  1
  Ca  Ca21  1  0.07821136  0.48214258  0.87369234  1
  Ca  Ca22  1  0.07821136  0.81547591  0.37369234  1
  Ca  Ca23  1  0.07821136  0.81547591  0.87369234  1
  Ca  Ca24  1  0.41154469  0.14880925  0.37369234  1
  Ca  Ca25  1  0.41154469  0.14880925  0.87369234  1
  Ca  Ca26  1  0.41154469  0.48214258  0.37369234  1
  Ca  Ca27  1  0.41154469  0.48214258  0.87369234  1
  Ca  Ca28  1  0.41154469  0.81547591  0.37369234  1
  Ca  Ca29  1  0.41154469  0.81547591  0.87369234  1
  Ca  Ca30  1  0.74487803  0.14880925  0.37369234  1
  Ca  Ca31  1  0.74487803  0.14880925  0.87369234  1
  Ca  Ca32  1  0.74487803  0.48214258  0.37369234  1
  Ca  Ca33  1  0.74487803  0.48214258  0.87369234  1
  Ca  Ca34  1  0.74487803  0.81547591  0.37369234  1
  Ca  Ca35  1  0.74487803  0.81547591  0.87369234  1
  Ca  Ca36  1  0.25512197  0.18452409  0.12630766  1
  Ca  Ca37  1  0.25512197  0.18452409  0.62630766  1
  Ca  Ca38  1  0.25512197  0.51785742  0.12630766  1
  Ca  Ca39  1  0.25512197  0.51785742  0.62630766  1
  Ca  Ca40  1  0.25512197  0.85119075  0.12630766  1
  Ca  Ca41  1  0.25512197  0.85119075  0.62630766  1
  Ca  Ca42  1  0.58845531  0.18452409  0.12630766  1
  Ca  Ca43  1  0.58845531  0.18452409  0.62630766  1
  Ca  Ca44  1  0.58845531  0.51785742  0.12630766  1
  Ca  Ca45  1  0.58845531  0.51785742  0.62630766  1
  Ca  Ca46  1  0.58845531  0.85119075  0.12630766  1
  Ca  Ca47  1  0.58845531  0.85119075  0.62630766  1
  Ca  Ca48  1  0.92178864  0.18452409  0.12630766  1
  Ca  Ca49  1  0.92178864  0.18452409  0.62630766  1
  Ca  Ca50  1  0.92178864  0.51785742  0.12630766  1
  Ca  Ca51  1  0.92178864  0.51785742  0.62630766  1
  Ca  Ca52  1  0.92178864  0.85119075  0.12630766  1
  Ca  Ca53  1  0.92178864  0.85119075  0.62630766  1
  Ca  Ca54  1  0.07821136  0.01785742  0.12369234  1
  Ca  Ca55  1  0.07821136  0.01785742  0.62369234  1
  Ca  Ca56  1  0.07821136  0.35119075  0.12369234  1
  Ca  Ca57  1  0.07821136  0.35119075  0.62369234  1
  Ca  Ca58  1  0.07821136  0.68452409  0.12369234  1
  Ca  Ca59  1  0.07821136  0.68452409  0.62369234  1
  Ca  Ca60  1  0.41154469  0.01785742  0.12369234  1
  Ca  Ca61  1  0.41154469  0.01785742  0.62369234  1
  Ca  Ca62  1  0.41154469  0.35119075  0.12369234  1
  Ca  Ca63  1  0.41154469  0.35119075  0.62369234  1
  Ca  Ca64  1  0.41154469  0.68452409  0.12369234  1
  Ca  Ca65  1  0.41154469  0.68452409  0.62369234  1
  Ca  Ca66  1  0.74487803  0.01785742  0.12369234  1
  Ca  Ca67  1  0.74487803  0.01785742  0.62369234  1
  Ca  Ca68  1  0.74487803  0.35119075  0.12369234  1
  Ca  Ca69  1  0.74487803  0.35119075  0.62369234  1
  Ca  Ca70  1  0.74487803  0.68452409  0.12369234  1
  Ca  Ca71  1  0.74487803  0.68452409  0.62369234  1
  Mg  Mg72  1  0.00000000  0.16666667  0.00000000  1
  Mg  Mg73  1  -0.00000000  0.16666667  0.50000000  1
  Mg  Mg74  1  0.00000000  0.50000000  0.00000000  1
  Mg  Mg75  1  -0.00000000  0.50000000  0.50000000  1
  Mg  Mg76  1  0.00000000  0.83333333  0.00000000  1
  Mg  Mg77  1  -0.00000000  0.83333333  0.50000000  1
  Mg  Mg78  1  0.33333333  0.16666667  0.00000000  1
  Mg  Mg79  1  0.33333333  0.16666667  0.50000000  1
  Mg  Mg80  1  0.33333333  0.50000000  0.00000000  1
  Mg  Mg81  1  0.33333333  0.50000000  0.50000000  1
  Mg  Mg82  1  0.33333333  0.83333333  0.00000000  1
  Mg  Mg83  1  0.33333333  0.83333333  0.50000000  1
  Mg  Mg84  1  0.66666667  0.16666667  0.00000000  1
  Mg  Mg85  1  0.66666667  0.16666667  0.50000000  1
  Mg  Mg86  1  0.66666667  0.50000000  0.00000000  1
  Mg  Mg87  1  0.66666667  0.50000000  0.50000000  1
  Mg  Mg88  1  0.66666667  0.83333333  0.00000000  1
  Mg  Mg89  1  0.66666667  0.83333333  0.50000000  1
  Mg  Mg90  1  0.00000000  0.00000000  0.25000000  1
  Mg  Mg91  1  0.00000000  0.00000000  0.75000000  1
  Mg  Mg92  1  0.00000000  0.33333333  0.25000000  1
  Mg  Mg93  1  0.00000000  0.33333333  0.75000000  1
  Mg  Mg94  1  0.00000000  0.66666667  0.25000000  1
  Mg  Mg95  1  0.00000000  0.66666667  0.75000000  1
  Mg  Mg96  1  0.33333333  0.00000000  0.25000000  1
  Mg  Mg97  1  0.33333333  0.00000000  0.75000000  1
  Mg  Mg98  1  0.33333333  0.33333333  0.25000000  1
  Mg  Mg99  1  0.33333333  0.33333333  0.75000000  1
  Mg  Mg100  1  0.33333333  0.66666667  0.25000000  1
  Mg  Mg101  1  0.33333333  0.66666667  0.75000000  1
  Mg  Mg102  1  0.66666667  0.00000000  0.25000000  1
  Mg  Mg103  1  0.66666667  0.00000000  0.75000000  1
  Mg  Mg104  1  0.66666667  0.33333333  0.25000000  1
  Mg  Mg105  1  0.66666667  0.33333333  0.75000000  1
  Mg  Mg106  1  0.66666667  0.66666667  0.25000000  1
  Mg  Mg107  1  0.66666667  0.66666667  0.75000000  1
  W  W108  1  0.16666667  0.00000000  0.00000000  1
  W  W109  1  0.16666667  0.00000000  0.50000000  1
  W  W110  1  0.16666667  0.33333333  0.00000000  1
  W  W111  1  0.16666667  0.33333333  0.50000000  1
  W  W112  1  0.16666667  0.66666667  0.00000000  1
  W  W113  1  0.16666667  0.66666667  0.50000000  1
  W  W114  1  0.50000000  0.00000000  0.00000000  1
  W  W115  1  0.50000000  0.00000000  0.50000000  1
  W  W116  1  0.50000000  0.33333333  0.00000000  1
  W  W117  1  0.50000000  0.33333333  0.50000000  1
  W  W118  1  0.50000000  0.66666667  0.00000000  1
  W  W119  1  0.50000000  0.66666667  0.50000000  1
  W  W120  1  0.83333333  0.00000000  0.00000000  1
  W  W121  1  0.83333333  0.00000000  0.50000000  1
  W  W122  1  0.83333333  0.33333333  0.00000000  1
  W  W123  1  0.83333333  0.33333333  0.50000000  1
  W  W124  1  0.83333333  0.66666667  0.00000000  1
  W  W125  1  0.83333333  0.66666667  0.50000000  1
  W  W126  1  0.16666667  0.16666667  0.25000000  1
  W  W127  1  0.16666667  0.16666667  0.75000000  1
  W  W128  1  0.16666667  0.50000000  0.25000000  1
  W  W129  1  0.16666667  0.50000000  0.75000000  1
  W  W130  1  0.16666667  0.83333333  0.25000000  1
  W  W131  1  0.16666667  0.83333333  0.75000000  1
  W  W132  1  0.50000000  0.16666667  0.25000000  1
  W  W133  1  0.50000000  0.16666667  0.75000000  1
  W  W134  1  0.50000000  0.50000000  0.25000000  1
  W  W135  1  0.50000000  0.50000000  0.75000000  1
  W  W136  1  0.50000000  0.83333333  0.25000000  1
  W  W137  1  0.50000000  0.83333333  0.75000000  1
  W  W138  1  0.83333333  0.16666667  0.25000000  1
  W  W139  1  0.83333333  0.16666667  0.75000000  1
  W  W140  1  0.83333333  0.50000000  0.25000000  1
  W  W141  1  0.83333333  0.50000000  0.75000000  1
  W  W142  1  0.83333333  0.83333333  0.25000000  1
  W  W143  1  0.83333333  0.83333333  0.75000000  1
  O  O144  1  0.27810472  0.23156912  0.27266500  1
  O  O145  1  0.27810472  0.23156912  0.77266500  1
  O  O146  1  0.27810472  0.56490245  0.27266500  1
  O  O147  1  0.27810472  0.56490245  0.77266500  1
  O  O148  1  0.27810472  0.89823579  0.27266500  1
  O  O149  1  0.27810472  0.89823579  0.77266500  1
  O  O150  1  0.61143805  0.23156912  0.27266500  1
  O  O151  1  0.61143805  0.23156912  0.77266500  1
  O  O152  1  0.61143805  0.56490245  0.27266500  1
  O  O153  1  0.61143805  0.56490245  0.77266500  1
  O  O154  1  0.61143805  0.89823579  0.27266500  1
  O  O155  1  0.61143805  0.89823579  0.77266500  1
  O  O156  1  0.94477139  0.23156912  0.27266500  1
  O  O157  1  0.94477139  0.23156912  0.77266500  1
  O  O158  1  0.94477139  0.56490245  0.27266500  1
  O  O159  1  0.94477139  0.56490245  0.77266500  1
  O  O160  1  0.94477139  0.89823579  0.27266500  1
  O  O161  1  0.94477139  0.89823579  0.77266500  1
  O  O162  1  0.05522861  0.06490245  0.47733500  1
  O  O163  1  0.05522861  0.06490245  0.97733500  1
  O  O164  1  0.05522861  0.39823579  0.47733500  1
  O  O165  1  0.05522861  0.39823579  0.97733500  1
  O  O166  1  0.05522861  0.73156912  0.47733500  1
  O  O167  1  0.05522861  0.73156912  0.97733500  1
  O  O168  1  0.38856195  0.06490245  0.47733500  1
  O  O169  1  0.38856195  0.06490245  0.97733500  1
  O  O170  1  0.38856195  0.39823579  0.47733500  1
  O  O171  1  0.38856195  0.39823579  0.97733500  1
  O  O172  1  0.38856195  0.73156912  0.47733500  1
  O  O173  1  0.38856195  0.73156912  0.97733500  1
  O  O174  1  0.72189528  0.06490245  0.47733500  1
  O  O175  1  0.72189528  0.06490245  0.97733500  1
  O  O176  1  0.72189528  0.39823579  0.47733500  1
  O  O177  1  0.72189528  0.39823579  0.97733500  1
  O  O178  1  0.72189528  0.73156912  0.47733500  1
  O  O179  1  0.72189528  0.73156912  0.97733500  1
  O  O180  1  0.05522861  0.10176421  0.22733500  1
  O  O181  1  0.05522861  0.10176421  0.72733500  1
  O  O182  1  0.05522861  0.43509755  0.22733500  1
  O  O183  1  0.05522861  0.43509755  0.72733500  1
  O  O184  1  0.05522861  0.76843088  0.22733500  1
  O  O185  1  0.05522861  0.76843088  0.72733500  1
  O  O186  1  0.38856195  0.10176421  0.22733500  1
  O  O187  1  0.38856195  0.10176421  0.72733500  1
  O  O188  1  0.38856195  0.43509755  0.22733500  1
  O  O189  1  0.38856195  0.43509755  0.72733500  1
  O  O190  1  0.38856195  0.76843088  0.22733500  1
  O  O191  1  0.38856195  0.76843088  0.72733500  1
  O  O192  1  0.72189528  0.10176421  0.22733500  1
  O  O193  1  0.72189528  0.10176421  0.72733500  1
  O  O194  1  0.72189528  0.43509755  0.22733500  1
  O  O195  1  0.72189528  0.43509755  0.72733500  1
  O  O196  1  0.72189528  0.76843088  0.22733500  1
  O  O197  1  0.72189528  0.76843088  0.72733500  1
  O  O198  1  0.27810472  0.26843088  0.02266500  1
  O  O199  1  0.27810472  0.26843088  0.52266500  1
  O  O200  1  0.27810472  0.60176421  0.02266500  1
  O  O201  1  0.27810472  0.60176421  0.52266500  1
  O  O202  1  0.27810472  0.93509755  0.02266500  1
  O  O203  1  0.27810472  0.93509755  0.52266500  1
  O  O204  1  0.61143805  0.26843088  0.02266500  1
  O  O205  1  0.61143805  0.26843088  0.52266500  1
  O  O206  1  0.61143805  0.60176421  0.02266500  1
  O  O207  1  0.61143805  0.60176421  0.52266500  1
  O  O208  1  0.61143805  0.93509755  0.02266500  1
  O  O209  1  0.61143805  0.93509755  0.52266500  1
  O  O210  1  0.94477139  0.26843088  0.02266500  1
  O  O211  1  0.94477139  0.26843088  0.52266500  1
  O  O212  1  0.94477139  0.60176421  0.02266500  1
  O  O213  1  0.94477139  0.60176421  0.52266500  1
  O  O214  1  0.94477139  0.93509755  0.02266500  1
  O  O215  1  0.94477139  0.93509755  0.52266500  1
  O  O216  1  0.08570477  0.26183852  0.22414350  1
  O  O217  1  0.08570477  0.26183852  0.72414350  1
  O  O218  1  0.08570477  0.59517186  0.22414350  1
  O  O219  1  0.08570477  0.59517186  0.72414350  1
  O  O220  1  0.08570477  0.92850519  0.22414350  1
  O  O221  1  0.08570477  0.92850519  0.72414350  1
  O  O222  1  0.41903810  0.26183852  0.22414350  1
  O  O223  1  0.41903810  0.26183852  0.72414350  1
  O  O224  1  0.41903810  0.59517186  0.22414350  1
  O  O225  1  0.41903810  0.59517186  0.72414350  1
  O  O226  1  0.41903810  0.92850519  0.22414350  1
  O  O227  1  0.41903810  0.92850519  0.72414350  1
  O  O228  1  0.75237144  0.26183852  0.22414350  1
  O  O229  1  0.75237144  0.26183852  0.72414350  1
  O  O230  1  0.75237144  0.59517186  0.22414350  1
  O  O231  1  0.75237144  0.59517186  0.72414350  1
  O  O232  1  0.75237144  0.92850519  0.22414350  1
  O  O233  1  0.75237144  0.92850519  0.72414350  1
  O  O234  1  0.24762856  0.09517186  0.02585650  1
  O  O235  1  0.24762856  0.09517186  0.52585650  1
  O  O236  1  0.24762856  0.42850519  0.02585650  1
  O  O237  1  0.24762856  0.42850519  0.52585650  1
  O  O238  1  0.24762856  0.76183852  0.02585650  1
  O  O239  1  0.24762856  0.76183852  0.52585650  1
  O  O240  1  0.58096190  0.09517186  0.02585650  1
  O  O241  1  0.58096190  0.09517186  0.52585650  1
  O  O242  1  0.58096190  0.42850519  0.02585650  1
  O  O243  1  0.58096190  0.42850519  0.52585650  1
  O  O244  1  0.58096190  0.76183852  0.02585650  1
  O  O245  1  0.58096190  0.76183852  0.52585650  1
  O  O246  1  0.91429523  0.09517186  0.02585650  1
  O  O247  1  0.91429523  0.09517186  0.52585650  1
  O  O248  1  0.91429523  0.42850519  0.02585650  1
  O  O249  1  0.91429523  0.42850519  0.52585650  1
  O  O250  1  0.91429523  0.76183852  0.02585650  1
  O  O251  1  0.91429523  0.76183852  0.52585650  1
  O  O252  1  0.24762856  0.07149481  0.27585650  1
  O  O253  1  0.24762856  0.07149481  0.77585650  1
  O  O254  1  0.24762856  0.40482814  0.27585650  1
  O  O255  1  0.24762856  0.40482814  0.77585650  1
  O  O256  1  0.24762856  0.73816148  0.27585650  1
  O  O257  1  0.24762856  0.73816148  0.77585650  1
  O  O258  1  0.58096190  0.07149481  0.27585650  1
  O  O259  1  0.58096190  0.07149481  0.77585650  1
  O  O260  1  0.58096190  0.40482814  0.27585650  1
  O  O261  1  0.58096190  0.40482814  0.77585650  1
  O  O262  1  0.58096190  0.73816148  0.27585650  1
  O  O263  1  0.58096190  0.73816148  0.77585650  1
  O  O264  1  0.91429523  0.07149481  0.27585650  1
  O  O265  1  0.91429523  0.07149481  0.77585650  1
  O  O266  1  0.91429523  0.40482814  0.27585650  1
  O  O267  1  0.91429523  0.40482814  0.77585650  1
  O  O268  1  0.91429523  0.73816148  0.27585650  1
  O  O269  1  0.91429523  0.73816148  0.77585650  1
  O  O270  1  0.08570477  0.23816148  0.47414350  1
  O  O271  1  0.08570477  0.23816148  0.97414350  1
  O  O272  1  0.08570477  0.57149481  0.47414350  1
  O  O273  1  0.08570477  0.57149481  0.97414350  1
  O  O274  1  0.08570477  0.90482814  0.47414350  1
  O  O275  1  0.08570477  0.90482814  0.97414350  1
  O  O276  1  0.41903810  0.23816148  0.47414350  1
  O  O277  1  0.41903810  0.23816148  0.97414350  1
  O  O278  1  0.41903810  0.57149481  0.47414350  1
  O  O279  1  0.41903810  0.57149481  0.97414350  1
  O  O280  1  0.41903810  0.90482814  0.47414350  1
  O  O281  1  0.41903810  0.90482814  0.97414350  1
  O  O282  1  0.75237144  0.23816148  0.47414350  1
  O  O283  1  0.75237144  0.23816148  0.97414350  1
  O  O284  1  0.75237144  0.57149481  0.47414350  1
  O  O285  1  0.75237144  0.57149481  0.97414350  1
  O  O286  1  0.75237144  0.90482814  0.47414350  1
  O  O287  1  0.75237144  0.90482814  0.97414350  1
  O  O288  1  0.21616033  0.17664190  0.37061864  1
  O  O289  1  0.21616033  0.17664190  0.87061864  1
  O  O290  1  0.21616033  0.50997523  0.37061864  1
  O  O291  1  0.21616033  0.50997523  0.87061864  1
  O  O292  1  0.21616033  0.84330857  0.37061864  1
  O  O293  1  0.21616033  0.84330857  0.87061864  1
  O  O294  1  0.54949366  0.17664190  0.37061864  1
  O  O295  1  0.54949366  0.17664190  0.87061864  1
  O  O296  1  0.54949366  0.50997523  0.37061864  1
  O  O297  1  0.54949366  0.50997523  0.87061864  1
  O  O298  1  0.54949366  0.84330857  0.37061864  1
  O  O299  1  0.54949366  0.84330857  0.87061864  1
  O  O300  1  0.88282699  0.17664190  0.37061864  1
  O  O301  1  0.88282699  0.17664190  0.87061864  1
  O  O302  1  0.88282699  0.50997523  0.37061864  1
  O  O303  1  0.88282699  0.50997523  0.87061864  1
  O  O304  1  0.88282699  0.84330857  0.37061864  1
  O  O305  1  0.88282699  0.84330857  0.87061864  1
  O  O306  1  0.11717301  0.00997523  0.37938136  1
  O  O307  1  0.11717301  0.00997523  0.87938136  1
  O  O308  1  0.11717301  0.34330857  0.37938136  1
  O  O309  1  0.11717301  0.34330857  0.87938136  1
  O  O310  1  0.11717301  0.67664190  0.37938136  1
  O  O311  1  0.11717301  0.67664190  0.87938136  1
  O  O312  1  0.45050634  0.00997523  0.37938136  1
  O  O313  1  0.45050634  0.00997523  0.87938136  1
  O  O314  1  0.45050634  0.34330857  0.37938136  1
  O  O315  1  0.45050634  0.34330857  0.87938136  1
  O  O316  1  0.45050634  0.67664190  0.37938136  1
  O  O317  1  0.45050634  0.67664190  0.87938136  1
  O  O318  1  0.78383967  0.00997523  0.37938136  1
  O  O319  1  0.78383967  0.00997523  0.87938136  1
  O  O320  1  0.78383967  0.34330857  0.37938136  1
  O  O321  1  0.78383967  0.34330857  0.87938136  1
  O  O322  1  0.78383967  0.67664190  0.37938136  1
  O  O323  1  0.78383967  0.67664190  0.87938136  1
  O  O324  1  0.11717301  0.15669143  0.12938136  1
  O  O325  1  0.11717301  0.15669143  0.62938136  1
  O  O326  1  0.11717301  0.49002477  0.12938136  1
  O  O327  1  0.11717301  0.49002477  0.62938136  1
  O  O328  1  0.11717301  0.82335810  0.12938136  1
  O  O329  1  0.11717301  0.82335810  0.62938136  1
  O  O330  1  0.45050634  0.15669143  0.12938136  1
  O  O331  1  0.45050634  0.15669143  0.62938136  1
  O  O332  1  0.45050634  0.49002477  0.12938136  1
  O  O333  1  0.45050634  0.49002477  0.62938136  1
  O  O334  1  0.45050634  0.82335810  0.12938136  1
  O  O335  1  0.45050634  0.82335810  0.62938136  1
  O  O336  1  0.78383967  0.15669143  0.12938136  1
  O  O337  1  0.78383967  0.15669143  0.62938136  1
  O  O338  1  0.78383967  0.49002477  0.12938136  1
  O  O339  1  0.78383967  0.49002477  0.62938136  1
  O  O340  1  0.78383967  0.82335810  0.12938136  1
  O  O341  1  0.78383967  0.82335810  0.62938136  1
  O  O342  1  0.21616033  0.32335810  0.12061864  1
  O  O343  1  0.21616033  0.32335810  0.62061864  1
  O  O344  1  0.21616033  0.65669143  0.12061864  1
  O  O345  1  0.21616033  0.65669143  0.62061864  1
  O  O346  1  0.21616033  0.99002477  0.12061864  1
  O  O347  1  0.21616033  0.99002477  0.62061864  1
  O  O348  1  0.54949366  0.32335810  0.12061864  1
  O  O349  1  0.54949366  0.32335810  0.62061864  1
  O  O350  1  0.54949366  0.65669143  0.12061864  1
  O  O351  1  0.54949366  0.65669143  0.62061864  1
  O  O352  1  0.54949366  0.99002477  0.12061864  1
  O  O353  1  0.54949366  0.99002477  0.62061864  1
  O  O354  1  0.88282699  0.32335810  0.12061864  1
  O  O355  1  0.88282699  0.32335810  0.62061864  1
  O  O356  1  0.88282699  0.65669143  0.12061864  1
  O  O357  1  0.88282699  0.65669143  0.62061864  1
  O  O358  1  0.88282699  0.99002477  0.12061864  1
  O  O359  1  0.88282699  0.99002477  0.62061864  1
