# generated using pymatgen
data_NaAgO
_symmetry_space_group_name_H-M   'P 1'
_cell_length_a   18.64061454
_cell_length_b   18.64061454
_cell_length_c   18.29261751
_cell_angle_alpha   90.00000000
_cell_angle_beta   90.00000000
_cell_angle_gamma   90.00000000
_symmetry_Int_Tables_number   1
_chemical_formula_structural   NaAgO
_chemical_formula_sum   'Na128 Ag128 O128'
_cell_volume   6356.18172568
_cell_formula_units_Z   128
loop_
 _symmetry_equiv_pos_site_id
 _symmetry_equiv_pos_as_xyz
  1  'x, y, z'
loop_
 _atom_site_type_symbol
 _atom_site_label
 _atom_site_symmetry_multiplicity
 _atom_site_fract_x
 _atom_site_fract_y
 _atom_site_fract_z
 _atom_site_occupancy
  Na  Na0  1  0.16944437  0.50000000  0.12500000  1
  Na  Na1  1  0.16944437  0.50000000  0.37500000  1
  Na  Na2  1  0.16944437  0.50000000  0.62500000  1
  Na  Na3  1  0.16944437  0.50000000  0.87500000  1
  Na  Na4  1  0.66944437  0.50000000  0.12500000  1
  Na  Na5  1  0.66944437  0.50000000  0.37500000  1
  Na  Na6  1  0.66944437  0.50000000  0.62500000  1
  Na  Na7  1  0.66944437  0.50000000  0.87500000  1
  Na  Na8  1  0.16944437  0.00000000  0.12500000  1
  Na  Na9  1  0.16944437  0.00000000  0.37500000  1
  Na  Na10  1  0.16944437  0.00000000  0.62500000  1
  Na  Na11  1  0.16944437  0.00000000  0.87500000  1
  Na  Na12  1  0.66944437  0.00000000  0.12500000  1
  Na  Na13  1  0.66944437  0.00000000  0.37500000  1
  Na  Na14  1  0.66944437  0.00000000  0.62500000  1
  Na  Na15  1  0.66944437  0.00000000  0.87500000  1
  Na  Na16  1  0.41944437  0.25000000  0.25000000  1
  Na  Na17  1  0.41944437  0.25000000  0.50000000  1
  Na  Na18  1  0.41944437  0.25000000  0.75000000  1
  Na  Na19  1  0.41944437  0.25000000  1.00000000  1
  Na  Na20  1  0.91944437  0.25000000  0.25000000  1
  Na  Na21  1  0.91944437  0.25000000  0.50000000  1
  Na  Na22  1  0.91944437  0.25000000  0.75000000  1
  Na  Na23  1  0.91944437  0.25000000  1.00000000  1
  Na  Na24  1  0.41944437  -0.25000000  0.25000000  1
  Na  Na25  1  0.41944437  -0.25000000  0.50000000  1
  Na  Na26  1  0.41944437  -0.25000000  0.75000000  1
  Na  Na27  1  0.41944437  -0.25000000  1.00000000  1
  Na  Na28  1  0.91944437  -0.25000000  0.25000000  1
  Na  Na29  1  0.91944437  -0.25000000  0.50000000  1
  Na  Na30  1  0.91944437  -0.25000000  0.75000000  1
  Na  Na31  1  0.91944437  -0.25000000  1.00000000  1
  Na  Na32  1  0.25000000  0.41944437  0.00000000  1
  Na  Na33  1  0.25000000  0.41944437  0.25000000  1
  Na  Na34  1  0.25000000  0.41944437  0.50000000  1
  Na  Na35  1  0.25000000  0.41944437  0.75000000  1
  Na  Na36  1  0.75000000  0.41944437  0.00000000  1
  Na  Na37  1  0.75000000  0.41944437  0.25000000  1
  Na  Na38  1  0.75000000  0.41944437  0.50000000  1
  Na  Na39  1  0.75000000  0.41944437  0.75000000  1
  Na  Na40  1  0.25000000  -0.08055563  0.00000000  1
  Na  Na41  1  0.25000000  -0.08055563  0.25000000  1
  Na  Na42  1  0.25000000  -0.08055563  0.50000000  1
  Na  Na43  1  0.25000000  -0.08055563  0.75000000  1
  Na  Na44  1  0.75000000  -0.08055563  0.00000000  1
  Na  Na45  1  0.75000000  -0.08055563  0.25000000  1
  Na  Na46  1  0.75000000  -0.08055563  0.50000000  1
  Na  Na47  1  0.75000000  -0.08055563  0.75000000  1
  Na  Na48  1  0.50000000  0.16944437  0.12500000  1
  Na  Na49  1  0.50000000  0.16944437  0.37500000  1
  Na  Na50  1  0.50000000  0.16944437  0.62500000  1
  Na  Na51  1  0.50000000  0.16944437  0.87500000  1
  Na  Na52  1  1.00000000  0.16944437  0.12500000  1
  Na  Na53  1  1.00000000  0.16944437  0.37500000  1
  Na  Na54  1  1.00000000  0.16944437  0.62500000  1
  Na  Na55  1  1.00000000  0.16944437  0.87500000  1
  Na  Na56  1  0.50000000  -0.33055563  0.12500000  1
  Na  Na57  1  0.50000000  -0.33055563  0.37500000  1
  Na  Na58  1  0.50000000  -0.33055563  0.62500000  1
  Na  Na59  1  0.50000000  -0.33055563  0.87500000  1
  Na  Na60  1  1.00000000  -0.33055563  0.12500000  1
  Na  Na61  1  1.00000000  -0.33055563  0.37500000  1
  Na  Na62  1  1.00000000  -0.33055563  0.62500000  1
  Na  Na63  1  1.00000000  -0.33055563  0.87500000  1
  Na  Na64  1  -0.00000000  0.33055563  0.12500000  1
  Na  Na65  1  -0.00000000  0.33055563  0.37500000  1
  Na  Na66  1  -0.00000000  0.33055563  0.62500000  1
  Na  Na67  1  -0.00000000  0.33055563  0.87500000  1
  Na  Na68  1  0.50000000  0.33055563  0.12500000  1
  Na  Na69  1  0.50000000  0.33055563  0.37500000  1
  Na  Na70  1  0.50000000  0.33055563  0.62500000  1
  Na  Na71  1  0.50000000  0.33055563  0.87500000  1
  Na  Na72  1  -0.00000000  -0.16944437  0.12500000  1
  Na  Na73  1  -0.00000000  -0.16944437  0.37500000  1
  Na  Na74  1  -0.00000000  -0.16944437  0.62500000  1
  Na  Na75  1  -0.00000000  -0.16944437  0.87500000  1
  Na  Na76  1  0.50000000  -0.16944437  0.12500000  1
  Na  Na77  1  0.50000000  -0.16944437  0.37500000  1
  Na  Na78  1  0.50000000  -0.16944437  0.62500000  1
  Na  Na79  1  0.50000000  -0.16944437  0.87500000  1
  Na  Na80  1  0.25000000  0.08055563  0.25000000  1
  Na  Na81  1  0.25000000  0.08055563  0.50000000  1
  Na  Na82  1  0.25000000  0.08055563  0.75000000  1
  Na  Na83  1  0.25000000  0.08055563  1.00000000  1
  Na  Na84  1  0.75000000  0.08055563  0.25000000  1
  Na  Na85  1  0.75000000  0.08055563  0.50000000  1
  Na  Na86  1  0.75000000  0.08055563  0.75000000  1
  Na  Na87  1  0.75000000  0.08055563  1.00000000  1
  Na  Na88  1  0.25000000  -0.41944437  0.25000000  1
  Na  Na89  1  0.25000000  -0.41944437  0.50000000  1
  Na  Na90  1  0.25000000  -0.41944437  0.75000000  1
  Na  Na91  1  0.25000000  -0.41944437  1.00000000  1
  Na  Na92  1  0.75000000  -0.41944437  0.25000000  1
  Na  Na93  1  0.75000000  -0.41944437  0.50000000  1
  Na  Na94  1  0.75000000  -0.41944437  0.75000000  1
  Na  Na95  1  0.75000000  -0.41944437  1.00000000  1
  Na  Na96  1  0.08055563  0.25000000  0.00000000  1
  Na  Na97  1  0.08055563  0.25000000  0.25000000  1
  Na  Na98  1  0.08055563  0.25000000  0.50000000  1
  Na  Na99  1  0.08055563  0.25000000  0.75000000  1
  Na  Na100  1  0.58055563  0.25000000  0.00000000  1
  Na  Na101  1  0.58055563  0.25000000  0.25000000  1
  Na  Na102  1  0.58055563  0.25000000  0.50000000  1
  Na  Na103  1  0.58055563  0.25000000  0.75000000  1
  Na  Na104  1  0.08055563  -0.25000000  0.00000000  1
  Na  Na105  1  0.08055563  -0.25000000  0.25000000  1
  Na  Na106  1  0.08055563  -0.25000000  0.50000000  1
  Na  Na107  1  0.08055563  -0.25000000  0.75000000  1
  Na  Na108  1  0.58055563  -0.25000000  0.00000000  1
  Na  Na109  1  0.58055563  -0.25000000  0.25000000  1
  Na  Na110  1  0.58055563  -0.25000000  0.50000000  1
  Na  Na111  1  0.58055563  -0.25000000  0.75000000  1
  Na  Na112  1  0.33055563  0.00000000  0.12500000  1
  Na  Na113  1  0.33055563  0.00000000  0.37500000  1
  Na  Na114  1  0.33055563  0.00000000  0.62500000  1
  Na  Na115  1  0.33055563  0.00000000  0.87500000  1
  Na  Na116  1  0.83055563  0.00000000  0.12500000  1
  Na  Na117  1  0.83055563  0.00000000  0.37500000  1
  Na  Na118  1  0.83055563  0.00000000  0.62500000  1
  Na  Na119  1  0.83055563  0.00000000  0.87500000  1
  Na  Na120  1  0.33055563  -0.50000000  0.12500000  1
  Na  Na121  1  0.33055563  -0.50000000  0.37500000  1
  Na  Na122  1  0.33055563  -0.50000000  0.62500000  1
  Na  Na123  1  0.33055563  -0.50000000  0.87500000  1
  Na  Na124  1  0.83055563  -0.50000000  0.12500000  1
  Na  Na125  1  0.83055563  -0.50000000  0.37500000  1
  Na  Na126  1  0.83055563  -0.50000000  0.62500000  1
  Na  Na127  1  0.83055563  -0.50000000  0.87500000  1
  Ag  Ag128  1  0.17083594  0.32916406  0.12500000  1
  Ag  Ag129  1  0.17083594  0.32916406  0.37500000  1
  Ag  Ag130  1  0.17083594  0.32916406  0.62500000  1
  Ag  Ag131  1  0.17083594  0.32916406  0.87500000  1
  Ag  Ag132  1  0.67083594  0.32916406  0.12500000  1
  Ag  Ag133  1  0.67083594  0.32916406  0.37500000  1
  Ag  Ag134  1  0.67083594  0.32916406  0.62500000  1
  Ag  Ag135  1  0.67083594  0.32916406  0.87500000  1
  Ag  Ag136  1  0.17083594  -0.17083594  0.12500000  1
  Ag  Ag137  1  0.17083594  -0.17083594  0.37500000  1
  Ag  Ag138  1  0.17083594  -0.17083594  0.62500000  1
  Ag  Ag139  1  0.17083594  -0.17083594  0.87500000  1
  Ag  Ag140  1  0.67083594  -0.17083594  0.12500000  1
  Ag  Ag141  1  0.67083594  -0.17083594  0.37500000  1
  Ag  Ag142  1  0.67083594  -0.17083594  0.62500000  1
  Ag  Ag143  1  0.67083594  -0.17083594  0.87500000  1
  Ag  Ag144  1  0.42083594  0.07916406  0.25000000  1
  Ag  Ag145  1  0.42083594  0.07916406  0.50000000  1
  Ag  Ag146  1  0.42083594  0.07916406  0.75000000  1
  Ag  Ag147  1  0.42083594  0.07916406  1.00000000  1
  Ag  Ag148  1  0.92083594  0.07916406  0.25000000  1
  Ag  Ag149  1  0.92083594  0.07916406  0.50000000  1
  Ag  Ag150  1  0.92083594  0.07916406  0.75000000  1
  Ag  Ag151  1  0.92083594  0.07916406  1.00000000  1
  Ag  Ag152  1  0.42083594  -0.42083594  0.25000000  1
  Ag  Ag153  1  0.42083594  -0.42083594  0.50000000  1
  Ag  Ag154  1  0.42083594  -0.42083594  0.75000000  1
  Ag  Ag155  1  0.42083594  -0.42083594  1.00000000  1
  Ag  Ag156  1  0.92083594  -0.42083594  0.25000000  1
  Ag  Ag157  1  0.92083594  -0.42083594  0.50000000  1
  Ag  Ag158  1  0.92083594  -0.42083594  0.75000000  1
  Ag  Ag159  1  0.92083594  -0.42083594  1.00000000  1
  Ag  Ag160  1  0.17083594  0.67083594  0.12500000  1
  Ag  Ag161  1  0.17083594  0.67083594  0.37500000  1
  Ag  Ag162  1  0.17083594  0.67083594  0.62500000  1
  Ag  Ag163  1  0.17083594  0.67083594  0.87500000  1
  Ag  Ag164  1  0.67083594  0.67083594  0.12500000  1
  Ag  Ag165  1  0.67083594  0.67083594  0.37500000  1
  Ag  Ag166  1  0.67083594  0.67083594  0.62500000  1
  Ag  Ag167  1  0.67083594  0.67083594  0.87500000  1
  Ag  Ag168  1  0.17083594  0.17083594  0.12500000  1
  Ag  Ag169  1  0.17083594  0.17083594  0.37500000  1
  Ag  Ag170  1  0.17083594  0.17083594  0.62500000  1
  Ag  Ag171  1  0.17083594  0.17083594  0.87500000  1
  Ag  Ag172  1  0.67083594  0.17083594  0.12500000  1
  Ag  Ag173  1  0.67083594  0.17083594  0.37500000  1
  Ag  Ag174  1  0.67083594  0.17083594  0.62500000  1
  Ag  Ag175  1  0.67083594  0.17083594  0.87500000  1
  Ag  Ag176  1  0.42083594  0.42083594  0.25000000  1
  Ag  Ag177  1  0.42083594  0.42083594  0.50000000  1
  Ag  Ag178  1  0.42083594  0.42083594  0.75000000  1
  Ag  Ag179  1  0.42083594  0.42083594  1.00000000  1
  Ag  Ag180  1  0.92083594  0.42083594  0.25000000  1
  Ag  Ag181  1  0.92083594  0.42083594  0.50000000  1
  Ag  Ag182  1  0.92083594  0.42083594  0.75000000  1
  Ag  Ag183  1  0.92083594  0.42083594  1.00000000  1
  Ag  Ag184  1  0.42083594  -0.07916406  0.25000000  1
  Ag  Ag185  1  0.42083594  -0.07916406  0.50000000  1
  Ag  Ag186  1  0.42083594  -0.07916406  0.75000000  1
  Ag  Ag187  1  0.42083594  -0.07916406  1.00000000  1
  Ag  Ag188  1  0.92083594  -0.07916406  0.25000000  1
  Ag  Ag189  1  0.92083594  -0.07916406  0.50000000  1
  Ag  Ag190  1  0.92083594  -0.07916406  0.75000000  1
  Ag  Ag191  1  0.92083594  -0.07916406  1.00000000  1
  Ag  Ag192  1  -0.17083594  0.32916406  0.12500000  1
  Ag  Ag193  1  -0.17083594  0.32916406  0.37500000  1
  Ag  Ag194  1  -0.17083594  0.32916406  0.62500000  1
  Ag  Ag195  1  -0.17083594  0.32916406  0.87500000  1
  Ag  Ag196  1  0.32916406  0.32916406  0.12500000  1
  Ag  Ag197  1  0.32916406  0.32916406  0.37500000  1
  Ag  Ag198  1  0.32916406  0.32916406  0.62500000  1
  Ag  Ag199  1  0.32916406  0.32916406  0.87500000  1
  Ag  Ag200  1  -0.17083594  -0.17083594  0.12500000  1
  Ag  Ag201  1  -0.17083594  -0.17083594  0.37500000  1
  Ag  Ag202  1  -0.17083594  -0.17083594  0.62500000  1
  Ag  Ag203  1  -0.17083594  -0.17083594  0.87500000  1
  Ag  Ag204  1  0.32916406  -0.17083594  0.12500000  1
  Ag  Ag205  1  0.32916406  -0.17083594  0.37500000  1
  Ag  Ag206  1  0.32916406  -0.17083594  0.62500000  1
  Ag  Ag207  1  0.32916406  -0.17083594  0.87500000  1
  Ag  Ag208  1  0.07916406  0.07916406  0.25000000  1
  Ag  Ag209  1  0.07916406  0.07916406  0.50000000  1
  Ag  Ag210  1  0.07916406  0.07916406  0.75000000  1
  Ag  Ag211  1  0.07916406  0.07916406  1.00000000  1
  Ag  Ag212  1  0.57916406  0.07916406  0.25000000  1
  Ag  Ag213  1  0.57916406  0.07916406  0.50000000  1
  Ag  Ag214  1  0.57916406  0.07916406  0.75000000  1
  Ag  Ag215  1  0.57916406  0.07916406  1.00000000  1
  Ag  Ag216  1  0.07916406  -0.42083594  0.25000000  1
  Ag  Ag217  1  0.07916406  -0.42083594  0.50000000  1
  Ag  Ag218  1  0.07916406  -0.42083594  0.75000000  1
  Ag  Ag219  1  0.07916406  -0.42083594  1.00000000  1
  Ag  Ag220  1  0.57916406  -0.42083594  0.25000000  1
  Ag  Ag221  1  0.57916406  -0.42083594  0.50000000  1
  Ag  Ag222  1  0.57916406  -0.42083594  0.75000000  1
  Ag  Ag223  1  0.57916406  -0.42083594  1.00000000  1
  Ag  Ag224  1  0.07916406  0.42083594  0.00000000  1
  Ag  Ag225  1  0.07916406  0.42083594  0.25000000  1
  Ag  Ag226  1  0.07916406  0.42083594  0.50000000  1
  Ag  Ag227  1  0.07916406  0.42083594  0.75000000  1
  Ag  Ag228  1  0.57916406  0.42083594  0.00000000  1
  Ag  Ag229  1  0.57916406  0.42083594  0.25000000  1
  Ag  Ag230  1  0.57916406  0.42083594  0.50000000  1
  Ag  Ag231  1  0.57916406  0.42083594  0.75000000  1
  Ag  Ag232  1  0.07916406  -0.07916406  0.00000000  1
  Ag  Ag233  1  0.07916406  -0.07916406  0.25000000  1
  Ag  Ag234  1  0.07916406  -0.07916406  0.50000000  1
  Ag  Ag235  1  0.07916406  -0.07916406  0.75000000  1
  Ag  Ag236  1  0.57916406  -0.07916406  0.00000000  1
  Ag  Ag237  1  0.57916406  -0.07916406  0.25000000  1
  Ag  Ag238  1  0.57916406  -0.07916406  0.50000000  1
  Ag  Ag239  1  0.57916406  -0.07916406  0.75000000  1
  Ag  Ag240  1  0.32916406  0.17083594  0.12500000  1
  Ag  Ag241  1  0.32916406  0.17083594  0.37500000  1
  Ag  Ag242  1  0.32916406  0.17083594  0.62500000  1
  Ag  Ag243  1  0.32916406  0.17083594  0.87500000  1
  Ag  Ag244  1  0.82916406  0.17083594  0.12500000  1
  Ag  Ag245  1  0.82916406  0.17083594  0.37500000  1
  Ag  Ag246  1  0.82916406  0.17083594  0.62500000  1
  Ag  Ag247  1  0.82916406  0.17083594  0.87500000  1
  Ag  Ag248  1  0.32916406  -0.32916406  0.12500000  1
  Ag  Ag249  1  0.32916406  -0.32916406  0.37500000  1
  Ag  Ag250  1  0.32916406  -0.32916406  0.62500000  1
  Ag  Ag251  1  0.32916406  -0.32916406  0.87500000  1
  Ag  Ag252  1  0.82916406  -0.32916406  0.12500000  1
  Ag  Ag253  1  0.82916406  -0.32916406  0.37500000  1
  Ag  Ag254  1  0.82916406  -0.32916406  0.62500000  1
  Ag  Ag255  1  0.82916406  -0.32916406  0.87500000  1
  O  O256  1  0.15511134  0.50000000  0.00000000  1
  O  O257  1  0.15511134  0.50000000  0.25000000  1
  O  O258  1  0.15511134  0.50000000  0.50000000  1
  O  O259  1  0.15511134  0.50000000  0.75000000  1
  O  O260  1  0.65511134  0.50000000  0.00000000  1
  O  O261  1  0.65511134  0.50000000  0.25000000  1
  O  O262  1  0.65511134  0.50000000  0.50000000  1
  O  O263  1  0.65511134  0.50000000  0.75000000  1
  O  O264  1  0.15511134  0.00000000  0.00000000  1
  O  O265  1  0.15511134  0.00000000  0.25000000  1
  O  O266  1  0.15511134  0.00000000  0.50000000  1
  O  O267  1  0.15511134  0.00000000  0.75000000  1
  O  O268  1  0.65511134  0.00000000  0.00000000  1
  O  O269  1  0.65511134  0.00000000  0.25000000  1
  O  O270  1  0.65511134  0.00000000  0.50000000  1
  O  O271  1  0.65511134  0.00000000  0.75000000  1
  O  O272  1  0.40511134  0.25000000  0.12500000  1
  O  O273  1  0.40511134  0.25000000  0.37500000  1
  O  O274  1  0.40511134  0.25000000  0.62500000  1
  O  O275  1  0.40511134  0.25000000  0.87500000  1
  O  O276  1  0.90511134  0.25000000  0.12500000  1
  O  O277  1  0.90511134  0.25000000  0.37500000  1
  O  O278  1  0.90511134  0.25000000  0.62500000  1
  O  O279  1  0.90511134  0.25000000  0.87500000  1
  O  O280  1  0.40511134  -0.25000000  0.12500000  1
  O  O281  1  0.40511134  -0.25000000  0.37500000  1
  O  O282  1  0.40511134  -0.25000000  0.62500000  1
  O  O283  1  0.40511134  -0.25000000  0.87500000  1
  O  O284  1  0.90511134  -0.25000000  0.12500000  1
  O  O285  1  0.90511134  -0.25000000  0.37500000  1
  O  O286  1  0.90511134  -0.25000000  0.62500000  1
  O  O287  1  0.90511134  -0.25000000  0.87500000  1
  O  O288  1  -0.00000000  0.15511134  0.00000000  1
  O  O289  1  -0.00000000  0.15511134  0.25000000  1
  O  O290  1  -0.00000000  0.15511134  0.50000000  1
  O  O291  1  -0.00000000  0.15511134  0.75000000  1
  O  O292  1  0.50000000  0.15511134  0.00000000  1
  O  O293  1  0.50000000  0.15511134  0.25000000  1
  O  O294  1  0.50000000  0.15511134  0.50000000  1
  O  O295  1  0.50000000  0.15511134  0.75000000  1
  O  O296  1  -0.00000000  -0.34488866  0.00000000  1
  O  O297  1  -0.00000000  -0.34488866  0.25000000  1
  O  O298  1  -0.00000000  -0.34488866  0.50000000  1
  O  O299  1  -0.00000000  -0.34488866  0.75000000  1
  O  O300  1  0.50000000  -0.34488866  0.00000000  1
  O  O301  1  0.50000000  -0.34488866  0.25000000  1
  O  O302  1  0.50000000  -0.34488866  0.50000000  1
  O  O303  1  0.50000000  -0.34488866  0.75000000  1
  O  O304  1  0.25000000  -0.09488866  0.12500000  1
  O  O305  1  0.25000000  -0.09488866  0.37500000  1
  O  O306  1  0.25000000  -0.09488866  0.62500000  1
  O  O307  1  0.25000000  -0.09488866  0.87500000  1
  O  O308  1  0.75000000  -0.09488866  0.12500000  1
  O  O309  1  0.75000000  -0.09488866  0.37500000  1
  O  O310  1  0.75000000  -0.09488866  0.62500000  1
  O  O311  1  0.75000000  -0.09488866  0.87500000  1
  O  O312  1  0.25000000  -0.59488866  0.12500000  1
  O  O313  1  0.25000000  -0.59488866  0.37500000  1
  O  O314  1  0.25000000  -0.59488866  0.62500000  1
  O  O315  1  0.25000000  -0.59488866  0.87500000  1
  O  O316  1  0.75000000  -0.59488866  0.12500000  1
  O  O317  1  0.75000000  -0.59488866  0.37500000  1
  O  O318  1  0.75000000  -0.59488866  0.62500000  1
  O  O319  1  0.75000000  -0.59488866  0.87500000  1
  O  O320  1  -0.00000000  0.34488866  0.00000000  1
  O  O321  1  -0.00000000  0.34488866  0.25000000  1
  O  O322  1  -0.00000000  0.34488866  0.50000000  1
  O  O323  1  -0.00000000  0.34488866  0.75000000  1
  O  O324  1  0.50000000  0.34488866  0.00000000  1
  O  O325  1  0.50000000  0.34488866  0.25000000  1
  O  O326  1  0.50000000  0.34488866  0.50000000  1
  O  O327  1  0.50000000  0.34488866  0.75000000  1
  O  O328  1  -0.00000000  -0.15511134  0.00000000  1
  O  O329  1  -0.00000000  -0.15511134  0.25000000  1
  O  O330  1  -0.00000000  -0.15511134  0.50000000  1
  O  O331  1  -0.00000000  -0.15511134  0.75000000  1
  O  O332  1  0.50000000  -0.15511134  0.00000000  1
  O  O333  1  0.50000000  -0.15511134  0.25000000  1
  O  O334  1  0.50000000  -0.15511134  0.50000000  1
  O  O335  1  0.50000000  -0.15511134  0.75000000  1
  O  O336  1  0.25000000  0.09488866  0.12500000  1
  O  O337  1  0.25000000  0.09488866  0.37500000  1
  O  O338  1  0.25000000  0.09488866  0.62500000  1
  O  O339  1  0.25000000  0.09488866  0.87500000  1
  O  O340  1  0.75000000  0.09488866  0.12500000  1
  O  O341  1  0.75000000  0.09488866  0.37500000  1
  O  O342  1  0.75000000  0.09488866  0.62500000  1
  O  O343  1  0.75000000  0.09488866  0.87500000  1
  O  O344  1  0.25000000  -0.40511134  0.12500000  1
  O  O345  1  0.25000000  -0.40511134  0.37500000  1
  O  O346  1  0.25000000  -0.40511134  0.62500000  1
  O  O347  1  0.25000000  -0.40511134  0.87500000  1
  O  O348  1  0.75000000  -0.40511134  0.12500000  1
  O  O349  1  0.75000000  -0.40511134  0.37500000  1
  O  O350  1  0.75000000  -0.40511134  0.62500000  1
  O  O351  1  0.75000000  -0.40511134  0.87500000  1
  O  O352  1  0.34488866  0.50000000  0.00000000  1
  O  O353  1  0.34488866  0.50000000  0.25000000  1
  O  O354  1  0.34488866  0.50000000  0.50000000  1
  O  O355  1  0.34488866  0.50000000  0.75000000  1
  O  O356  1  0.84488866  0.50000000  0.00000000  1
  O  O357  1  0.84488866  0.50000000  0.25000000  1
  O  O358  1  0.84488866  0.50000000  0.50000000  1
  O  O359  1  0.84488866  0.50000000  0.75000000  1
  O  O360  1  0.34488866  0.00000000  0.00000000  1
  O  O361  1  0.34488866  0.00000000  0.25000000  1
  O  O362  1  0.34488866  0.00000000  0.50000000  1
  O  O363  1  0.34488866  0.00000000  0.75000000  1
  O  O364  1  0.84488866  0.00000000  0.00000000  1
  O  O365  1  0.84488866  0.00000000  0.25000000  1
  O  O366  1  0.84488866  0.00000000  0.50000000  1
  O  O367  1  0.84488866  0.00000000  0.75000000  1
  O  O368  1  0.59488866  0.25000000  0.12500000  1
  O  O369  1  0.59488866  0.25000000  0.37500000  1
  O  O370  1  0.59488866  0.25000000  0.62500000  1
  O  O371  1  0.59488866  0.25000000  0.87500000  1
  O  O372  1  1.09488866  0.25000000  0.12500000  1
  O  O373  1  1.09488866  0.25000000  0.37500000  1
  O  O374  1  1.09488866  0.25000000  0.62500000  1
  O  O375  1  1.09488866  0.25000000  0.87500000  1
  O  O376  1  0.59488866  -0.25000000  0.12500000  1
  O  O377  1  0.59488866  -0.25000000  0.37500000  1
  O  O378  1  0.59488866  -0.25000000  0.62500000  1
  O  O379  1  0.59488866  -0.25000000  0.87500000  1
  O  O380  1  1.09488866  -0.25000000  0.12500000  1
  O  O381  1  1.09488866  -0.25000000  0.37500000  1
  O  O382  1  1.09488866  -0.25000000  0.62500000  1
  O  O383  1  1.09488866  -0.25000000  0.87500000  1
