# generated using pymatgen
data_CrCdO4
_symmetry_space_group_name_H-M   'P 1'
_cell_length_a   17.03389081
_cell_length_b   17.50689674
_cell_length_c   20.90660866
_cell_angle_alpha   90.00000000
_cell_angle_beta   90.00000000
_cell_angle_gamma   90.00000000
_symmetry_Int_Tables_number   1
_chemical_formula_structural   CrCdO4
_chemical_formula_sum   'Cr72 Cd72 O288'
_cell_volume   6234.57163047
_cell_formula_units_Z   72
loop_
 _symmetry_equiv_pos_site_id
 _symmetry_equiv_pos_as_xyz
  1  'x, y, z'
loop_
 _atom_site_type_symbol
 _atom_site_label
 _atom_site_symmetry_multiplicity
 _atom_site_fract_x
 _atom_site_fract_y
 _atom_site_fract_z
 _atom_site_occupancy
  Cr  Cr0  1  0.16666667  -0.07026104  0.08333333  1
  Cr  Cr1  1  0.16666667  -0.07026104  0.41666667  1
  Cr  Cr2  1  0.16666667  -0.07026104  0.75000000  1
  Cr  Cr3  1  0.16666667  0.42973896  0.08333333  1
  Cr  Cr4  1  0.16666667  0.42973896  0.41666667  1
  Cr  Cr5  1  0.16666667  0.42973896  0.75000000  1
  Cr  Cr6  1  0.50000000  -0.07026104  0.08333333  1
  Cr  Cr7  1  0.50000000  -0.07026104  0.41666667  1
  Cr  Cr8  1  0.50000000  -0.07026104  0.75000000  1
  Cr  Cr9  1  0.50000000  0.42973896  0.08333333  1
  Cr  Cr10  1  0.50000000  0.42973896  0.41666667  1
  Cr  Cr11  1  0.50000000  0.42973896  0.75000000  1
  Cr  Cr12  1  0.83333333  -0.07026104  0.08333333  1
  Cr  Cr13  1  0.83333333  -0.07026104  0.41666667  1
  Cr  Cr14  1  0.83333333  -0.07026104  0.75000000  1
  Cr  Cr15  1  0.83333333  0.42973896  0.08333333  1
  Cr  Cr16  1  0.83333333  0.42973896  0.41666667  1
  Cr  Cr17  1  0.83333333  0.42973896  0.75000000  1
  Cr  Cr18  1  0.33333333  0.17973896  0.08333333  1
  Cr  Cr19  1  0.33333333  0.17973896  0.41666667  1
  Cr  Cr20  1  0.33333333  0.17973896  0.75000000  1
  Cr  Cr21  1  0.33333333  0.67973896  0.08333333  1
  Cr  Cr22  1  0.33333333  0.67973896  0.41666667  1
  Cr  Cr23  1  0.33333333  0.67973896  0.75000000  1
  Cr  Cr24  1  0.66666667  0.17973896  0.08333333  1
  Cr  Cr25  1  0.66666667  0.17973896  0.41666667  1
  Cr  Cr26  1  0.66666667  0.17973896  0.75000000  1
  Cr  Cr27  1  0.66666667  0.67973896  0.08333333  1
  Cr  Cr28  1  0.66666667  0.67973896  0.41666667  1
  Cr  Cr29  1  0.66666667  0.67973896  0.75000000  1
  Cr  Cr30  1  1.00000000  0.17973896  0.08333333  1
  Cr  Cr31  1  1.00000000  0.17973896  0.41666667  1
  Cr  Cr32  1  1.00000000  0.17973896  0.75000000  1
  Cr  Cr33  1  1.00000000  0.67973896  0.08333333  1
  Cr  Cr34  1  1.00000000  0.67973896  0.41666667  1
  Cr  Cr35  1  1.00000000  0.67973896  0.75000000  1
  Cr  Cr36  1  0.16666667  0.07026104  0.25000000  1
  Cr  Cr37  1  0.16666667  0.07026104  0.58333333  1
  Cr  Cr38  1  0.16666667  0.07026104  0.91666667  1
  Cr  Cr39  1  0.16666667  0.57026104  0.25000000  1
  Cr  Cr40  1  0.16666667  0.57026104  0.58333333  1
  Cr  Cr41  1  0.16666667  0.57026104  0.91666667  1
  Cr  Cr42  1  0.50000000  0.07026104  0.25000000  1
  Cr  Cr43  1  0.50000000  0.07026104  0.58333333  1
  Cr  Cr44  1  0.50000000  0.07026104  0.91666667  1
  Cr  Cr45  1  0.50000000  0.57026104  0.25000000  1
  Cr  Cr46  1  0.50000000  0.57026104  0.58333333  1
  Cr  Cr47  1  0.50000000  0.57026104  0.91666667  1
  Cr  Cr48  1  0.83333333  0.07026104  0.25000000  1
  Cr  Cr49  1  0.83333333  0.07026104  0.58333333  1
  Cr  Cr50  1  0.83333333  0.07026104  0.91666667  1
  Cr  Cr51  1  0.83333333  0.57026104  0.25000000  1
  Cr  Cr52  1  0.83333333  0.57026104  0.58333333  1
  Cr  Cr53  1  0.83333333  0.57026104  0.91666667  1
  Cr  Cr54  1  0.33333333  0.32026104  0.25000000  1
  Cr  Cr55  1  0.33333333  0.32026104  0.58333333  1
  Cr  Cr56  1  0.33333333  0.32026104  0.91666667  1
  Cr  Cr57  1  0.33333333  0.82026104  0.25000000  1
  Cr  Cr58  1  0.33333333  0.82026104  0.58333333  1
  Cr  Cr59  1  0.33333333  0.82026104  0.91666667  1
  Cr  Cr60  1  0.66666667  0.32026104  0.25000000  1
  Cr  Cr61  1  0.66666667  0.32026104  0.58333333  1
  Cr  Cr62  1  0.66666667  0.32026104  0.91666667  1
  Cr  Cr63  1  0.66666667  0.82026104  0.25000000  1
  Cr  Cr64  1  0.66666667  0.82026104  0.58333333  1
  Cr  Cr65  1  0.66666667  0.82026104  0.91666667  1
  Cr  Cr66  1  1.00000000  0.32026104  0.25000000  1
  Cr  Cr67  1  1.00000000  0.32026104  0.58333333  1
  Cr  Cr68  1  1.00000000  0.32026104  0.91666667  1
  Cr  Cr69  1  1.00000000  0.82026104  0.25000000  1
  Cr  Cr70  1  1.00000000  0.82026104  0.58333333  1
  Cr  Cr71  1  1.00000000  0.82026104  0.91666667  1
  Cd  Cd72  1  0.00000000  0.00000000  0.16666667  1
  Cd  Cd73  1  0.00000000  0.00000000  0.50000000  1
  Cd  Cd74  1  0.00000000  0.00000000  0.83333333  1
  Cd  Cd75  1  0.00000000  0.50000000  0.16666667  1
  Cd  Cd76  1  0.00000000  0.50000000  0.50000000  1
  Cd  Cd77  1  0.00000000  0.50000000  0.83333333  1
  Cd  Cd78  1  0.33333333  0.00000000  0.16666667  1
  Cd  Cd79  1  0.33333333  0.00000000  0.50000000  1
  Cd  Cd80  1  0.33333333  0.00000000  0.83333333  1
  Cd  Cd81  1  0.33333333  0.50000000  0.16666667  1
  Cd  Cd82  1  0.33333333  0.50000000  0.50000000  1
  Cd  Cd83  1  0.33333333  0.50000000  0.83333333  1
  Cd  Cd84  1  0.66666667  0.00000000  0.16666667  1
  Cd  Cd85  1  0.66666667  0.00000000  0.50000000  1
  Cd  Cd86  1  0.66666667  0.00000000  0.83333333  1
  Cd  Cd87  1  0.66666667  0.50000000  0.16666667  1
  Cd  Cd88  1  0.66666667  0.50000000  0.50000000  1
  Cd  Cd89  1  0.66666667  0.50000000  0.83333333  1
  Cd  Cd90  1  0.16666667  0.25000000  0.16666667  1
  Cd  Cd91  1  0.16666667  0.25000000  0.50000000  1
  Cd  Cd92  1  0.16666667  0.25000000  0.83333333  1
  Cd  Cd93  1  0.16666667  0.75000000  0.16666667  1
  Cd  Cd94  1  0.16666667  0.75000000  0.50000000  1
  Cd  Cd95  1  0.16666667  0.75000000  0.83333333  1
  Cd  Cd96  1  0.50000000  0.25000000  0.16666667  1
  Cd  Cd97  1  0.50000000  0.25000000  0.50000000  1
  Cd  Cd98  1  0.50000000  0.25000000  0.83333333  1
  Cd  Cd99  1  0.50000000  0.75000000  0.16666667  1
  Cd  Cd100  1  0.50000000  0.75000000  0.50000000  1
  Cd  Cd101  1  0.50000000  0.75000000  0.83333333  1
  Cd  Cd102  1  0.83333333  0.25000000  0.16666667  1
  Cd  Cd103  1  0.83333333  0.25000000  0.50000000  1
  Cd  Cd104  1  0.83333333  0.25000000  0.83333333  1
  Cd  Cd105  1  0.83333333  0.75000000  0.16666667  1
  Cd  Cd106  1  0.83333333  0.75000000  0.50000000  1
  Cd  Cd107  1  0.83333333  0.75000000  0.83333333  1
  Cd  Cd108  1  0.00000000  0.00000000  0.00000000  1
  Cd  Cd109  1  0.00000000  0.00000000  0.33333333  1
  Cd  Cd110  1  0.00000000  0.00000000  0.66666667  1
  Cd  Cd111  1  0.00000000  0.50000000  0.00000000  1
  Cd  Cd112  1  0.00000000  0.50000000  0.33333333  1
  Cd  Cd113  1  0.00000000  0.50000000  0.66666667  1
  Cd  Cd114  1  0.33333333  0.00000000  0.00000000  1
  Cd  Cd115  1  0.33333333  0.00000000  0.33333333  1
  Cd  Cd116  1  0.33333333  0.00000000  0.66666667  1
  Cd  Cd117  1  0.33333333  0.50000000  0.00000000  1
  Cd  Cd118  1  0.33333333  0.50000000  0.33333333  1
  Cd  Cd119  1  0.33333333  0.50000000  0.66666667  1
  Cd  Cd120  1  0.66666667  0.00000000  0.00000000  1
  Cd  Cd121  1  0.66666667  0.00000000  0.33333333  1
  Cd  Cd122  1  0.66666667  0.00000000  0.66666667  1
  Cd  Cd123  1  0.66666667  0.50000000  0.00000000  1
  Cd  Cd124  1  0.66666667  0.50000000  0.33333333  1
  Cd  Cd125  1  0.66666667  0.50000000  0.66666667  1
  Cd  Cd126  1  0.16666667  0.25000000  0.00000000  1
  Cd  Cd127  1  0.16666667  0.25000000  0.33333333  1
  Cd  Cd128  1  0.16666667  0.25000000  0.66666667  1
  Cd  Cd129  1  0.16666667  0.75000000  0.00000000  1
  Cd  Cd130  1  0.16666667  0.75000000  0.33333333  1
  Cd  Cd131  1  0.16666667  0.75000000  0.66666667  1
  Cd  Cd132  1  0.50000000  0.25000000  0.00000000  1
  Cd  Cd133  1  0.50000000  0.25000000  0.33333333  1
  Cd  Cd134  1  0.50000000  0.25000000  0.66666667  1
  Cd  Cd135  1  0.50000000  0.75000000  0.00000000  1
  Cd  Cd136  1  0.50000000  0.75000000  0.33333333  1
  Cd  Cd137  1  0.50000000  0.75000000  0.66666667  1
  Cd  Cd138  1  0.83333333  0.25000000  0.00000000  1
  Cd  Cd139  1  0.83333333  0.25000000  0.33333333  1
  Cd  Cd140  1  0.83333333  0.25000000  0.66666667  1
  Cd  Cd141  1  0.83333333  0.75000000  0.00000000  1
  Cd  Cd142  1  0.83333333  0.75000000  0.33333333  1
  Cd  Cd143  1  0.83333333  0.75000000  0.66666667  1
  O  O144  1  0.24815029  0.01516104  0.25000000  1
  O  O145  1  0.24815029  0.01516104  0.58333333  1
  O  O146  1  0.24815029  0.01516104  0.91666667  1
  O  O147  1  0.24815029  0.51516104  0.25000000  1
  O  O148  1  0.24815029  0.51516104  0.58333333  1
  O  O149  1  0.24815029  0.51516104  0.91666667  1
  O  O150  1  0.58148363  0.01516104  0.25000000  1
  O  O151  1  0.58148363  0.01516104  0.58333333  1
  O  O152  1  0.58148363  0.01516104  0.91666667  1
  O  O153  1  0.58148363  0.51516104  0.25000000  1
  O  O154  1  0.58148363  0.51516104  0.58333333  1
  O  O155  1  0.58148363  0.51516104  0.91666667  1
  O  O156  1  0.91481696  0.01516104  0.25000000  1
  O  O157  1  0.91481696  0.01516104  0.58333333  1
  O  O158  1  0.91481696  0.01516104  0.91666667  1
  O  O159  1  0.91481696  0.51516104  0.25000000  1
  O  O160  1  0.91481696  0.51516104  0.58333333  1
  O  O161  1  0.91481696  0.51516104  0.91666667  1
  O  O162  1  0.41481696  0.26516104  0.25000000  1
  O  O163  1  0.41481696  0.26516104  0.58333333  1
  O  O164  1  0.41481696  0.26516104  0.91666667  1
  O  O165  1  0.41481696  0.76516104  0.25000000  1
  O  O166  1  0.41481696  0.76516104  0.58333333  1
  O  O167  1  0.41481696  0.76516104  0.91666667  1
  O  O168  1  0.74815029  0.26516104  0.25000000  1
  O  O169  1  0.74815029  0.26516104  0.58333333  1
  O  O170  1  0.74815029  0.26516104  0.91666667  1
  O  O171  1  0.74815029  0.76516104  0.25000000  1
  O  O172  1  0.74815029  0.76516104  0.58333333  1
  O  O173  1  0.74815029  0.76516104  0.91666667  1
  O  O174  1  1.08148363  0.26516104  0.25000000  1
  O  O175  1  1.08148363  0.26516104  0.58333333  1
  O  O176  1  1.08148363  0.26516104  0.91666667  1
  O  O177  1  1.08148363  0.76516104  0.25000000  1
  O  O178  1  1.08148363  0.76516104  0.58333333  1
  O  O179  1  1.08148363  0.76516104  0.91666667  1
  O  O180  1  0.08518304  -0.01516104  0.08333333  1
  O  O181  1  0.08518304  -0.01516104  0.41666667  1
  O  O182  1  0.08518304  -0.01516104  0.75000000  1
  O  O183  1  0.08518304  0.48483896  0.08333333  1
  O  O184  1  0.08518304  0.48483896  0.41666667  1
  O  O185  1  0.08518304  0.48483896  0.75000000  1
  O  O186  1  0.41851637  -0.01516104  0.08333333  1
  O  O187  1  0.41851637  -0.01516104  0.41666667  1
  O  O188  1  0.41851637  -0.01516104  0.75000000  1
  O  O189  1  0.41851637  0.48483896  0.08333333  1
  O  O190  1  0.41851637  0.48483896  0.41666667  1
  O  O191  1  0.41851637  0.48483896  0.75000000  1
  O  O192  1  0.75184971  -0.01516104  0.08333333  1
  O  O193  1  0.75184971  -0.01516104  0.41666667  1
  O  O194  1  0.75184971  -0.01516104  0.75000000  1
  O  O195  1  0.75184971  0.48483896  0.08333333  1
  O  O196  1  0.75184971  0.48483896  0.41666667  1
  O  O197  1  0.75184971  0.48483896  0.75000000  1
  O  O198  1  0.25184971  0.23483896  0.08333333  1
  O  O199  1  0.25184971  0.23483896  0.41666667  1
  O  O200  1  0.25184971  0.23483896  0.75000000  1
  O  O201  1  0.25184971  0.73483896  0.08333333  1
  O  O202  1  0.25184971  0.73483896  0.41666667  1
  O  O203  1  0.25184971  0.73483896  0.75000000  1
  O  O204  1  0.58518304  0.23483896  0.08333333  1
  O  O205  1  0.58518304  0.23483896  0.41666667  1
  O  O206  1  0.58518304  0.23483896  0.75000000  1
  O  O207  1  0.58518304  0.73483896  0.08333333  1
  O  O208  1  0.58518304  0.73483896  0.41666667  1
  O  O209  1  0.58518304  0.73483896  0.75000000  1
  O  O210  1  0.91851637  0.23483896  0.08333333  1
  O  O211  1  0.91851637  0.23483896  0.41666667  1
  O  O212  1  0.91851637  0.23483896  0.75000000  1
  O  O213  1  0.91851637  0.73483896  0.08333333  1
  O  O214  1  0.91851637  0.73483896  0.41666667  1
  O  O215  1  0.91851637  0.73483896  0.75000000  1
  O  O216  1  0.24815029  -0.01516104  0.08333333  1
  O  O217  1  0.24815029  -0.01516104  0.41666667  1
  O  O218  1  0.24815029  -0.01516104  0.75000000  1
  O  O219  1  0.24815029  0.48483896  0.08333333  1
  O  O220  1  0.24815029  0.48483896  0.41666667  1
  O  O221  1  0.24815029  0.48483896  0.75000000  1
  O  O222  1  0.58148363  -0.01516104  0.08333333  1
  O  O223  1  0.58148363  -0.01516104  0.41666667  1
  O  O224  1  0.58148363  -0.01516104  0.75000000  1
  O  O225  1  0.58148363  0.48483896  0.08333333  1
  O  O226  1  0.58148363  0.48483896  0.41666667  1
  O  O227  1  0.58148363  0.48483896  0.75000000  1
  O  O228  1  0.91481696  -0.01516104  0.08333333  1
  O  O229  1  0.91481696  -0.01516104  0.41666667  1
  O  O230  1  0.91481696  -0.01516104  0.75000000  1
  O  O231  1  0.91481696  0.48483896  0.08333333  1
  O  O232  1  0.91481696  0.48483896  0.41666667  1
  O  O233  1  0.91481696  0.48483896  0.75000000  1
  O  O234  1  0.41481696  0.23483896  0.08333333  1
  O  O235  1  0.41481696  0.23483896  0.41666667  1
  O  O236  1  0.41481696  0.23483896  0.75000000  1
  O  O237  1  0.41481696  0.73483896  0.08333333  1
  O  O238  1  0.41481696  0.73483896  0.41666667  1
  O  O239  1  0.41481696  0.73483896  0.75000000  1
  O  O240  1  0.74815029  0.23483896  0.08333333  1
  O  O241  1  0.74815029  0.23483896  0.41666667  1
  O  O242  1  0.74815029  0.23483896  0.75000000  1
  O  O243  1  0.74815029  0.73483896  0.08333333  1
  O  O244  1  0.74815029  0.73483896  0.41666667  1
  O  O245  1  0.74815029  0.73483896  0.75000000  1
  O  O246  1  1.08148363  0.23483896  0.08333333  1
  O  O247  1  1.08148363  0.23483896  0.41666667  1
  O  O248  1  1.08148363  0.23483896  0.75000000  1
  O  O249  1  1.08148363  0.73483896  0.08333333  1
  O  O250  1  1.08148363  0.73483896  0.41666667  1
  O  O251  1  1.08148363  0.73483896  0.75000000  1
  O  O252  1  0.08518304  0.01516104  0.25000000  1
  O  O253  1  0.08518304  0.01516104  0.58333333  1
  O  O254  1  0.08518304  0.01516104  0.91666667  1
  O  O255  1  0.08518304  0.51516104  0.25000000  1
  O  O256  1  0.08518304  0.51516104  0.58333333  1
  O  O257  1  0.08518304  0.51516104  0.91666667  1
  O  O258  1  0.41851637  0.01516104  0.25000000  1
  O  O259  1  0.41851637  0.01516104  0.58333333  1
  O  O260  1  0.41851637  0.01516104  0.91666667  1
  O  O261  1  0.41851637  0.51516104  0.25000000  1
  O  O262  1  0.41851637  0.51516104  0.58333333  1
  O  O263  1  0.41851637  0.51516104  0.91666667  1
  O  O264  1  0.75184971  0.01516104  0.25000000  1
  O  O265  1  0.75184971  0.01516104  0.58333333  1
  O  O266  1  0.75184971  0.01516104  0.91666667  1
  O  O267  1  0.75184971  0.51516104  0.25000000  1
  O  O268  1  0.75184971  0.51516104  0.58333333  1
  O  O269  1  0.75184971  0.51516104  0.91666667  1
  O  O270  1  0.25184971  0.26516104  0.25000000  1
  O  O271  1  0.25184971  0.26516104  0.58333333  1
  O  O272  1  0.25184971  0.26516104  0.91666667  1
  O  O273  1  0.25184971  0.76516104  0.25000000  1
  O  O274  1  0.25184971  0.76516104  0.58333333  1
  O  O275  1  0.25184971  0.76516104  0.91666667  1
  O  O276  1  0.58518304  0.26516104  0.25000000  1
  O  O277  1  0.58518304  0.26516104  0.58333333  1
  O  O278  1  0.58518304  0.26516104  0.91666667  1
  O  O279  1  0.58518304  0.76516104  0.25000000  1
  O  O280  1  0.58518304  0.76516104  0.58333333  1
  O  O281  1  0.58518304  0.76516104  0.91666667  1
  O  O282  1  0.91851637  0.26516104  0.25000000  1
  O  O283  1  0.91851637  0.26516104  0.58333333  1
  O  O284  1  0.91851637  0.26516104  0.91666667  1
  O  O285  1  0.91851637  0.76516104  0.25000000  1
  O  O286  1  0.91851637  0.76516104  0.58333333  1
  O  O287  1  0.91851637  0.76516104  0.91666667  1
  O  O288  1  0.16666667  0.12346161  0.31414578  1
  O  O289  1  0.16666667  0.12346161  0.64747912  1
  O  O290  1  0.16666667  0.12346161  0.98081245  1
  O  O291  1  0.16666667  0.62346161  0.31414578  1
  O  O292  1  0.16666667  0.62346161  0.64747912  1
  O  O293  1  0.16666667  0.62346161  0.98081245  1
  O  O294  1  0.50000000  0.12346161  0.31414578  1
  O  O295  1  0.50000000  0.12346161  0.64747912  1
  O  O296  1  0.50000000  0.12346161  0.98081245  1
  O  O297  1  0.50000000  0.62346161  0.31414578  1
  O  O298  1  0.50000000  0.62346161  0.64747912  1
  O  O299  1  0.50000000  0.62346161  0.98081245  1
  O  O300  1  0.83333333  0.12346161  0.31414578  1
  O  O301  1  0.83333333  0.12346161  0.64747912  1
  O  O302  1  0.83333333  0.12346161  0.98081245  1
  O  O303  1  0.83333333  0.62346161  0.31414578  1
  O  O304  1  0.83333333  0.62346161  0.64747912  1
  O  O305  1  0.83333333  0.62346161  0.98081245  1
  O  O306  1  0.33333333  0.37346161  0.31414578  1
  O  O307  1  0.33333333  0.37346161  0.64747912  1
  O  O308  1  0.33333333  0.37346161  0.98081245  1
  O  O309  1  0.33333333  0.87346161  0.31414578  1
  O  O310  1  0.33333333  0.87346161  0.64747912  1
  O  O311  1  0.33333333  0.87346161  0.98081245  1
  O  O312  1  0.66666667  0.37346161  0.31414578  1
  O  O313  1  0.66666667  0.37346161  0.64747912  1
  O  O314  1  0.66666667  0.37346161  0.98081245  1
  O  O315  1  0.66666667  0.87346161  0.31414578  1
  O  O316  1  0.66666667  0.87346161  0.64747912  1
  O  O317  1  0.66666667  0.87346161  0.98081245  1
  O  O318  1  1.00000000  0.37346161  0.31414578  1
  O  O319  1  1.00000000  0.37346161  0.64747912  1
  O  O320  1  1.00000000  0.37346161  0.98081245  1
  O  O321  1  1.00000000  0.87346161  0.31414578  1
  O  O322  1  1.00000000  0.87346161  0.64747912  1
  O  O323  1  1.00000000  0.87346161  0.98081245  1
  O  O324  1  0.16666667  -0.12346161  0.14747912  1
  O  O325  1  0.16666667  -0.12346161  0.48081245  1
  O  O326  1  0.16666667  -0.12346161  0.81414578  1
  O  O327  1  0.16666667  0.37653839  0.14747912  1
  O  O328  1  0.16666667  0.37653839  0.48081245  1
  O  O329  1  0.16666667  0.37653839  0.81414578  1
  O  O330  1  0.50000000  -0.12346161  0.14747912  1
  O  O331  1  0.50000000  -0.12346161  0.48081245  1
  O  O332  1  0.50000000  -0.12346161  0.81414578  1
  O  O333  1  0.50000000  0.37653839  0.14747912  1
  O  O334  1  0.50000000  0.37653839  0.48081245  1
  O  O335  1  0.50000000  0.37653839  0.81414578  1
  O  O336  1  0.83333333  -0.12346161  0.14747912  1
  O  O337  1  0.83333333  -0.12346161  0.48081245  1
  O  O338  1  0.83333333  -0.12346161  0.81414578  1
  O  O339  1  0.83333333  0.37653839  0.14747912  1
  O  O340  1  0.83333333  0.37653839  0.48081245  1
  O  O341  1  0.83333333  0.37653839  0.81414578  1
  O  O342  1  0.33333333  0.12653839  0.14747912  1
  O  O343  1  0.33333333  0.12653839  0.48081245  1
  O  O344  1  0.33333333  0.12653839  0.81414578  1
  O  O345  1  0.33333333  0.62653839  0.14747912  1
  O  O346  1  0.33333333  0.62653839  0.48081245  1
  O  O347  1  0.33333333  0.62653839  0.81414578  1
  O  O348  1  0.66666667  0.12653839  0.14747912  1
  O  O349  1  0.66666667  0.12653839  0.48081245  1
  O  O350  1  0.66666667  0.12653839  0.81414578  1
  O  O351  1  0.66666667  0.62653839  0.14747912  1
  O  O352  1  0.66666667  0.62653839  0.48081245  1
  O  O353  1  0.66666667  0.62653839  0.81414578  1
  O  O354  1  1.00000000  0.12653839  0.14747912  1
  O  O355  1  1.00000000  0.12653839  0.48081245  1
  O  O356  1  1.00000000  0.12653839  0.81414578  1
  O  O357  1  1.00000000  0.62653839  0.14747912  1
  O  O358  1  1.00000000  0.62653839  0.48081245  1
  O  O359  1  1.00000000  0.62653839  0.81414578  1
  O  O360  1  0.16666667  -0.12346161  0.01918755  1
  O  O361  1  0.16666667  -0.12346161  0.35252088  1
  O  O362  1  0.16666667  -0.12346161  0.68585422  1
  O  O363  1  0.16666667  0.37653839  0.01918755  1
  O  O364  1  0.16666667  0.37653839  0.35252088  1
  O  O365  1  0.16666667  0.37653839  0.68585422  1
  O  O366  1  0.50000000  -0.12346161  0.01918755  1
  O  O367  1  0.50000000  -0.12346161  0.35252088  1
  O  O368  1  0.50000000  -0.12346161  0.68585422  1
  O  O369  1  0.50000000  0.37653839  0.01918755  1
  O  O370  1  0.50000000  0.37653839  0.35252088  1
  O  O371  1  0.50000000  0.37653839  0.68585422  1
  O  O372  1  0.83333333  -0.12346161  0.01918755  1
  O  O373  1  0.83333333  -0.12346161  0.35252088  1
  O  O374  1  0.83333333  -0.12346161  0.68585422  1
  O  O375  1  0.83333333  0.37653839  0.01918755  1
  O  O376  1  0.83333333  0.37653839  0.35252088  1
  O  O377  1  0.83333333  0.37653839  0.68585422  1
  O  O378  1  0.33333333  0.12653839  0.01918755  1
  O  O379  1  0.33333333  0.12653839  0.35252088  1
  O  O380  1  0.33333333  0.12653839  0.68585422  1
  O  O381  1  0.33333333  0.62653839  0.01918755  1
  O  O382  1  0.33333333  0.62653839  0.35252088  1
  O  O383  1  0.33333333  0.62653839  0.68585422  1
  O  O384  1  0.66666667  0.12653839  0.01918755  1
  O  O385  1  0.66666667  0.12653839  0.35252088  1
  O  O386  1  0.66666667  0.12653839  0.68585422  1
  O  O387  1  0.66666667  0.62653839  0.01918755  1
  O  O388  1  0.66666667  0.62653839  0.35252088  1
  O  O389  1  0.66666667  0.62653839  0.68585422  1
  O  O390  1  1.00000000  0.12653839  0.01918755  1
  O  O391  1  1.00000000  0.12653839  0.35252088  1
  O  O392  1  1.00000000  0.12653839  0.68585422  1
  O  O393  1  1.00000000  0.62653839  0.01918755  1
  O  O394  1  1.00000000  0.62653839  0.35252088  1
  O  O395  1  1.00000000  0.62653839  0.68585422  1
  O  O396  1  0.16666667  0.12346161  0.18585422  1
  O  O397  1  0.16666667  0.12346161  0.51918755  1
  O  O398  1  0.16666667  0.12346161  0.85252088  1
  O  O399  1  0.16666667  0.62346161  0.18585422  1
  O  O400  1  0.16666667  0.62346161  0.51918755  1
  O  O401  1  0.16666667  0.62346161  0.85252088  1
  O  O402  1  0.50000000  0.12346161  0.18585422  1
  O  O403  1  0.50000000  0.12346161  0.51918755  1
  O  O404  1  0.50000000  0.12346161  0.85252088  1
  O  O405  1  0.50000000  0.62346161  0.18585422  1
  O  O406  1  0.50000000  0.62346161  0.51918755  1
  O  O407  1  0.50000000  0.62346161  0.85252088  1
  O  O408  1  0.83333333  0.12346161  0.18585422  1
  O  O409  1  0.83333333  0.12346161  0.51918755  1
  O  O410  1  0.83333333  0.12346161  0.85252088  1
  O  O411  1  0.83333333  0.62346161  0.18585422  1
  O  O412  1  0.83333333  0.62346161  0.51918755  1
  O  O413  1  0.83333333  0.62346161  0.85252088  1
  O  O414  1  0.33333333  0.37346161  0.18585422  1
  O  O415  1  0.33333333  0.37346161  0.51918755  1
  O  O416  1  0.33333333  0.37346161  0.85252088  1
  O  O417  1  0.33333333  0.87346161  0.18585422  1
  O  O418  1  0.33333333  0.87346161  0.51918755  1
  O  O419  1  0.33333333  0.87346161  0.85252088  1
  O  O420  1  0.66666667  0.37346161  0.18585422  1
  O  O421  1  0.66666667  0.37346161  0.51918755  1
  O  O422  1  0.66666667  0.37346161  0.85252088  1
  O  O423  1  0.66666667  0.87346161  0.18585422  1
  O  O424  1  0.66666667  0.87346161  0.51918755  1
  O  O425  1  0.66666667  0.87346161  0.85252088  1
  O  O426  1  1.00000000  0.37346161  0.18585422  1
  O  O427  1  1.00000000  0.37346161  0.51918755  1
  O  O428  1  1.00000000  0.37346161  0.85252088  1
  O  O429  1  1.00000000  0.87346161  0.18585422  1
  O  O430  1  1.00000000  0.87346161  0.51918755  1
  O  O431  1  1.00000000  0.87346161  0.85252088  1
