# generated using pymatgen
data_LiY(WO4)2
_symmetry_space_group_name_H-M   'P 1'
_cell_length_a   9.95231431
_cell_length_b   11.68209123
_cell_length_c   10.86298077
_cell_angle_alpha   90.00000000
_cell_angle_beta   113.69243180
_cell_angle_gamma   90.00000000
_symmetry_Int_Tables_number   1
_chemical_formula_structural   LiY(WO4)2
_chemical_formula_sum   'Li8 Y8 W16 O64'
_cell_volume   1156.52316888
_cell_formula_units_Z   8
loop_
 _symmetry_equiv_pos_site_id
 _symmetry_equiv_pos_as_xyz
  1  'x, y, z'
loop_
 _atom_site_type_symbol
 _atom_site_label
 _atom_site_symmetry_multiplicity
 _atom_site_fract_x
 _atom_site_fract_y
 _atom_site_fract_z
 _atom_site_occupancy
  Li  Li0  1  0.25000000  0.13031479  0.25000000  1
  Li  Li1  1  0.25000000  0.63031479  0.25000000  1
  Li  Li2  1  0.75000000  0.13031479  0.25000000  1
  Li  Li3  1  0.75000000  0.63031479  0.25000000  1
  Li  Li4  1  0.25000000  0.36968521  0.75000000  1
  Li  Li5  1  0.25000000  0.86968521  0.75000000  1
  Li  Li6  1  0.75000000  0.36968521  0.75000000  1
  Li  Li7  1  0.75000000  0.86968521  0.75000000  1
  Y  Y8  1  -0.00000000  0.34493542  0.25000000  1
  Y  Y9  1  -0.00000000  0.84493542  0.25000000  1
  Y  Y10  1  0.50000000  0.34493542  0.25000000  1
  Y  Y11  1  0.50000000  0.84493542  0.25000000  1
  Y  Y12  1  -0.00000000  0.15506458  0.75000000  1
  Y  Y13  1  -0.00000000  0.65506458  0.75000000  1
  Y  Y14  1  0.50000000  0.15506458  0.75000000  1
  Y  Y15  1  0.50000000  0.65506458  0.75000000  1
  W  W16  1  0.38320884  0.08933767  0.01664163  1
  W  W17  1  0.38320884  0.58933767  0.01664163  1
  W  W18  1  0.88320884  0.08933767  0.01664163  1
  W  W19  1  0.88320884  0.58933767  0.01664163  1
  W  W20  1  0.11679116  0.41066233  0.98335837  1
  W  W21  1  0.11679116  0.91066233  0.98335837  1
  W  W22  1  0.61679116  0.41066233  0.98335837  1
  W  W23  1  0.61679116  0.91066233  0.98335837  1
  W  W24  1  0.11679116  0.08933767  0.48335837  1
  W  W25  1  0.11679116  0.58933767  0.48335837  1
  W  W26  1  0.61679116  0.08933767  0.48335837  1
  W  W27  1  0.61679116  0.58933767  0.48335837  1
  W  W28  1  0.38320884  0.41066233  0.51664163  1
  W  W29  1  0.38320884  0.91066233  0.51664163  1
  W  W30  1  0.88320884  0.41066233  0.51664163  1
  W  W31  1  0.88320884  0.91066233  0.51664163  1
  O  O32  1  0.10745502  0.31400900  0.10865347  1
  O  O33  1  0.10745502  0.81400900  0.10865347  1
  O  O34  1  0.60745502  0.31400900  0.10865347  1
  O  O35  1  0.60745502  0.81400900  0.10865347  1
  O  O36  1  0.39254498  0.18599100  0.89134653  1
  O  O37  1  0.39254498  0.68599100  0.89134653  1
  O  O38  1  0.89254498  0.18599100  0.89134653  1
  O  O39  1  0.89254498  0.68599100  0.89134653  1
  O  O40  1  0.39254498  0.31400900  0.39134653  1
  O  O41  1  0.39254498  0.81400900  0.39134653  1
  O  O42  1  0.89254498  0.31400900  0.39134653  1
  O  O43  1  0.89254498  0.81400900  0.39134653  1
  O  O44  1  0.10745502  0.18599100  0.60865347  1
  O  O45  1  0.10745502  0.68599100  0.60865347  1
  O  O46  1  0.60745502  0.18599100  0.60865347  1
  O  O47  1  0.60745502  0.68599100  0.60865347  1
  O  O48  1  0.36467515  0.18516777  0.13761529  1
  O  O49  1  0.36467515  0.68516777  0.13761529  1
  O  O50  1  0.86467515  0.18516777  0.13761529  1
  O  O51  1  0.86467515  0.68516777  0.13761529  1
  O  O52  1  0.13532485  0.31483223  0.86238471  1
  O  O53  1  0.13532485  0.81483223  0.86238471  1
  O  O54  1  0.63532485  0.31483223  0.86238471  1
  O  O55  1  0.63532485  0.81483223  0.86238471  1
  O  O56  1  0.13532485  0.18516777  0.36238471  1
  O  O57  1  0.13532485  0.68516777  0.36238471  1
  O  O58  1  0.63532485  0.18516777  0.36238471  1
  O  O59  1  0.63532485  0.68516777  0.36238471  1
  O  O60  1  0.36467515  0.31483223  0.63761529  1
  O  O61  1  0.36467515  0.81483223  0.63761529  1
  O  O62  1  0.86467515  0.31483223  0.63761529  1
  O  O63  1  0.86467515  0.81483223  0.63761529  1
  O  O64  1  0.07604703  0.04206744  0.11302711  1
  O  O65  1  0.07604703  0.54206744  0.11302711  1
  O  O66  1  0.57604703  0.04206744  0.11302711  1
  O  O67  1  0.57604703  0.54206744  0.11302711  1
  O  O68  1  0.42395297  0.45793256  0.88697289  1
  O  O69  1  0.42395297  0.95793256  0.88697289  1
  O  O70  1  0.92395297  0.45793256  0.88697289  1
  O  O71  1  0.92395297  0.95793256  0.88697289  1
  O  O72  1  0.42395297  0.04206744  0.38697289  1
  O  O73  1  0.42395297  0.54206744  0.38697289  1
  O  O74  1  0.92395297  0.04206744  0.38697289  1
  O  O75  1  0.92395297  0.54206744  0.38697289  1
  O  O76  1  0.07604703  0.45793256  0.61302711  1
  O  O77  1  0.07604703  0.95793256  0.61302711  1
  O  O78  1  0.57604703  0.45793256  0.61302711  1
  O  O79  1  0.57604703  0.95793256  0.61302711  1
  O  O80  1  0.32478082  0.44537097  0.09518768  1
  O  O81  1  0.32478082  0.94537097  0.09518768  1
  O  O82  1  0.82478082  0.44537097  0.09518768  1
  O  O83  1  0.82478082  0.94537097  0.09518768  1
  O  O84  1  0.17521918  0.05462903  0.90481232  1
  O  O85  1  0.17521918  0.55462903  0.90481232  1
  O  O86  1  0.67521918  0.05462903  0.90481232  1
  O  O87  1  0.67521918  0.55462903  0.90481232  1
  O  O88  1  0.17521918  0.44537097  0.40481232  1
  O  O89  1  0.17521918  0.94537097  0.40481232  1
  O  O90  1  0.67521918  0.44537097  0.40481232  1
  O  O91  1  0.67521918  0.94537097  0.40481232  1
  O  O92  1  0.32478082  0.05462903  0.59518768  1
  O  O93  1  0.32478082  0.55462903  0.59518768  1
  O  O94  1  0.82478082  0.05462903  0.59518768  1
  O  O95  1  0.82478082  0.55462903  0.59518768  1
