# generated using pymatgen
data_Sr3WO6
_symmetry_space_group_name_H-M   'P 1'
_cell_length_a   9.79313546
_cell_length_b   9.79313546
_cell_length_c   11.44112506
_cell_angle_alpha   90.00000000
_cell_angle_beta   90.00000000
_cell_angle_gamma   120.00000000
_symmetry_Int_Tables_number   1
_chemical_formula_structural   Sr3WO6
_chemical_formula_sum   'Sr18 W6 O36'
_cell_volume   950.26096048
_cell_formula_units_Z   6
loop_
 _symmetry_equiv_pos_site_id
 _symmetry_equiv_pos_as_xyz
  1  'x, y, z'
loop_
 _atom_site_type_symbol
 _atom_site_label
 _atom_site_symmetry_multiplicity
 _atom_site_fract_x
 _atom_site_fract_y
 _atom_site_fract_z
 _atom_site_occupancy
  Sr  Sr0  1  -0.04088225  0.22881237  0.29442091  1
  Sr  Sr1  1  0.62578442  0.56214570  0.62775424  1
  Sr  Sr2  1  0.29245109  0.89547904  0.96108757  1
  Sr  Sr3  1  0.22881237  0.26969462  0.70557909  1
  Sr  Sr4  1  0.89547904  0.60302795  1.03891243  1
  Sr  Sr5  1  0.56214570  0.93636128  1.37224576  1
  Sr  Sr6  1  -0.26969462  -0.04088225  0.70557909  1
  Sr  Sr7  1  0.39697205  0.29245109  1.03891243  1
  Sr  Sr8  1  0.06363872  0.62578442  1.37224576  1
  Sr  Sr9  1  0.26969462  0.04088225  0.29442091  1
  Sr  Sr10  1  0.93636128  0.37421558  0.62775424  1
  Sr  Sr11  1  0.60302795  0.70754891  0.96108757  1
  Sr  Sr12  1  -0.22881237  -0.26969462  0.29442091  1
  Sr  Sr13  1  0.43785430  0.06363872  0.62775424  1
  Sr  Sr14  1  0.10452096  0.39697205  0.96108757  1
  Sr  Sr15  1  0.04088225  -0.22881237  0.70557909  1
  Sr  Sr16  1  0.70754891  0.10452096  1.03891243  1
  Sr  Sr17  1  0.37421558  0.43785430  1.37224576  1
  W  W18  1  -0.00000000  0.00000000  0.50000000  1
  W  W19  1  0.66666667  0.33333333  0.83333333  1
  W  W20  1  0.33333333  0.66666667  1.16666667  1
  W  W21  1  0.00000000  -0.00000000  -0.00000000  1
  W  W22  1  0.66666667  0.33333333  0.33333333  1
  W  W23  1  0.33333333  0.66666667  0.66666667  1
  O  O24  1  -0.15558702  0.35955666  0.42677506  1
  O  O25  1  0.51107965  0.69289000  0.76010840  1
  O  O26  1  0.17774631  1.02622333  1.09344173  1
  O  O27  1  0.35955666  0.51514368  0.57322494  1
  O  O28  1  1.02622333  0.84847702  0.90655827  1
  O  O29  1  0.69289000  1.18181035  1.23989160  1
  O  O30  1  -0.02594281  0.14595651  0.59933916  1
  O  O31  1  0.64072386  0.47928984  0.93267249  1
  O  O32  1  0.30739052  0.81262317  1.26600583  1
  O  O33  1  -0.51514368  -0.15558702  0.57322494  1
  O  O34  1  0.15152298  0.17774631  0.90655827  1
  O  O35  1  -0.18181035  0.51107965  1.23989160  1
  O  O36  1  0.14595651  0.17189931  0.40066084  1
  O  O37  1  0.81262317  0.50523265  0.73399417  1
  O  O38  1  0.47928984  0.83856598  1.06732751  1
  O  O39  1  -0.17189931  -0.02594281  0.40066084  1
  O  O40  1  0.49476735  0.30739052  0.73399417  1
  O  O41  1  0.16143402  0.64072386  1.06732751  1
  O  O42  1  0.17189931  0.02594281  0.59933916  1
  O  O43  1  0.83856598  0.35927614  0.93267249  1
  O  O44  1  0.50523265  0.69260948  1.26600583  1
  O  O45  1  -0.14595651  -0.17189931  0.59933916  1
  O  O46  1  0.52071016  0.16143402  0.93267249  1
  O  O47  1  0.18737683  0.49476735  1.26600583  1
  O  O48  1  0.51514368  0.15558702  0.42677506  1
  O  O49  1  1.18181035  0.48892035  0.76010840  1
  O  O50  1  0.84847702  0.82225369  1.09344173  1
  O  O51  1  0.02594281  -0.14595651  0.40066084  1
  O  O52  1  0.69260948  0.18737683  0.73399417  1
  O  O53  1  0.35927614  0.52071016  1.06732751  1
  O  O54  1  -0.35955666  -0.51514368  0.42677506  1
  O  O55  1  0.30711000  -0.18181035  0.76010840  1
  O  O56  1  -0.02622333  0.15152298  1.09344173  1
  O  O57  1  0.15558702  -0.35955666  0.57322494  1
  O  O58  1  0.82225369  -0.02622333  0.90655827  1
  O  O59  1  0.48892035  0.30711000  1.23989160  1
