# generated using pymatgen
data_Zn4B6O13
_symmetry_space_group_name_H-M   'P 1'
_cell_length_a   14.82883206
_cell_length_b   14.82883206
_cell_length_c   14.82883206
_cell_angle_alpha   90.00000000
_cell_angle_beta   90.00000000
_cell_angle_gamma   90.00000000
_symmetry_Int_Tables_number   1
_chemical_formula_structural   Zn4B6O13
_chemical_formula_sum   'Zn64 B96 O208'
_cell_volume   3260.77505584
_cell_formula_units_Z   16
loop_
 _symmetry_equiv_pos_site_id
 _symmetry_equiv_pos_as_xyz
  1  'x, y, z'
loop_
 _atom_site_type_symbol
 _atom_site_label
 _atom_site_symmetry_multiplicity
 _atom_site_fract_x
 _atom_site_fract_y
 _atom_site_fract_z
 _atom_site_occupancy
  Zn  Zn0  1  0.17393761  0.17393761  0.17393761  1
  Zn  Zn1  1  0.17393761  0.17393761  0.67393761  1
  Zn  Zn2  1  0.17393761  0.67393761  0.17393761  1
  Zn  Zn3  1  0.17393761  0.67393761  0.67393761  1
  Zn  Zn4  1  0.67393761  0.17393761  0.17393761  1
  Zn  Zn5  1  0.67393761  0.17393761  0.67393761  1
  Zn  Zn6  1  0.67393761  0.67393761  0.17393761  1
  Zn  Zn7  1  0.67393761  0.67393761  0.67393761  1
  Zn  Zn8  1  0.42393761  0.42393761  0.42393761  1
  Zn  Zn9  1  0.42393761  0.42393761  0.92393761  1
  Zn  Zn10  1  0.42393761  0.92393761  0.42393761  1
  Zn  Zn11  1  0.42393761  0.92393761  0.92393761  1
  Zn  Zn12  1  0.92393761  0.42393761  0.42393761  1
  Zn  Zn13  1  0.92393761  0.42393761  0.92393761  1
  Zn  Zn14  1  0.92393761  0.92393761  0.42393761  1
  Zn  Zn15  1  0.92393761  0.92393761  0.92393761  1
  Zn  Zn16  1  0.07606239  -0.07606239  0.07606239  1
  Zn  Zn17  1  0.07606239  -0.07606239  0.57606239  1
  Zn  Zn18  1  0.07606239  0.42393761  0.07606239  1
  Zn  Zn19  1  0.07606239  0.42393761  0.57606239  1
  Zn  Zn20  1  0.57606239  -0.07606239  0.07606239  1
  Zn  Zn21  1  0.57606239  -0.07606239  0.57606239  1
  Zn  Zn22  1  0.57606239  0.42393761  0.07606239  1
  Zn  Zn23  1  0.57606239  0.42393761  0.57606239  1
  Zn  Zn24  1  0.32606239  0.17393761  0.32606239  1
  Zn  Zn25  1  0.32606239  0.17393761  0.82606239  1
  Zn  Zn26  1  0.32606239  0.67393761  0.32606239  1
  Zn  Zn27  1  0.32606239  0.67393761  0.82606239  1
  Zn  Zn28  1  0.82606239  0.17393761  0.32606239  1
  Zn  Zn29  1  0.82606239  0.17393761  0.82606239  1
  Zn  Zn30  1  0.82606239  0.67393761  0.32606239  1
  Zn  Zn31  1  0.82606239  0.67393761  0.82606239  1
  Zn  Zn32  1  -0.07606239  0.07606239  0.07606239  1
  Zn  Zn33  1  -0.07606239  0.07606239  0.57606239  1
  Zn  Zn34  1  -0.07606239  0.57606239  0.07606239  1
  Zn  Zn35  1  -0.07606239  0.57606239  0.57606239  1
  Zn  Zn36  1  0.42393761  0.07606239  0.07606239  1
  Zn  Zn37  1  0.42393761  0.07606239  0.57606239  1
  Zn  Zn38  1  0.42393761  0.57606239  0.07606239  1
  Zn  Zn39  1  0.42393761  0.57606239  0.57606239  1
  Zn  Zn40  1  0.17393761  0.32606239  0.32606239  1
  Zn  Zn41  1  0.17393761  0.32606239  0.82606239  1
  Zn  Zn42  1  0.17393761  0.82606239  0.32606239  1
  Zn  Zn43  1  0.17393761  0.82606239  0.82606239  1
  Zn  Zn44  1  0.67393761  0.32606239  0.32606239  1
  Zn  Zn45  1  0.67393761  0.32606239  0.82606239  1
  Zn  Zn46  1  0.67393761  0.82606239  0.32606239  1
  Zn  Zn47  1  0.67393761  0.82606239  0.82606239  1
  Zn  Zn48  1  0.07606239  0.07606239  -0.07606239  1
  Zn  Zn49  1  0.07606239  0.07606239  0.42393761  1
  Zn  Zn50  1  0.07606239  0.57606239  -0.07606239  1
  Zn  Zn51  1  0.07606239  0.57606239  0.42393761  1
  Zn  Zn52  1  0.57606239  0.07606239  -0.07606239  1
  Zn  Zn53  1  0.57606239  0.07606239  0.42393761  1
  Zn  Zn54  1  0.57606239  0.57606239  -0.07606239  1
  Zn  Zn55  1  0.57606239  0.57606239  0.42393761  1
  Zn  Zn56  1  0.32606239  0.32606239  0.17393761  1
  Zn  Zn57  1  0.32606239  0.32606239  0.67393761  1
  Zn  Zn58  1  0.32606239  0.82606239  0.17393761  1
  Zn  Zn59  1  0.32606239  0.82606239  0.67393761  1
  Zn  Zn60  1  0.82606239  0.32606239  0.17393761  1
  Zn  Zn61  1  0.82606239  0.32606239  0.67393761  1
  Zn  Zn62  1  0.82606239  0.82606239  0.17393761  1
  Zn  Zn63  1  0.82606239  0.82606239  0.67393761  1
  B  B64  1  0.25000000  0.12500000  0.00000000  1
  B  B65  1  0.25000000  0.12500000  0.50000000  1
  B  B66  1  0.25000000  0.62500000  0.00000000  1
  B  B67  1  0.25000000  0.62500000  0.50000000  1
  B  B68  1  0.75000000  0.12500000  0.00000000  1
  B  B69  1  0.75000000  0.12500000  0.50000000  1
  B  B70  1  0.75000000  0.62500000  0.00000000  1
  B  B71  1  0.75000000  0.62500000  0.50000000  1
  B  B72  1  0.50000000  0.37500000  0.25000000  1
  B  B73  1  0.50000000  0.37500000  0.75000000  1
  B  B74  1  0.50000000  0.87500000  0.25000000  1
  B  B75  1  0.50000000  0.87500000  0.75000000  1
  B  B76  1  1.00000000  0.37500000  0.25000000  1
  B  B77  1  1.00000000  0.37500000  0.75000000  1
  B  B78  1  1.00000000  0.87500000  0.25000000  1
  B  B79  1  1.00000000  0.87500000  0.75000000  1
  B  B80  1  -0.00000000  0.25000000  0.12500000  1
  B  B81  1  -0.00000000  0.25000000  0.62500000  1
  B  B82  1  -0.00000000  0.75000000  0.12500000  1
  B  B83  1  -0.00000000  0.75000000  0.62500000  1
  B  B84  1  0.50000000  0.25000000  0.12500000  1
  B  B85  1  0.50000000  0.25000000  0.62500000  1
  B  B86  1  0.50000000  0.75000000  0.12500000  1
  B  B87  1  0.50000000  0.75000000  0.62500000  1
  B  B88  1  0.25000000  0.50000000  0.37500000  1
  B  B89  1  0.25000000  0.50000000  0.87500000  1
  B  B90  1  0.25000000  1.00000000  0.37500000  1
  B  B91  1  0.25000000  1.00000000  0.87500000  1
  B  B92  1  0.75000000  0.50000000  0.37500000  1
  B  B93  1  0.75000000  0.50000000  0.87500000  1
  B  B94  1  0.75000000  1.00000000  0.37500000  1
  B  B95  1  0.75000000  1.00000000  0.87500000  1
  B  B96  1  0.25000000  0.00000000  0.12500000  1
  B  B97  1  0.25000000  0.00000000  0.62500000  1
  B  B98  1  0.25000000  0.50000000  0.12500000  1
  B  B99  1  0.25000000  0.50000000  0.62500000  1
  B  B100  1  0.75000000  0.00000000  0.12500000  1
  B  B101  1  0.75000000  0.00000000  0.62500000  1
  B  B102  1  0.75000000  0.50000000  0.12500000  1
  B  B103  1  0.75000000  0.50000000  0.62500000  1
  B  B104  1  0.50000000  0.25000000  0.37500000  1
  B  B105  1  0.50000000  0.25000000  0.87500000  1
  B  B106  1  0.50000000  0.75000000  0.37500000  1
  B  B107  1  0.50000000  0.75000000  0.87500000  1
  B  B108  1  1.00000000  0.25000000  0.37500000  1
  B  B109  1  1.00000000  0.25000000  0.87500000  1
  B  B110  1  1.00000000  0.75000000  0.37500000  1
  B  B111  1  1.00000000  0.75000000  0.87500000  1
  B  B112  1  0.12500000  0.00000000  0.25000000  1
  B  B113  1  0.12500000  0.00000000  0.75000000  1
  B  B114  1  0.12500000  0.50000000  0.25000000  1
  B  B115  1  0.12500000  0.50000000  0.75000000  1
  B  B116  1  0.62500000  0.00000000  0.25000000  1
  B  B117  1  0.62500000  0.00000000  0.75000000  1
  B  B118  1  0.62500000  0.50000000  0.25000000  1
  B  B119  1  0.62500000  0.50000000  0.75000000  1
  B  B120  1  0.37500000  0.25000000  0.50000000  1
  B  B121  1  0.37500000  0.25000000  1.00000000  1
  B  B122  1  0.37500000  0.75000000  0.50000000  1
  B  B123  1  0.37500000  0.75000000  1.00000000  1
  B  B124  1  0.87500000  0.25000000  0.50000000  1
  B  B125  1  0.87500000  0.25000000  1.00000000  1
  B  B126  1  0.87500000  0.75000000  0.50000000  1
  B  B127  1  0.87500000  0.75000000  1.00000000  1
  B  B128  1  0.12500000  0.25000000  0.00000000  1
  B  B129  1  0.12500000  0.25000000  0.50000000  1
  B  B130  1  0.12500000  0.75000000  0.00000000  1
  B  B131  1  0.12500000  0.75000000  0.50000000  1
  B  B132  1  0.62500000  0.25000000  0.00000000  1
  B  B133  1  0.62500000  0.25000000  0.50000000  1
  B  B134  1  0.62500000  0.75000000  0.00000000  1
  B  B135  1  0.62500000  0.75000000  0.50000000  1
  B  B136  1  0.37500000  0.50000000  0.25000000  1
  B  B137  1  0.37500000  0.50000000  0.75000000  1
  B  B138  1  0.37500000  1.00000000  0.25000000  1
  B  B139  1  0.37500000  1.00000000  0.75000000  1
  B  B140  1  0.87500000  0.50000000  0.25000000  1
  B  B141  1  0.87500000  0.50000000  0.75000000  1
  B  B142  1  0.87500000  1.00000000  0.25000000  1
  B  B143  1  0.87500000  1.00000000  0.75000000  1
  B  B144  1  -0.00000000  0.12500000  0.25000000  1
  B  B145  1  -0.00000000  0.12500000  0.75000000  1
  B  B146  1  -0.00000000  0.62500000  0.25000000  1
  B  B147  1  -0.00000000  0.62500000  0.75000000  1
  B  B148  1  0.50000000  0.12500000  0.25000000  1
  B  B149  1  0.50000000  0.12500000  0.75000000  1
  B  B150  1  0.50000000  0.62500000  0.25000000  1
  B  B151  1  0.50000000  0.62500000  0.75000000  1
  B  B152  1  0.25000000  0.37500000  0.50000000  1
  B  B153  1  0.25000000  0.37500000  1.00000000  1
  B  B154  1  0.25000000  0.87500000  0.50000000  1
  B  B155  1  0.25000000  0.87500000  1.00000000  1
  B  B156  1  0.75000000  0.37500000  0.50000000  1
  B  B157  1  0.75000000  0.37500000  1.00000000  1
  B  B158  1  0.75000000  0.87500000  0.50000000  1
  B  B159  1  0.75000000  0.87500000  1.00000000  1
  O  O160  1  0.06946298  0.06946298  0.29440712  1
  O  O161  1  0.06946298  0.06946298  0.79440712  1
  O  O162  1  0.06946298  0.56946298  0.29440712  1
  O  O163  1  0.06946298  0.56946298  0.79440712  1
  O  O164  1  0.56946298  0.06946298  0.29440712  1
  O  O165  1  0.56946298  0.06946298  0.79440712  1
  O  O166  1  0.56946298  0.56946298  0.29440712  1
  O  O167  1  0.56946298  0.56946298  0.79440712  1
  O  O168  1  0.31946298  0.31946298  0.54440712  1
  O  O169  1  0.31946298  0.31946298  1.04440712  1
  O  O170  1  0.31946298  0.81946298  0.54440712  1
  O  O171  1  0.31946298  0.81946298  1.04440712  1
  O  O172  1  0.81946298  0.31946298  0.54440712  1
  O  O173  1  0.81946298  0.31946298  1.04440712  1
  O  O174  1  0.81946298  0.81946298  0.54440712  1
  O  O175  1  0.81946298  0.81946298  1.04440712  1
  O  O176  1  0.06946298  -0.06946298  0.20559288  1
  O  O177  1  0.06946298  -0.06946298  0.70559288  1
  O  O178  1  0.06946298  0.43053702  0.20559288  1
  O  O179  1  0.06946298  0.43053702  0.70559288  1
  O  O180  1  0.56946298  -0.06946298  0.20559288  1
  O  O181  1  0.56946298  -0.06946298  0.70559288  1
  O  O182  1  0.56946298  0.43053702  0.20559288  1
  O  O183  1  0.56946298  0.43053702  0.70559288  1
  O  O184  1  0.31946298  0.18053702  0.45559288  1
  O  O185  1  0.31946298  0.18053702  0.95559288  1
  O  O186  1  0.31946298  0.68053702  0.45559288  1
  O  O187  1  0.31946298  0.68053702  0.95559288  1
  O  O188  1  0.81946298  0.18053702  0.45559288  1
  O  O189  1  0.81946298  0.18053702  0.95559288  1
  O  O190  1  0.81946298  0.68053702  0.45559288  1
  O  O191  1  0.81946298  0.68053702  0.95559288  1
  O  O192  1  0.18053702  0.04440712  0.18053702  1
  O  O193  1  0.18053702  0.04440712  0.68053702  1
  O  O194  1  0.18053702  0.54440712  0.18053702  1
  O  O195  1  0.18053702  0.54440712  0.68053702  1
  O  O196  1  0.68053702  0.04440712  0.18053702  1
  O  O197  1  0.68053702  0.04440712  0.68053702  1
  O  O198  1  0.68053702  0.54440712  0.18053702  1
  O  O199  1  0.68053702  0.54440712  0.68053702  1
  O  O200  1  0.43053702  0.29440712  0.43053702  1
  O  O201  1  0.43053702  0.29440712  0.93053702  1
  O  O202  1  0.43053702  0.79440712  0.43053702  1
  O  O203  1  0.43053702  0.79440712  0.93053702  1
  O  O204  1  0.93053702  0.29440712  0.43053702  1
  O  O205  1  0.93053702  0.29440712  0.93053702  1
  O  O206  1  0.93053702  0.79440712  0.43053702  1
  O  O207  1  0.93053702  0.79440712  0.93053702  1
  O  O208  1  -0.06946298  0.06946298  0.20559288  1
  O  O209  1  -0.06946298  0.06946298  0.70559288  1
  O  O210  1  -0.06946298  0.56946298  0.20559288  1
  O  O211  1  -0.06946298  0.56946298  0.70559288  1
  O  O212  1  0.43053702  0.06946298  0.20559288  1
  O  O213  1  0.43053702  0.06946298  0.70559288  1
  O  O214  1  0.43053702  0.56946298  0.20559288  1
  O  O215  1  0.43053702  0.56946298  0.70559288  1
  O  O216  1  0.18053702  0.31946298  0.45559288  1
  O  O217  1  0.18053702  0.31946298  0.95559288  1
  O  O218  1  0.18053702  0.81946298  0.45559288  1
  O  O219  1  0.18053702  0.81946298  0.95559288  1
  O  O220  1  0.68053702  0.31946298  0.45559288  1
  O  O221  1  0.68053702  0.31946298  0.95559288  1
  O  O222  1  0.68053702  0.81946298  0.45559288  1
  O  O223  1  0.68053702  0.81946298  0.95559288  1
  O  O224  1  0.20559288  -0.06946298  0.06946298  1
  O  O225  1  0.20559288  -0.06946298  0.56946298  1
  O  O226  1  0.20559288  0.43053702  0.06946298  1
  O  O227  1  0.20559288  0.43053702  0.56946298  1
  O  O228  1  0.70559288  -0.06946298  0.06946298  1
  O  O229  1  0.70559288  -0.06946298  0.56946298  1
  O  O230  1  0.70559288  0.43053702  0.06946298  1
  O  O231  1  0.70559288  0.43053702  0.56946298  1
  O  O232  1  0.45559288  0.18053702  0.31946298  1
  O  O233  1  0.45559288  0.18053702  0.81946298  1
  O  O234  1  0.45559288  0.68053702  0.31946298  1
  O  O235  1  0.45559288  0.68053702  0.81946298  1
  O  O236  1  0.95559288  0.18053702  0.31946298  1
  O  O237  1  0.95559288  0.18053702  0.81946298  1
  O  O238  1  0.95559288  0.68053702  0.31946298  1
  O  O239  1  0.95559288  0.68053702  0.81946298  1
  O  O240  1  0.04440712  0.18053702  0.18053702  1
  O  O241  1  0.04440712  0.18053702  0.68053702  1
  O  O242  1  0.04440712  0.68053702  0.18053702  1
  O  O243  1  0.04440712  0.68053702  0.68053702  1
  O  O244  1  0.54440712  0.18053702  0.18053702  1
  O  O245  1  0.54440712  0.18053702  0.68053702  1
  O  O246  1  0.54440712  0.68053702  0.18053702  1
  O  O247  1  0.54440712  0.68053702  0.68053702  1
  O  O248  1  0.29440712  0.43053702  0.43053702  1
  O  O249  1  0.29440712  0.43053702  0.93053702  1
  O  O250  1  0.29440712  0.93053702  0.43053702  1
  O  O251  1  0.29440712  0.93053702  0.93053702  1
  O  O252  1  0.79440712  0.43053702  0.43053702  1
  O  O253  1  0.79440712  0.43053702  0.93053702  1
  O  O254  1  0.79440712  0.93053702  0.43053702  1
  O  O255  1  0.79440712  0.93053702  0.93053702  1
  O  O256  1  0.29440712  0.06946298  0.06946298  1
  O  O257  1  0.29440712  0.06946298  0.56946298  1
  O  O258  1  0.29440712  0.56946298  0.06946298  1
  O  O259  1  0.29440712  0.56946298  0.56946298  1
  O  O260  1  0.79440712  0.06946298  0.06946298  1
  O  O261  1  0.79440712  0.06946298  0.56946298  1
  O  O262  1  0.79440712  0.56946298  0.06946298  1
  O  O263  1  0.79440712  0.56946298  0.56946298  1
  O  O264  1  0.54440712  0.31946298  0.31946298  1
  O  O265  1  0.54440712  0.31946298  0.81946298  1
  O  O266  1  0.54440712  0.81946298  0.31946298  1
  O  O267  1  0.54440712  0.81946298  0.81946298  1
  O  O268  1  1.04440712  0.31946298  0.31946298  1
  O  O269  1  1.04440712  0.31946298  0.81946298  1
  O  O270  1  1.04440712  0.81946298  0.31946298  1
  O  O271  1  1.04440712  0.81946298  0.81946298  1
  O  O272  1  0.06946298  0.29440712  0.06946298  1
  O  O273  1  0.06946298  0.29440712  0.56946298  1
  O  O274  1  0.06946298  0.79440712  0.06946298  1
  O  O275  1  0.06946298  0.79440712  0.56946298  1
  O  O276  1  0.56946298  0.29440712  0.06946298  1
  O  O277  1  0.56946298  0.29440712  0.56946298  1
  O  O278  1  0.56946298  0.79440712  0.06946298  1
  O  O279  1  0.56946298  0.79440712  0.56946298  1
  O  O280  1  0.31946298  0.54440712  0.31946298  1
  O  O281  1  0.31946298  0.54440712  0.81946298  1
  O  O282  1  0.31946298  1.04440712  0.31946298  1
  O  O283  1  0.31946298  1.04440712  0.81946298  1
  O  O284  1  0.81946298  0.54440712  0.31946298  1
  O  O285  1  0.81946298  0.54440712  0.81946298  1
  O  O286  1  0.81946298  1.04440712  0.31946298  1
  O  O287  1  0.81946298  1.04440712  0.81946298  1
  O  O288  1  0.06946298  0.20559288  -0.06946298  1
  O  O289  1  0.06946298  0.20559288  0.43053702  1
  O  O290  1  0.06946298  0.70559288  -0.06946298  1
  O  O291  1  0.06946298  0.70559288  0.43053702  1
  O  O292  1  0.56946298  0.20559288  -0.06946298  1
  O  O293  1  0.56946298  0.20559288  0.43053702  1
  O  O294  1  0.56946298  0.70559288  -0.06946298  1
  O  O295  1  0.56946298  0.70559288  0.43053702  1
  O  O296  1  0.31946298  0.45559288  0.18053702  1
  O  O297  1  0.31946298  0.45559288  0.68053702  1
  O  O298  1  0.31946298  0.95559288  0.18053702  1
  O  O299  1  0.31946298  0.95559288  0.68053702  1
  O  O300  1  0.81946298  0.45559288  0.18053702  1
  O  O301  1  0.81946298  0.45559288  0.68053702  1
  O  O302  1  0.81946298  0.95559288  0.18053702  1
  O  O303  1  0.81946298  0.95559288  0.68053702  1
  O  O304  1  0.20559288  0.06946298  -0.06946298  1
  O  O305  1  0.20559288  0.06946298  0.43053702  1
  O  O306  1  0.20559288  0.56946298  -0.06946298  1
  O  O307  1  0.20559288  0.56946298  0.43053702  1
  O  O308  1  0.70559288  0.06946298  -0.06946298  1
  O  O309  1  0.70559288  0.06946298  0.43053702  1
  O  O310  1  0.70559288  0.56946298  -0.06946298  1
  O  O311  1  0.70559288  0.56946298  0.43053702  1
  O  O312  1  0.45559288  0.31946298  0.18053702  1
  O  O313  1  0.45559288  0.31946298  0.68053702  1
  O  O314  1  0.45559288  0.81946298  0.18053702  1
  O  O315  1  0.45559288  0.81946298  0.68053702  1
  O  O316  1  0.95559288  0.31946298  0.18053702  1
  O  O317  1  0.95559288  0.31946298  0.68053702  1
  O  O318  1  0.95559288  0.81946298  0.18053702  1
  O  O319  1  0.95559288  0.81946298  0.68053702  1
  O  O320  1  0.18053702  0.18053702  0.04440712  1
  O  O321  1  0.18053702  0.18053702  0.54440712  1
  O  O322  1  0.18053702  0.68053702  0.04440712  1
  O  O323  1  0.18053702  0.68053702  0.54440712  1
  O  O324  1  0.68053702  0.18053702  0.04440712  1
  O  O325  1  0.68053702  0.18053702  0.54440712  1
  O  O326  1  0.68053702  0.68053702  0.04440712  1
  O  O327  1  0.68053702  0.68053702  0.54440712  1
  O  O328  1  0.43053702  0.43053702  0.29440712  1
  O  O329  1  0.43053702  0.43053702  0.79440712  1
  O  O330  1  0.43053702  0.93053702  0.29440712  1
  O  O331  1  0.43053702  0.93053702  0.79440712  1
  O  O332  1  0.93053702  0.43053702  0.29440712  1
  O  O333  1  0.93053702  0.43053702  0.79440712  1
  O  O334  1  0.93053702  0.93053702  0.29440712  1
  O  O335  1  0.93053702  0.93053702  0.79440712  1
  O  O336  1  -0.06946298  0.20559288  0.06946298  1
  O  O337  1  -0.06946298  0.20559288  0.56946298  1
  O  O338  1  -0.06946298  0.70559288  0.06946298  1
  O  O339  1  -0.06946298  0.70559288  0.56946298  1
  O  O340  1  0.43053702  0.20559288  0.06946298  1
  O  O341  1  0.43053702  0.20559288  0.56946298  1
  O  O342  1  0.43053702  0.70559288  0.06946298  1
  O  O343  1  0.43053702  0.70559288  0.56946298  1
  O  O344  1  0.18053702  0.45559288  0.31946298  1
  O  O345  1  0.18053702  0.45559288  0.81946298  1
  O  O346  1  0.18053702  0.95559288  0.31946298  1
  O  O347  1  0.18053702  0.95559288  0.81946298  1
  O  O348  1  0.68053702  0.45559288  0.31946298  1
  O  O349  1  0.68053702  0.45559288  0.81946298  1
  O  O350  1  0.68053702  0.95559288  0.31946298  1
  O  O351  1  0.68053702  0.95559288  0.81946298  1
  O  O352  1  0.00000000  0.00000000  0.00000000  1
  O  O353  1  0.00000000  0.00000000  0.50000000  1
  O  O354  1  0.00000000  0.50000000  0.00000000  1
  O  O355  1  0.00000000  0.50000000  0.50000000  1
  O  O356  1  0.50000000  0.00000000  0.00000000  1
  O  O357  1  0.50000000  0.00000000  0.50000000  1
  O  O358  1  0.50000000  0.50000000  0.00000000  1
  O  O359  1  0.50000000  0.50000000  0.50000000  1
  O  O360  1  0.25000000  0.25000000  0.25000000  1
  O  O361  1  0.25000000  0.25000000  0.75000000  1
  O  O362  1  0.25000000  0.75000000  0.25000000  1
  O  O363  1  0.25000000  0.75000000  0.75000000  1
  O  O364  1  0.75000000  0.25000000  0.25000000  1
  O  O365  1  0.75000000  0.25000000  0.75000000  1
  O  O366  1  0.75000000  0.75000000  0.25000000  1
  O  O367  1  0.75000000  0.75000000  0.75000000  1
