# generated using pymatgen
data_CrHgO4
_symmetry_space_group_name_H-M   'P 1'
_cell_length_a   17.20769760
_cell_length_b   17.70207945
_cell_length_c   14.26299602
_cell_angle_alpha   90.00000000
_cell_angle_beta   90.00000000
_cell_angle_gamma   90.00000000
_symmetry_Int_Tables_number   1
_chemical_formula_structural   CrHgO4
_chemical_formula_sum   'Cr48 Hg48 O192'
_cell_volume   4344.68017274
_cell_formula_units_Z   48
loop_
 _symmetry_equiv_pos_site_id
 _symmetry_equiv_pos_as_xyz
  1  'x, y, z'
loop_
 _atom_site_type_symbol
 _atom_site_label
 _atom_site_symmetry_multiplicity
 _atom_site_fract_x
 _atom_site_fract_y
 _atom_site_fract_z
 _atom_site_occupancy
  Cr  Cr0  1  0.16666667  -0.07045532  0.37500000  1
  Cr  Cr1  1  0.16666667  -0.07045532  0.87500000  1
  Cr  Cr2  1  0.16666667  0.42954468  0.37500000  1
  Cr  Cr3  1  0.16666667  0.42954468  0.87500000  1
  Cr  Cr4  1  0.50000000  -0.07045532  0.37500000  1
  Cr  Cr5  1  0.50000000  -0.07045532  0.87500000  1
  Cr  Cr6  1  0.50000000  0.42954468  0.37500000  1
  Cr  Cr7  1  0.50000000  0.42954468  0.87500000  1
  Cr  Cr8  1  0.83333333  -0.07045532  0.37500000  1
  Cr  Cr9  1  0.83333333  -0.07045532  0.87500000  1
  Cr  Cr10  1  0.83333333  0.42954468  0.37500000  1
  Cr  Cr11  1  0.83333333  0.42954468  0.87500000  1
  Cr  Cr12  1  0.33333333  0.17954468  0.37500000  1
  Cr  Cr13  1  0.33333333  0.17954468  0.87500000  1
  Cr  Cr14  1  0.33333333  0.67954468  0.37500000  1
  Cr  Cr15  1  0.33333333  0.67954468  0.87500000  1
  Cr  Cr16  1  0.66666667  0.17954468  0.37500000  1
  Cr  Cr17  1  0.66666667  0.17954468  0.87500000  1
  Cr  Cr18  1  0.66666667  0.67954468  0.37500000  1
  Cr  Cr19  1  0.66666667  0.67954468  0.87500000  1
  Cr  Cr20  1  1.00000000  0.17954468  0.37500000  1
  Cr  Cr21  1  1.00000000  0.17954468  0.87500000  1
  Cr  Cr22  1  1.00000000  0.67954468  0.37500000  1
  Cr  Cr23  1  1.00000000  0.67954468  0.87500000  1
  Cr  Cr24  1  0.16666667  0.07045532  0.12500000  1
  Cr  Cr25  1  0.16666667  0.07045532  0.62500000  1
  Cr  Cr26  1  0.16666667  0.57045532  0.12500000  1
  Cr  Cr27  1  0.16666667  0.57045532  0.62500000  1
  Cr  Cr28  1  0.50000000  0.07045532  0.12500000  1
  Cr  Cr29  1  0.50000000  0.07045532  0.62500000  1
  Cr  Cr30  1  0.50000000  0.57045532  0.12500000  1
  Cr  Cr31  1  0.50000000  0.57045532  0.62500000  1
  Cr  Cr32  1  0.83333333  0.07045532  0.12500000  1
  Cr  Cr33  1  0.83333333  0.07045532  0.62500000  1
  Cr  Cr34  1  0.83333333  0.57045532  0.12500000  1
  Cr  Cr35  1  0.83333333  0.57045532  0.62500000  1
  Cr  Cr36  1  0.33333333  0.32045532  0.12500000  1
  Cr  Cr37  1  0.33333333  0.32045532  0.62500000  1
  Cr  Cr38  1  0.33333333  0.82045532  0.12500000  1
  Cr  Cr39  1  0.33333333  0.82045532  0.62500000  1
  Cr  Cr40  1  0.66666667  0.32045532  0.12500000  1
  Cr  Cr41  1  0.66666667  0.32045532  0.62500000  1
  Cr  Cr42  1  0.66666667  0.82045532  0.12500000  1
  Cr  Cr43  1  0.66666667  0.82045532  0.62500000  1
  Cr  Cr44  1  1.00000000  0.32045532  0.12500000  1
  Cr  Cr45  1  1.00000000  0.32045532  0.62500000  1
  Cr  Cr46  1  1.00000000  0.82045532  0.12500000  1
  Cr  Cr47  1  1.00000000  0.82045532  0.62500000  1
  Hg  Hg48  1  0.00000000  0.00000000  0.00000000  1
  Hg  Hg49  1  0.00000000  0.00000000  0.50000000  1
  Hg  Hg50  1  0.00000000  0.50000000  0.00000000  1
  Hg  Hg51  1  0.00000000  0.50000000  0.50000000  1
  Hg  Hg52  1  0.33333333  0.00000000  0.00000000  1
  Hg  Hg53  1  0.33333333  0.00000000  0.50000000  1
  Hg  Hg54  1  0.33333333  0.50000000  0.00000000  1
  Hg  Hg55  1  0.33333333  0.50000000  0.50000000  1
  Hg  Hg56  1  0.66666667  0.00000000  0.00000000  1
  Hg  Hg57  1  0.66666667  0.00000000  0.50000000  1
  Hg  Hg58  1  0.66666667  0.50000000  0.00000000  1
  Hg  Hg59  1  0.66666667  0.50000000  0.50000000  1
  Hg  Hg60  1  0.16666667  0.25000000  0.00000000  1
  Hg  Hg61  1  0.16666667  0.25000000  0.50000000  1
  Hg  Hg62  1  0.16666667  0.75000000  0.00000000  1
  Hg  Hg63  1  0.16666667  0.75000000  0.50000000  1
  Hg  Hg64  1  0.50000000  0.25000000  0.00000000  1
  Hg  Hg65  1  0.50000000  0.25000000  0.50000000  1
  Hg  Hg66  1  0.50000000  0.75000000  0.00000000  1
  Hg  Hg67  1  0.50000000  0.75000000  0.50000000  1
  Hg  Hg68  1  0.83333333  0.25000000  0.00000000  1
  Hg  Hg69  1  0.83333333  0.25000000  0.50000000  1
  Hg  Hg70  1  0.83333333  0.75000000  0.00000000  1
  Hg  Hg71  1  0.83333333  0.75000000  0.50000000  1
  Hg  Hg72  1  0.00000000  0.00000000  0.25000000  1
  Hg  Hg73  1  0.00000000  0.00000000  0.75000000  1
  Hg  Hg74  1  0.00000000  0.50000000  0.25000000  1
  Hg  Hg75  1  0.00000000  0.50000000  0.75000000  1
  Hg  Hg76  1  0.33333333  0.00000000  0.25000000  1
  Hg  Hg77  1  0.33333333  0.00000000  0.75000000  1
  Hg  Hg78  1  0.33333333  0.50000000  0.25000000  1
  Hg  Hg79  1  0.33333333  0.50000000  0.75000000  1
  Hg  Hg80  1  0.66666667  0.00000000  0.25000000  1
  Hg  Hg81  1  0.66666667  0.00000000  0.75000000  1
  Hg  Hg82  1  0.66666667  0.50000000  0.25000000  1
  Hg  Hg83  1  0.66666667  0.50000000  0.75000000  1
  Hg  Hg84  1  0.16666667  0.25000000  0.25000000  1
  Hg  Hg85  1  0.16666667  0.25000000  0.75000000  1
  Hg  Hg86  1  0.16666667  0.75000000  0.25000000  1
  Hg  Hg87  1  0.16666667  0.75000000  0.75000000  1
  Hg  Hg88  1  0.50000000  0.25000000  0.25000000  1
  Hg  Hg89  1  0.50000000  0.25000000  0.75000000  1
  Hg  Hg90  1  0.50000000  0.75000000  0.25000000  1
  Hg  Hg91  1  0.50000000  0.75000000  0.75000000  1
  Hg  Hg92  1  0.83333333  0.25000000  0.25000000  1
  Hg  Hg93  1  0.83333333  0.25000000  0.75000000  1
  Hg  Hg94  1  0.83333333  0.75000000  0.25000000  1
  Hg  Hg95  1  0.83333333  0.75000000  0.75000000  1
  O  O96  1  0.24733490  0.01571261  0.12500000  1
  O  O97  1  0.24733490  0.01571261  0.62500000  1
  O  O98  1  0.24733490  0.51571261  0.12500000  1
  O  O99  1  0.24733490  0.51571261  0.62500000  1
  O  O100  1  0.58066824  0.01571261  0.12500000  1
  O  O101  1  0.58066824  0.01571261  0.62500000  1
  O  O102  1  0.58066824  0.51571261  0.12500000  1
  O  O103  1  0.58066824  0.51571261  0.62500000  1
  O  O104  1  0.91400157  0.01571261  0.12500000  1
  O  O105  1  0.91400157  0.01571261  0.62500000  1
  O  O106  1  0.91400157  0.51571261  0.12500000  1
  O  O107  1  0.91400157  0.51571261  0.62500000  1
  O  O108  1  0.41400157  0.26571261  0.12500000  1
  O  O109  1  0.41400157  0.26571261  0.62500000  1
  O  O110  1  0.41400157  0.76571261  0.12500000  1
  O  O111  1  0.41400157  0.76571261  0.62500000  1
  O  O112  1  0.74733490  0.26571261  0.12500000  1
  O  O113  1  0.74733490  0.26571261  0.62500000  1
  O  O114  1  0.74733490  0.76571261  0.12500000  1
  O  O115  1  0.74733490  0.76571261  0.62500000  1
  O  O116  1  1.08066824  0.26571261  0.12500000  1
  O  O117  1  1.08066824  0.26571261  0.62500000  1
  O  O118  1  1.08066824  0.76571261  0.12500000  1
  O  O119  1  1.08066824  0.76571261  0.62500000  1
  O  O120  1  0.08599843  -0.01571261  0.37500000  1
  O  O121  1  0.08599843  -0.01571261  0.87500000  1
  O  O122  1  0.08599843  0.48428739  0.37500000  1
  O  O123  1  0.08599843  0.48428739  0.87500000  1
  O  O124  1  0.41933176  -0.01571261  0.37500000  1
  O  O125  1  0.41933176  -0.01571261  0.87500000  1
  O  O126  1  0.41933176  0.48428739  0.37500000  1
  O  O127  1  0.41933176  0.48428739  0.87500000  1
  O  O128  1  0.75266510  -0.01571261  0.37500000  1
  O  O129  1  0.75266510  -0.01571261  0.87500000  1
  O  O130  1  0.75266510  0.48428739  0.37500000  1
  O  O131  1  0.75266510  0.48428739  0.87500000  1
  O  O132  1  0.25266510  0.23428739  0.37500000  1
  O  O133  1  0.25266510  0.23428739  0.87500000  1
  O  O134  1  0.25266510  0.73428739  0.37500000  1
  O  O135  1  0.25266510  0.73428739  0.87500000  1
  O  O136  1  0.58599843  0.23428739  0.37500000  1
  O  O137  1  0.58599843  0.23428739  0.87500000  1
  O  O138  1  0.58599843  0.73428739  0.37500000  1
  O  O139  1  0.58599843  0.73428739  0.87500000  1
  O  O140  1  0.91933176  0.23428739  0.37500000  1
  O  O141  1  0.91933176  0.23428739  0.87500000  1
  O  O142  1  0.91933176  0.73428739  0.37500000  1
  O  O143  1  0.91933176  0.73428739  0.87500000  1
  O  O144  1  0.24733490  -0.01571261  0.37500000  1
  O  O145  1  0.24733490  -0.01571261  0.87500000  1
  O  O146  1  0.24733490  0.48428739  0.37500000  1
  O  O147  1  0.24733490  0.48428739  0.87500000  1
  O  O148  1  0.58066824  -0.01571261  0.37500000  1
  O  O149  1  0.58066824  -0.01571261  0.87500000  1
  O  O150  1  0.58066824  0.48428739  0.37500000  1
  O  O151  1  0.58066824  0.48428739  0.87500000  1
  O  O152  1  0.91400157  -0.01571261  0.37500000  1
  O  O153  1  0.91400157  -0.01571261  0.87500000  1
  O  O154  1  0.91400157  0.48428739  0.37500000  1
  O  O155  1  0.91400157  0.48428739  0.87500000  1
  O  O156  1  0.41400157  0.23428739  0.37500000  1
  O  O157  1  0.41400157  0.23428739  0.87500000  1
  O  O158  1  0.41400157  0.73428739  0.37500000  1
  O  O159  1  0.41400157  0.73428739  0.87500000  1
  O  O160  1  0.74733490  0.23428739  0.37500000  1
  O  O161  1  0.74733490  0.23428739  0.87500000  1
  O  O162  1  0.74733490  0.73428739  0.37500000  1
  O  O163  1  0.74733490  0.73428739  0.87500000  1
  O  O164  1  1.08066824  0.23428739  0.37500000  1
  O  O165  1  1.08066824  0.23428739  0.87500000  1
  O  O166  1  1.08066824  0.73428739  0.37500000  1
  O  O167  1  1.08066824  0.73428739  0.87500000  1
  O  O168  1  0.08599843  0.01571261  0.12500000  1
  O  O169  1  0.08599843  0.01571261  0.62500000  1
  O  O170  1  0.08599843  0.51571261  0.12500000  1
  O  O171  1  0.08599843  0.51571261  0.62500000  1
  O  O172  1  0.41933176  0.01571261  0.12500000  1
  O  O173  1  0.41933176  0.01571261  0.62500000  1
  O  O174  1  0.41933176  0.51571261  0.12500000  1
  O  O175  1  0.41933176  0.51571261  0.62500000  1
  O  O176  1  0.75266510  0.01571261  0.12500000  1
  O  O177  1  0.75266510  0.01571261  0.62500000  1
  O  O178  1  0.75266510  0.51571261  0.12500000  1
  O  O179  1  0.75266510  0.51571261  0.62500000  1
  O  O180  1  0.25266510  0.26571261  0.12500000  1
  O  O181  1  0.25266510  0.26571261  0.62500000  1
  O  O182  1  0.25266510  0.76571261  0.12500000  1
  O  O183  1  0.25266510  0.76571261  0.62500000  1
  O  O184  1  0.58599843  0.26571261  0.12500000  1
  O  O185  1  0.58599843  0.26571261  0.62500000  1
  O  O186  1  0.58599843  0.76571261  0.12500000  1
  O  O187  1  0.58599843  0.76571261  0.62500000  1
  O  O188  1  0.91933176  0.26571261  0.12500000  1
  O  O189  1  0.91933176  0.26571261  0.62500000  1
  O  O190  1  0.91933176  0.76571261  0.12500000  1
  O  O191  1  0.91933176  0.76571261  0.62500000  1
  O  O192  1  0.16666667  0.12310072  0.21934115  1
  O  O193  1  0.16666667  0.12310072  0.71934115  1
  O  O194  1  0.16666667  0.62310072  0.21934115  1
  O  O195  1  0.16666667  0.62310072  0.71934115  1
  O  O196  1  0.50000000  0.12310072  0.21934115  1
  O  O197  1  0.50000000  0.12310072  0.71934115  1
  O  O198  1  0.50000000  0.62310072  0.21934115  1
  O  O199  1  0.50000000  0.62310072  0.71934115  1
  O  O200  1  0.83333333  0.12310072  0.21934115  1
  O  O201  1  0.83333333  0.12310072  0.71934115  1
  O  O202  1  0.83333333  0.62310072  0.21934115  1
  O  O203  1  0.83333333  0.62310072  0.71934115  1
  O  O204  1  0.33333333  0.37310072  0.21934115  1
  O  O205  1  0.33333333  0.37310072  0.71934115  1
  O  O206  1  0.33333333  0.87310072  0.21934115  1
  O  O207  1  0.33333333  0.87310072  0.71934115  1
  O  O208  1  0.66666667  0.37310072  0.21934115  1
  O  O209  1  0.66666667  0.37310072  0.71934115  1
  O  O210  1  0.66666667  0.87310072  0.21934115  1
  O  O211  1  0.66666667  0.87310072  0.71934115  1
  O  O212  1  1.00000000  0.37310072  0.21934115  1
  O  O213  1  1.00000000  0.37310072  0.71934115  1
  O  O214  1  1.00000000  0.87310072  0.21934115  1
  O  O215  1  1.00000000  0.87310072  0.71934115  1
  O  O216  1  0.16666667  -0.12310072  0.46934115  1
  O  O217  1  0.16666667  -0.12310072  0.96934115  1
  O  O218  1  0.16666667  0.37689928  0.46934115  1
  O  O219  1  0.16666667  0.37689928  0.96934115  1
  O  O220  1  0.50000000  -0.12310072  0.46934115  1
  O  O221  1  0.50000000  -0.12310072  0.96934115  1
  O  O222  1  0.50000000  0.37689928  0.46934115  1
  O  O223  1  0.50000000  0.37689928  0.96934115  1
  O  O224  1  0.83333333  -0.12310072  0.46934115  1
  O  O225  1  0.83333333  -0.12310072  0.96934115  1
  O  O226  1  0.83333333  0.37689928  0.46934115  1
  O  O227  1  0.83333333  0.37689928  0.96934115  1
  O  O228  1  0.33333333  0.12689928  0.46934115  1
  O  O229  1  0.33333333  0.12689928  0.96934115  1
  O  O230  1  0.33333333  0.62689928  0.46934115  1
  O  O231  1  0.33333333  0.62689928  0.96934115  1
  O  O232  1  0.66666667  0.12689928  0.46934115  1
  O  O233  1  0.66666667  0.12689928  0.96934115  1
  O  O234  1  0.66666667  0.62689928  0.46934115  1
  O  O235  1  0.66666667  0.62689928  0.96934115  1
  O  O236  1  1.00000000  0.12689928  0.46934115  1
  O  O237  1  1.00000000  0.12689928  0.96934115  1
  O  O238  1  1.00000000  0.62689928  0.46934115  1
  O  O239  1  1.00000000  0.62689928  0.96934115  1
  O  O240  1  0.16666667  -0.12310072  0.28065885  1
  O  O241  1  0.16666667  -0.12310072  0.78065885  1
  O  O242  1  0.16666667  0.37689928  0.28065885  1
  O  O243  1  0.16666667  0.37689928  0.78065885  1
  O  O244  1  0.50000000  -0.12310072  0.28065885  1
  O  O245  1  0.50000000  -0.12310072  0.78065885  1
  O  O246  1  0.50000000  0.37689928  0.28065885  1
  O  O247  1  0.50000000  0.37689928  0.78065885  1
  O  O248  1  0.83333333  -0.12310072  0.28065885  1
  O  O249  1  0.83333333  -0.12310072  0.78065885  1
  O  O250  1  0.83333333  0.37689928  0.28065885  1
  O  O251  1  0.83333333  0.37689928  0.78065885  1
  O  O252  1  0.33333333  0.12689928  0.28065885  1
  O  O253  1  0.33333333  0.12689928  0.78065885  1
  O  O254  1  0.33333333  0.62689928  0.28065885  1
  O  O255  1  0.33333333  0.62689928  0.78065885  1
  O  O256  1  0.66666667  0.12689928  0.28065885  1
  O  O257  1  0.66666667  0.12689928  0.78065885  1
  O  O258  1  0.66666667  0.62689928  0.28065885  1
  O  O259  1  0.66666667  0.62689928  0.78065885  1
  O  O260  1  1.00000000  0.12689928  0.28065885  1
  O  O261  1  1.00000000  0.12689928  0.78065885  1
  O  O262  1  1.00000000  0.62689928  0.28065885  1
  O  O263  1  1.00000000  0.62689928  0.78065885  1
  O  O264  1  0.16666667  0.12310072  0.03065885  1
  O  O265  1  0.16666667  0.12310072  0.53065885  1
  O  O266  1  0.16666667  0.62310072  0.03065885  1
  O  O267  1  0.16666667  0.62310072  0.53065885  1
  O  O268  1  0.50000000  0.12310072  0.03065885  1
  O  O269  1  0.50000000  0.12310072  0.53065885  1
  O  O270  1  0.50000000  0.62310072  0.03065885  1
  O  O271  1  0.50000000  0.62310072  0.53065885  1
  O  O272  1  0.83333333  0.12310072  0.03065885  1
  O  O273  1  0.83333333  0.12310072  0.53065885  1
  O  O274  1  0.83333333  0.62310072  0.03065885  1
  O  O275  1  0.83333333  0.62310072  0.53065885  1
  O  O276  1  0.33333333  0.37310072  0.03065885  1
  O  O277  1  0.33333333  0.37310072  0.53065885  1
  O  O278  1  0.33333333  0.87310072  0.03065885  1
  O  O279  1  0.33333333  0.87310072  0.53065885  1
  O  O280  1  0.66666667  0.37310072  0.03065885  1
  O  O281  1  0.66666667  0.37310072  0.53065885  1
  O  O282  1  0.66666667  0.87310072  0.03065885  1
  O  O283  1  0.66666667  0.87310072  0.53065885  1
  O  O284  1  1.00000000  0.37310072  0.03065885  1
  O  O285  1  1.00000000  0.37310072  0.53065885  1
  O  O286  1  1.00000000  0.87310072  0.03065885  1
  O  O287  1  1.00000000  0.87310072  0.53065885  1
