# generated using pymatgen
data_NaCaAsO4
_symmetry_space_group_name_H-M   'P 1'
_cell_length_a   11.45741876
_cell_length_b   13.22445488
_cell_length_c   10.42564713
_cell_angle_alpha   90.00000000
_cell_angle_beta   90.00000000
_cell_angle_gamma   90.00000000
_symmetry_Int_Tables_number   1
_chemical_formula_structural   NaCaAsO4
_chemical_formula_sum   'Na16 Ca16 As16 O64'
_cell_volume   1579.67442501
_cell_formula_units_Z   16
loop_
 _symmetry_equiv_pos_site_id
 _symmetry_equiv_pos_as_xyz
  1  'x, y, z'
loop_
 _atom_site_type_symbol
 _atom_site_label
 _atom_site_symmetry_multiplicity
 _atom_site_fract_x
 _atom_site_fract_y
 _atom_site_fract_z
 _atom_site_occupancy
  Na  Na0  1  0.50000000  0.00000000  0.00000000  1
  Na  Na1  1  0.50000000  0.00000000  0.50000000  1
  Na  Na2  1  0.50000000  0.50000000  0.00000000  1
  Na  Na3  1  0.50000000  0.50000000  0.50000000  1
  Na  Na4  1  0.00000000  0.25000000  0.25000000  1
  Na  Na5  1  0.00000000  0.25000000  0.75000000  1
  Na  Na6  1  0.00000000  0.75000000  0.25000000  1
  Na  Na7  1  0.00000000  0.75000000  0.75000000  1
  Na  Na8  1  0.50000000  0.25000000  0.00000000  1
  Na  Na9  1  0.50000000  0.25000000  0.50000000  1
  Na  Na10  1  0.50000000  0.75000000  0.00000000  1
  Na  Na11  1  0.50000000  0.75000000  0.50000000  1
  Na  Na12  1  0.00000000  0.00000000  0.25000000  1
  Na  Na13  1  0.00000000  0.00000000  0.75000000  1
  Na  Na14  1  0.00000000  0.50000000  0.25000000  1
  Na  Na15  1  0.00000000  0.50000000  0.75000000  1
  Ca  Ca16  1  0.72032757  0.37500000  0.25267693  1
  Ca  Ca17  1  0.72032757  0.37500000  0.75267693  1
  Ca  Ca18  1  0.72032757  0.87500000  0.25267693  1
  Ca  Ca19  1  0.72032757  0.87500000  0.75267693  1
  Ca  Ca20  1  0.22032757  0.37500000  0.49732307  1
  Ca  Ca21  1  0.22032757  0.37500000  0.99732307  1
  Ca  Ca22  1  0.22032757  0.87500000  0.49732307  1
  Ca  Ca23  1  0.22032757  0.87500000  0.99732307  1
  Ca  Ca24  1  0.27967243  0.12500000  0.24732307  1
  Ca  Ca25  1  0.27967243  0.12500000  0.74732307  1
  Ca  Ca26  1  0.27967243  0.62500000  0.24732307  1
  Ca  Ca27  1  0.27967243  0.62500000  0.74732307  1
  Ca  Ca28  1  0.77967243  0.12500000  0.00267693  1
  Ca  Ca29  1  0.77967243  0.12500000  0.50267693  1
  Ca  Ca30  1  0.77967243  0.62500000  0.00267693  1
  Ca  Ca31  1  0.77967243  0.62500000  0.50267693  1
  As  As32  1  0.40334985  0.37500000  0.21590040  1
  As  As33  1  0.40334985  0.37500000  0.71590040  1
  As  As34  1  0.40334985  0.87500000  0.21590040  1
  As  As35  1  0.40334985  0.87500000  0.71590040  1
  As  As36  1  0.90334985  0.37500000  0.03409960  1
  As  As37  1  0.90334985  0.37500000  0.53409960  1
  As  As38  1  0.90334985  0.87500000  0.03409960  1
  As  As39  1  0.90334985  0.87500000  0.53409960  1
  As  As40  1  0.59665015  0.12500000  0.28409960  1
  As  As41  1  0.59665015  0.12500000  0.78409960  1
  As  As42  1  0.59665015  0.62500000  0.28409960  1
  As  As43  1  0.59665015  0.62500000  0.78409960  1
  As  As44  1  0.09665015  0.12500000  0.46590040  1
  As  As45  1  0.09665015  0.12500000  0.96590040  1
  As  As46  1  0.09665015  0.62500000  0.46590040  1
  As  As47  1  0.09665015  0.62500000  0.96590040  1
  O  O48  1  0.54193636  0.37500000  0.15484958  1
  O  O49  1  0.54193636  0.37500000  0.65484958  1
  O  O50  1  0.54193636  0.87500000  0.15484958  1
  O  O51  1  0.54193636  0.87500000  0.65484958  1
  O  O52  1  0.04193636  0.37500000  0.09515042  1
  O  O53  1  0.04193636  0.37500000  0.59515042  1
  O  O54  1  0.04193636  0.87500000  0.09515042  1
  O  O55  1  0.04193636  0.87500000  0.59515042  1
  O  O56  1  0.45806364  0.12500000  0.34515042  1
  O  O57  1  0.45806364  0.12500000  0.84515042  1
  O  O58  1  0.45806364  0.62500000  0.34515042  1
  O  O59  1  0.45806364  0.62500000  0.84515042  1
  O  O60  1  0.95806364  0.12500000  0.40484958  1
  O  O61  1  0.95806364  0.12500000  0.90484958  1
  O  O62  1  0.95806364  0.62500000  0.40484958  1
  O  O63  1  0.95806364  0.62500000  0.90484958  1
  O  O64  1  0.39782342  0.37500000  0.37895107  1
  O  O65  1  0.39782342  0.37500000  0.87895107  1
  O  O66  1  0.39782342  0.87500000  0.37895107  1
  O  O67  1  0.39782342  0.87500000  0.87895107  1
  O  O68  1  0.89782342  0.37500000  0.37104893  1
  O  O69  1  0.89782342  0.37500000  0.87104893  1
  O  O70  1  0.89782342  0.87500000  0.37104893  1
  O  O71  1  0.89782342  0.87500000  0.87104893  1
  O  O72  1  0.60217658  0.12500000  0.12104893  1
  O  O73  1  0.60217658  0.12500000  0.62104893  1
  O  O74  1  0.60217658  0.62500000  0.12104893  1
  O  O75  1  0.60217658  0.62500000  0.62104893  1
  O  O76  1  0.10217658  0.12500000  0.12895107  1
  O  O77  1  0.10217658  0.12500000  0.62895107  1
  O  O78  1  0.10217658  0.62500000  0.12895107  1
  O  O79  1  0.10217658  0.62500000  0.62895107  1
  O  O80  1  0.33224919  0.27379053  0.14592897  1
  O  O81  1  0.33224919  0.27379053  0.64592897  1
  O  O82  1  0.33224919  0.77379053  0.14592897  1
  O  O83  1  0.33224919  0.77379053  0.64592897  1
  O  O84  1  0.83224919  0.47620947  0.10407103  1
  O  O85  1  0.83224919  0.47620947  0.60407103  1
  O  O86  1  0.83224919  0.97620947  0.10407103  1
  O  O87  1  0.83224919  0.97620947  0.60407103  1
  O  O88  1  0.66775081  0.02379053  0.35407103  1
  O  O89  1  0.66775081  0.02379053  0.85407103  1
  O  O90  1  0.66775081  0.52379053  0.35407103  1
  O  O91  1  0.66775081  0.52379053  0.85407103  1
  O  O92  1  0.16775081  0.22620947  0.39592897  1
  O  O93  1  0.16775081  0.22620947  0.89592897  1
  O  O94  1  0.16775081  0.72620947  0.39592897  1
  O  O95  1  0.16775081  0.72620947  0.89592897  1
  O  O96  1  0.66775081  0.22620947  0.35407103  1
  O  O97  1  0.66775081  0.22620947  0.85407103  1
  O  O98  1  0.66775081  0.72620947  0.35407103  1
  O  O99  1  0.66775081  0.72620947  0.85407103  1
  O  O100  1  0.16775081  0.02379053  0.39592897  1
  O  O101  1  0.16775081  0.02379053  0.89592897  1
  O  O102  1  0.16775081  0.52379053  0.39592897  1
  O  O103  1  0.16775081  0.52379053  0.89592897  1
  O  O104  1  0.33224919  0.47620947  0.14592897  1
  O  O105  1  0.33224919  0.47620947  0.64592897  1
  O  O106  1  0.33224919  0.97620947  0.14592897  1
  O  O107  1  0.33224919  0.97620947  0.64592897  1
  O  O108  1  0.83224919  0.27379053  0.10407103  1
  O  O109  1  0.83224919  0.27379053  0.60407103  1
  O  O110  1  0.83224919  0.77379053  0.10407103  1
  O  O111  1  0.83224919  0.77379053  0.60407103  1
