# generated using pymatgen
data_ZrGeO4
_symmetry_space_group_name_H-M   'P 1'
_cell_length_a   9.77819783
_cell_length_b   9.77819783
_cell_length_c   10.54344866
_cell_angle_alpha   90.00000000
_cell_angle_beta   90.00000000
_cell_angle_gamma   90.00000000
_symmetry_Int_Tables_number   1
_chemical_formula_structural   ZrGeO4
_chemical_formula_sum   'Zr16 Ge16 O64'
_cell_volume   1008.09236783
_cell_formula_units_Z   16
loop_
 _symmetry_equiv_pos_site_id
 _symmetry_equiv_pos_as_xyz
  1  'x, y, z'
loop_
 _atom_site_type_symbol
 _atom_site_label
 _atom_site_symmetry_multiplicity
 _atom_site_fract_x
 _atom_site_fract_y
 _atom_site_fract_z
 _atom_site_occupancy
  Zr  Zr0  1  0.00000000  0.25000000  0.25000000  1
  Zr  Zr1  1  0.50000000  0.25000000  0.25000000  1
  Zr  Zr2  1  0.00000000  -0.25000000  0.25000000  1
  Zr  Zr3  1  0.50000000  -0.25000000  0.25000000  1
  Zr  Zr4  1  0.25000000  0.00000000  0.75000000  1
  Zr  Zr5  1  0.75000000  0.00000000  0.75000000  1
  Zr  Zr6  1  0.25000000  -0.50000000  0.75000000  1
  Zr  Zr7  1  0.75000000  -0.50000000  0.75000000  1
  Zr  Zr8  1  0.00000000  0.50000000  0.50000000  1
  Zr  Zr9  1  0.50000000  0.50000000  0.50000000  1
  Zr  Zr10  1  0.00000000  0.00000000  0.50000000  1
  Zr  Zr11  1  0.50000000  0.00000000  0.50000000  1
  Zr  Zr12  1  0.25000000  0.25000000  1.00000000  1
  Zr  Zr13  1  0.75000000  0.25000000  1.00000000  1
  Zr  Zr14  1  0.25000000  -0.25000000  1.00000000  1
  Zr  Zr15  1  0.75000000  -0.25000000  1.00000000  1
  Ge  Ge16  1  0.25000000  0.50000000  0.25000000  1
  Ge  Ge17  1  0.75000000  0.50000000  0.25000000  1
  Ge  Ge18  1  0.25000000  0.00000000  0.25000000  1
  Ge  Ge19  1  0.75000000  0.00000000  0.25000000  1
  Ge  Ge20  1  0.50000000  0.25000000  0.75000000  1
  Ge  Ge21  1  1.00000000  0.25000000  0.75000000  1
  Ge  Ge22  1  0.50000000  -0.25000000  0.75000000  1
  Ge  Ge23  1  1.00000000  -0.25000000  0.75000000  1
  Ge  Ge24  1  0.00000000  0.50000000  0.00000000  1
  Ge  Ge25  1  0.50000000  0.50000000  0.00000000  1
  Ge  Ge26  1  0.00000000  0.00000000  0.00000000  1
  Ge  Ge27  1  0.50000000  0.00000000  0.00000000  1
  Ge  Ge28  1  0.25000000  0.25000000  0.50000000  1
  Ge  Ge29  1  0.75000000  0.25000000  0.50000000  1
  Ge  Ge30  1  0.25000000  -0.25000000  0.50000000  1
  Ge  Ge31  1  0.75000000  -0.25000000  0.50000000  1
  O  O32  1  0.11605431  0.58841868  0.33389272  1
  O  O33  1  0.61605431  0.58841868  0.33389272  1
  O  O34  1  0.11605431  0.08841868  0.33389272  1
  O  O35  1  0.61605431  0.08841868  0.33389272  1
  O  O36  1  0.36605431  0.33841868  0.83389272  1
  O  O37  1  0.86605431  0.33841868  0.83389272  1
  O  O38  1  0.36605431  -0.16158132  0.83389272  1
  O  O39  1  0.86605431  -0.16158132  0.83389272  1
  O  O40  1  0.08841868  0.13394569  0.08389272  1
  O  O41  1  0.58841868  0.13394569  0.08389272  1
  O  O42  1  0.08841868  -0.36605431  0.08389272  1
  O  O43  1  0.58841868  -0.36605431  0.08389272  1
  O  O44  1  0.33841868  -0.11605431  0.58389272  1
  O  O45  1  0.83841868  -0.11605431  0.58389272  1
  O  O46  1  0.33841868  -0.61605431  0.58389272  1
  O  O47  1  0.83841868  -0.61605431  0.58389272  1
  O  O48  1  0.16158132  0.61605431  0.58389272  1
  O  O49  1  0.66158132  0.61605431  0.58389272  1
  O  O50  1  0.16158132  0.11605431  0.58389272  1
  O  O51  1  0.66158132  0.11605431  0.58389272  1
  O  O52  1  0.41158132  0.36605431  1.08389272  1
  O  O53  1  0.91158132  0.36605431  1.08389272  1
  O  O54  1  0.41158132  -0.13394569  1.08389272  1
  O  O55  1  0.91158132  -0.13394569  1.08389272  1
  O  O56  1  0.13394569  0.16158132  -0.16610728  1
  O  O57  1  0.63394569  0.16158132  -0.16610728  1
  O  O58  1  0.13394569  -0.33841868  -0.16610728  1
  O  O59  1  0.63394569  -0.33841868  -0.16610728  1
  O  O60  1  0.38394569  -0.08841868  0.33389272  1
  O  O61  1  0.88394569  -0.08841868  0.33389272  1
  O  O62  1  0.38394569  -0.58841868  0.33389272  1
  O  O63  1  0.88394569  -0.58841868  0.33389272  1
  O  O64  1  0.11605431  0.33841868  0.41610728  1
  O  O65  1  0.61605431  0.33841868  0.41610728  1
  O  O66  1  0.11605431  -0.16158132  0.41610728  1
  O  O67  1  0.61605431  -0.16158132  0.41610728  1
  O  O68  1  0.36605431  0.08841868  0.91610728  1
  O  O69  1  0.86605431  0.08841868  0.91610728  1
  O  O70  1  0.36605431  -0.41158132  0.91610728  1
  O  O71  1  0.86605431  -0.41158132  0.91610728  1
  O  O72  1  0.08841868  0.38394569  0.66610728  1
  O  O73  1  0.58841868  0.38394569  0.66610728  1
  O  O74  1  0.08841868  -0.11605431  0.66610728  1
  O  O75  1  0.58841868  -0.11605431  0.66610728  1
  O  O76  1  0.33841868  0.13394569  1.16610728  1
  O  O77  1  0.83841868  0.13394569  1.16610728  1
  O  O78  1  0.33841868  -0.36605431  1.16610728  1
  O  O79  1  0.83841868  -0.36605431  1.16610728  1
  O  O80  1  0.16158132  0.36605431  0.16610728  1
  O  O81  1  0.66158132  0.36605431  0.16610728  1
  O  O82  1  0.16158132  -0.13394569  0.16610728  1
  O  O83  1  0.66158132  -0.13394569  0.16610728  1
  O  O84  1  0.41158132  0.11605431  0.66610728  1
  O  O85  1  0.91158132  0.11605431  0.66610728  1
  O  O86  1  0.41158132  -0.38394569  0.66610728  1
  O  O87  1  0.91158132  -0.38394569  0.66610728  1
  O  O88  1  0.13394569  0.41158132  -0.08389272  1
  O  O89  1  0.63394569  0.41158132  -0.08389272  1
  O  O90  1  0.13394569  -0.08841868  -0.08389272  1
  O  O91  1  0.63394569  -0.08841868  -0.08389272  1
  O  O92  1  0.38394569  0.16158132  0.41610728  1
  O  O93  1  0.88394569  0.16158132  0.41610728  1
  O  O94  1  0.38394569  -0.33841868  0.41610728  1
  O  O95  1  0.88394569  -0.33841868  0.41610728  1
