# generated using pymatgen
data_CaSnO3
_symmetry_space_group_name_H-M   'P 1'
_cell_length_a   16.52087794
_cell_length_b   16.52087794
_cell_length_c   15.23743158
_cell_angle_alpha   90.00000000
_cell_angle_beta   90.00000000
_cell_angle_gamma   120.00000000
_symmetry_Int_Tables_number   1
_chemical_formula_structural   CaSnO3
_chemical_formula_sum   'Ca54 Sn54 O162'
_cell_volume   3601.70920095
_cell_formula_units_Z   54
loop_
 _symmetry_equiv_pos_site_id
 _symmetry_equiv_pos_as_xyz
  1  'x, y, z'
loop_
 _atom_site_type_symbol
 _atom_site_label
 _atom_site_symmetry_multiplicity
 _atom_site_fract_x
 _atom_site_fract_y
 _atom_site_fract_z
 _atom_site_occupancy
  Ca  Ca0  1  -0.00000000  -0.00000000  0.36252119  1
  Ca  Ca1  1  -0.00000000  0.33333333  0.36252119  1
  Ca  Ca2  1  0.00000000  0.66666667  0.36252119  1
  Ca  Ca3  1  0.33333333  -0.00000000  0.36252119  1
  Ca  Ca4  1  0.33333333  0.33333333  0.36252119  1
  Ca  Ca5  1  0.33333333  0.66666667  0.36252119  1
  Ca  Ca6  1  0.66666667  -0.00000000  0.36252119  1
  Ca  Ca7  1  0.66666667  0.33333333  0.36252119  1
  Ca  Ca8  1  0.66666667  0.66666667  0.36252119  1
  Ca  Ca9  1  0.22222222  0.11111111  0.69585452  1
  Ca  Ca10  1  0.22222222  0.44444444  0.69585452  1
  Ca  Ca11  1  0.22222222  0.77777778  0.69585452  1
  Ca  Ca12  1  0.55555556  0.11111111  0.69585452  1
  Ca  Ca13  1  0.55555556  0.44444444  0.69585452  1
  Ca  Ca14  1  0.55555556  0.77777778  0.69585452  1
  Ca  Ca15  1  0.88888889  0.11111111  0.69585452  1
  Ca  Ca16  1  0.88888889  0.44444444  0.69585452  1
  Ca  Ca17  1  0.88888889  0.77777778  0.69585452  1
  Ca  Ca18  1  0.11111111  0.22222222  1.02918786  1
  Ca  Ca19  1  0.11111111  0.55555556  1.02918786  1
  Ca  Ca20  1  0.11111111  0.88888889  1.02918786  1
  Ca  Ca21  1  0.44444444  0.22222222  1.02918786  1
  Ca  Ca22  1  0.44444444  0.55555556  1.02918786  1
  Ca  Ca23  1  0.44444444  0.88888889  1.02918786  1
  Ca  Ca24  1  0.77777778  0.22222222  1.02918786  1
  Ca  Ca25  1  0.77777778  0.55555556  1.02918786  1
  Ca  Ca26  1  0.77777778  0.88888889  1.02918786  1
  Ca  Ca27  1  -0.00000000  0.00000000  0.63747881  1
  Ca  Ca28  1  0.00000000  0.33333333  0.63747881  1
  Ca  Ca29  1  0.00000000  0.66666667  0.63747881  1
  Ca  Ca30  1  0.33333333  0.00000000  0.63747881  1
  Ca  Ca31  1  0.33333333  0.33333333  0.63747881  1
  Ca  Ca32  1  0.33333333  0.66666667  0.63747881  1
  Ca  Ca33  1  0.66666667  0.00000000  0.63747881  1
  Ca  Ca34  1  0.66666667  0.33333333  0.63747881  1
  Ca  Ca35  1  0.66666667  0.66666667  0.63747881  1
  Ca  Ca36  1  0.22222222  0.11111111  0.97081214  1
  Ca  Ca37  1  0.22222222  0.44444444  0.97081214  1
  Ca  Ca38  1  0.22222222  0.77777778  0.97081214  1
  Ca  Ca39  1  0.55555556  0.11111111  0.97081214  1
  Ca  Ca40  1  0.55555556  0.44444444  0.97081214  1
  Ca  Ca41  1  0.55555556  0.77777778  0.97081214  1
  Ca  Ca42  1  0.88888889  0.11111111  0.97081214  1
  Ca  Ca43  1  0.88888889  0.44444444  0.97081214  1
  Ca  Ca44  1  0.88888889  0.77777778  0.97081214  1
  Ca  Ca45  1  0.11111111  0.22222222  1.30414548  1
  Ca  Ca46  1  0.11111111  0.55555556  1.30414548  1
  Ca  Ca47  1  0.11111111  0.88888889  1.30414548  1
  Ca  Ca48  1  0.44444444  0.22222222  1.30414548  1
  Ca  Ca49  1  0.44444444  0.55555556  1.30414548  1
  Ca  Ca50  1  0.44444444  0.88888889  1.30414548  1
  Ca  Ca51  1  0.77777778  0.22222222  1.30414548  1
  Ca  Ca52  1  0.77777778  0.55555556  1.30414548  1
  Ca  Ca53  1  0.77777778  0.88888889  1.30414548  1
  Sn  Sn54  1  -0.00000000  -0.00000000  0.15408837  1
  Sn  Sn55  1  0.00000000  0.33333333  0.15408837  1
  Sn  Sn56  1  0.00000000  0.66666667  0.15408837  1
  Sn  Sn57  1  0.33333333  -0.00000000  0.15408837  1
  Sn  Sn58  1  0.33333333  0.33333333  0.15408837  1
  Sn  Sn59  1  0.33333333  0.66666667  0.15408837  1
  Sn  Sn60  1  0.66666667  -0.00000000  0.15408837  1
  Sn  Sn61  1  0.66666667  0.33333333  0.15408837  1
  Sn  Sn62  1  0.66666667  0.66666667  0.15408837  1
  Sn  Sn63  1  0.22222222  0.11111111  0.48742170  1
  Sn  Sn64  1  0.22222222  0.44444444  0.48742170  1
  Sn  Sn65  1  0.22222222  0.77777778  0.48742170  1
  Sn  Sn66  1  0.55555556  0.11111111  0.48742170  1
  Sn  Sn67  1  0.55555556  0.44444444  0.48742170  1
  Sn  Sn68  1  0.55555556  0.77777778  0.48742170  1
  Sn  Sn69  1  0.88888889  0.11111111  0.48742170  1
  Sn  Sn70  1  0.88888889  0.44444444  0.48742170  1
  Sn  Sn71  1  0.88888889  0.77777778  0.48742170  1
  Sn  Sn72  1  0.11111111  0.22222222  0.82075504  1
  Sn  Sn73  1  0.11111111  0.55555556  0.82075504  1
  Sn  Sn74  1  0.11111111  0.88888889  0.82075504  1
  Sn  Sn75  1  0.44444444  0.22222222  0.82075504  1
  Sn  Sn76  1  0.44444444  0.55555556  0.82075504  1
  Sn  Sn77  1  0.44444444  0.88888889  0.82075504  1
  Sn  Sn78  1  0.77777778  0.22222222  0.82075504  1
  Sn  Sn79  1  0.77777778  0.55555556  0.82075504  1
  Sn  Sn80  1  0.77777778  0.88888889  0.82075504  1
  Sn  Sn81  1  -0.00000000  0.00000000  0.84591163  1
  Sn  Sn82  1  -0.00000000  0.33333333  0.84591163  1
  Sn  Sn83  1  0.00000000  0.66666667  0.84591163  1
  Sn  Sn84  1  0.33333333  0.00000000  0.84591163  1
  Sn  Sn85  1  0.33333333  0.33333333  0.84591163  1
  Sn  Sn86  1  0.33333333  0.66666667  0.84591163  1
  Sn  Sn87  1  0.66666667  0.00000000  0.84591163  1
  Sn  Sn88  1  0.66666667  0.33333333  0.84591163  1
  Sn  Sn89  1  0.66666667  0.66666667  0.84591163  1
  Sn  Sn90  1  0.22222222  0.11111111  1.17924496  1
  Sn  Sn91  1  0.22222222  0.44444444  1.17924496  1
  Sn  Sn92  1  0.22222222  0.77777778  1.17924496  1
  Sn  Sn93  1  0.55555556  0.11111111  1.17924496  1
  Sn  Sn94  1  0.55555556  0.44444444  1.17924496  1
  Sn  Sn95  1  0.55555556  0.77777778  1.17924496  1
  Sn  Sn96  1  0.88888889  0.11111111  1.17924496  1
  Sn  Sn97  1  0.88888889  0.44444444  1.17924496  1
  Sn  Sn98  1  0.88888889  0.77777778  1.17924496  1
  Sn  Sn99  1  0.11111111  0.22222222  1.51257830  1
  Sn  Sn100  1  0.11111111  0.55555556  1.51257830  1
  Sn  Sn101  1  0.11111111  0.88888889  1.51257830  1
  Sn  Sn102  1  0.44444444  0.22222222  1.51257830  1
  Sn  Sn103  1  0.44444444  0.55555556  1.51257830  1
  Sn  Sn104  1  0.44444444  0.88888889  1.51257830  1
  Sn  Sn105  1  0.77777778  0.22222222  1.51257830  1
  Sn  Sn106  1  0.77777778  0.55555556  1.51257830  1
  Sn  Sn107  1  0.77777778  0.88888889  1.51257830  1
  O  O108  1  0.00694602  0.12930995  0.42311792  1
  O  O109  1  0.00694602  0.46264329  0.42311792  1
  O  O110  1  0.00694602  0.79597662  0.42311792  1
  O  O111  1  0.34027936  0.12930995  0.42311792  1
  O  O112  1  0.34027936  0.46264329  0.42311792  1
  O  O113  1  0.34027936  0.79597662  0.42311792  1
  O  O114  1  0.67361269  0.12930995  0.42311792  1
  O  O115  1  0.67361269  0.46264329  0.42311792  1
  O  O116  1  0.67361269  0.79597662  0.42311792  1
  O  O117  1  0.22916825  0.24042106  0.75645126  1
  O  O118  1  0.22916825  0.57375440  0.75645126  1
  O  O119  1  0.22916825  0.90708773  0.75645126  1
  O  O120  1  0.56250158  0.24042106  0.75645126  1
  O  O121  1  0.56250158  0.57375440  0.75645126  1
  O  O122  1  0.56250158  0.90708773  0.75645126  1
  O  O123  1  0.89583491  0.24042106  0.75645126  1
  O  O124  1  0.89583491  0.57375440  0.75645126  1
  O  O125  1  0.89583491  0.90708773  0.75645126  1
  O  O126  1  0.11805713  0.35153217  1.08978459  1
  O  O127  1  0.11805713  0.68486551  1.08978459  1
  O  O128  1  0.11805713  1.01819884  1.08978459  1
  O  O129  1  0.45139047  0.35153217  1.08978459  1
  O  O130  1  0.45139047  0.68486551  1.08978459  1
  O  O131  1  0.45139047  1.01819884  1.08978459  1
  O  O132  1  0.78472380  0.35153217  1.08978459  1
  O  O133  1  0.78472380  0.68486551  1.08978459  1
  O  O134  1  0.78472380  1.01819884  1.08978459  1
  O  O135  1  -0.12930995  -0.12236393  0.42311792  1
  O  O136  1  -0.12930995  0.21096940  0.42311792  1
  O  O137  1  -0.12930995  0.54430274  0.42311792  1
  O  O138  1  0.20402338  -0.12236393  0.42311792  1
  O  O139  1  0.20402338  0.21096940  0.42311792  1
  O  O140  1  0.20402338  0.54430274  0.42311792  1
  O  O141  1  0.53735671  -0.12236393  0.42311792  1
  O  O142  1  0.53735671  0.21096940  0.42311792  1
  O  O143  1  0.53735671  0.54430274  0.42311792  1
  O  O144  1  0.09291227  -0.01125282  0.75645126  1
  O  O145  1  0.09291227  0.32208052  0.75645126  1
  O  O146  1  0.09291227  0.65541385  0.75645126  1
  O  O147  1  0.42624560  -0.01125282  0.75645126  1
  O  O148  1  0.42624560  0.32208052  0.75645126  1
  O  O149  1  0.42624560  0.65541385  0.75645126  1
  O  O150  1  0.75957894  -0.01125282  0.75645126  1
  O  O151  1  0.75957894  0.32208052  0.75645126  1
  O  O152  1  0.75957894  0.65541385  0.75645126  1
  O  O153  1  -0.01819884  0.09985829  1.08978459  1
  O  O154  1  -0.01819884  0.43319163  1.08978459  1
  O  O155  1  -0.01819884  0.76652496  1.08978459  1
  O  O156  1  0.31513449  0.09985829  1.08978459  1
  O  O157  1  0.31513449  0.43319163  1.08978459  1
  O  O158  1  0.31513449  0.76652496  1.08978459  1
  O  O159  1  0.64846783  0.09985829  1.08978459  1
  O  O160  1  0.64846783  0.43319163  1.08978459  1
  O  O161  1  0.64846783  0.76652496  1.08978459  1
  O  O162  1  0.12236393  -0.00694602  0.42311792  1
  O  O163  1  0.12236393  0.32638731  0.42311792  1
  O  O164  1  0.12236393  0.65972064  0.42311792  1
  O  O165  1  0.45569726  -0.00694602  0.42311792  1
  O  O166  1  0.45569726  0.32638731  0.42311792  1
  O  O167  1  0.45569726  0.65972064  0.42311792  1
  O  O168  1  0.78903060  -0.00694602  0.42311792  1
  O  O169  1  0.78903060  0.32638731  0.42311792  1
  O  O170  1  0.78903060  0.65972064  0.42311792  1
  O  O171  1  0.34458615  0.10416509  0.75645126  1
  O  O172  1  0.34458615  0.43749842  0.75645126  1
  O  O173  1  0.34458615  0.77083175  0.75645126  1
  O  O174  1  0.67791948  0.10416509  0.75645126  1
  O  O175  1  0.67791948  0.43749842  0.75645126  1
  O  O176  1  0.67791948  0.77083175  0.75645126  1
  O  O177  1  1.01125282  0.10416509  0.75645126  1
  O  O178  1  1.01125282  0.43749842  0.75645126  1
  O  O179  1  1.01125282  0.77083175  0.75645126  1
  O  O180  1  0.23347504  0.21527620  1.08978459  1
  O  O181  1  0.23347504  0.54860953  1.08978459  1
  O  O182  1  0.23347504  0.88194287  1.08978459  1
  O  O183  1  0.56680837  0.21527620  1.08978459  1
  O  O184  1  0.56680837  0.54860953  1.08978459  1
  O  O185  1  0.56680837  0.88194287  1.08978459  1
  O  O186  1  0.90014171  0.21527620  1.08978459  1
  O  O187  1  0.90014171  0.54860953  1.08978459  1
  O  O188  1  0.90014171  0.88194287  1.08978459  1
  O  O189  1  -0.00694602  -0.12930995  0.57688208  1
  O  O190  1  -0.00694602  0.20402338  0.57688208  1
  O  O191  1  -0.00694602  0.53735671  0.57688208  1
  O  O192  1  0.32638731  -0.12930995  0.57688208  1
  O  O193  1  0.32638731  0.20402338  0.57688208  1
  O  O194  1  0.32638731  0.53735671  0.57688208  1
  O  O195  1  0.65972064  -0.12930995  0.57688208  1
  O  O196  1  0.65972064  0.20402338  0.57688208  1
  O  O197  1  0.65972064  0.53735671  0.57688208  1
  O  O198  1  0.21527620  -0.01819884  0.91021541  1
  O  O199  1  0.21527620  0.31513449  0.91021541  1
  O  O200  1  0.21527620  0.64846783  0.91021541  1
  O  O201  1  0.54860953  -0.01819884  0.91021541  1
  O  O202  1  0.54860953  0.31513449  0.91021541  1
  O  O203  1  0.54860953  0.64846783  0.91021541  1
  O  O204  1  0.88194287  -0.01819884  0.91021541  1
  O  O205  1  0.88194287  0.31513449  0.91021541  1
  O  O206  1  0.88194287  0.64846783  0.91021541  1
  O  O207  1  0.10416509  0.09291227  1.24354874  1
  O  O208  1  0.10416509  0.42624560  1.24354874  1
  O  O209  1  0.10416509  0.75957894  1.24354874  1
  O  O210  1  0.43749842  0.09291227  1.24354874  1
  O  O211  1  0.43749842  0.42624560  1.24354874  1
  O  O212  1  0.43749842  0.75957894  1.24354874  1
  O  O213  1  0.77083175  0.09291227  1.24354874  1
  O  O214  1  0.77083175  0.42624560  1.24354874  1
  O  O215  1  0.77083175  0.75957894  1.24354874  1
  O  O216  1  -0.12236393  0.00694602  0.57688208  1
  O  O217  1  -0.12236393  0.34027936  0.57688208  1
  O  O218  1  -0.12236393  0.67361269  0.57688208  1
  O  O219  1  0.21096940  0.00694602  0.57688208  1
  O  O220  1  0.21096940  0.34027936  0.57688208  1
  O  O221  1  0.21096940  0.67361269  0.57688208  1
  O  O222  1  0.54430274  0.00694602  0.57688208  1
  O  O223  1  0.54430274  0.34027936  0.57688208  1
  O  O224  1  0.54430274  0.67361269  0.57688208  1
  O  O225  1  0.09985829  0.11805713  0.91021541  1
  O  O226  1  0.09985829  0.45139047  0.91021541  1
  O  O227  1  0.09985829  0.78472380  0.91021541  1
  O  O228  1  0.43319163  0.11805713  0.91021541  1
  O  O229  1  0.43319163  0.45139047  0.91021541  1
  O  O230  1  0.43319163  0.78472380  0.91021541  1
  O  O231  1  0.76652496  0.11805713  0.91021541  1
  O  O232  1  0.76652496  0.45139047  0.91021541  1
  O  O233  1  0.76652496  0.78472380  0.91021541  1
  O  O234  1  -0.01125282  0.22916825  1.24354874  1
  O  O235  1  -0.01125282  0.56250158  1.24354874  1
  O  O236  1  -0.01125282  0.89583491  1.24354874  1
  O  O237  1  0.32208052  0.22916825  1.24354874  1
  O  O238  1  0.32208052  0.56250158  1.24354874  1
  O  O239  1  0.32208052  0.89583491  1.24354874  1
  O  O240  1  0.65541385  0.22916825  1.24354874  1
  O  O241  1  0.65541385  0.56250158  1.24354874  1
  O  O242  1  0.65541385  0.89583491  1.24354874  1
  O  O243  1  0.12930995  0.12236393  0.57688208  1
  O  O244  1  0.12930995  0.45569726  0.57688208  1
  O  O245  1  0.12930995  0.78903060  0.57688208  1
  O  O246  1  0.46264329  0.12236393  0.57688208  1
  O  O247  1  0.46264329  0.45569726  0.57688208  1
  O  O248  1  0.46264329  0.78903060  0.57688208  1
  O  O249  1  0.79597662  0.12236393  0.57688208  1
  O  O250  1  0.79597662  0.45569726  0.57688208  1
  O  O251  1  0.79597662  0.78903060  0.57688208  1
  O  O252  1  0.35153217  0.23347504  0.91021541  1
  O  O253  1  0.35153217  0.56680837  0.91021541  1
  O  O254  1  0.35153217  0.90014171  0.91021541  1
  O  O255  1  0.68486551  0.23347504  0.91021541  1
  O  O256  1  0.68486551  0.56680837  0.91021541  1
  O  O257  1  0.68486551  0.90014171  0.91021541  1
  O  O258  1  1.01819884  0.23347504  0.91021541  1
  O  O259  1  1.01819884  0.56680837  0.91021541  1
  O  O260  1  1.01819884  0.90014171  0.91021541  1
  O  O261  1  0.24042106  0.34458615  1.24354874  1
  O  O262  1  0.24042106  0.67791948  1.24354874  1
  O  O263  1  0.24042106  1.01125282  1.24354874  1
  O  O264  1  0.57375440  0.34458615  1.24354874  1
  O  O265  1  0.57375440  0.67791948  1.24354874  1
  O  O266  1  0.57375440  1.01125282  1.24354874  1
  O  O267  1  0.90708773  0.34458615  1.24354874  1
  O  O268  1  0.90708773  0.67791948  1.24354874  1
  O  O269  1  0.90708773  1.01125282  1.24354874  1
