# generated using pymatgen
data_GaSbO4
_symmetry_space_group_name_H-M   'P 1'
_cell_length_a   12.79660444
_cell_length_b   13.27890878
_cell_length_c   12.31075729
_cell_angle_alpha   90.00000000
_cell_angle_beta   90.00000000
_cell_angle_gamma   90.00000000
_symmetry_Int_Tables_number   1
_chemical_formula_structural   GaSbO4
_chemical_formula_sum   'Ga32 Sb32 O128'
_cell_volume   2091.90473163
_cell_formula_units_Z   32
loop_
 _symmetry_equiv_pos_site_id
 _symmetry_equiv_pos_as_xyz
  1  'x, y, z'
loop_
 _atom_site_type_symbol
 _atom_site_label
 _atom_site_symmetry_multiplicity
 _atom_site_fract_x
 _atom_site_fract_y
 _atom_site_fract_z
 _atom_site_occupancy
  Ga  Ga0  1  0.25000000  0.00000000  0.12500000  1
  Ga  Ga1  1  0.25000000  0.00000000  0.37500000  1
  Ga  Ga2  1  0.25000000  0.00000000  0.62500000  1
  Ga  Ga3  1  0.25000000  0.00000000  0.87500000  1
  Ga  Ga4  1  0.25000000  0.50000000  0.12500000  1
  Ga  Ga5  1  0.25000000  0.50000000  0.37500000  1
  Ga  Ga6  1  0.25000000  0.50000000  0.62500000  1
  Ga  Ga7  1  0.25000000  0.50000000  0.87500000  1
  Ga  Ga8  1  0.75000000  0.00000000  0.12500000  1
  Ga  Ga9  1  0.75000000  0.00000000  0.37500000  1
  Ga  Ga10  1  0.75000000  0.00000000  0.62500000  1
  Ga  Ga11  1  0.75000000  0.00000000  0.87500000  1
  Ga  Ga12  1  0.75000000  0.50000000  0.12500000  1
  Ga  Ga13  1  0.75000000  0.50000000  0.37500000  1
  Ga  Ga14  1  0.75000000  0.50000000  0.62500000  1
  Ga  Ga15  1  0.75000000  0.50000000  0.87500000  1
  Ga  Ga16  1  0.50000000  0.25000000  0.12500000  1
  Ga  Ga17  1  0.50000000  0.25000000  0.37500000  1
  Ga  Ga18  1  0.50000000  0.25000000  0.62500000  1
  Ga  Ga19  1  0.50000000  0.25000000  0.87500000  1
  Ga  Ga20  1  0.50000000  0.75000000  0.12500000  1
  Ga  Ga21  1  0.50000000  0.75000000  0.37500000  1
  Ga  Ga22  1  0.50000000  0.75000000  0.62500000  1
  Ga  Ga23  1  0.50000000  0.75000000  0.87500000  1
  Ga  Ga24  1  1.00000000  0.25000000  0.12500000  1
  Ga  Ga25  1  1.00000000  0.25000000  0.37500000  1
  Ga  Ga26  1  1.00000000  0.25000000  0.62500000  1
  Ga  Ga27  1  1.00000000  0.25000000  0.87500000  1
  Ga  Ga28  1  1.00000000  0.75000000  0.12500000  1
  Ga  Ga29  1  1.00000000  0.75000000  0.37500000  1
  Ga  Ga30  1  1.00000000  0.75000000  0.62500000  1
  Ga  Ga31  1  1.00000000  0.75000000  0.87500000  1
  Sb  Sb32  1  -0.00000000  0.00000000  0.00000000  1
  Sb  Sb33  1  -0.00000000  0.00000000  0.25000000  1
  Sb  Sb34  1  -0.00000000  0.00000000  0.50000000  1
  Sb  Sb35  1  -0.00000000  0.00000000  0.75000000  1
  Sb  Sb36  1  -0.00000000  0.50000000  0.00000000  1
  Sb  Sb37  1  -0.00000000  0.50000000  0.25000000  1
  Sb  Sb38  1  -0.00000000  0.50000000  0.50000000  1
  Sb  Sb39  1  -0.00000000  0.50000000  0.75000000  1
  Sb  Sb40  1  0.50000000  0.00000000  0.00000000  1
  Sb  Sb41  1  0.50000000  0.00000000  0.25000000  1
  Sb  Sb42  1  0.50000000  0.00000000  0.50000000  1
  Sb  Sb43  1  0.50000000  0.00000000  0.75000000  1
  Sb  Sb44  1  0.50000000  0.50000000  0.00000000  1
  Sb  Sb45  1  0.50000000  0.50000000  0.25000000  1
  Sb  Sb46  1  0.50000000  0.50000000  0.50000000  1
  Sb  Sb47  1  0.50000000  0.50000000  0.75000000  1
  Sb  Sb48  1  0.25000000  0.25000000  0.00000000  1
  Sb  Sb49  1  0.25000000  0.25000000  0.25000000  1
  Sb  Sb50  1  0.25000000  0.25000000  0.50000000  1
  Sb  Sb51  1  0.25000000  0.25000000  0.75000000  1
  Sb  Sb52  1  0.25000000  0.75000000  0.00000000  1
  Sb  Sb53  1  0.25000000  0.75000000  0.25000000  1
  Sb  Sb54  1  0.25000000  0.75000000  0.50000000  1
  Sb  Sb55  1  0.25000000  0.75000000  0.75000000  1
  Sb  Sb56  1  0.75000000  0.25000000  0.00000000  1
  Sb  Sb57  1  0.75000000  0.25000000  0.25000000  1
  Sb  Sb58  1  0.75000000  0.25000000  0.50000000  1
  Sb  Sb59  1  0.75000000  0.25000000  0.75000000  1
  Sb  Sb60  1  0.75000000  0.75000000  0.00000000  1
  Sb  Sb61  1  0.75000000  0.75000000  0.25000000  1
  Sb  Sb62  1  0.75000000  0.75000000  0.50000000  1
  Sb  Sb63  1  0.75000000  0.75000000  0.75000000  1
  O  O64  1  0.25000000  0.15240018  0.12500000  1
  O  O65  1  0.25000000  0.15240018  0.37500000  1
  O  O66  1  0.25000000  0.15240018  0.62500000  1
  O  O67  1  0.25000000  0.15240018  0.87500000  1
  O  O68  1  0.25000000  0.65240018  0.12500000  1
  O  O69  1  0.25000000  0.65240018  0.37500000  1
  O  O70  1  0.25000000  0.65240018  0.62500000  1
  O  O71  1  0.25000000  0.65240018  0.87500000  1
  O  O72  1  0.75000000  0.15240018  0.12500000  1
  O  O73  1  0.75000000  0.15240018  0.37500000  1
  O  O74  1  0.75000000  0.15240018  0.62500000  1
  O  O75  1  0.75000000  0.15240018  0.87500000  1
  O  O76  1  0.75000000  0.65240018  0.12500000  1
  O  O77  1  0.75000000  0.65240018  0.37500000  1
  O  O78  1  0.75000000  0.65240018  0.62500000  1
  O  O79  1  0.75000000  0.65240018  0.87500000  1
  O  O80  1  0.50000000  0.40240018  0.12500000  1
  O  O81  1  0.50000000  0.40240018  0.37500000  1
  O  O82  1  0.50000000  0.40240018  0.62500000  1
  O  O83  1  0.50000000  0.40240018  0.87500000  1
  O  O84  1  0.50000000  0.90240018  0.12500000  1
  O  O85  1  0.50000000  0.90240018  0.37500000  1
  O  O86  1  0.50000000  0.90240018  0.62500000  1
  O  O87  1  0.50000000  0.90240018  0.87500000  1
  O  O88  1  1.00000000  0.40240018  0.12500000  1
  O  O89  1  1.00000000  0.40240018  0.37500000  1
  O  O90  1  1.00000000  0.40240018  0.62500000  1
  O  O91  1  1.00000000  0.40240018  0.87500000  1
  O  O92  1  1.00000000  0.90240018  0.12500000  1
  O  O93  1  1.00000000  0.90240018  0.37500000  1
  O  O94  1  1.00000000  0.90240018  0.62500000  1
  O  O95  1  1.00000000  0.90240018  0.87500000  1
  O  O96  1  0.25000000  -0.15240018  0.12500000  1
  O  O97  1  0.25000000  -0.15240018  0.37500000  1
  O  O98  1  0.25000000  -0.15240018  0.62500000  1
  O  O99  1  0.25000000  -0.15240018  0.87500000  1
  O  O100  1  0.25000000  0.34759982  0.12500000  1
  O  O101  1  0.25000000  0.34759982  0.37500000  1
  O  O102  1  0.25000000  0.34759982  0.62500000  1
  O  O103  1  0.25000000  0.34759982  0.87500000  1
  O  O104  1  0.75000000  -0.15240018  0.12500000  1
  O  O105  1  0.75000000  -0.15240018  0.37500000  1
  O  O106  1  0.75000000  -0.15240018  0.62500000  1
  O  O107  1  0.75000000  -0.15240018  0.87500000  1
  O  O108  1  0.75000000  0.34759982  0.12500000  1
  O  O109  1  0.75000000  0.34759982  0.37500000  1
  O  O110  1  0.75000000  0.34759982  0.62500000  1
  O  O111  1  0.75000000  0.34759982  0.87500000  1
  O  O112  1  0.50000000  0.09759982  0.12500000  1
  O  O113  1  0.50000000  0.09759982  0.37500000  1
  O  O114  1  0.50000000  0.09759982  0.62500000  1
  O  O115  1  0.50000000  0.09759982  0.87500000  1
  O  O116  1  0.50000000  0.59759982  0.12500000  1
  O  O117  1  0.50000000  0.59759982  0.37500000  1
  O  O118  1  0.50000000  0.59759982  0.62500000  1
  O  O119  1  0.50000000  0.59759982  0.87500000  1
  O  O120  1  1.00000000  0.09759982  0.12500000  1
  O  O121  1  1.00000000  0.09759982  0.37500000  1
  O  O122  1  1.00000000  0.09759982  0.62500000  1
  O  O123  1  1.00000000  0.09759982  0.87500000  1
  O  O124  1  1.00000000  0.59759982  0.12500000  1
  O  O125  1  1.00000000  0.59759982  0.37500000  1
  O  O126  1  1.00000000  0.59759982  0.62500000  1
  O  O127  1  1.00000000  0.59759982  0.87500000  1
  O  O128  1  0.15388530  -0.00000000  0.00000000  1
  O  O129  1  0.15388530  -0.00000000  0.25000000  1
  O  O130  1  0.15388530  -0.00000000  0.50000000  1
  O  O131  1  0.15388530  -0.00000000  0.75000000  1
  O  O132  1  0.15388530  0.50000000  0.00000000  1
  O  O133  1  0.15388530  0.50000000  0.25000000  1
  O  O134  1  0.15388530  0.50000000  0.50000000  1
  O  O135  1  0.15388530  0.50000000  0.75000000  1
  O  O136  1  0.65388530  -0.00000000  0.00000000  1
  O  O137  1  0.65388530  -0.00000000  0.25000000  1
  O  O138  1  0.65388530  -0.00000000  0.50000000  1
  O  O139  1  0.65388530  -0.00000000  0.75000000  1
  O  O140  1  0.65388530  0.50000000  0.00000000  1
  O  O141  1  0.65388530  0.50000000  0.25000000  1
  O  O142  1  0.65388530  0.50000000  0.50000000  1
  O  O143  1  0.65388530  0.50000000  0.75000000  1
  O  O144  1  0.40388530  0.25000000  0.00000000  1
  O  O145  1  0.40388530  0.25000000  0.25000000  1
  O  O146  1  0.40388530  0.25000000  0.50000000  1
  O  O147  1  0.40388530  0.25000000  0.75000000  1
  O  O148  1  0.40388530  0.75000000  0.00000000  1
  O  O149  1  0.40388530  0.75000000  0.25000000  1
  O  O150  1  0.40388530  0.75000000  0.50000000  1
  O  O151  1  0.40388530  0.75000000  0.75000000  1
  O  O152  1  0.90388530  0.25000000  0.00000000  1
  O  O153  1  0.90388530  0.25000000  0.25000000  1
  O  O154  1  0.90388530  0.25000000  0.50000000  1
  O  O155  1  0.90388530  0.25000000  0.75000000  1
  O  O156  1  0.90388530  0.75000000  0.00000000  1
  O  O157  1  0.90388530  0.75000000  0.25000000  1
  O  O158  1  0.90388530  0.75000000  0.50000000  1
  O  O159  1  0.90388530  0.75000000  0.75000000  1
  O  O160  1  0.34611470  0.00000000  0.00000000  1
  O  O161  1  0.34611470  0.00000000  0.25000000  1
  O  O162  1  0.34611470  0.00000000  0.50000000  1
  O  O163  1  0.34611470  0.00000000  0.75000000  1
  O  O164  1  0.34611470  0.50000000  0.00000000  1
  O  O165  1  0.34611470  0.50000000  0.25000000  1
  O  O166  1  0.34611470  0.50000000  0.50000000  1
  O  O167  1  0.34611470  0.50000000  0.75000000  1
  O  O168  1  0.84611470  0.00000000  0.00000000  1
  O  O169  1  0.84611470  0.00000000  0.25000000  1
  O  O170  1  0.84611470  0.00000000  0.50000000  1
  O  O171  1  0.84611470  0.00000000  0.75000000  1
  O  O172  1  0.84611470  0.50000000  0.00000000  1
  O  O173  1  0.84611470  0.50000000  0.25000000  1
  O  O174  1  0.84611470  0.50000000  0.50000000  1
  O  O175  1  0.84611470  0.50000000  0.75000000  1
  O  O176  1  0.59611470  0.25000000  0.00000000  1
  O  O177  1  0.59611470  0.25000000  0.25000000  1
  O  O178  1  0.59611470  0.25000000  0.50000000  1
  O  O179  1  0.59611470  0.25000000  0.75000000  1
  O  O180  1  0.59611470  0.75000000  0.00000000  1
  O  O181  1  0.59611470  0.75000000  0.25000000  1
  O  O182  1  0.59611470  0.75000000  0.50000000  1
  O  O183  1  0.59611470  0.75000000  0.75000000  1
  O  O184  1  1.09611470  0.25000000  0.00000000  1
  O  O185  1  1.09611470  0.25000000  0.25000000  1
  O  O186  1  1.09611470  0.25000000  0.50000000  1
  O  O187  1  1.09611470  0.25000000  0.75000000  1
  O  O188  1  1.09611470  0.75000000  0.00000000  1
  O  O189  1  1.09611470  0.75000000  0.25000000  1
  O  O190  1  1.09611470  0.75000000  0.50000000  1
  O  O191  1  1.09611470  0.75000000  0.75000000  1
