# generated using pymatgen
data_Al2O3
_symmetry_space_group_name_H-M   'P 1'
_cell_length_a   14.32378170
_cell_length_b   14.32378170
_cell_length_c   13.01404156
_cell_angle_alpha   90.00000000
_cell_angle_beta   90.00000000
_cell_angle_gamma   120.00000000
_symmetry_Int_Tables_number   1
_chemical_formula_structural   Al2O3
_chemical_formula_sum   'Al108 O162'
_cell_volume   2312.37469608
_cell_formula_units_Z   54
loop_
 _symmetry_equiv_pos_site_id
 _symmetry_equiv_pos_as_xyz
  1  'x, y, z'
loop_
 _atom_site_type_symbol
 _atom_site_label
 _atom_site_symmetry_multiplicity
 _atom_site_fract_x
 _atom_site_fract_y
 _atom_site_fract_z
 _atom_site_occupancy
  Al  Al0  1  -0.00000000  -0.00000000  0.14792345  1
  Al  Al1  1  -0.00000000  0.33333333  0.14792345  1
  Al  Al2  1  -0.00000000  0.66666667  0.14792345  1
  Al  Al3  1  0.33333333  -0.00000000  0.14792345  1
  Al  Al4  1  0.33333333  0.33333333  0.14792345  1
  Al  Al5  1  0.33333333  0.66666667  0.14792345  1
  Al  Al6  1  0.66666667  -0.00000000  0.14792345  1
  Al  Al7  1  0.66666667  0.33333333  0.14792345  1
  Al  Al8  1  0.66666667  0.66666667  0.14792345  1
  Al  Al9  1  0.22222222  0.11111111  0.48125678  1
  Al  Al10  1  0.22222222  0.44444444  0.48125678  1
  Al  Al11  1  0.22222222  0.77777778  0.48125678  1
  Al  Al12  1  0.55555556  0.11111111  0.48125678  1
  Al  Al13  1  0.55555556  0.44444444  0.48125678  1
  Al  Al14  1  0.55555556  0.77777778  0.48125678  1
  Al  Al15  1  0.88888889  0.11111111  0.48125678  1
  Al  Al16  1  0.88888889  0.44444444  0.48125678  1
  Al  Al17  1  0.88888889  0.77777778  0.48125678  1
  Al  Al18  1  0.11111111  0.22222222  0.81459011  1
  Al  Al19  1  0.11111111  0.55555556  0.81459011  1
  Al  Al20  1  0.11111111  0.88888889  0.81459011  1
  Al  Al21  1  0.44444444  0.22222222  0.81459011  1
  Al  Al22  1  0.44444444  0.55555556  0.81459011  1
  Al  Al23  1  0.44444444  0.88888889  0.81459011  1
  Al  Al24  1  0.77777778  0.22222222  0.81459011  1
  Al  Al25  1  0.77777778  0.55555556  0.81459011  1
  Al  Al26  1  0.77777778  0.88888889  0.81459011  1
  Al  Al27  1  -0.00000000  -0.00000000  0.35207655  1
  Al  Al28  1  -0.00000000  0.33333333  0.35207655  1
  Al  Al29  1  -0.00000000  0.66666667  0.35207655  1
  Al  Al30  1  0.33333333  -0.00000000  0.35207655  1
  Al  Al31  1  0.33333333  0.33333333  0.35207655  1
  Al  Al32  1  0.33333333  0.66666667  0.35207655  1
  Al  Al33  1  0.66666667  -0.00000000  0.35207655  1
  Al  Al34  1  0.66666667  0.33333333  0.35207655  1
  Al  Al35  1  0.66666667  0.66666667  0.35207655  1
  Al  Al36  1  0.22222222  0.11111111  0.68540989  1
  Al  Al37  1  0.22222222  0.44444444  0.68540989  1
  Al  Al38  1  0.22222222  0.77777778  0.68540989  1
  Al  Al39  1  0.55555556  0.11111111  0.68540989  1
  Al  Al40  1  0.55555556  0.44444444  0.68540989  1
  Al  Al41  1  0.55555556  0.77777778  0.68540989  1
  Al  Al42  1  0.88888889  0.11111111  0.68540989  1
  Al  Al43  1  0.88888889  0.44444444  0.68540989  1
  Al  Al44  1  0.88888889  0.77777778  0.68540989  1
  Al  Al45  1  0.11111111  0.22222222  1.01874322  1
  Al  Al46  1  0.11111111  0.55555556  1.01874322  1
  Al  Al47  1  0.11111111  0.88888889  1.01874322  1
  Al  Al48  1  0.44444444  0.22222222  1.01874322  1
  Al  Al49  1  0.44444444  0.55555556  1.01874322  1
  Al  Al50  1  0.44444444  0.88888889  1.01874322  1
  Al  Al51  1  0.77777778  0.22222222  1.01874322  1
  Al  Al52  1  0.77777778  0.55555556  1.01874322  1
  Al  Al53  1  0.77777778  0.88888889  1.01874322  1
  Al  Al54  1  -0.00000000  0.00000000  0.64792345  1
  Al  Al55  1  -0.00000000  0.33333333  0.64792345  1
  Al  Al56  1  -0.00000000  0.66666667  0.64792345  1
  Al  Al57  1  0.33333333  0.00000000  0.64792345  1
  Al  Al58  1  0.33333333  0.33333333  0.64792345  1
  Al  Al59  1  0.33333333  0.66666667  0.64792345  1
  Al  Al60  1  0.66666667  0.00000000  0.64792345  1
  Al  Al61  1  0.66666667  0.33333333  0.64792345  1
  Al  Al62  1  0.66666667  0.66666667  0.64792345  1
  Al  Al63  1  0.22222222  0.11111111  0.98125678  1
  Al  Al64  1  0.22222222  0.44444444  0.98125678  1
  Al  Al65  1  0.22222222  0.77777778  0.98125678  1
  Al  Al66  1  0.55555556  0.11111111  0.98125678  1
  Al  Al67  1  0.55555556  0.44444444  0.98125678  1
  Al  Al68  1  0.55555556  0.77777778  0.98125678  1
  Al  Al69  1  0.88888889  0.11111111  0.98125678  1
  Al  Al70  1  0.88888889  0.44444444  0.98125678  1
  Al  Al71  1  0.88888889  0.77777778  0.98125678  1
  Al  Al72  1  0.11111111  0.22222222  1.31459011  1
  Al  Al73  1  0.11111111  0.55555556  1.31459011  1
  Al  Al74  1  0.11111111  0.88888889  1.31459011  1
  Al  Al75  1  0.44444444  0.22222222  1.31459011  1
  Al  Al76  1  0.44444444  0.55555556  1.31459011  1
  Al  Al77  1  0.44444444  0.88888889  1.31459011  1
  Al  Al78  1  0.77777778  0.22222222  1.31459011  1
  Al  Al79  1  0.77777778  0.55555556  1.31459011  1
  Al  Al80  1  0.77777778  0.88888889  1.31459011  1
  Al  Al81  1  0.00000000  -0.00000000  0.85207655  1
  Al  Al82  1  -0.00000000  0.33333333  0.85207655  1
  Al  Al83  1  -0.00000000  0.66666667  0.85207655  1
  Al  Al84  1  0.33333333  -0.00000000  0.85207655  1
  Al  Al85  1  0.33333333  0.33333333  0.85207655  1
  Al  Al86  1  0.33333333  0.66666667  0.85207655  1
  Al  Al87  1  0.66666667  -0.00000000  0.85207655  1
  Al  Al88  1  0.66666667  0.33333333  0.85207655  1
  Al  Al89  1  0.66666667  0.66666667  0.85207655  1
  Al  Al90  1  0.22222222  0.11111111  1.18540989  1
  Al  Al91  1  0.22222222  0.44444444  1.18540989  1
  Al  Al92  1  0.22222222  0.77777778  1.18540989  1
  Al  Al93  1  0.55555556  0.11111111  1.18540989  1
  Al  Al94  1  0.55555556  0.44444444  1.18540989  1
  Al  Al95  1  0.55555556  0.77777778  1.18540989  1
  Al  Al96  1  0.88888889  0.11111111  1.18540989  1
  Al  Al97  1  0.88888889  0.44444444  1.18540989  1
  Al  Al98  1  0.88888889  0.77777778  1.18540989  1
  Al  Al99  1  0.11111111  0.22222222  1.51874322  1
  Al  Al100  1  0.11111111  0.55555556  1.51874322  1
  Al  Al101  1  0.11111111  0.88888889  1.51874322  1
  Al  Al102  1  0.44444444  0.22222222  1.51874322  1
  Al  Al103  1  0.44444444  0.55555556  1.51874322  1
  Al  Al104  1  0.44444444  0.88888889  1.51874322  1
  Al  Al105  1  0.77777778  0.22222222  1.51874322  1
  Al  Al106  1  0.77777778  0.55555556  1.51874322  1
  Al  Al107  1  0.77777778  0.88888889  1.51874322  1
  O  O108  1  -0.00917259  0.11111111  0.58333333  1
  O  O109  1  -0.00917259  0.44444444  0.58333333  1
  O  O110  1  -0.00917259  0.77777778  0.58333333  1
  O  O111  1  0.32416074  0.11111111  0.58333333  1
  O  O112  1  0.32416074  0.44444444  0.58333333  1
  O  O113  1  0.32416074  0.77777778  0.58333333  1
  O  O114  1  0.65749408  0.11111111  0.58333333  1
  O  O115  1  0.65749408  0.44444444  0.58333333  1
  O  O116  1  0.65749408  0.77777778  0.58333333  1
  O  O117  1  0.21304963  0.22222222  0.91666667  1
  O  O118  1  0.21304963  0.55555556  0.91666667  1
  O  O119  1  0.21304963  0.88888889  0.91666667  1
  O  O120  1  0.54638296  0.22222222  0.91666667  1
  O  O121  1  0.54638296  0.55555556  0.91666667  1
  O  O122  1  0.54638296  0.88888889  0.91666667  1
  O  O123  1  0.87971630  0.22222222  0.91666667  1
  O  O124  1  0.87971630  0.55555556  0.91666667  1
  O  O125  1  0.87971630  0.88888889  0.91666667  1
  O  O126  1  0.10193852  0.33333333  1.25000000  1
  O  O127  1  0.10193852  0.66666667  1.25000000  1
  O  O128  1  0.10193852  1.00000000  1.25000000  1
  O  O129  1  0.43527185  0.33333333  1.25000000  1
  O  O130  1  0.43527185  0.66666667  1.25000000  1
  O  O131  1  0.43527185  1.00000000  1.25000000  1
  O  O132  1  0.76860519  0.33333333  1.25000000  1
  O  O133  1  0.76860519  0.66666667  1.25000000  1
  O  O134  1  0.76860519  1.00000000  1.25000000  1
  O  O135  1  0.11111111  0.12028370  0.41666667  1
  O  O136  1  0.11111111  0.45361704  0.41666667  1
  O  O137  1  0.11111111  0.78695037  0.41666667  1
  O  O138  1  0.44444444  0.12028370  0.41666667  1
  O  O139  1  0.44444444  0.45361704  0.41666667  1
  O  O140  1  0.44444444  0.78695037  0.41666667  1
  O  O141  1  0.77777778  0.12028370  0.41666667  1
  O  O142  1  0.77777778  0.45361704  0.41666667  1
  O  O143  1  0.77777778  0.78695037  0.41666667  1
  O  O144  1  0.33333333  0.23139481  0.75000000  1
  O  O145  1  0.33333333  0.56472815  0.75000000  1
  O  O146  1  0.33333333  0.89806148  0.75000000  1
  O  O147  1  0.66666667  0.23139481  0.75000000  1
  O  O148  1  0.66666667  0.56472815  0.75000000  1
  O  O149  1  0.66666667  0.89806148  0.75000000  1
  O  O150  1  1.00000000  0.23139481  0.75000000  1
  O  O151  1  1.00000000  0.56472815  0.75000000  1
  O  O152  1  1.00000000  0.89806148  0.75000000  1
  O  O153  1  0.22222222  0.34250592  1.08333333  1
  O  O154  1  0.22222222  0.67583926  1.08333333  1
  O  O155  1  0.22222222  1.00917259  1.08333333  1
  O  O156  1  0.55555556  0.34250592  1.08333333  1
  O  O157  1  0.55555556  0.67583926  1.08333333  1
  O  O158  1  0.55555556  1.00917259  1.08333333  1
  O  O159  1  0.88888889  0.34250592  1.08333333  1
  O  O160  1  0.88888889  0.67583926  1.08333333  1
  O  O161  1  0.88888889  1.00917259  1.08333333  1
  O  O162  1  -0.11111111  -0.12028370  0.58333333  1
  O  O163  1  -0.11111111  0.21304963  0.58333333  1
  O  O164  1  -0.11111111  0.54638296  0.58333333  1
  O  O165  1  0.22222222  -0.12028370  0.58333333  1
  O  O166  1  0.22222222  0.21304963  0.58333333  1
  O  O167  1  0.22222222  0.54638296  0.58333333  1
  O  O168  1  0.55555556  -0.12028370  0.58333333  1
  O  O169  1  0.55555556  0.21304963  0.58333333  1
  O  O170  1  0.55555556  0.54638296  0.58333333  1
  O  O171  1  0.11111111  -0.00917259  0.91666667  1
  O  O172  1  0.11111111  0.32416074  0.91666667  1
  O  O173  1  0.11111111  0.65749408  0.91666667  1
  O  O174  1  0.44444444  -0.00917259  0.91666667  1
  O  O175  1  0.44444444  0.32416074  0.91666667  1
  O  O176  1  0.44444444  0.65749408  0.91666667  1
  O  O177  1  0.77777778  -0.00917259  0.91666667  1
  O  O178  1  0.77777778  0.32416074  0.91666667  1
  O  O179  1  0.77777778  0.65749408  0.91666667  1
  O  O180  1  -0.00000000  0.10193852  1.25000000  1
  O  O181  1  -0.00000000  0.43527185  1.25000000  1
  O  O182  1  -0.00000000  0.76860519  1.25000000  1
  O  O183  1  0.33333333  0.10193852  1.25000000  1
  O  O184  1  0.33333333  0.43527185  1.25000000  1
  O  O185  1  0.33333333  0.76860519  1.25000000  1
  O  O186  1  0.66666667  0.10193852  1.25000000  1
  O  O187  1  0.66666667  0.43527185  1.25000000  1
  O  O188  1  0.66666667  0.76860519  1.25000000  1
  O  O189  1  0.12028370  0.00917259  0.58333333  1
  O  O190  1  0.12028370  0.34250592  0.58333333  1
  O  O191  1  0.12028370  0.67583926  0.58333333  1
  O  O192  1  0.45361704  0.00917259  0.58333333  1
  O  O193  1  0.45361704  0.34250592  0.58333333  1
  O  O194  1  0.45361704  0.67583926  0.58333333  1
  O  O195  1  0.78695037  0.00917259  0.58333333  1
  O  O196  1  0.78695037  0.34250592  0.58333333  1
  O  O197  1  0.78695037  0.67583926  0.58333333  1
  O  O198  1  0.34250592  0.12028370  0.91666667  1
  O  O199  1  0.34250592  0.45361704  0.91666667  1
  O  O200  1  0.34250592  0.78695037  0.91666667  1
  O  O201  1  0.67583926  0.12028370  0.91666667  1
  O  O202  1  0.67583926  0.45361704  0.91666667  1
  O  O203  1  0.67583926  0.78695037  0.91666667  1
  O  O204  1  1.00917259  0.12028370  0.91666667  1
  O  O205  1  1.00917259  0.45361704  0.91666667  1
  O  O206  1  1.00917259  0.78695037  0.91666667  1
  O  O207  1  0.23139481  0.23139481  1.25000000  1
  O  O208  1  0.23139481  0.56472815  1.25000000  1
  O  O209  1  0.23139481  0.89806148  1.25000000  1
  O  O210  1  0.56472815  0.23139481  1.25000000  1
  O  O211  1  0.56472815  0.56472815  1.25000000  1
  O  O212  1  0.56472815  0.89806148  1.25000000  1
  O  O213  1  0.89806148  0.23139481  1.25000000  1
  O  O214  1  0.89806148  0.56472815  1.25000000  1
  O  O215  1  0.89806148  0.89806148  1.25000000  1
  O  O216  1  -0.12028370  -0.00917259  0.41666667  1
  O  O217  1  -0.12028370  0.32416074  0.41666667  1
  O  O218  1  -0.12028370  0.65749408  0.41666667  1
  O  O219  1  0.21304963  -0.00917259  0.41666667  1
  O  O220  1  0.21304963  0.32416074  0.41666667  1
  O  O221  1  0.21304963  0.65749408  0.41666667  1
  O  O222  1  0.54638296  -0.00917259  0.41666667  1
  O  O223  1  0.54638296  0.32416074  0.41666667  1
  O  O224  1  0.54638296  0.65749408  0.41666667  1
  O  O225  1  0.10193852  0.10193852  0.75000000  1
  O  O226  1  0.10193852  0.43527185  0.75000000  1
  O  O227  1  0.10193852  0.76860519  0.75000000  1
  O  O228  1  0.43527185  0.10193852  0.75000000  1
  O  O229  1  0.43527185  0.43527185  0.75000000  1
  O  O230  1  0.43527185  0.76860519  0.75000000  1
  O  O231  1  0.76860519  0.10193852  0.75000000  1
  O  O232  1  0.76860519  0.43527185  0.75000000  1
  O  O233  1  0.76860519  0.76860519  0.75000000  1
  O  O234  1  -0.00917259  0.21304963  1.08333333  1
  O  O235  1  -0.00917259  0.54638296  1.08333333  1
  O  O236  1  -0.00917259  0.87971630  1.08333333  1
  O  O237  1  0.32416074  0.21304963  1.08333333  1
  O  O238  1  0.32416074  0.54638296  1.08333333  1
  O  O239  1  0.32416074  0.87971630  1.08333333  1
  O  O240  1  0.65749408  0.21304963  1.08333333  1
  O  O241  1  0.65749408  0.54638296  1.08333333  1
  O  O242  1  0.65749408  0.87971630  1.08333333  1
  O  O243  1  0.00917259  -0.11111111  0.41666667  1
  O  O244  1  0.00917259  0.22222222  0.41666667  1
  O  O245  1  0.00917259  0.55555556  0.41666667  1
  O  O246  1  0.34250592  -0.11111111  0.41666667  1
  O  O247  1  0.34250592  0.22222222  0.41666667  1
  O  O248  1  0.34250592  0.55555556  0.41666667  1
  O  O249  1  0.67583926  -0.11111111  0.41666667  1
  O  O250  1  0.67583926  0.22222222  0.41666667  1
  O  O251  1  0.67583926  0.55555556  0.41666667  1
  O  O252  1  0.23139481  -0.00000000  0.75000000  1
  O  O253  1  0.23139481  0.33333333  0.75000000  1
  O  O254  1  0.23139481  0.66666667  0.75000000  1
  O  O255  1  0.56472815  -0.00000000  0.75000000  1
  O  O256  1  0.56472815  0.33333333  0.75000000  1
  O  O257  1  0.56472815  0.66666667  0.75000000  1
  O  O258  1  0.89806148  -0.00000000  0.75000000  1
  O  O259  1  0.89806148  0.33333333  0.75000000  1
  O  O260  1  0.89806148  0.66666667  0.75000000  1
  O  O261  1  0.12028370  0.11111111  1.08333333  1
  O  O262  1  0.12028370  0.44444444  1.08333333  1
  O  O263  1  0.12028370  0.77777778  1.08333333  1
  O  O264  1  0.45361704  0.11111111  1.08333333  1
  O  O265  1  0.45361704  0.44444444  1.08333333  1
  O  O266  1  0.45361704  0.77777778  1.08333333  1
  O  O267  1  0.78695037  0.11111111  1.08333333  1
  O  O268  1  0.78695037  0.44444444  1.08333333  1
  O  O269  1  0.78695037  0.77777778  1.08333333  1
