# generated using pymatgen
data_NaSc(WO4)2
_symmetry_space_group_name_H-M   'P 1'
_cell_length_a   9.99176510
_cell_length_b   11.51057300
_cell_length_c   10.01529026
_cell_angle_alpha   90.00000000
_cell_angle_beta   91.04737354
_cell_angle_gamma   90.00000000
_symmetry_Int_Tables_number   1
_chemical_formula_structural   NaSc(WO4)2
_chemical_formula_sum   'Na8 Sc8 W16 O64'
_cell_volume   1151.67551259
_cell_formula_units_Z   8
loop_
 _symmetry_equiv_pos_site_id
 _symmetry_equiv_pos_as_xyz
  1  'x, y, z'
loop_
 _atom_site_type_symbol
 _atom_site_label
 _atom_site_symmetry_multiplicity
 _atom_site_fract_x
 _atom_site_fract_y
 _atom_site_fract_z
 _atom_site_occupancy
  Na  Na0  1  0.50000000  0.15761732  0.37500000  1
  Na  Na1  1  0.50000000  0.15761732  0.87500000  1
  Na  Na2  1  0.50000000  0.65761732  0.37500000  1
  Na  Na3  1  0.50000000  0.65761732  0.87500000  1
  Na  Na4  1  0.50000000  0.34238268  0.12500000  1
  Na  Na5  1  0.50000000  0.34238268  0.62500000  1
  Na  Na6  1  0.50000000  0.84238268  0.12500000  1
  Na  Na7  1  0.50000000  0.84238268  0.62500000  1
  Sc  Sc8  1  -0.00000000  0.15992482  0.37500000  1
  Sc  Sc9  1  -0.00000000  0.15992482  0.87500000  1
  Sc  Sc10  1  -0.00000000  0.65992482  0.37500000  1
  Sc  Sc11  1  -0.00000000  0.65992482  0.87500000  1
  Sc  Sc12  1  -0.00000000  0.34007518  0.12500000  1
  Sc  Sc13  1  -0.00000000  0.34007518  0.62500000  1
  Sc  Sc14  1  -0.00000000  0.84007518  0.12500000  1
  Sc  Sc15  1  -0.00000000  0.84007518  0.62500000  1
  W  W16  1  0.24261407  0.08981051  0.12453173  1
  W  W17  1  0.24261407  0.08981051  0.62453173  1
  W  W18  1  0.24261407  0.58981051  0.12453173  1
  W  W19  1  0.24261407  0.58981051  0.62453173  1
  W  W20  1  0.75738593  0.41018949  0.37546827  1
  W  W21  1  0.75738593  0.41018949  0.87546827  1
  W  W22  1  0.75738593  0.91018949  0.37546827  1
  W  W23  1  0.75738593  0.91018949  0.87546827  1
  W  W24  1  0.75738593  0.08981051  0.12546827  1
  W  W25  1  0.75738593  0.08981051  0.62546827  1
  W  W26  1  0.75738593  0.58981051  0.12546827  1
  W  W27  1  0.75738593  0.58981051  0.62546827  1
  W  W28  1  0.24261407  0.41018949  0.37453173  1
  W  W29  1  0.24261407  0.41018949  0.87453173  1
  W  W30  1  0.24261407  0.91018949  0.37453173  1
  W  W31  1  0.24261407  0.91018949  0.87453173  1
  O  O32  1  0.35927914  0.31227364  0.44004925  1
  O  O33  1  0.35927914  0.31227364  0.94004925  1
  O  O34  1  0.35927914  0.81227364  0.44004925  1
  O  O35  1  0.35927914  0.81227364  0.94004925  1
  O  O36  1  0.64072086  0.18772636  0.05995075  1
  O  O37  1  0.64072086  0.18772636  0.55995075  1
  O  O38  1  0.64072086  0.68772636  0.05995075  1
  O  O39  1  0.64072086  0.68772636  0.55995075  1
  O  O40  1  0.64072086  0.31227364  0.30995075  1
  O  O41  1  0.64072086  0.31227364  0.80995075  1
  O  O42  1  0.64072086  0.81227364  0.30995075  1
  O  O43  1  0.64072086  0.81227364  0.80995075  1
  O  O44  1  0.35927914  0.18772636  0.19004925  1
  O  O45  1  0.35927914  0.18772636  0.69004925  1
  O  O46  1  0.35927914  0.68772636  0.19004925  1
  O  O47  1  0.35927914  0.68772636  0.69004925  1
  O  O48  1  0.33406306  0.04718863  0.46993489  1
  O  O49  1  0.33406306  0.04718863  0.96993489  1
  O  O50  1  0.33406306  0.54718863  0.46993489  1
  O  O51  1  0.33406306  0.54718863  0.96993489  1
  O  O52  1  0.66593694  0.45281137  0.03006511  1
  O  O53  1  0.66593694  0.45281137  0.53006511  1
  O  O54  1  0.66593694  0.95281137  0.03006511  1
  O  O55  1  0.66593694  0.95281137  0.53006511  1
  O  O56  1  0.66593694  0.04718863  0.28006511  1
  O  O57  1  0.66593694  0.04718863  0.78006511  1
  O  O58  1  0.66593694  0.54718863  0.28006511  1
  O  O59  1  0.66593694  0.54718863  0.78006511  1
  O  O60  1  0.33406306  0.45281137  0.21993489  1
  O  O61  1  0.33406306  0.45281137  0.71993489  1
  O  O62  1  0.33406306  0.95281137  0.21993489  1
  O  O63  1  0.33406306  0.95281137  0.71993489  1
  O  O64  1  0.13078423  0.05626228  0.27882743  1
  O  O65  1  0.13078423  0.05626228  0.77882743  1
  O  O66  1  0.13078423  0.55626228  0.27882743  1
  O  O67  1  0.13078423  0.55626228  0.77882743  1
  O  O68  1  0.86921577  0.44373772  0.22117257  1
  O  O69  1  0.86921577  0.44373772  0.72117257  1
  O  O70  1  0.86921577  0.94373772  0.22117257  1
  O  O71  1  0.86921577  0.94373772  0.72117257  1
  O  O72  1  0.86921577  0.05626228  0.47117257  1
  O  O73  1  0.86921577  0.05626228  0.97117257  1
  O  O74  1  0.86921577  0.55626228  0.47117257  1
  O  O75  1  0.86921577  0.55626228  0.97117257  1
  O  O76  1  0.13078423  0.44373772  0.02882743  1
  O  O77  1  0.13078423  0.44373772  0.52882743  1
  O  O78  1  0.13078423  0.94373772  0.02882743  1
  O  O79  1  0.13078423  0.94373772  0.52882743  1
  O  O80  1  0.11279631  0.31108374  0.29959279  1
  O  O81  1  0.11279631  0.31108374  0.79959279  1
  O  O82  1  0.11279631  0.81108374  0.29959279  1
  O  O83  1  0.11279631  0.81108374  0.79959279  1
  O  O84  1  0.88720369  0.18891626  0.20040721  1
  O  O85  1  0.88720369  0.18891626  0.70040721  1
  O  O86  1  0.88720369  0.68891626  0.20040721  1
  O  O87  1  0.88720369  0.68891626  0.70040721  1
  O  O88  1  0.88720369  0.31108374  0.45040721  1
  O  O89  1  0.88720369  0.31108374  0.95040721  1
  O  O90  1  0.88720369  0.81108374  0.45040721  1
  O  O91  1  0.88720369  0.81108374  0.95040721  1
  O  O92  1  0.11279631  0.18891626  0.04959279  1
  O  O93  1  0.11279631  0.18891626  0.54959279  1
  O  O94  1  0.11279631  0.68891626  0.04959279  1
  O  O95  1  0.11279631  0.68891626  0.54959279  1
