# generated using pymatgen
data_KAsO2
_symmetry_space_group_name_H-M   'P 1'
_cell_length_a   14.38841533
_cell_length_b   14.90817601
_cell_length_c   16.30280378
_cell_angle_alpha   90.00000000
_cell_angle_beta   90.00000000
_cell_angle_gamma   90.00000000
_symmetry_Int_Tables_number   1
_chemical_formula_structural   KAsO2
_chemical_formula_sum   'K48 As48 O96'
_cell_volume   3497.03338738
_cell_formula_units_Z   48
loop_
 _symmetry_equiv_pos_site_id
 _symmetry_equiv_pos_as_xyz
  1  'x, y, z'
loop_
 _atom_site_type_symbol
 _atom_site_label
 _atom_site_symmetry_multiplicity
 _atom_site_fract_x
 _atom_site_fract_y
 _atom_site_fract_z
 _atom_site_occupancy
  K  K0  1  0.18187400  0.20424326  0.08333333  1
  K  K1  1  0.18187400  0.20424326  0.41666667  1
  K  K2  1  0.18187400  0.20424326  0.75000000  1
  K  K3  1  0.18187400  0.70424326  0.08333333  1
  K  K4  1  0.18187400  0.70424326  0.41666667  1
  K  K5  1  0.18187400  0.70424326  0.75000000  1
  K  K6  1  0.68187400  0.20424326  0.08333333  1
  K  K7  1  0.68187400  0.20424326  0.41666667  1
  K  K8  1  0.68187400  0.20424326  0.75000000  1
  K  K9  1  0.68187400  0.70424326  0.08333333  1
  K  K10  1  0.68187400  0.70424326  0.41666667  1
  K  K11  1  0.68187400  0.70424326  0.75000000  1
  K  K12  1  0.18187400  0.04575674  0.25000000  1
  K  K13  1  0.18187400  0.04575674  0.58333333  1
  K  K14  1  0.18187400  0.04575674  0.91666667  1
  K  K15  1  0.18187400  0.54575674  0.25000000  1
  K  K16  1  0.18187400  0.54575674  0.58333333  1
  K  K17  1  0.18187400  0.54575674  0.91666667  1
  K  K18  1  0.68187400  0.04575674  0.25000000  1
  K  K19  1  0.68187400  0.04575674  0.58333333  1
  K  K20  1  0.68187400  0.04575674  0.91666667  1
  K  K21  1  0.68187400  0.54575674  0.25000000  1
  K  K22  1  0.68187400  0.54575674  0.58333333  1
  K  K23  1  0.68187400  0.54575674  0.91666667  1
  K  K24  1  0.31812600  0.29575674  0.25000000  1
  K  K25  1  0.31812600  0.29575674  0.58333333  1
  K  K26  1  0.31812600  0.29575674  0.91666667  1
  K  K27  1  0.31812600  0.79575674  0.25000000  1
  K  K28  1  0.31812600  0.79575674  0.58333333  1
  K  K29  1  0.31812600  0.79575674  0.91666667  1
  K  K30  1  0.81812600  0.29575674  0.25000000  1
  K  K31  1  0.81812600  0.29575674  0.58333333  1
  K  K32  1  0.81812600  0.29575674  0.91666667  1
  K  K33  1  0.81812600  0.79575674  0.25000000  1
  K  K34  1  0.81812600  0.79575674  0.58333333  1
  K  K35  1  0.81812600  0.79575674  0.91666667  1
  K  K36  1  0.31812600  0.45424326  0.08333333  1
  K  K37  1  0.31812600  0.45424326  0.41666667  1
  K  K38  1  0.31812600  0.45424326  0.75000000  1
  K  K39  1  0.31812600  0.95424326  0.08333333  1
  K  K40  1  0.31812600  0.95424326  0.41666667  1
  K  K41  1  0.31812600  0.95424326  0.75000000  1
  K  K42  1  0.81812600  0.45424326  0.08333333  1
  K  K43  1  0.81812600  0.45424326  0.41666667  1
  K  K44  1  0.81812600  0.45424326  0.75000000  1
  K  K45  1  0.81812600  0.95424326  0.08333333  1
  K  K46  1  0.81812600  0.95424326  0.41666667  1
  K  K47  1  0.81812600  0.95424326  0.75000000  1
  As  As48  1  0.42987743  0.18841337  0.08333333  1
  As  As49  1  0.42987743  0.18841337  0.41666667  1
  As  As50  1  0.42987743  0.18841337  0.75000000  1
  As  As51  1  0.42987743  0.68841337  0.08333333  1
  As  As52  1  0.42987743  0.68841337  0.41666667  1
  As  As53  1  0.42987743  0.68841337  0.75000000  1
  As  As54  1  0.92987743  0.18841337  0.08333333  1
  As  As55  1  0.92987743  0.18841337  0.41666667  1
  As  As56  1  0.92987743  0.18841337  0.75000000  1
  As  As57  1  0.92987743  0.68841337  0.08333333  1
  As  As58  1  0.92987743  0.68841337  0.41666667  1
  As  As59  1  0.92987743  0.68841337  0.75000000  1
  As  As60  1  0.07012257  0.31158663  0.25000000  1
  As  As61  1  0.07012257  0.31158663  0.58333333  1
  As  As62  1  0.07012257  0.31158663  0.91666667  1
  As  As63  1  0.07012257  0.81158663  0.25000000  1
  As  As64  1  0.07012257  0.81158663  0.58333333  1
  As  As65  1  0.07012257  0.81158663  0.91666667  1
  As  As66  1  0.57012257  0.31158663  0.25000000  1
  As  As67  1  0.57012257  0.31158663  0.58333333  1
  As  As68  1  0.57012257  0.31158663  0.91666667  1
  As  As69  1  0.57012257  0.81158663  0.25000000  1
  As  As70  1  0.57012257  0.81158663  0.58333333  1
  As  As71  1  0.57012257  0.81158663  0.91666667  1
  As  As72  1  0.42987743  0.06158663  0.25000000  1
  As  As73  1  0.42987743  0.06158663  0.58333333  1
  As  As74  1  0.42987743  0.06158663  0.91666667  1
  As  As75  1  0.42987743  0.56158663  0.25000000  1
  As  As76  1  0.42987743  0.56158663  0.58333333  1
  As  As77  1  0.42987743  0.56158663  0.91666667  1
  As  As78  1  0.92987743  0.06158663  0.25000000  1
  As  As79  1  0.92987743  0.06158663  0.58333333  1
  As  As80  1  0.92987743  0.06158663  0.91666667  1
  As  As81  1  0.92987743  0.56158663  0.25000000  1
  As  As82  1  0.92987743  0.56158663  0.58333333  1
  As  As83  1  0.92987743  0.56158663  0.91666667  1
  As  As84  1  0.07012257  0.43841337  0.08333333  1
  As  As85  1  0.07012257  0.43841337  0.41666667  1
  As  As86  1  0.07012257  0.43841337  0.75000000  1
  As  As87  1  0.07012257  0.93841337  0.08333333  1
  As  As88  1  0.07012257  0.93841337  0.41666667  1
  As  As89  1  0.07012257  0.93841337  0.75000000  1
  As  As90  1  0.57012257  0.43841337  0.08333333  1
  As  As91  1  0.57012257  0.43841337  0.41666667  1
  As  As92  1  0.57012257  0.43841337  0.75000000  1
  As  As93  1  0.57012257  0.93841337  0.08333333  1
  As  As94  1  0.57012257  0.93841337  0.41666667  1
  As  As95  1  0.57012257  0.93841337  0.75000000  1
  O  O96  1  0.12975651  0.37500000  0.16666667  1
  O  O97  1  0.12975651  0.37500000  0.50000000  1
  O  O98  1  0.12975651  0.37500000  0.83333333  1
  O  O99  1  0.12975651  0.87500000  0.16666667  1
  O  O100  1  0.12975651  0.87500000  0.50000000  1
  O  O101  1  0.12975651  0.87500000  0.83333333  1
  O  O102  1  0.62975651  0.37500000  0.16666667  1
  O  O103  1  0.62975651  0.37500000  0.50000000  1
  O  O104  1  0.62975651  0.37500000  0.83333333  1
  O  O105  1  0.62975651  0.87500000  0.16666667  1
  O  O106  1  0.62975651  0.87500000  0.50000000  1
  O  O107  1  0.62975651  0.87500000  0.83333333  1
  O  O108  1  0.37024349  0.12500000  0.00000000  1
  O  O109  1  0.37024349  0.12500000  0.33333333  1
  O  O110  1  0.37024349  0.12500000  0.66666667  1
  O  O111  1  0.37024349  0.62500000  0.00000000  1
  O  O112  1  0.37024349  0.62500000  0.33333333  1
  O  O113  1  0.37024349  0.62500000  0.66666667  1
  O  O114  1  0.87024349  0.12500000  0.00000000  1
  O  O115  1  0.87024349  0.12500000  0.33333333  1
  O  O116  1  0.87024349  0.12500000  0.66666667  1
  O  O117  1  0.87024349  0.62500000  0.00000000  1
  O  O118  1  0.87024349  0.62500000  0.33333333  1
  O  O119  1  0.87024349  0.62500000  0.66666667  1
  O  O120  1  0.37024349  0.12500000  0.16666667  1
  O  O121  1  0.37024349  0.12500000  0.50000000  1
  O  O122  1  0.37024349  0.12500000  0.83333333  1
  O  O123  1  0.37024349  0.62500000  0.16666667  1
  O  O124  1  0.37024349  0.62500000  0.50000000  1
  O  O125  1  0.37024349  0.62500000  0.83333333  1
  O  O126  1  0.87024349  0.12500000  0.16666667  1
  O  O127  1  0.87024349  0.12500000  0.50000000  1
  O  O128  1  0.87024349  0.12500000  0.83333333  1
  O  O129  1  0.87024349  0.62500000  0.16666667  1
  O  O130  1  0.87024349  0.62500000  0.50000000  1
  O  O131  1  0.87024349  0.62500000  0.83333333  1
  O  O132  1  0.12975651  0.37500000  0.00000000  1
  O  O133  1  0.12975651  0.37500000  0.33333333  1
  O  O134  1  0.12975651  0.37500000  0.66666667  1
  O  O135  1  0.12975651  0.87500000  0.00000000  1
  O  O136  1  0.12975651  0.87500000  0.33333333  1
  O  O137  1  0.12975651  0.87500000  0.66666667  1
  O  O138  1  0.62975651  0.37500000  0.00000000  1
  O  O139  1  0.62975651  0.37500000  0.33333333  1
  O  O140  1  0.62975651  0.37500000  0.66666667  1
  O  O141  1  0.62975651  0.87500000  0.00000000  1
  O  O142  1  0.62975651  0.87500000  0.33333333  1
  O  O143  1  0.62975651  0.87500000  0.66666667  1
  O  O144  1  0.35781825  0.27971101  0.08333333  1
  O  O145  1  0.35781825  0.27971101  0.41666667  1
  O  O146  1  0.35781825  0.27971101  0.75000000  1
  O  O147  1  0.35781825  0.77971101  0.08333333  1
  O  O148  1  0.35781825  0.77971101  0.41666667  1
  O  O149  1  0.35781825  0.77971101  0.75000000  1
  O  O150  1  0.85781825  0.27971101  0.08333333  1
  O  O151  1  0.85781825  0.27971101  0.41666667  1
  O  O152  1  0.85781825  0.27971101  0.75000000  1
  O  O153  1  0.85781825  0.77971101  0.08333333  1
  O  O154  1  0.85781825  0.77971101  0.41666667  1
  O  O155  1  0.85781825  0.77971101  0.75000000  1
  O  O156  1  0.14218175  0.02971101  0.08333333  1
  O  O157  1  0.14218175  0.02971101  0.41666667  1
  O  O158  1  0.14218175  0.02971101  0.75000000  1
  O  O159  1  0.14218175  0.52971101  0.08333333  1
  O  O160  1  0.14218175  0.52971101  0.41666667  1
  O  O161  1  0.14218175  0.52971101  0.75000000  1
  O  O162  1  0.64218175  0.02971101  0.08333333  1
  O  O163  1  0.64218175  0.02971101  0.41666667  1
  O  O164  1  0.64218175  0.02971101  0.75000000  1
  O  O165  1  0.64218175  0.52971101  0.08333333  1
  O  O166  1  0.64218175  0.52971101  0.41666667  1
  O  O167  1  0.64218175  0.52971101  0.75000000  1
  O  O168  1  0.35781825  0.47028899  0.25000000  1
  O  O169  1  0.35781825  0.47028899  0.58333333  1
  O  O170  1  0.35781825  0.47028899  0.91666667  1
  O  O171  1  0.35781825  0.97028899  0.25000000  1
  O  O172  1  0.35781825  0.97028899  0.58333333  1
  O  O173  1  0.35781825  0.97028899  0.91666667  1
  O  O174  1  0.85781825  0.47028899  0.25000000  1
  O  O175  1  0.85781825  0.47028899  0.58333333  1
  O  O176  1  0.85781825  0.47028899  0.91666667  1
  O  O177  1  0.85781825  0.97028899  0.25000000  1
  O  O178  1  0.85781825  0.97028899  0.58333333  1
  O  O179  1  0.85781825  0.97028899  0.91666667  1
  O  O180  1  0.14218175  0.22028899  0.25000000  1
  O  O181  1  0.14218175  0.22028899  0.58333333  1
  O  O182  1  0.14218175  0.22028899  0.91666667  1
  O  O183  1  0.14218175  0.72028899  0.25000000  1
  O  O184  1  0.14218175  0.72028899  0.58333333  1
  O  O185  1  0.14218175  0.72028899  0.91666667  1
  O  O186  1  0.64218175  0.22028899  0.25000000  1
  O  O187  1  0.64218175  0.22028899  0.58333333  1
  O  O188  1  0.64218175  0.22028899  0.91666667  1
  O  O189  1  0.64218175  0.72028899  0.25000000  1
  O  O190  1  0.64218175  0.72028899  0.58333333  1
  O  O191  1  0.64218175  0.72028899  0.91666667  1
