# generated using pymatgen
data_Na2ZnSiO4
_symmetry_space_group_name_H-M   'P 1'
_cell_length_a   15.61232723
_cell_length_b   16.23816510
_cell_length_c   17.29252364
_cell_angle_alpha   90.00000000
_cell_angle_beta   126.81719911
_cell_angle_gamma   90.00000000
_symmetry_Int_Tables_number   1
_chemical_formula_structural   Na2ZnSiO4
_chemical_formula_sum   'Na72 Zn36 Si36 O144'
_cell_volume   3509.55669264
_cell_formula_units_Z   36
loop_
 _symmetry_equiv_pos_site_id
 _symmetry_equiv_pos_as_xyz
  1  'x, y, z'
loop_
 _atom_site_type_symbol
 _atom_site_label
 _atom_site_symmetry_multiplicity
 _atom_site_fract_x
 _atom_site_fract_y
 _atom_site_fract_z
 _atom_site_occupancy
  Na  Na0  1  0.24486229  0.22517882  0.37365404  1
  Na  Na1  1  0.24486229  0.22517882  0.87365404  1
  Na  Na2  1  0.24486229  0.55851215  0.37365404  1
  Na  Na3  1  0.24486229  0.55851215  0.87365404  1
  Na  Na4  1  0.24486229  0.89184548  0.37365404  1
  Na  Na5  1  0.24486229  0.89184548  0.87365404  1
  Na  Na6  1  0.57819562  0.22517882  0.37365404  1
  Na  Na7  1  0.57819562  0.22517882  0.87365404  1
  Na  Na8  1  0.57819562  0.55851215  0.37365404  1
  Na  Na9  1  0.57819562  0.55851215  0.87365404  1
  Na  Na10  1  0.57819562  0.89184548  0.37365404  1
  Na  Na11  1  0.57819562  0.89184548  0.87365404  1
  Na  Na12  1  0.91152896  0.22517882  0.37365404  1
  Na  Na13  1  0.91152896  0.22517882  0.87365404  1
  Na  Na14  1  0.91152896  0.55851215  0.37365404  1
  Na  Na15  1  0.91152896  0.55851215  0.87365404  1
  Na  Na16  1  0.91152896  0.89184548  0.37365404  1
  Na  Na17  1  0.91152896  0.89184548  0.87365404  1
  Na  Na18  1  0.16097674  0.27299876  0.49600795  1
  Na  Na19  1  0.16097674  0.27299876  0.99600795  1
  Na  Na20  1  0.16097674  0.60633209  0.49600795  1
  Na  Na21  1  0.16097674  0.60633209  0.99600795  1
  Na  Na22  1  0.16097674  0.93966542  0.49600795  1
  Na  Na23  1  0.16097674  0.93966542  0.99600795  1
  Na  Na24  1  0.49431007  0.27299876  0.49600795  1
  Na  Na25  1  0.49431007  0.27299876  0.99600795  1
  Na  Na26  1  0.49431007  0.60633209  0.49600795  1
  Na  Na27  1  0.49431007  0.60633209  0.99600795  1
  Na  Na28  1  0.49431007  0.93966542  0.49600795  1
  Na  Na29  1  0.49431007  0.93966542  0.99600795  1
  Na  Na30  1  0.82764340  0.27299876  0.49600795  1
  Na  Na31  1  0.82764340  0.27299876  0.99600795  1
  Na  Na32  1  0.82764340  0.60633209  0.49600795  1
  Na  Na33  1  0.82764340  0.60633209  0.99600795  1
  Na  Na34  1  0.82764340  0.93966542  0.49600795  1
  Na  Na35  1  0.82764340  0.93966542  0.99600795  1
  Na  Na36  1  0.24486229  0.10815452  0.12365404  1
  Na  Na37  1  0.24486229  0.10815452  0.62365404  1
  Na  Na38  1  0.24486229  0.44148785  0.12365404  1
  Na  Na39  1  0.24486229  0.44148785  0.62365404  1
  Na  Na40  1  0.24486229  0.77482118  0.12365404  1
  Na  Na41  1  0.24486229  0.77482118  0.62365404  1
  Na  Na42  1  0.57819562  0.10815452  0.12365404  1
  Na  Na43  1  0.57819562  0.10815452  0.62365404  1
  Na  Na44  1  0.57819562  0.44148785  0.12365404  1
  Na  Na45  1  0.57819562  0.44148785  0.62365404  1
  Na  Na46  1  0.57819562  0.77482118  0.12365404  1
  Na  Na47  1  0.57819562  0.77482118  0.62365404  1
  Na  Na48  1  0.91152896  0.10815452  0.12365404  1
  Na  Na49  1  0.91152896  0.10815452  0.62365404  1
  Na  Na50  1  0.91152896  0.44148785  0.12365404  1
  Na  Na51  1  0.91152896  0.44148785  0.62365404  1
  Na  Na52  1  0.91152896  0.77482118  0.12365404  1
  Na  Na53  1  0.91152896  0.77482118  0.62365404  1
  Na  Na54  1  0.16097674  0.06033458  0.24600795  1
  Na  Na55  1  0.16097674  0.06033458  0.74600795  1
  Na  Na56  1  0.16097674  0.39366791  0.24600795  1
  Na  Na57  1  0.16097674  0.39366791  0.74600795  1
  Na  Na58  1  0.16097674  0.72700124  0.24600795  1
  Na  Na59  1  0.16097674  0.72700124  0.74600795  1
  Na  Na60  1  0.49431007  0.06033458  0.24600795  1
  Na  Na61  1  0.49431007  0.06033458  0.74600795  1
  Na  Na62  1  0.49431007  0.39366791  0.24600795  1
  Na  Na63  1  0.49431007  0.39366791  0.74600795  1
  Na  Na64  1  0.49431007  0.72700124  0.24600795  1
  Na  Na65  1  0.49431007  0.72700124  0.74600795  1
  Na  Na66  1  0.82764340  0.06033458  0.24600795  1
  Na  Na67  1  0.82764340  0.06033458  0.74600795  1
  Na  Na68  1  0.82764340  0.39366791  0.24600795  1
  Na  Na69  1  0.82764340  0.39366791  0.74600795  1
  Na  Na70  1  0.82764340  0.72700124  0.24600795  1
  Na  Na71  1  0.82764340  0.72700124  0.74600795  1
  Zn  Zn72  1  0.33281679  0.27088584  0.24883049  1
  Zn  Zn73  1  0.33281679  0.27088584  0.74883049  1
  Zn  Zn74  1  0.33281679  0.60421918  0.24883049  1
  Zn  Zn75  1  0.33281679  0.60421918  0.74883049  1
  Zn  Zn76  1  0.33281679  0.93755251  0.24883049  1
  Zn  Zn77  1  0.33281679  0.93755251  0.74883049  1
  Zn  Zn78  1  0.66615012  0.27088584  0.24883049  1
  Zn  Zn79  1  0.66615012  0.27088584  0.74883049  1
  Zn  Zn80  1  0.66615012  0.60421918  0.24883049  1
  Zn  Zn81  1  0.66615012  0.60421918  0.74883049  1
  Zn  Zn82  1  0.66615012  0.93755251  0.24883049  1
  Zn  Zn83  1  0.66615012  0.93755251  0.74883049  1
  Zn  Zn84  1  0.99948345  0.27088584  0.24883049  1
  Zn  Zn85  1  0.99948345  0.27088584  0.74883049  1
  Zn  Zn86  1  0.99948345  0.60421918  0.24883049  1
  Zn  Zn87  1  0.99948345  0.60421918  0.74883049  1
  Zn  Zn88  1  0.99948345  0.93755251  0.24883049  1
  Zn  Zn89  1  0.99948345  0.93755251  0.74883049  1
  Zn  Zn90  1  0.33281679  0.06244749  0.49883049  1
  Zn  Zn91  1  0.33281679  0.06244749  0.99883049  1
  Zn  Zn92  1  0.33281679  0.39578082  0.49883049  1
  Zn  Zn93  1  0.33281679  0.39578082  0.99883049  1
  Zn  Zn94  1  0.33281679  0.72911416  0.49883049  1
  Zn  Zn95  1  0.33281679  0.72911416  0.99883049  1
  Zn  Zn96  1  0.66615012  0.06244749  0.49883049  1
  Zn  Zn97  1  0.66615012  0.06244749  0.99883049  1
  Zn  Zn98  1  0.66615012  0.39578082  0.49883049  1
  Zn  Zn99  1  0.66615012  0.39578082  0.99883049  1
  Zn  Zn100  1  0.66615012  0.72911416  0.49883049  1
  Zn  Zn101  1  0.66615012  0.72911416  0.99883049  1
  Zn  Zn102  1  0.99948345  0.06244749  0.49883049  1
  Zn  Zn103  1  0.99948345  0.06244749  0.99883049  1
  Zn  Zn104  1  0.99948345  0.39578082  0.49883049  1
  Zn  Zn105  1  0.99948345  0.39578082  0.99883049  1
  Zn  Zn106  1  0.99948345  0.72911416  0.49883049  1
  Zn  Zn107  1  0.99948345  0.72911416  0.99883049  1
  Si  Si108  1  0.08316330  0.22901520  0.12258334  1
  Si  Si109  1  0.08316330  0.22901520  0.62258334  1
  Si  Si110  1  0.08316330  0.56234853  0.12258334  1
  Si  Si111  1  0.08316330  0.56234853  0.62258334  1
  Si  Si112  1  0.08316330  0.89568186  0.12258334  1
  Si  Si113  1  0.08316330  0.89568186  0.62258334  1
  Si  Si114  1  0.41649664  0.22901520  0.12258334  1
  Si  Si115  1  0.41649664  0.22901520  0.62258334  1
  Si  Si116  1  0.41649664  0.56234853  0.12258334  1
  Si  Si117  1  0.41649664  0.56234853  0.62258334  1
  Si  Si118  1  0.41649664  0.89568186  0.12258334  1
  Si  Si119  1  0.41649664  0.89568186  0.62258334  1
  Si  Si120  1  0.74982997  0.22901520  0.12258334  1
  Si  Si121  1  0.74982997  0.22901520  0.62258334  1
  Si  Si122  1  0.74982997  0.56234853  0.12258334  1
  Si  Si123  1  0.74982997  0.56234853  0.62258334  1
  Si  Si124  1  0.74982997  0.89568186  0.12258334  1
  Si  Si125  1  0.74982997  0.89568186  0.62258334  1
  Si  Si126  1  0.08316330  0.10431814  0.37258334  1
  Si  Si127  1  0.08316330  0.10431814  0.87258334  1
  Si  Si128  1  0.08316330  0.43765147  0.37258334  1
  Si  Si129  1  0.08316330  0.43765147  0.87258334  1
  Si  Si130  1  0.08316330  0.77098480  0.37258334  1
  Si  Si131  1  0.08316330  0.77098480  0.87258334  1
  Si  Si132  1  0.41649664  0.10431814  0.37258334  1
  Si  Si133  1  0.41649664  0.10431814  0.87258334  1
  Si  Si134  1  0.41649664  0.43765147  0.37258334  1
  Si  Si135  1  0.41649664  0.43765147  0.87258334  1
  Si  Si136  1  0.41649664  0.77098480  0.37258334  1
  Si  Si137  1  0.41649664  0.77098480  0.87258334  1
  Si  Si138  1  0.74982997  0.10431814  0.37258334  1
  Si  Si139  1  0.74982997  0.10431814  0.87258334  1
  Si  Si140  1  0.74982997  0.43765147  0.37258334  1
  Si  Si141  1  0.74982997  0.43765147  0.87258334  1
  Si  Si142  1  0.74982997  0.77098480  0.37258334  1
  Si  Si143  1  0.74982997  0.77098480  0.87258334  1
  O  O144  1  0.10140587  0.06992366  0.47094495  1
  O  O145  1  0.10140587  0.06992366  0.97094495  1
  O  O146  1  0.10140587  0.40325699  0.47094495  1
  O  O147  1  0.10140587  0.40325699  0.97094495  1
  O  O148  1  0.10140587  0.73659033  0.47094495  1
  O  O149  1  0.10140587  0.73659033  0.97094495  1
  O  O150  1  0.43473920  0.06992366  0.47094495  1
  O  O151  1  0.43473920  0.06992366  0.97094495  1
  O  O152  1  0.43473920  0.40325699  0.47094495  1
  O  O153  1  0.43473920  0.40325699  0.97094495  1
  O  O154  1  0.43473920  0.73659033  0.47094495  1
  O  O155  1  0.43473920  0.73659033  0.97094495  1
  O  O156  1  0.76807254  0.06992366  0.47094495  1
  O  O157  1  0.76807254  0.06992366  0.97094495  1
  O  O158  1  0.76807254  0.40325699  0.47094495  1
  O  O159  1  0.76807254  0.40325699  0.97094495  1
  O  O160  1  0.76807254  0.73659033  0.47094495  1
  O  O161  1  0.76807254  0.73659033  0.97094495  1
  O  O162  1  0.10140587  0.26340967  0.22094495  1
  O  O163  1  0.10140587  0.26340967  0.72094495  1
  O  O164  1  0.10140587  0.59674301  0.22094495  1
  O  O165  1  0.10140587  0.59674301  0.72094495  1
  O  O166  1  0.10140587  0.93007634  0.22094495  1
  O  O167  1  0.10140587  0.93007634  0.72094495  1
  O  O168  1  0.43473920  0.26340967  0.22094495  1
  O  O169  1  0.43473920  0.26340967  0.72094495  1
  O  O170  1  0.43473920  0.59674301  0.22094495  1
  O  O171  1  0.43473920  0.59674301  0.72094495  1
  O  O172  1  0.43473920  0.93007634  0.22094495  1
  O  O173  1  0.43473920  0.93007634  0.72094495  1
  O  O174  1  0.76807254  0.26340967  0.22094495  1
  O  O175  1  0.76807254  0.26340967  0.72094495  1
  O  O176  1  0.76807254  0.59674301  0.22094495  1
  O  O177  1  0.76807254  0.59674301  0.72094495  1
  O  O178  1  0.76807254  0.93007634  0.22094495  1
  O  O179  1  0.76807254  0.93007634  0.72094495  1
  O  O180  1  0.32434818  0.05164226  0.27525866  1
  O  O181  1  0.32434818  0.05164226  0.77525866  1
  O  O182  1  0.32434818  0.38497560  0.27525866  1
  O  O183  1  0.32434818  0.38497560  0.77525866  1
  O  O184  1  0.32434818  0.71830893  0.27525866  1
  O  O185  1  0.32434818  0.71830893  0.77525866  1
  O  O186  1  0.65768152  0.05164226  0.27525866  1
  O  O187  1  0.65768152  0.05164226  0.77525866  1
  O  O188  1  0.65768152  0.38497560  0.27525866  1
  O  O189  1  0.65768152  0.38497560  0.77525866  1
  O  O190  1  0.65768152  0.71830893  0.27525866  1
  O  O191  1  0.65768152  0.71830893  0.77525866  1
  O  O192  1  0.99101485  0.05164226  0.27525866  1
  O  O193  1  0.99101485  0.05164226  0.77525866  1
  O  O194  1  0.99101485  0.38497560  0.27525866  1
  O  O195  1  0.99101485  0.38497560  0.77525866  1
  O  O196  1  0.99101485  0.71830893  0.27525866  1
  O  O197  1  0.99101485  0.71830893  0.77525866  1
  O  O198  1  0.32434818  0.28169107  0.02525866  1
  O  O199  1  0.32434818  0.28169107  0.52525866  1
  O  O200  1  0.32434818  0.61502440  0.02525866  1
  O  O201  1  0.32434818  0.61502440  0.52525866  1
  O  O202  1  0.32434818  0.94835774  0.02525866  1
  O  O203  1  0.32434818  0.94835774  0.52525866  1
  O  O204  1  0.65768152  0.28169107  0.02525866  1
  O  O205  1  0.65768152  0.28169107  0.52525866  1
  O  O206  1  0.65768152  0.61502440  0.02525866  1
  O  O207  1  0.65768152  0.61502440  0.52525866  1
  O  O208  1  0.65768152  0.94835774  0.02525866  1
  O  O209  1  0.65768152  0.94835774  0.52525866  1
  O  O210  1  0.99101485  0.28169107  0.02525866  1
  O  O211  1  0.99101485  0.28169107  0.52525866  1
  O  O212  1  0.99101485  0.61502440  0.02525866  1
  O  O213  1  0.99101485  0.61502440  0.52525866  1
  O  O214  1  0.99101485  0.94835774  0.02525866  1
  O  O215  1  0.99101485  0.94835774  0.52525866  1
  O  O216  1  0.19704293  0.09620075  0.38692054  1
  O  O217  1  0.19704293  0.09620075  0.88692054  1
  O  O218  1  0.19704293  0.42953409  0.38692054  1
  O  O219  1  0.19704293  0.42953409  0.88692054  1
  O  O220  1  0.19704293  0.76286742  0.38692054  1
  O  O221  1  0.19704293  0.76286742  0.88692054  1
  O  O222  1  0.53037626  0.09620075  0.38692054  1
  O  O223  1  0.53037626  0.09620075  0.88692054  1
  O  O224  1  0.53037626  0.42953409  0.38692054  1
  O  O225  1  0.53037626  0.42953409  0.88692054  1
  O  O226  1  0.53037626  0.76286742  0.38692054  1
  O  O227  1  0.53037626  0.76286742  0.88692054  1
  O  O228  1  0.86370960  0.09620075  0.38692054  1
  O  O229  1  0.86370960  0.09620075  0.88692054  1
  O  O230  1  0.86370960  0.42953409  0.38692054  1
  O  O231  1  0.86370960  0.42953409  0.88692054  1
  O  O232  1  0.86370960  0.76286742  0.38692054  1
  O  O233  1  0.86370960  0.76286742  0.88692054  1
  O  O234  1  0.04735024  0.13121355  0.10804953  1
  O  O235  1  0.04735024  0.13121355  0.60804953  1
  O  O236  1  0.04735024  0.46454689  0.10804953  1
  O  O237  1  0.04735024  0.46454689  0.60804953  1
  O  O238  1  0.04735024  0.79788022  0.10804953  1
  O  O239  1  0.04735024  0.79788022  0.60804953  1
  O  O240  1  0.38068357  0.13121355  0.10804953  1
  O  O241  1  0.38068357  0.13121355  0.60804953  1
  O  O242  1  0.38068357  0.46454689  0.10804953  1
  O  O243  1  0.38068357  0.46454689  0.60804953  1
  O  O244  1  0.38068357  0.79788022  0.10804953  1
  O  O245  1  0.38068357  0.79788022  0.60804953  1
  O  O246  1  0.71401690  0.13121355  0.10804953  1
  O  O247  1  0.71401690  0.13121355  0.60804953  1
  O  O248  1  0.71401690  0.46454689  0.10804953  1
  O  O249  1  0.71401690  0.46454689  0.60804953  1
  O  O250  1  0.71401690  0.79788022  0.10804953  1
  O  O251  1  0.71401690  0.79788022  0.60804953  1
  O  O252  1  0.04735024  0.20211978  0.35804953  1
  O  O253  1  0.04735024  0.20211978  0.85804953  1
  O  O254  1  0.04735024  0.53545311  0.35804953  1
  O  O255  1  0.04735024  0.53545311  0.85804953  1
  O  O256  1  0.04735024  0.86878645  0.35804953  1
  O  O257  1  0.04735024  0.86878645  0.85804953  1
  O  O258  1  0.38068357  0.20211978  0.35804953  1
  O  O259  1  0.38068357  0.20211978  0.85804953  1
  O  O260  1  0.38068357  0.53545311  0.35804953  1
  O  O261  1  0.38068357  0.53545311  0.85804953  1
  O  O262  1  0.38068357  0.86878645  0.35804953  1
  O  O263  1  0.38068357  0.86878645  0.85804953  1
  O  O264  1  0.71401690  0.20211978  0.35804953  1
  O  O265  1  0.71401690  0.20211978  0.85804953  1
  O  O266  1  0.71401690  0.53545311  0.35804953  1
  O  O267  1  0.71401690  0.53545311  0.85804953  1
  O  O268  1  0.71401690  0.86878645  0.35804953  1
  O  O269  1  0.71401690  0.86878645  0.85804953  1
  O  O270  1  0.19704293  0.23713258  0.13692054  1
  O  O271  1  0.19704293  0.23713258  0.63692054  1
  O  O272  1  0.19704293  0.57046591  0.13692054  1
  O  O273  1  0.19704293  0.57046591  0.63692054  1
  O  O274  1  0.19704293  0.90379925  0.13692054  1
  O  O275  1  0.19704293  0.90379925  0.63692054  1
  O  O276  1  0.53037626  0.23713258  0.13692054  1
  O  O277  1  0.53037626  0.23713258  0.63692054  1
  O  O278  1  0.53037626  0.57046591  0.13692054  1
  O  O279  1  0.53037626  0.57046591  0.63692054  1
  O  O280  1  0.53037626  0.90379925  0.13692054  1
  O  O281  1  0.53037626  0.90379925  0.63692054  1
  O  O282  1  0.86370960  0.23713258  0.13692054  1
  O  O283  1  0.86370960  0.23713258  0.63692054  1
  O  O284  1  0.86370960  0.57046591  0.13692054  1
  O  O285  1  0.86370960  0.57046591  0.63692054  1
  O  O286  1  0.86370960  0.90379925  0.13692054  1
  O  O287  1  0.86370960  0.90379925  0.63692054  1
