# generated using pymatgen
data_YBO3
_symmetry_space_group_name_H-M   'P 1'
_cell_length_a   11.28192500
_cell_length_b   13.01123064
_cell_length_c   8.81335399
_cell_angle_alpha   90.00000000
_cell_angle_beta   90.00000000
_cell_angle_gamma   90.00000000
_symmetry_Int_Tables_number   1
_chemical_formula_structural   YBO3
_chemical_formula_sum   'Y24 B24 O72'
_cell_volume   1293.72746328
_cell_formula_units_Z   24
loop_
 _symmetry_equiv_pos_site_id
 _symmetry_equiv_pos_as_xyz
  1  'x, y, z'
loop_
 _atom_site_type_symbol
 _atom_site_label
 _atom_site_symmetry_multiplicity
 _atom_site_fract_x
 _atom_site_fract_y
 _atom_site_fract_z
 _atom_site_occupancy
  Y  Y0  1  0.67026330  0.00000000  0.00000000  1
  Y  Y1  1  0.67026330  0.50000000  0.00000000  1
  Y  Y2  1  1.17026330  0.25000000  0.00000000  1
  Y  Y3  1  1.17026330  0.75000000  0.00000000  1
  Y  Y4  1  0.67026330  0.00000000  0.50000000  1
  Y  Y5  1  0.67026330  0.50000000  0.50000000  1
  Y  Y6  1  1.17026330  0.25000000  0.50000000  1
  Y  Y7  1  1.17026330  0.75000000  0.50000000  1
  Y  Y8  1  0.00000000  0.00000000  0.00000000  1
  Y  Y9  1  0.00000000  0.50000000  0.00000000  1
  Y  Y10  1  0.50000000  0.25000000  0.00000000  1
  Y  Y11  1  0.50000000  0.75000000  0.00000000  1
  Y  Y12  1  0.00000000  0.00000000  0.50000000  1
  Y  Y13  1  0.00000000  0.50000000  0.50000000  1
  Y  Y14  1  0.50000000  0.25000000  0.50000000  1
  Y  Y15  1  0.50000000  0.75000000  0.50000000  1
  Y  Y16  1  0.32973670  0.00000000  0.00000000  1
  Y  Y17  1  0.32973670  0.50000000  0.00000000  1
  Y  Y18  1  0.82973670  0.25000000  0.00000000  1
  Y  Y19  1  0.82973670  0.75000000  0.00000000  1
  Y  Y20  1  0.32973670  0.00000000  0.50000000  1
  Y  Y21  1  0.32973670  0.50000000  0.50000000  1
  Y  Y22  1  0.82973670  0.25000000  0.50000000  1
  Y  Y23  1  0.82973670  0.75000000  0.50000000  1
  B  B24  1  0.37925045  0.14325015  0.25000000  1
  B  B25  1  0.37925045  0.64325015  0.25000000  1
  B  B26  1  0.87925045  0.39325015  0.25000000  1
  B  B27  1  0.87925045  0.89325015  0.25000000  1
  B  B28  1  0.62074955  0.14325015  0.25000000  1
  B  B29  1  0.62074955  0.64325015  0.25000000  1
  B  B30  1  1.12074955  0.39325015  0.25000000  1
  B  B31  1  1.12074955  0.89325015  0.25000000  1
  B  B32  1  0.50000000  -0.03827049  0.25000000  1
  B  B33  1  0.50000000  0.46172951  0.25000000  1
  B  B34  1  1.00000000  0.21172951  0.25000000  1
  B  B35  1  1.00000000  0.71172951  0.25000000  1
  B  B36  1  0.50000000  0.03827049  0.75000000  1
  B  B37  1  0.50000000  0.53827049  0.75000000  1
  B  B38  1  1.00000000  0.28827049  0.75000000  1
  B  B39  1  1.00000000  0.78827049  0.75000000  1
  B  B40  1  0.62074955  -0.14325015  0.75000000  1
  B  B41  1  0.62074955  0.35674985  0.75000000  1
  B  B42  1  1.12074955  0.10674985  0.75000000  1
  B  B43  1  1.12074955  0.60674985  0.75000000  1
  B  B44  1  0.37925045  -0.14325015  0.75000000  1
  B  B45  1  0.37925045  0.35674985  0.75000000  1
  B  B46  1  0.87925045  0.10674985  0.75000000  1
  B  B47  1  0.87925045  0.60674985  0.75000000  1
  O  O48  1  0.60936255  -0.02797385  0.75000000  1
  O  O49  1  0.60936255  0.47202615  0.75000000  1
  O  O50  1  1.10936255  0.22202615  0.75000000  1
  O  O51  1  1.10936255  0.72202615  0.75000000  1
  O  O52  1  0.39063745  -0.02797385  0.75000000  1
  O  O53  1  0.39063745  0.47202615  0.75000000  1
  O  O54  1  0.89063745  0.22202615  0.75000000  1
  O  O55  1  0.89063745  0.72202615  0.75000000  1
  O  O56  1  0.50000000  -0.19181418  0.75000000  1
  O  O57  1  0.50000000  0.30818582  0.75000000  1
  O  O58  1  1.00000000  0.05818582  0.75000000  1
  O  O59  1  1.00000000  0.55818582  0.75000000  1
  O  O60  1  0.50000000  0.19181418  0.25000000  1
  O  O61  1  0.50000000  0.69181418  0.25000000  1
  O  O62  1  1.00000000  0.44181418  0.25000000  1
  O  O63  1  1.00000000  0.94181418  0.25000000  1
  O  O64  1  0.39063745  0.02797385  0.25000000  1
  O  O65  1  0.39063745  0.52797385  0.25000000  1
  O  O66  1  0.89063745  0.27797385  0.25000000  1
  O  O67  1  0.89063745  0.77797385  0.25000000  1
  O  O68  1  0.60936255  0.02797385  0.25000000  1
  O  O69  1  0.60936255  0.52797385  0.25000000  1
  O  O70  1  1.10936255  0.27797385  0.25000000  1
  O  O71  1  1.10936255  0.77797385  0.25000000  1
  O  O72  1  0.82449316  0.07912205  0.60745217  1
  O  O73  1  0.82449316  0.57912205  0.60745217  1
  O  O74  1  1.32449316  0.32912205  0.60745217  1
  O  O75  1  1.32449316  0.82912205  0.60745217  1
  O  O76  1  0.82449316  0.07912205  0.89254783  1
  O  O77  1  0.82449316  0.57912205  0.89254783  1
  O  O78  1  1.32449316  0.32912205  0.89254783  1
  O  O79  1  1.32449316  0.82912205  0.89254783  1
  O  O80  1  0.17550684  0.07912205  0.60745217  1
  O  O81  1  0.17550684  0.57912205  0.60745217  1
  O  O82  1  0.67550684  0.32912205  0.60745217  1
  O  O83  1  0.67550684  0.82912205  0.60745217  1
  O  O84  1  0.17550684  0.07912205  0.89254783  1
  O  O85  1  0.17550684  0.57912205  0.89254783  1
  O  O86  1  0.67550684  0.32912205  0.89254783  1
  O  O87  1  0.67550684  0.82912205  0.89254783  1
  O  O88  1  0.50000000  0.09266072  0.60564040  1
  O  O89  1  0.50000000  0.59266072  0.60564040  1
  O  O90  1  1.00000000  0.34266072  0.60564040  1
  O  O91  1  1.00000000  0.84266072  0.60564040  1
  O  O92  1  0.50000000  0.09266072  0.89435960  1
  O  O93  1  0.50000000  0.59266072  0.89435960  1
  O  O94  1  1.00000000  0.34266072  0.89435960  1
  O  O95  1  1.00000000  0.84266072  0.89435960  1
  O  O96  1  0.50000000  -0.09266072  0.10564040  1
  O  O97  1  0.50000000  0.40733928  0.10564040  1
  O  O98  1  1.00000000  0.15733928  0.10564040  1
  O  O99  1  1.00000000  0.65733928  0.10564040  1
  O  O100  1  0.50000000  -0.09266072  0.39435960  1
  O  O101  1  0.50000000  0.40733928  0.39435960  1
  O  O102  1  1.00000000  0.15733928  0.39435960  1
  O  O103  1  1.00000000  0.65733928  0.39435960  1
  O  O104  1  0.17550684  -0.07912205  0.10745217  1
  O  O105  1  0.17550684  0.42087795  0.10745217  1
  O  O106  1  0.67550684  0.17087795  0.10745217  1
  O  O107  1  0.67550684  0.67087795  0.10745217  1
  O  O108  1  0.17550684  -0.07912205  0.39254783  1
  O  O109  1  0.17550684  0.42087795  0.39254783  1
  O  O110  1  0.67550684  0.17087795  0.39254783  1
  O  O111  1  0.67550684  0.67087795  0.39254783  1
  O  O112  1  0.82449316  -0.07912205  0.10745217  1
  O  O113  1  0.82449316  0.42087795  0.10745217  1
  O  O114  1  1.32449316  0.17087795  0.10745217  1
  O  O115  1  1.32449316  0.67087795  0.10745217  1
  O  O116  1  0.82449316  -0.07912205  0.39254783  1
  O  O117  1  0.82449316  0.42087795  0.39254783  1
  O  O118  1  1.32449316  0.17087795  0.39254783  1
  O  O119  1  1.32449316  0.67087795  0.39254783  1
