# generated using pymatgen
data_Li5ReO6
_symmetry_space_group_name_H-M   'P 1'
_cell_length_a   10.07441933
_cell_length_b   8.69609457
_cell_length_c   10.01088404
_cell_angle_alpha   90.00000000
_cell_angle_beta   109.95236867
_cell_angle_gamma   90.00000000
_symmetry_Int_Tables_number   1
_chemical_formula_structural   Li5ReO6
_chemical_formula_sum   'Li40 Re8 O48'
_cell_volume   824.39198866
_cell_formula_units_Z   8
loop_
 _symmetry_equiv_pos_site_id
 _symmetry_equiv_pos_as_xyz
  1  'x, y, z'
loop_
 _atom_site_type_symbol
 _atom_site_label
 _atom_site_symmetry_multiplicity
 _atom_site_fract_x
 _atom_site_fract_y
 _atom_site_fract_z
 _atom_site_occupancy
  Li  Li0  1  0.25000000  -0.16633755  0.00000000  1
  Li  Li1  1  0.25000000  -0.16633755  0.50000000  1
  Li  Li2  1  0.75000000  -0.16633755  0.00000000  1
  Li  Li3  1  0.75000000  -0.16633755  0.50000000  1
  Li  Li4  1  0.50000000  0.33366245  0.00000000  1
  Li  Li5  1  0.50000000  0.33366245  0.50000000  1
  Li  Li6  1  1.00000000  0.33366245  0.00000000  1
  Li  Li7  1  1.00000000  0.33366245  0.50000000  1
  Li  Li8  1  0.25000000  0.16633755  0.00000000  1
  Li  Li9  1  0.25000000  0.16633755  0.50000000  1
  Li  Li10  1  0.75000000  0.16633755  0.00000000  1
  Li  Li11  1  0.75000000  0.16633755  0.50000000  1
  Li  Li12  1  0.50000000  0.66633755  0.00000000  1
  Li  Li13  1  0.50000000  0.66633755  0.50000000  1
  Li  Li14  1  1.00000000  0.66633755  0.00000000  1
  Li  Li15  1  1.00000000  0.66633755  0.50000000  1
  Li  Li16  1  0.25000000  0.00000000  0.25000000  1
  Li  Li17  1  0.25000000  0.00000000  0.75000000  1
  Li  Li18  1  0.75000000  0.00000000  0.25000000  1
  Li  Li19  1  0.75000000  0.00000000  0.75000000  1
  Li  Li20  1  0.50000000  0.50000000  0.25000000  1
  Li  Li21  1  0.50000000  0.50000000  0.75000000  1
  Li  Li22  1  1.00000000  0.50000000  0.25000000  1
  Li  Li23  1  1.00000000  0.50000000  0.75000000  1
  Li  Li24  1  0.25000000  -0.32324444  0.25000000  1
  Li  Li25  1  0.25000000  -0.32324444  0.75000000  1
  Li  Li26  1  0.75000000  -0.32324444  0.25000000  1
  Li  Li27  1  0.75000000  -0.32324444  0.75000000  1
  Li  Li28  1  0.50000000  0.17675556  0.25000000  1
  Li  Li29  1  0.50000000  0.17675556  0.75000000  1
  Li  Li30  1  1.00000000  0.17675556  0.25000000  1
  Li  Li31  1  1.00000000  0.17675556  0.75000000  1
  Li  Li32  1  0.25000000  0.32324444  0.25000000  1
  Li  Li33  1  0.25000000  0.32324444  0.75000000  1
  Li  Li34  1  0.75000000  0.32324444  0.25000000  1
  Li  Li35  1  0.75000000  0.32324444  0.75000000  1
  Li  Li36  1  0.50000000  0.82324444  0.25000000  1
  Li  Li37  1  0.50000000  0.82324444  0.75000000  1
  Li  Li38  1  1.00000000  0.82324444  0.25000000  1
  Li  Li39  1  1.00000000  0.82324444  0.75000000  1
  Re  Re40  1  0.00000000  0.00000000  0.00000000  1
  Re  Re41  1  -0.00000000  0.00000000  0.50000000  1
  Re  Re42  1  0.50000000  0.00000000  0.00000000  1
  Re  Re43  1  0.50000000  0.00000000  0.50000000  1
  Re  Re44  1  0.25000000  0.50000000  0.00000000  1
  Re  Re45  1  0.25000000  0.50000000  0.50000000  1
  Re  Re46  1  0.75000000  0.50000000  0.00000000  1
  Re  Re47  1  0.75000000  0.50000000  0.50000000  1
  O  O48  1  0.38414571  0.15405102  0.38259752  1
  O  O49  1  0.38414571  0.15405102  0.88259752  1
  O  O50  1  0.88414571  0.15405102  0.38259752  1
  O  O51  1  0.88414571  0.15405102  0.88259752  1
  O  O52  1  0.63414571  0.65405102  0.38259752  1
  O  O53  1  0.63414571  0.65405102  0.88259752  1
  O  O54  1  1.13414571  0.65405102  0.38259752  1
  O  O55  1  1.13414571  0.65405102  0.88259752  1
  O  O56  1  0.38414571  -0.15405102  0.38259752  1
  O  O57  1  0.38414571  -0.15405102  0.88259752  1
  O  O58  1  0.88414571  -0.15405102  0.38259752  1
  O  O59  1  0.88414571  -0.15405102  0.88259752  1
  O  O60  1  0.63414571  0.34594898  0.38259752  1
  O  O61  1  0.63414571  0.34594898  0.88259752  1
  O  O62  1  1.13414571  0.34594898  0.38259752  1
  O  O63  1  1.13414571  0.34594898  0.88259752  1
  O  O64  1  0.11585429  0.15405102  0.11740248  1
  O  O65  1  0.11585429  0.15405102  0.61740248  1
  O  O66  1  0.61585429  0.15405102  0.11740248  1
  O  O67  1  0.61585429  0.15405102  0.61740248  1
  O  O68  1  0.36585429  0.65405102  0.11740248  1
  O  O69  1  0.36585429  0.65405102  0.61740248  1
  O  O70  1  0.86585429  0.65405102  0.11740248  1
  O  O71  1  0.86585429  0.65405102  0.61740248  1
  O  O72  1  0.11585429  -0.15405102  0.11740248  1
  O  O73  1  0.11585429  -0.15405102  0.61740248  1
  O  O74  1  0.61585429  -0.15405102  0.11740248  1
  O  O75  1  0.61585429  -0.15405102  0.61740248  1
  O  O76  1  0.36585429  0.34594898  0.11740248  1
  O  O77  1  0.36585429  0.34594898  0.61740248  1
  O  O78  1  0.86585429  0.34594898  0.11740248  1
  O  O79  1  0.86585429  0.34594898  0.61740248  1
  O  O80  1  0.38521216  -0.00000000  0.11434951  1
  O  O81  1  0.38521216  -0.00000000  0.61434951  1
  O  O82  1  0.88521216  -0.00000000  0.11434951  1
  O  O83  1  0.88521216  -0.00000000  0.61434951  1
  O  O84  1  0.63521216  0.50000000  0.11434951  1
  O  O85  1  0.63521216  0.50000000  0.61434951  1
  O  O86  1  1.13521216  0.50000000  0.11434951  1
  O  O87  1  1.13521216  0.50000000  0.61434951  1
  O  O88  1  0.11478784  -0.00000000  0.38565049  1
  O  O89  1  0.11478784  -0.00000000  0.88565049  1
  O  O90  1  0.61478784  -0.00000000  0.38565049  1
  O  O91  1  0.61478784  -0.00000000  0.88565049  1
  O  O92  1  0.36478784  0.50000000  0.38565049  1
  O  O93  1  0.36478784  0.50000000  0.88565049  1
  O  O94  1  0.86478784  0.50000000  0.38565049  1
  O  O95  1  0.86478784  0.50000000  0.88565049  1
