# generated using pymatgen
data_Li5BiO5
_symmetry_space_group_name_H-M   'P 1'
_cell_length_a   9.85035923
_cell_length_b   12.69689070
_cell_length_c   11.94131745
_cell_angle_alpha   90.00000000
_cell_angle_beta   109.56327964
_cell_angle_gamma   90.00000000
_symmetry_Int_Tables_number   1
_chemical_formula_structural   Li5BiO5
_chemical_formula_sum   'Li60 Bi12 O60'
_cell_volume   1407.27215214
_cell_formula_units_Z   12
loop_
 _symmetry_equiv_pos_site_id
 _symmetry_equiv_pos_as_xyz
  1  'x, y, z'
loop_
 _atom_site_type_symbol
 _atom_site_label
 _atom_site_symmetry_multiplicity
 _atom_site_fract_x
 _atom_site_fract_y
 _atom_site_fract_z
 _atom_site_occupancy
  Li  Li0  1  0.71007090  -0.00000000  0.17081092  1
  Li  Li1  1  0.71007090  -0.00000000  0.67081092  1
  Li  Li2  1  0.71007090  0.33333333  0.17081092  1
  Li  Li3  1  0.71007090  0.33333333  0.67081092  1
  Li  Li4  1  0.71007090  0.66666667  0.17081092  1
  Li  Li5  1  0.71007090  0.66666667  0.67081092  1
  Li  Li6  1  1.21007090  0.16666667  0.17081092  1
  Li  Li7  1  1.21007090  0.16666667  0.67081092  1
  Li  Li8  1  1.21007090  0.50000000  0.17081092  1
  Li  Li9  1  1.21007090  0.50000000  0.67081092  1
  Li  Li10  1  1.21007090  0.83333333  0.17081092  1
  Li  Li11  1  1.21007090  0.83333333  0.67081092  1
  Li  Li12  1  0.00000000  -0.00000000  0.25000000  1
  Li  Li13  1  -0.00000000  -0.00000000  0.75000000  1
  Li  Li14  1  0.00000000  0.33333333  0.25000000  1
  Li  Li15  1  -0.00000000  0.33333333  0.75000000  1
  Li  Li16  1  0.00000000  0.66666667  0.25000000  1
  Li  Li17  1  -0.00000000  0.66666667  0.75000000  1
  Li  Li18  1  0.50000000  0.16666667  0.25000000  1
  Li  Li19  1  0.50000000  0.16666667  0.75000000  1
  Li  Li20  1  0.50000000  0.50000000  0.25000000  1
  Li  Li21  1  0.50000000  0.50000000  0.75000000  1
  Li  Li22  1  0.50000000  0.83333333  0.25000000  1
  Li  Li23  1  0.50000000  0.83333333  0.75000000  1
  Li  Li24  1  0.31171264  0.00000000  0.06995747  1
  Li  Li25  1  0.31171264  0.00000000  0.56995747  1
  Li  Li26  1  0.31171264  0.33333333  0.06995747  1
  Li  Li27  1  0.31171264  0.33333333  0.56995747  1
  Li  Li28  1  0.31171264  0.66666667  0.06995747  1
  Li  Li29  1  0.31171264  0.66666667  0.56995747  1
  Li  Li30  1  0.81171264  0.16666667  0.06995747  1
  Li  Li31  1  0.81171264  0.16666667  0.56995747  1
  Li  Li32  1  0.81171264  0.50000000  0.06995747  1
  Li  Li33  1  0.81171264  0.50000000  0.56995747  1
  Li  Li34  1  0.81171264  0.83333333  0.06995747  1
  Li  Li35  1  0.81171264  0.83333333  0.56995747  1
  Li  Li36  1  0.68828736  0.00000000  0.43004253  1
  Li  Li37  1  0.68828736  0.00000000  0.93004253  1
  Li  Li38  1  0.68828736  0.33333333  0.43004253  1
  Li  Li39  1  0.68828736  0.33333333  0.93004253  1
  Li  Li40  1  0.68828736  0.66666667  0.43004253  1
  Li  Li41  1  0.68828736  0.66666667  0.93004253  1
  Li  Li42  1  1.18828736  0.16666667  0.43004253  1
  Li  Li43  1  1.18828736  0.16666667  0.93004253  1
  Li  Li44  1  1.18828736  0.50000000  0.43004253  1
  Li  Li45  1  1.18828736  0.50000000  0.93004253  1
  Li  Li46  1  1.18828736  0.83333333  0.43004253  1
  Li  Li47  1  1.18828736  0.83333333  0.93004253  1
  Li  Li48  1  0.28992910  -0.00000000  0.32918908  1
  Li  Li49  1  0.28992910  -0.00000000  0.82918908  1
  Li  Li50  1  0.28992910  0.33333333  0.32918908  1
  Li  Li51  1  0.28992910  0.33333333  0.82918908  1
  Li  Li52  1  0.28992910  0.66666667  0.32918908  1
  Li  Li53  1  0.28992910  0.66666667  0.82918908  1
  Li  Li54  1  0.78992910  0.16666667  0.32918908  1
  Li  Li55  1  0.78992910  0.16666667  0.82918908  1
  Li  Li56  1  0.78992910  0.50000000  0.32918908  1
  Li  Li57  1  0.78992910  0.50000000  0.82918908  1
  Li  Li58  1  0.78992910  0.83333333  0.32918908  1
  Li  Li59  1  0.78992910  0.83333333  0.82918908  1
  Bi  Bi60  1  0.00000000  0.00000000  0.00000000  1
  Bi  Bi61  1  -0.00000000  0.00000000  0.50000000  1
  Bi  Bi62  1  0.00000000  0.33333333  0.00000000  1
  Bi  Bi63  1  -0.00000000  0.33333333  0.50000000  1
  Bi  Bi64  1  0.00000000  0.66666667  0.00000000  1
  Bi  Bi65  1  -0.00000000  0.66666667  0.50000000  1
  Bi  Bi66  1  0.50000000  0.16666667  0.00000000  1
  Bi  Bi67  1  0.50000000  0.16666667  0.50000000  1
  Bi  Bi68  1  0.50000000  0.50000000  0.00000000  1
  Bi  Bi69  1  0.50000000  0.50000000  0.50000000  1
  Bi  Bi70  1  0.50000000  0.83333333  0.00000000  1
  Bi  Bi71  1  0.50000000  0.83333333  0.50000000  1
  O  O72  1  0.85004225  0.00000000  0.09000319  1
  O  O73  1  0.85004225  0.00000000  0.59000319  1
  O  O74  1  0.85004225  0.33333333  0.09000319  1
  O  O75  1  0.85004225  0.33333333  0.59000319  1
  O  O76  1  0.85004225  0.66666667  0.09000319  1
  O  O77  1  0.85004225  0.66666667  0.59000319  1
  O  O78  1  1.35004225  0.16666667  0.09000319  1
  O  O79  1  1.35004225  0.16666667  0.59000319  1
  O  O80  1  1.35004225  0.50000000  0.09000319  1
  O  O81  1  1.35004225  0.50000000  0.59000319  1
  O  O82  1  1.35004225  0.83333333  0.09000319  1
  O  O83  1  1.35004225  0.83333333  0.59000319  1
  O  O84  1  0.50000000  0.00000000  0.00000000  1
  O  O85  1  0.50000000  0.00000000  0.50000000  1
  O  O86  1  0.50000000  0.33333333  0.00000000  1
  O  O87  1  0.50000000  0.33333333  0.50000000  1
  O  O88  1  0.50000000  0.66666667  0.00000000  1
  O  O89  1  0.50000000  0.66666667  0.50000000  1
  O  O90  1  1.00000000  0.16666667  0.00000000  1
  O  O91  1  1.00000000  0.16666667  0.50000000  1
  O  O92  1  1.00000000  0.50000000  0.00000000  1
  O  O93  1  1.00000000  0.50000000  0.50000000  1
  O  O94  1  1.00000000  0.83333333  0.00000000  1
  O  O95  1  1.00000000  0.83333333  0.50000000  1
  O  O96  1  0.16596472  0.00000000  0.16396580  1
  O  O97  1  0.16596472  0.00000000  0.66396580  1
  O  O98  1  0.16596472  0.33333333  0.16396580  1
  O  O99  1  0.16596472  0.33333333  0.66396580  1
  O  O100  1  0.16596472  0.66666667  0.16396580  1
  O  O101  1  0.16596472  0.66666667  0.66396580  1
  O  O102  1  0.66596472  0.16666667  0.16396580  1
  O  O103  1  0.66596472  0.16666667  0.66396580  1
  O  O104  1  0.66596472  0.50000000  0.16396580  1
  O  O105  1  0.66596472  0.50000000  0.66396580  1
  O  O106  1  0.66596472  0.83333333  0.16396580  1
  O  O107  1  0.66596472  0.83333333  0.66396580  1
  O  O108  1  0.83403528  0.00000000  0.33603420  1
  O  O109  1  0.83403528  0.00000000  0.83603420  1
  O  O110  1  0.83403528  0.33333333  0.33603420  1
  O  O111  1  0.83403528  0.33333333  0.83603420  1
  O  O112  1  0.83403528  0.66666667  0.33603420  1
  O  O113  1  0.83403528  0.66666667  0.83603420  1
  O  O114  1  1.33403528  0.16666667  0.33603420  1
  O  O115  1  1.33403528  0.16666667  0.83603420  1
  O  O116  1  1.33403528  0.50000000  0.33603420  1
  O  O117  1  1.33403528  0.50000000  0.83603420  1
  O  O118  1  1.33403528  0.83333333  0.33603420  1
  O  O119  1  1.33403528  0.83333333  0.83603420  1
  O  O120  1  0.14995775  -0.00000000  0.40999681  1
  O  O121  1  0.14995775  -0.00000000  0.90999681  1
  O  O122  1  0.14995775  0.33333333  0.40999681  1
  O  O123  1  0.14995775  0.33333333  0.90999681  1
  O  O124  1  0.14995775  0.66666667  0.40999681  1
  O  O125  1  0.14995775  0.66666667  0.90999681  1
  O  O126  1  0.64995775  0.16666667  0.40999681  1
  O  O127  1  0.64995775  0.16666667  0.90999681  1
  O  O128  1  0.64995775  0.50000000  0.40999681  1
  O  O129  1  0.64995775  0.50000000  0.90999681  1
  O  O130  1  0.64995775  0.83333333  0.40999681  1
  O  O131  1  0.64995775  0.83333333  0.90999681  1
