# generated using pymatgen
data_K2LiVO4
_symmetry_space_group_name_H-M   'P 1'
_cell_length_a   16.70737142
_cell_length_b   15.48203041
_cell_length_c   15.07304507
_cell_angle_alpha   90.00000000
_cell_angle_beta   90.34119902
_cell_angle_gamma   90.00000000
_symmetry_Int_Tables_number   1
_chemical_formula_structural   K2LiVO4
_chemical_formula_sum   'K64 Li32 V32 O128'
_cell_volume   3898.78548697
_cell_formula_units_Z   32
loop_
 _symmetry_equiv_pos_site_id
 _symmetry_equiv_pos_as_xyz
  1  'x, y, z'
loop_
 _atom_site_type_symbol
 _atom_site_label
 _atom_site_symmetry_multiplicity
 _atom_site_fract_x
 _atom_site_fract_y
 _atom_site_fract_z
 _atom_site_occupancy
  K  K0  1  0.14910058  -0.00000000  0.41239622  1
  K  K1  1  0.14910058  -0.00000000  0.91239622  1
  K  K2  1  0.14910058  0.50000000  0.41239622  1
  K  K3  1  0.14910058  0.50000000  0.91239622  1
  K  K4  1  0.64910058  -0.00000000  0.41239622  1
  K  K5  1  0.64910058  -0.00000000  0.91239622  1
  K  K6  1  0.64910058  0.50000000  0.41239622  1
  K  K7  1  0.64910058  0.50000000  0.91239622  1
  K  K8  1  0.39910058  0.25000000  0.41239622  1
  K  K9  1  0.39910058  0.25000000  0.91239622  1
  K  K10  1  0.39910058  0.75000000  0.41239622  1
  K  K11  1  0.39910058  0.75000000  0.91239622  1
  K  K12  1  0.89910058  0.25000000  0.41239622  1
  K  K13  1  0.89910058  0.25000000  0.91239622  1
  K  K14  1  0.89910058  0.75000000  0.41239622  1
  K  K15  1  0.89910058  0.75000000  0.91239622  1
  K  K16  1  0.25000000  -0.14100514  0.25000000  1
  K  K17  1  0.25000000  -0.14100514  0.75000000  1
  K  K18  1  0.25000000  0.35899486  0.25000000  1
  K  K19  1  0.25000000  0.35899486  0.75000000  1
  K  K20  1  0.75000000  -0.14100514  0.25000000  1
  K  K21  1  0.75000000  -0.14100514  0.75000000  1
  K  K22  1  0.75000000  0.35899486  0.25000000  1
  K  K23  1  0.75000000  0.35899486  0.75000000  1
  K  K24  1  0.50000000  0.10899486  0.25000000  1
  K  K25  1  0.50000000  0.10899486  0.75000000  1
  K  K26  1  0.50000000  0.60899486  0.25000000  1
  K  K27  1  0.50000000  0.60899486  0.75000000  1
  K  K28  1  1.00000000  0.10899486  0.25000000  1
  K  K29  1  1.00000000  0.10899486  0.75000000  1
  K  K30  1  1.00000000  0.60899486  0.25000000  1
  K  K31  1  1.00000000  0.60899486  0.75000000  1
  K  K32  1  0.35089942  -0.00000000  0.08760378  1
  K  K33  1  0.35089942  -0.00000000  0.58760378  1
  K  K34  1  0.35089942  0.50000000  0.08760378  1
  K  K35  1  0.35089942  0.50000000  0.58760378  1
  K  K36  1  0.85089942  -0.00000000  0.08760378  1
  K  K37  1  0.85089942  -0.00000000  0.58760378  1
  K  K38  1  0.85089942  0.50000000  0.08760378  1
  K  K39  1  0.85089942  0.50000000  0.58760378  1
  K  K40  1  0.60089942  0.25000000  0.08760378  1
  K  K41  1  0.60089942  0.25000000  0.58760378  1
  K  K42  1  0.60089942  0.75000000  0.08760378  1
  K  K43  1  0.60089942  0.75000000  0.58760378  1
  K  K44  1  1.10089942  0.25000000  0.08760378  1
  K  K45  1  1.10089942  0.25000000  0.58760378  1
  K  K46  1  1.10089942  0.75000000  0.08760378  1
  K  K47  1  1.10089942  0.75000000  0.58760378  1
  K  K48  1  0.25000000  0.14100514  0.25000000  1
  K  K49  1  0.25000000  0.14100514  0.75000000  1
  K  K50  1  0.25000000  0.64100514  0.25000000  1
  K  K51  1  0.25000000  0.64100514  0.75000000  1
  K  K52  1  0.75000000  0.14100514  0.25000000  1
  K  K53  1  0.75000000  0.14100514  0.75000000  1
  K  K54  1  0.75000000  0.64100514  0.25000000  1
  K  K55  1  0.75000000  0.64100514  0.75000000  1
  K  K56  1  0.50000000  0.39100514  0.25000000  1
  K  K57  1  0.50000000  0.39100514  0.75000000  1
  K  K58  1  0.50000000  0.89100514  0.25000000  1
  K  K59  1  0.50000000  0.89100514  0.75000000  1
  K  K60  1  1.00000000  0.39100514  0.25000000  1
  K  K61  1  1.00000000  0.39100514  0.75000000  1
  K  K62  1  1.00000000  0.89100514  0.25000000  1
  K  K63  1  1.00000000  0.89100514  0.75000000  1
  Li  Li64  1  0.25000000  -0.16140049  0.00000000  1
  Li  Li65  1  0.25000000  -0.16140049  0.50000000  1
  Li  Li66  1  0.25000000  0.33859951  0.00000000  1
  Li  Li67  1  0.25000000  0.33859951  0.50000000  1
  Li  Li68  1  0.75000000  -0.16140049  0.00000000  1
  Li  Li69  1  0.75000000  -0.16140049  0.50000000  1
  Li  Li70  1  0.75000000  0.33859951  0.00000000  1
  Li  Li71  1  0.75000000  0.33859951  0.50000000  1
  Li  Li72  1  0.50000000  0.08859951  0.00000000  1
  Li  Li73  1  0.50000000  0.08859951  0.50000000  1
  Li  Li74  1  0.50000000  0.58859951  0.00000000  1
  Li  Li75  1  0.50000000  0.58859951  0.50000000  1
  Li  Li76  1  1.00000000  0.08859951  0.00000000  1
  Li  Li77  1  1.00000000  0.08859951  0.50000000  1
  Li  Li78  1  1.00000000  0.58859951  0.00000000  1
  Li  Li79  1  1.00000000  0.58859951  0.50000000  1
  Li  Li80  1  0.25000000  0.16140049  0.00000000  1
  Li  Li81  1  0.25000000  0.16140049  0.50000000  1
  Li  Li82  1  0.25000000  0.66140049  0.00000000  1
  Li  Li83  1  0.25000000  0.66140049  0.50000000  1
  Li  Li84  1  0.75000000  0.16140049  0.00000000  1
  Li  Li85  1  0.75000000  0.16140049  0.50000000  1
  Li  Li86  1  0.75000000  0.66140049  0.00000000  1
  Li  Li87  1  0.75000000  0.66140049  0.50000000  1
  Li  Li88  1  0.50000000  0.41140049  0.00000000  1
  Li  Li89  1  0.50000000  0.41140049  0.50000000  1
  Li  Li90  1  0.50000000  0.91140049  0.00000000  1
  Li  Li91  1  0.50000000  0.91140049  0.50000000  1
  Li  Li92  1  1.00000000  0.41140049  0.00000000  1
  Li  Li93  1  1.00000000  0.41140049  0.50000000  1
  Li  Li94  1  1.00000000  0.91140049  0.00000000  1
  Li  Li95  1  1.00000000  0.91140049  0.50000000  1
  V  V96  1  0.14327286  0.00000000  0.12201503  1
  V  V97  1  0.14327286  0.00000000  0.62201503  1
  V  V98  1  0.14327286  0.50000000  0.12201503  1
  V  V99  1  0.14327286  0.50000000  0.62201503  1
  V  V100  1  0.64327286  0.00000000  0.12201503  1
  V  V101  1  0.64327286  0.00000000  0.62201503  1
  V  V102  1  0.64327286  0.50000000  0.12201503  1
  V  V103  1  0.64327286  0.50000000  0.62201503  1
  V  V104  1  0.39327286  0.25000000  0.12201503  1
  V  V105  1  0.39327286  0.25000000  0.62201503  1
  V  V106  1  0.39327286  0.75000000  0.12201503  1
  V  V107  1  0.39327286  0.75000000  0.62201503  1
  V  V108  1  0.89327286  0.25000000  0.12201503  1
  V  V109  1  0.89327286  0.25000000  0.62201503  1
  V  V110  1  0.89327286  0.75000000  0.12201503  1
  V  V111  1  0.89327286  0.75000000  0.62201503  1
  V  V112  1  0.35672714  0.00000000  0.37798497  1
  V  V113  1  0.35672714  0.00000000  0.87798497  1
  V  V114  1  0.35672714  0.50000000  0.37798497  1
  V  V115  1  0.35672714  0.50000000  0.87798497  1
  V  V116  1  0.85672714  0.00000000  0.37798497  1
  V  V117  1  0.85672714  0.00000000  0.87798497  1
  V  V118  1  0.85672714  0.50000000  0.37798497  1
  V  V119  1  0.85672714  0.50000000  0.87798497  1
  V  V120  1  0.60672714  0.25000000  0.37798497  1
  V  V121  1  0.60672714  0.25000000  0.87798497  1
  V  V122  1  0.60672714  0.75000000  0.37798497  1
  V  V123  1  0.60672714  0.75000000  0.87798497  1
  V  V124  1  1.10672714  0.25000000  0.37798497  1
  V  V125  1  1.10672714  0.25000000  0.87798497  1
  V  V126  1  1.10672714  0.75000000  0.37798497  1
  V  V127  1  1.10672714  0.75000000  0.87798497  1
  O  O128  1  0.30618436  0.09026955  0.41436718  1
  O  O129  1  0.30618436  0.09026955  0.91436718  1
  O  O130  1  0.30618436  0.59026955  0.41436718  1
  O  O131  1  0.30618436  0.59026955  0.91436718  1
  O  O132  1  0.80618436  0.09026955  0.41436718  1
  O  O133  1  0.80618436  0.09026955  0.91436718  1
  O  O134  1  0.80618436  0.59026955  0.41436718  1
  O  O135  1  0.80618436  0.59026955  0.91436718  1
  O  O136  1  0.55618436  0.34026955  0.41436718  1
  O  O137  1  0.55618436  0.34026955  0.91436718  1
  O  O138  1  0.55618436  0.84026955  0.41436718  1
  O  O139  1  0.55618436  0.84026955  0.91436718  1
  O  O140  1  1.05618436  0.34026955  0.41436718  1
  O  O141  1  1.05618436  0.34026955  0.91436718  1
  O  O142  1  1.05618436  0.84026955  0.41436718  1
  O  O143  1  1.05618436  0.84026955  0.91436718  1
  O  O144  1  0.45242347  -0.00000000  0.42200059  1
  O  O145  1  0.45242347  -0.00000000  0.92200059  1
  O  O146  1  0.45242347  0.50000000  0.42200059  1
  O  O147  1  0.45242347  0.50000000  0.92200059  1
  O  O148  1  0.95242347  -0.00000000  0.42200059  1
  O  O149  1  0.95242347  -0.00000000  0.92200059  1
  O  O150  1  0.95242347  0.50000000  0.42200059  1
  O  O151  1  0.95242347  0.50000000  0.92200059  1
  O  O152  1  0.70242347  0.25000000  0.42200059  1
  O  O153  1  0.70242347  0.25000000  0.92200059  1
  O  O154  1  0.70242347  0.75000000  0.42200059  1
  O  O155  1  0.70242347  0.75000000  0.92200059  1
  O  O156  1  1.20242347  0.25000000  0.42200059  1
  O  O157  1  1.20242347  0.25000000  0.92200059  1
  O  O158  1  1.20242347  0.75000000  0.42200059  1
  O  O159  1  1.20242347  0.75000000  0.92200059  1
  O  O160  1  0.30618436  -0.09026955  0.41436718  1
  O  O161  1  0.30618436  -0.09026955  0.91436718  1
  O  O162  1  0.30618436  0.40973045  0.41436718  1
  O  O163  1  0.30618436  0.40973045  0.91436718  1
  O  O164  1  0.80618436  -0.09026955  0.41436718  1
  O  O165  1  0.80618436  -0.09026955  0.91436718  1
  O  O166  1  0.80618436  0.40973045  0.41436718  1
  O  O167  1  0.80618436  0.40973045  0.91436718  1
  O  O168  1  0.55618436  0.15973045  0.41436718  1
  O  O169  1  0.55618436  0.15973045  0.91436718  1
  O  O170  1  0.55618436  0.65973045  0.41436718  1
  O  O171  1  0.55618436  0.65973045  0.91436718  1
  O  O172  1  1.05618436  0.15973045  0.41436718  1
  O  O173  1  1.05618436  0.15973045  0.91436718  1
  O  O174  1  1.05618436  0.65973045  0.41436718  1
  O  O175  1  1.05618436  0.65973045  0.91436718  1
  O  O176  1  0.04757653  0.00000000  0.07799941  1
  O  O177  1  0.04757653  0.00000000  0.57799941  1
  O  O178  1  0.04757653  0.50000000  0.07799941  1
  O  O179  1  0.04757653  0.50000000  0.57799941  1
  O  O180  1  0.54757653  0.00000000  0.07799941  1
  O  O181  1  0.54757653  0.00000000  0.57799941  1
  O  O182  1  0.54757653  0.50000000  0.07799941  1
  O  O183  1  0.54757653  0.50000000  0.57799941  1
  O  O184  1  0.29757653  0.25000000  0.07799941  1
  O  O185  1  0.29757653  0.25000000  0.57799941  1
  O  O186  1  0.29757653  0.75000000  0.07799941  1
  O  O187  1  0.29757653  0.75000000  0.57799941  1
  O  O188  1  0.79757653  0.25000000  0.07799941  1
  O  O189  1  0.79757653  0.25000000  0.57799941  1
  O  O190  1  0.79757653  0.75000000  0.07799941  1
  O  O191  1  0.79757653  0.75000000  0.57799941  1
  O  O192  1  0.36110540  0.00000000  0.26374782  1
  O  O193  1  0.36110540  0.00000000  0.76374782  1
  O  O194  1  0.36110540  0.50000000  0.26374782  1
  O  O195  1  0.36110540  0.50000000  0.76374782  1
  O  O196  1  0.86110540  0.00000000  0.26374782  1
  O  O197  1  0.86110540  0.00000000  0.76374782  1
  O  O198  1  0.86110540  0.50000000  0.26374782  1
  O  O199  1  0.86110540  0.50000000  0.76374782  1
  O  O200  1  0.61110540  0.25000000  0.26374782  1
  O  O201  1  0.61110540  0.25000000  0.76374782  1
  O  O202  1  0.61110540  0.75000000  0.26374782  1
  O  O203  1  0.61110540  0.75000000  0.76374782  1
  O  O204  1  1.11110540  0.25000000  0.26374782  1
  O  O205  1  1.11110540  0.25000000  0.76374782  1
  O  O206  1  1.11110540  0.75000000  0.26374782  1
  O  O207  1  1.11110540  0.75000000  0.76374782  1
  O  O208  1  0.19381564  0.09026955  0.08563282  1
  O  O209  1  0.19381564  0.09026955  0.58563282  1
  O  O210  1  0.19381564  0.59026955  0.08563282  1
  O  O211  1  0.19381564  0.59026955  0.58563282  1
  O  O212  1  0.69381564  0.09026955  0.08563282  1
  O  O213  1  0.69381564  0.09026955  0.58563282  1
  O  O214  1  0.69381564  0.59026955  0.08563282  1
  O  O215  1  0.69381564  0.59026955  0.58563282  1
  O  O216  1  0.44381564  0.34026955  0.08563282  1
  O  O217  1  0.44381564  0.34026955  0.58563282  1
  O  O218  1  0.44381564  0.84026955  0.08563282  1
  O  O219  1  0.44381564  0.84026955  0.58563282  1
  O  O220  1  0.94381564  0.34026955  0.08563282  1
  O  O221  1  0.94381564  0.34026955  0.58563282  1
  O  O222  1  0.94381564  0.84026955  0.08563282  1
  O  O223  1  0.94381564  0.84026955  0.58563282  1
  O  O224  1  0.19381564  -0.09026955  0.08563282  1
  O  O225  1  0.19381564  -0.09026955  0.58563282  1
  O  O226  1  0.19381564  0.40973045  0.08563282  1
  O  O227  1  0.19381564  0.40973045  0.58563282  1
  O  O228  1  0.69381564  -0.09026955  0.08563282  1
  O  O229  1  0.69381564  -0.09026955  0.58563282  1
  O  O230  1  0.69381564  0.40973045  0.08563282  1
  O  O231  1  0.69381564  0.40973045  0.58563282  1
  O  O232  1  0.44381564  0.15973045  0.08563282  1
  O  O233  1  0.44381564  0.15973045  0.58563282  1
  O  O234  1  0.44381564  0.65973045  0.08563282  1
  O  O235  1  0.44381564  0.65973045  0.58563282  1
  O  O236  1  0.94381564  0.15973045  0.08563282  1
  O  O237  1  0.94381564  0.15973045  0.58563282  1
  O  O238  1  0.94381564  0.65973045  0.08563282  1
  O  O239  1  0.94381564  0.65973045  0.58563282  1
  O  O240  1  0.13889460  -0.00000000  0.23625218  1
  O  O241  1  0.13889460  -0.00000000  0.73625218  1
  O  O242  1  0.13889460  0.50000000  0.23625218  1
  O  O243  1  0.13889460  0.50000000  0.73625218  1
  O  O244  1  0.63889460  -0.00000000  0.23625218  1
  O  O245  1  0.63889460  -0.00000000  0.73625218  1
  O  O246  1  0.63889460  0.50000000  0.23625218  1
  O  O247  1  0.63889460  0.50000000  0.73625218  1
  O  O248  1  0.38889460  0.25000000  0.23625218  1
  O  O249  1  0.38889460  0.25000000  0.73625218  1
  O  O250  1  0.38889460  0.75000000  0.23625218  1
  O  O251  1  0.38889460  0.75000000  0.73625218  1
  O  O252  1  0.88889460  0.25000000  0.23625218  1
  O  O253  1  0.88889460  0.25000000  0.73625218  1
  O  O254  1  0.88889460  0.75000000  0.23625218  1
  O  O255  1  0.88889460  0.75000000  0.73625218  1
