# generated using pymatgen
data_Ba2In2O5
_symmetry_space_group_name_H-M   'P 1'
_cell_length_a   16.65317497
_cell_length_b   18.64385914
_cell_length_c   18.04857528
_cell_angle_alpha   90.00000000
_cell_angle_beta   90.00000000
_cell_angle_gamma   90.00000000
_symmetry_Int_Tables_number   1
_chemical_formula_structural   Ba2In2O5
_chemical_formula_sum   'Ba72 In72 O180'
_cell_volume   5603.71169775
_cell_formula_units_Z   36
loop_
 _symmetry_equiv_pos_site_id
 _symmetry_equiv_pos_as_xyz
  1  'x, y, z'
loop_
 _atom_site_type_symbol
 _atom_site_label
 _atom_site_symmetry_multiplicity
 _atom_site_fract_x
 _atom_site_fract_y
 _atom_site_fract_z
 _atom_site_occupancy
  Ba  Ba0  1  0.10795303  0.16058554  -0.00636906  1
  Ba  Ba1  1  0.10795303  0.16058554  0.32696427  1
  Ba  Ba2  1  0.10795303  0.16058554  0.66029761  1
  Ba  Ba3  1  0.10795303  0.49391887  -0.00636906  1
  Ba  Ba4  1  0.10795303  0.49391887  0.32696427  1
  Ba  Ba5  1  0.10795303  0.49391887  0.66029761  1
  Ba  Ba6  1  0.10795303  0.82725221  -0.00636906  1
  Ba  Ba7  1  0.10795303  0.82725221  0.32696427  1
  Ba  Ba8  1  0.10795303  0.82725221  0.66029761  1
  Ba  Ba9  1  0.60795303  0.32725221  0.16029761  1
  Ba  Ba10  1  0.60795303  0.32725221  0.49363094  1
  Ba  Ba11  1  0.60795303  0.32725221  0.82696427  1
  Ba  Ba12  1  0.60795303  0.66058554  0.16029761  1
  Ba  Ba13  1  0.60795303  0.66058554  0.49363094  1
  Ba  Ba14  1  0.60795303  0.66058554  0.82696427  1
  Ba  Ba15  1  0.60795303  0.99391887  0.16029761  1
  Ba  Ba16  1  0.60795303  0.99391887  0.49363094  1
  Ba  Ba17  1  0.60795303  0.99391887  0.82696427  1
  Ba  Ba18  1  0.39204697  0.00608113  0.16029761  1
  Ba  Ba19  1  0.39204697  0.00608113  0.49363094  1
  Ba  Ba20  1  0.39204697  0.00608113  0.82696427  1
  Ba  Ba21  1  0.39204697  0.33941446  0.16029761  1
  Ba  Ba22  1  0.39204697  0.33941446  0.49363094  1
  Ba  Ba23  1  0.39204697  0.33941446  0.82696427  1
  Ba  Ba24  1  0.39204697  0.67274779  0.16029761  1
  Ba  Ba25  1  0.39204697  0.67274779  0.49363094  1
  Ba  Ba26  1  0.39204697  0.67274779  0.82696427  1
  Ba  Ba27  1  0.89204697  0.17274779  0.32696427  1
  Ba  Ba28  1  0.89204697  0.17274779  0.66029761  1
  Ba  Ba29  1  0.89204697  0.17274779  0.99363094  1
  Ba  Ba30  1  0.89204697  0.50608113  0.32696427  1
  Ba  Ba31  1  0.89204697  0.50608113  0.66029761  1
  Ba  Ba32  1  0.89204697  0.50608113  0.99363094  1
  Ba  Ba33  1  0.89204697  0.83941446  0.32696427  1
  Ba  Ba34  1  0.89204697  0.83941446  0.66029761  1
  Ba  Ba35  1  0.89204697  0.83941446  0.99363094  1
  Ba  Ba36  1  0.10795303  0.00608113  0.16029761  1
  Ba  Ba37  1  0.10795303  0.00608113  0.49363094  1
  Ba  Ba38  1  0.10795303  0.00608113  0.82696427  1
  Ba  Ba39  1  0.10795303  0.33941446  0.16029761  1
  Ba  Ba40  1  0.10795303  0.33941446  0.49363094  1
  Ba  Ba41  1  0.10795303  0.33941446  0.82696427  1
  Ba  Ba42  1  0.10795303  0.67274779  0.16029761  1
  Ba  Ba43  1  0.10795303  0.67274779  0.49363094  1
  Ba  Ba44  1  0.10795303  0.67274779  0.82696427  1
  Ba  Ba45  1  0.60795303  0.17274779  0.32696427  1
  Ba  Ba46  1  0.60795303  0.17274779  0.66029761  1
  Ba  Ba47  1  0.60795303  0.17274779  0.99363094  1
  Ba  Ba48  1  0.60795303  0.50608113  0.32696427  1
  Ba  Ba49  1  0.60795303  0.50608113  0.66029761  1
  Ba  Ba50  1  0.60795303  0.50608113  0.99363094  1
  Ba  Ba51  1  0.60795303  0.83941446  0.32696427  1
  Ba  Ba52  1  0.60795303  0.83941446  0.66029761  1
  Ba  Ba53  1  0.60795303  0.83941446  0.99363094  1
  Ba  Ba54  1  0.39204697  0.16058554  -0.00636906  1
  Ba  Ba55  1  0.39204697  0.16058554  0.32696427  1
  Ba  Ba56  1  0.39204697  0.16058554  0.66029761  1
  Ba  Ba57  1  0.39204697  0.49391887  -0.00636906  1
  Ba  Ba58  1  0.39204697  0.49391887  0.32696427  1
  Ba  Ba59  1  0.39204697  0.49391887  0.66029761  1
  Ba  Ba60  1  0.39204697  0.82725221  -0.00636906  1
  Ba  Ba61  1  0.39204697  0.82725221  0.32696427  1
  Ba  Ba62  1  0.39204697  0.82725221  0.66029761  1
  Ba  Ba63  1  0.89204697  0.32725221  0.16029761  1
  Ba  Ba64  1  0.89204697  0.32725221  0.49363094  1
  Ba  Ba65  1  0.89204697  0.32725221  0.82696427  1
  Ba  Ba66  1  0.89204697  0.66058554  0.16029761  1
  Ba  Ba67  1  0.89204697  0.66058554  0.49363094  1
  Ba  Ba68  1  0.89204697  0.66058554  0.82696427  1
  Ba  Ba69  1  0.89204697  0.99391887  0.16029761  1
  Ba  Ba70  1  0.89204697  0.99391887  0.49363094  1
  Ba  Ba71  1  0.89204697  0.99391887  0.82696427  1
  In  In72  1  -0.25000000  0.14448276  0.16920897  1
  In  In73  1  -0.25000000  0.14448276  0.50254230  1
  In  In74  1  -0.25000000  0.14448276  0.83587564  1
  In  In75  1  -0.25000000  0.47781609  0.16920897  1
  In  In76  1  -0.25000000  0.47781609  0.50254230  1
  In  In77  1  -0.25000000  0.47781609  0.83587564  1
  In  In78  1  -0.25000000  0.81114943  0.16920897  1
  In  In79  1  -0.25000000  0.81114943  0.50254230  1
  In  In80  1  -0.25000000  0.81114943  0.83587564  1
  In  In81  1  0.25000000  0.31114943  0.33587564  1
  In  In82  1  0.25000000  0.31114943  0.66920897  1
  In  In83  1  0.25000000  0.31114943  1.00254230  1
  In  In84  1  0.25000000  0.64448276  0.33587564  1
  In  In85  1  0.25000000  0.64448276  0.66920897  1
  In  In86  1  0.25000000  0.64448276  1.00254230  1
  In  In87  1  0.25000000  0.97781609  0.33587564  1
  In  In88  1  0.25000000  0.97781609  0.66920897  1
  In  In89  1  0.25000000  0.97781609  1.00254230  1
  In  In90  1  0.75000000  0.02218391  0.00254230  1
  In  In91  1  0.75000000  0.02218391  0.33587564  1
  In  In92  1  0.75000000  0.02218391  0.66920897  1
  In  In93  1  0.75000000  0.35551724  0.00254230  1
  In  In94  1  0.75000000  0.35551724  0.33587564  1
  In  In95  1  0.75000000  0.35551724  0.66920897  1
  In  In96  1  0.75000000  0.68885057  0.00254230  1
  In  In97  1  0.75000000  0.68885057  0.33587564  1
  In  In98  1  0.75000000  0.68885057  0.66920897  1
  In  In99  1  1.25000000  0.18885057  0.16920897  1
  In  In100  1  1.25000000  0.18885057  0.50254230  1
  In  In101  1  1.25000000  0.18885057  0.83587564  1
  In  In102  1  1.25000000  0.52218391  0.16920897  1
  In  In103  1  1.25000000  0.52218391  0.50254230  1
  In  In104  1  1.25000000  0.52218391  0.83587564  1
  In  In105  1  1.25000000  0.85551724  0.16920897  1
  In  In106  1  1.25000000  0.85551724  0.50254230  1
  In  In107  1  1.25000000  0.85551724  0.83587564  1
  In  In108  1  -0.00000000  0.16666667  0.15826724  1
  In  In109  1  -0.00000000  0.16666667  0.49160057  1
  In  In110  1  -0.00000000  0.16666667  0.82493391  1
  In  In111  1  -0.00000000  0.50000000  0.15826724  1
  In  In112  1  -0.00000000  0.50000000  0.49160057  1
  In  In113  1  -0.00000000  0.50000000  0.82493391  1
  In  In114  1  -0.00000000  0.83333333  0.15826724  1
  In  In115  1  -0.00000000  0.83333333  0.49160057  1
  In  In116  1  -0.00000000  0.83333333  0.82493391  1
  In  In117  1  0.50000000  0.33333333  0.32493391  1
  In  In118  1  0.50000000  0.33333333  0.65826724  1
  In  In119  1  0.50000000  0.33333333  0.99160057  1
  In  In120  1  0.50000000  0.66666667  0.32493391  1
  In  In121  1  0.50000000  0.66666667  0.65826724  1
  In  In122  1  0.50000000  0.66666667  0.99160057  1
  In  In123  1  0.50000000  1.00000000  0.32493391  1
  In  In124  1  0.50000000  1.00000000  0.65826724  1
  In  In125  1  0.50000000  1.00000000  0.99160057  1
  In  In126  1  -0.00000000  0.00000000  0.32493391  1
  In  In127  1  -0.00000000  0.00000000  0.65826724  1
  In  In128  1  -0.00000000  0.00000000  0.99160057  1
  In  In129  1  -0.00000000  0.33333333  0.32493391  1
  In  In130  1  -0.00000000  0.33333333  0.65826724  1
  In  In131  1  -0.00000000  0.33333333  0.99160057  1
  In  In132  1  -0.00000000  0.66666667  0.32493391  1
  In  In133  1  -0.00000000  0.66666667  0.65826724  1
  In  In134  1  -0.00000000  0.66666667  0.99160057  1
  In  In135  1  0.50000000  0.16666667  0.49160057  1
  In  In136  1  0.50000000  0.16666667  0.82493391  1
  In  In137  1  0.50000000  0.16666667  1.15826724  1
  In  In138  1  0.50000000  0.50000000  0.49160057  1
  In  In139  1  0.50000000  0.50000000  0.82493391  1
  In  In140  1  0.50000000  0.50000000  1.15826724  1
  In  In141  1  0.50000000  0.83333333  0.49160057  1
  In  In142  1  0.50000000  0.83333333  0.82493391  1
  In  In143  1  0.50000000  0.83333333  1.15826724  1
  O  O144  1  0.25000000  -0.04168804  0.11873407  1
  O  O145  1  0.25000000  -0.04168804  0.45206740  1
  O  O146  1  0.25000000  -0.04168804  0.78540073  1
  O  O147  1  0.25000000  0.29164529  0.11873407  1
  O  O148  1  0.25000000  0.29164529  0.45206740  1
  O  O149  1  0.25000000  0.29164529  0.78540073  1
  O  O150  1  0.25000000  0.62497862  0.11873407  1
  O  O151  1  0.25000000  0.62497862  0.45206740  1
  O  O152  1  0.25000000  0.62497862  0.78540073  1
  O  O153  1  0.75000000  0.12497862  0.28540073  1
  O  O154  1  0.75000000  0.12497862  0.61873407  1
  O  O155  1  0.75000000  0.12497862  0.95206740  1
  O  O156  1  0.75000000  0.45831196  0.28540073  1
  O  O157  1  0.75000000  0.45831196  0.61873407  1
  O  O158  1  0.75000000  0.45831196  0.95206740  1
  O  O159  1  0.75000000  0.79164529  0.28540073  1
  O  O160  1  0.75000000  0.79164529  0.61873407  1
  O  O161  1  0.75000000  0.79164529  0.95206740  1
  O  O162  1  0.25000000  0.20835471  -0.04793260  1
  O  O163  1  0.25000000  0.20835471  0.28540073  1
  O  O164  1  0.25000000  0.20835471  0.61873407  1
  O  O165  1  0.25000000  0.54168804  -0.04793260  1
  O  O166  1  0.25000000  0.54168804  0.28540073  1
  O  O167  1  0.25000000  0.54168804  0.61873407  1
  O  O168  1  0.25000000  0.87502138  -0.04793260  1
  O  O169  1  0.25000000  0.87502138  0.28540073  1
  O  O170  1  0.25000000  0.87502138  0.61873407  1
  O  O171  1  0.75000000  0.37502138  0.11873407  1
  O  O172  1  0.75000000  0.37502138  0.45206740  1
  O  O173  1  0.75000000  0.37502138  0.78540073  1
  O  O174  1  0.75000000  0.70835471  0.11873407  1
  O  O175  1  0.75000000  0.70835471  0.45206740  1
  O  O176  1  0.75000000  0.70835471  0.78540073  1
  O  O177  1  0.75000000  1.04168804  0.11873407  1
  O  O178  1  0.75000000  1.04168804  0.45206740  1
  O  O179  1  0.75000000  1.04168804  0.78540073  1
  O  O180  1  0.13633553  0.14687193  0.14888414  1
  O  O181  1  0.13633553  0.14687193  0.48221747  1
  O  O182  1  0.13633553  0.14687193  0.81555080  1
  O  O183  1  0.13633553  0.48020527  0.14888414  1
  O  O184  1  0.13633553  0.48020527  0.48221747  1
  O  O185  1  0.13633553  0.48020527  0.81555080  1
  O  O186  1  0.13633553  0.81353860  0.14888414  1
  O  O187  1  0.13633553  0.81353860  0.48221747  1
  O  O188  1  0.13633553  0.81353860  0.81555080  1
  O  O189  1  0.63633553  0.31353860  0.31555080  1
  O  O190  1  0.63633553  0.31353860  0.64888414  1
  O  O191  1  0.63633553  0.31353860  0.98221747  1
  O  O192  1  0.63633553  0.64687193  0.31555080  1
  O  O193  1  0.63633553  0.64687193  0.64888414  1
  O  O194  1  0.63633553  0.64687193  0.98221747  1
  O  O195  1  0.63633553  0.98020527  0.31555080  1
  O  O196  1  0.63633553  0.98020527  0.64888414  1
  O  O197  1  0.63633553  0.98020527  0.98221747  1
  O  O198  1  0.36366447  0.01979473  -0.01778253  1
  O  O199  1  0.36366447  0.01979473  0.31555080  1
  O  O200  1  0.36366447  0.01979473  0.64888414  1
  O  O201  1  0.36366447  0.35312807  -0.01778253  1
  O  O202  1  0.36366447  0.35312807  0.31555080  1
  O  O203  1  0.36366447  0.35312807  0.64888414  1
  O  O204  1  0.36366447  0.68646140  -0.01778253  1
  O  O205  1  0.36366447  0.68646140  0.31555080  1
  O  O206  1  0.36366447  0.68646140  0.64888414  1
  O  O207  1  0.86366447  0.18646140  0.14888414  1
  O  O208  1  0.86366447  0.18646140  0.48221747  1
  O  O209  1  0.86366447  0.18646140  0.81555080  1
  O  O210  1  0.86366447  0.51979473  0.14888414  1
  O  O211  1  0.86366447  0.51979473  0.48221747  1
  O  O212  1  0.86366447  0.51979473  0.81555080  1
  O  O213  1  0.86366447  0.85312807  0.14888414  1
  O  O214  1  0.86366447  0.85312807  0.48221747  1
  O  O215  1  0.86366447  0.85312807  0.81555080  1
  O  O216  1  0.13633553  0.01979473  -0.01778253  1
  O  O217  1  0.13633553  0.01979473  0.31555080  1
  O  O218  1  0.13633553  0.01979473  0.64888414  1
  O  O219  1  0.13633553  0.35312807  -0.01778253  1
  O  O220  1  0.13633553  0.35312807  0.31555080  1
  O  O221  1  0.13633553  0.35312807  0.64888414  1
  O  O222  1  0.13633553  0.68646140  -0.01778253  1
  O  O223  1  0.13633553  0.68646140  0.31555080  1
  O  O224  1  0.13633553  0.68646140  0.64888414  1
  O  O225  1  0.63633553  0.18646140  0.14888414  1
  O  O226  1  0.63633553  0.18646140  0.48221747  1
  O  O227  1  0.63633553  0.18646140  0.81555080  1
  O  O228  1  0.63633553  0.51979473  0.14888414  1
  O  O229  1  0.63633553  0.51979473  0.48221747  1
  O  O230  1  0.63633553  0.51979473  0.81555080  1
  O  O231  1  0.63633553  0.85312807  0.14888414  1
  O  O232  1  0.63633553  0.85312807  0.48221747  1
  O  O233  1  0.63633553  0.85312807  0.81555080  1
  O  O234  1  0.36366447  0.14687193  0.14888414  1
  O  O235  1  0.36366447  0.14687193  0.48221747  1
  O  O236  1  0.36366447  0.14687193  0.81555080  1
  O  O237  1  0.36366447  0.48020527  0.14888414  1
  O  O238  1  0.36366447  0.48020527  0.48221747  1
  O  O239  1  0.36366447  0.48020527  0.81555080  1
  O  O240  1  0.36366447  0.81353860  0.14888414  1
  O  O241  1  0.36366447  0.81353860  0.48221747  1
  O  O242  1  0.36366447  0.81353860  0.81555080  1
  O  O243  1  0.86366447  0.31353860  0.31555080  1
  O  O244  1  0.86366447  0.31353860  0.64888414  1
  O  O245  1  0.86366447  0.31353860  0.98221747  1
  O  O246  1  0.86366447  0.64687193  0.31555080  1
  O  O247  1  0.86366447  0.64687193  0.64888414  1
  O  O248  1  0.86366447  0.64687193  0.98221747  1
  O  O249  1  0.86366447  0.98020527  0.31555080  1
  O  O250  1  0.86366447  0.98020527  0.64888414  1
  O  O251  1  0.86366447  0.98020527  0.98221747  1
  O  O252  1  -0.00939537  0.08151178  0.07659662  1
  O  O253  1  -0.00939537  0.08151178  0.40992995  1
  O  O254  1  -0.00939537  0.08151178  0.74326329  1
  O  O255  1  -0.00939537  0.41484511  0.07659662  1
  O  O256  1  -0.00939537  0.41484511  0.40992995  1
  O  O257  1  -0.00939537  0.41484511  0.74326329  1
  O  O258  1  -0.00939537  0.74817845  0.07659662  1
  O  O259  1  -0.00939537  0.74817845  0.40992995  1
  O  O260  1  -0.00939537  0.74817845  0.74326329  1
  O  O261  1  0.49060463  0.24817845  0.24326329  1
  O  O262  1  0.49060463  0.24817845  0.57659662  1
  O  O263  1  0.49060463  0.24817845  0.90992995  1
  O  O264  1  0.49060463  0.58151178  0.24326329  1
  O  O265  1  0.49060463  0.58151178  0.57659662  1
  O  O266  1  0.49060463  0.58151178  0.90992995  1
  O  O267  1  0.49060463  0.91484511  0.24326329  1
  O  O268  1  0.49060463  0.91484511  0.57659662  1
  O  O269  1  0.49060463  0.91484511  0.90992995  1
  O  O270  1  0.00939537  0.25182155  0.07659662  1
  O  O271  1  0.00939537  0.25182155  0.40992995  1
  O  O272  1  0.00939537  0.25182155  0.74326329  1
  O  O273  1  0.00939537  0.58515489  0.07659662  1
  O  O274  1  0.00939537  0.58515489  0.40992995  1
  O  O275  1  0.00939537  0.58515489  0.74326329  1
  O  O276  1  0.00939537  0.91848822  0.07659662  1
  O  O277  1  0.00939537  0.91848822  0.40992995  1
  O  O278  1  0.00939537  0.91848822  0.74326329  1
  O  O279  1  0.50939537  0.41848822  0.24326329  1
  O  O280  1  0.50939537  0.41848822  0.57659662  1
  O  O281  1  0.50939537  0.41848822  0.90992995  1
  O  O282  1  0.50939537  0.75182155  0.24326329  1
  O  O283  1  0.50939537  0.75182155  0.57659662  1
  O  O284  1  0.50939537  0.75182155  0.90992995  1
  O  O285  1  0.50939537  1.08515489  0.24326329  1
  O  O286  1  0.50939537  1.08515489  0.57659662  1
  O  O287  1  0.50939537  1.08515489  0.90992995  1
  O  O288  1  0.50939537  0.08151178  0.07659662  1
  O  O289  1  0.50939537  0.08151178  0.40992995  1
  O  O290  1  0.50939537  0.08151178  0.74326329  1
  O  O291  1  0.50939537  0.41484511  0.07659662  1
  O  O292  1  0.50939537  0.41484511  0.40992995  1
  O  O293  1  0.50939537  0.41484511  0.74326329  1
  O  O294  1  0.50939537  0.74817845  0.07659662  1
  O  O295  1  0.50939537  0.74817845  0.40992995  1
  O  O296  1  0.50939537  0.74817845  0.74326329  1
  O  O297  1  1.00939537  0.24817845  0.24326329  1
  O  O298  1  1.00939537  0.24817845  0.57659662  1
  O  O299  1  1.00939537  0.24817845  0.90992995  1
  O  O300  1  1.00939537  0.58151178  0.24326329  1
  O  O301  1  1.00939537  0.58151178  0.57659662  1
  O  O302  1  1.00939537  0.58151178  0.90992995  1
  O  O303  1  1.00939537  0.91484511  0.24326329  1
  O  O304  1  1.00939537  0.91484511  0.57659662  1
  O  O305  1  1.00939537  0.91484511  0.90992995  1
  O  O306  1  -0.00939537  0.08515489  0.24326329  1
  O  O307  1  -0.00939537  0.08515489  0.57659662  1
  O  O308  1  -0.00939537  0.08515489  0.90992995  1
  O  O309  1  -0.00939537  0.41848822  0.24326329  1
  O  O310  1  -0.00939537  0.41848822  0.57659662  1
  O  O311  1  -0.00939537  0.41848822  0.90992995  1
  O  O312  1  -0.00939537  0.75182155  0.24326329  1
  O  O313  1  -0.00939537  0.75182155  0.57659662  1
  O  O314  1  -0.00939537  0.75182155  0.90992995  1
  O  O315  1  0.49060463  0.25182155  0.40992995  1
  O  O316  1  0.49060463  0.25182155  0.74326329  1
  O  O317  1  0.49060463  0.25182155  1.07659662  1
  O  O318  1  0.49060463  0.58515489  0.40992995  1
  O  O319  1  0.49060463  0.58515489  0.74326329  1
  O  O320  1  0.49060463  0.58515489  1.07659662  1
  O  O321  1  0.49060463  0.91848822  0.40992995  1
  O  O322  1  0.49060463  0.91848822  0.74326329  1
  O  O323  1  0.49060463  0.91848822  1.07659662  1
