# generated using pymatgen
data_BaGeO3
_symmetry_space_group_name_H-M   'P 1'
_cell_length_a   13.73179369
_cell_length_b   11.53149841
_cell_length_c   12.96243785
_cell_angle_alpha   90.00000000
_cell_angle_beta   90.00000000
_cell_angle_gamma   90.00000000
_symmetry_Int_Tables_number   1
_chemical_formula_structural   BaGeO3
_chemical_formula_sum   'Ba24 Ge24 O72'
_cell_volume   2052.57814576
_cell_formula_units_Z   24
loop_
 _symmetry_equiv_pos_site_id
 _symmetry_equiv_pos_as_xyz
  1  'x, y, z'
loop_
 _atom_site_type_symbol
 _atom_site_label
 _atom_site_symmetry_multiplicity
 _atom_site_fract_x
 _atom_site_fract_y
 _atom_site_fract_z
 _atom_site_occupancy
  Ba  Ba0  1  0.09150162  0.41081941  0.86138530  1
  Ba  Ba1  1  0.09150162  0.91081941  0.86138530  1
  Ba  Ba2  1  0.42483495  0.41081941  0.86138530  1
  Ba  Ba3  1  0.42483495  0.91081941  0.86138530  1
  Ba  Ba4  1  0.75816828  0.41081941  0.86138530  1
  Ba  Ba5  1  0.75816828  0.91081941  0.86138530  1
  Ba  Ba6  1  0.25816828  0.33918059  0.13861470  1
  Ba  Ba7  1  0.25816828  0.83918059  0.13861470  1
  Ba  Ba8  1  0.59150162  0.33918059  0.13861470  1
  Ba  Ba9  1  0.59150162  0.83918059  0.13861470  1
  Ba  Ba10  1  0.92483495  0.33918059  0.13861470  1
  Ba  Ba11  1  0.92483495  0.83918059  0.13861470  1
  Ba  Ba12  1  0.24183172  0.16081941  0.63861470  1
  Ba  Ba13  1  0.24183172  0.66081941  0.63861470  1
  Ba  Ba14  1  0.57516505  0.16081941  0.63861470  1
  Ba  Ba15  1  0.57516505  0.66081941  0.63861470  1
  Ba  Ba16  1  0.90849838  0.16081941  0.63861470  1
  Ba  Ba17  1  0.90849838  0.66081941  0.63861470  1
  Ba  Ba18  1  0.07516505  0.08918059  0.36138530  1
  Ba  Ba19  1  0.07516505  0.58918059  0.36138530  1
  Ba  Ba20  1  0.40849838  0.08918059  0.36138530  1
  Ba  Ba21  1  0.40849838  0.58918059  0.36138530  1
  Ba  Ba22  1  0.74183172  0.08918059  0.36138530  1
  Ba  Ba23  1  0.74183172  0.58918059  0.36138530  1
  Ge  Ge24  1  0.27416113  0.15477698  0.92313531  1
  Ge  Ge25  1  0.27416113  0.65477698  0.92313531  1
  Ge  Ge26  1  0.60749446  0.15477698  0.92313531  1
  Ge  Ge27  1  0.60749446  0.65477698  0.92313531  1
  Ge  Ge28  1  0.94082780  0.15477698  0.92313531  1
  Ge  Ge29  1  0.94082780  0.65477698  0.92313531  1
  Ge  Ge30  1  0.10749446  0.09522302  0.07686469  1
  Ge  Ge31  1  0.10749446  0.59522302  0.07686469  1
  Ge  Ge32  1  0.44082780  0.09522302  0.07686469  1
  Ge  Ge33  1  0.44082780  0.59522302  0.07686469  1
  Ge  Ge34  1  0.77416113  0.09522302  0.07686469  1
  Ge  Ge35  1  0.77416113  0.59522302  0.07686469  1
  Ge  Ge36  1  0.05917220  0.40477698  0.57686469  1
  Ge  Ge37  1  0.05917220  0.90477698  0.57686469  1
  Ge  Ge38  1  0.39250554  0.40477698  0.57686469  1
  Ge  Ge39  1  0.39250554  0.90477698  0.57686469  1
  Ge  Ge40  1  0.72583887  0.40477698  0.57686469  1
  Ge  Ge41  1  0.72583887  0.90477698  0.57686469  1
  Ge  Ge42  1  0.22583887  0.34522302  0.42313531  1
  Ge  Ge43  1  0.22583887  0.84522302  0.42313531  1
  Ge  Ge44  1  0.55917220  0.34522302  0.42313531  1
  Ge  Ge45  1  0.55917220  0.84522302  0.42313531  1
  Ge  Ge46  1  0.89250554  0.34522302  0.42313531  1
  Ge  Ge47  1  0.89250554  0.84522302  0.42313531  1
  O  O48  1  0.25448015  0.30487201  0.91370004  1
  O  O49  1  0.25448015  0.80487201  0.91370004  1
  O  O50  1  0.58781349  0.30487201  0.91370004  1
  O  O51  1  0.58781349  0.80487201  0.91370004  1
  O  O52  1  0.92114682  0.30487201  0.91370004  1
  O  O53  1  0.92114682  0.80487201  0.91370004  1
  O  O54  1  0.08781349  0.44512799  0.08629996  1
  O  O55  1  0.08781349  0.94512799  0.08629996  1
  O  O56  1  0.42114682  0.44512799  0.08629996  1
  O  O57  1  0.42114682  0.94512799  0.08629996  1
  O  O58  1  0.75448015  0.44512799  0.08629996  1
  O  O59  1  0.75448015  0.94512799  0.08629996  1
  O  O60  1  0.07885318  0.05487201  0.58629996  1
  O  O61  1  0.07885318  0.55487201  0.58629996  1
  O  O62  1  0.41218651  0.05487201  0.58629996  1
  O  O63  1  0.41218651  0.55487201  0.58629996  1
  O  O64  1  0.74551985  0.05487201  0.58629996  1
  O  O65  1  0.74551985  0.55487201  0.58629996  1
  O  O66  1  0.24551985  0.19512799  0.41370004  1
  O  O67  1  0.24551985  0.69512799  0.41370004  1
  O  O68  1  0.57885318  0.19512799  0.41370004  1
  O  O69  1  0.57885318  0.69512799  0.41370004  1
  O  O70  1  0.91218651  0.19512799  0.41370004  1
  O  O71  1  0.91218651  0.69512799  0.41370004  1
  O  O72  1  0.25163570  0.05785816  0.82174011  1
  O  O73  1  0.25163570  0.55785816  0.82174011  1
  O  O74  1  0.58496904  0.05785816  0.82174011  1
  O  O75  1  0.58496904  0.55785816  0.82174011  1
  O  O76  1  0.91830237  0.05785816  0.82174011  1
  O  O77  1  0.91830237  0.55785816  0.82174011  1
  O  O78  1  0.08496904  0.19214184  0.17825989  1
  O  O79  1  0.08496904  0.69214184  0.17825989  1
  O  O80  1  0.41830237  0.19214184  0.17825989  1
  O  O81  1  0.41830237  0.69214184  0.17825989  1
  O  O82  1  0.75163570  0.19214184  0.17825989  1
  O  O83  1  0.75163570  0.69214184  0.17825989  1
  O  O84  1  0.08169763  0.30785816  0.67825989  1
  O  O85  1  0.08169763  0.80785816  0.67825989  1
  O  O86  1  0.41503096  0.30785816  0.67825989  1
  O  O87  1  0.41503096  0.80785816  0.67825989  1
  O  O88  1  0.74836430  0.30785816  0.67825989  1
  O  O89  1  0.74836430  0.80785816  0.67825989  1
  O  O90  1  0.24836430  0.44214184  0.32174011  1
  O  O91  1  0.24836430  0.94214184  0.32174011  1
  O  O92  1  0.58169763  0.44214184  0.32174011  1
  O  O93  1  0.58169763  0.94214184  0.32174011  1
  O  O94  1  0.91503096  0.44214184  0.32174011  1
  O  O95  1  0.91503096  0.94214184  0.32174011  1
  O  O96  1  0.09332758  0.35649167  0.44688822  1
  O  O97  1  0.09332758  0.85649167  0.44688822  1
  O  O98  1  0.42666091  0.35649167  0.44688822  1
  O  O99  1  0.42666091  0.85649167  0.44688822  1
  O  O100  1  0.75999425  0.35649167  0.44688822  1
  O  O101  1  0.75999425  0.85649167  0.44688822  1
  O  O102  1  0.25999425  0.39350833  0.55311178  1
  O  O103  1  0.25999425  0.89350833  0.55311178  1
  O  O104  1  0.59332758  0.39350833  0.55311178  1
  O  O105  1  0.59332758  0.89350833  0.55311178  1
  O  O106  1  0.92666091  0.39350833  0.55311178  1
  O  O107  1  0.92666091  0.89350833  0.55311178  1
  O  O108  1  0.24000575  0.10649167  0.05311178  1
  O  O109  1  0.24000575  0.60649167  0.05311178  1
  O  O110  1  0.57333909  0.10649167  0.05311178  1
  O  O111  1  0.57333909  0.60649167  0.05311178  1
  O  O112  1  0.90667242  0.10649167  0.05311178  1
  O  O113  1  0.90667242  0.60649167  0.05311178  1
  O  O114  1  0.07333909  0.14350833  0.94688822  1
  O  O115  1  0.07333909  0.64350833  0.94688822  1
  O  O116  1  0.40667242  0.14350833  0.94688822  1
  O  O117  1  0.40667242  0.64350833  0.94688822  1
  O  O118  1  0.74000575  0.14350833  0.94688822  1
  O  O119  1  0.74000575  0.64350833  0.94688822  1
