# generated using pymatgen
data_K2Zr(BO3)2
_symmetry_space_group_name_H-M   'P 1'
_cell_length_a   15.92260258
_cell_length_b   15.92260258
_cell_length_c   17.51840976
_cell_angle_alpha   90.00000000
_cell_angle_beta   90.00000000
_cell_angle_gamma   120.00000000
_symmetry_Int_Tables_number   1
_chemical_formula_structural   K2Zr(BO3)2
_chemical_formula_sum   'K54 Zr27 B54 O162'
_cell_volume   3846.39093987
_cell_formula_units_Z   27
loop_
 _symmetry_equiv_pos_site_id
 _symmetry_equiv_pos_as_xyz
  1  'x, y, z'
loop_
 _atom_site_type_symbol
 _atom_site_label
 _atom_site_symmetry_multiplicity
 _atom_site_fract_x
 _atom_site_fract_y
 _atom_site_fract_z
 _atom_site_occupancy
  K  K0  1  0.00000000  -0.00000000  0.21066235  1
  K  K1  1  -0.00000000  0.33333333  0.21066235  1
  K  K2  1  -0.00000000  0.66666667  0.21066235  1
  K  K3  1  0.33333333  -0.00000000  0.21066235  1
  K  K4  1  0.33333333  0.33333333  0.21066235  1
  K  K5  1  0.33333333  0.66666667  0.21066235  1
  K  K6  1  0.66666667  -0.00000000  0.21066235  1
  K  K7  1  0.66666667  0.33333333  0.21066235  1
  K  K8  1  0.66666667  0.66666667  0.21066235  1
  K  K9  1  0.22222222  0.11111111  0.54399568  1
  K  K10  1  0.22222222  0.44444444  0.54399568  1
  K  K11  1  0.22222222  0.77777778  0.54399568  1
  K  K12  1  0.55555556  0.11111111  0.54399568  1
  K  K13  1  0.55555556  0.44444444  0.54399568  1
  K  K14  1  0.55555556  0.77777778  0.54399568  1
  K  K15  1  0.88888889  0.11111111  0.54399568  1
  K  K16  1  0.88888889  0.44444444  0.54399568  1
  K  K17  1  0.88888889  0.77777778  0.54399568  1
  K  K18  1  0.11111111  0.22222222  0.87732901  1
  K  K19  1  0.11111111  0.55555556  0.87732901  1
  K  K20  1  0.11111111  0.88888889  0.87732901  1
  K  K21  1  0.44444444  0.22222222  0.87732901  1
  K  K22  1  0.44444444  0.55555556  0.87732901  1
  K  K23  1  0.44444444  0.88888889  0.87732901  1
  K  K24  1  0.77777778  0.22222222  0.87732901  1
  K  K25  1  0.77777778  0.55555556  0.87732901  1
  K  K26  1  0.77777778  0.88888889  0.87732901  1
  K  K27  1  -0.00000000  -0.00000000  0.78933765  1
  K  K28  1  -0.00000000  0.33333333  0.78933765  1
  K  K29  1  -0.00000000  0.66666667  0.78933765  1
  K  K30  1  0.33333333  -0.00000000  0.78933765  1
  K  K31  1  0.33333333  0.33333333  0.78933765  1
  K  K32  1  0.33333333  0.66666667  0.78933765  1
  K  K33  1  0.66666667  -0.00000000  0.78933765  1
  K  K34  1  0.66666667  0.33333333  0.78933765  1
  K  K35  1  0.66666667  0.66666667  0.78933765  1
  K  K36  1  0.22222222  0.11111111  1.12267099  1
  K  K37  1  0.22222222  0.44444444  1.12267099  1
  K  K38  1  0.22222222  0.77777778  1.12267099  1
  K  K39  1  0.55555556  0.11111111  1.12267099  1
  K  K40  1  0.55555556  0.44444444  1.12267099  1
  K  K41  1  0.55555556  0.77777778  1.12267099  1
  K  K42  1  0.88888889  0.11111111  1.12267099  1
  K  K43  1  0.88888889  0.44444444  1.12267099  1
  K  K44  1  0.88888889  0.77777778  1.12267099  1
  K  K45  1  0.11111111  0.22222222  1.45600432  1
  K  K46  1  0.11111111  0.55555556  1.45600432  1
  K  K47  1  0.11111111  0.88888889  1.45600432  1
  K  K48  1  0.44444444  0.22222222  1.45600432  1
  K  K49  1  0.44444444  0.55555556  1.45600432  1
  K  K50  1  0.44444444  0.88888889  1.45600432  1
  K  K51  1  0.77777778  0.22222222  1.45600432  1
  K  K52  1  0.77777778  0.55555556  1.45600432  1
  K  K53  1  0.77777778  0.88888889  1.45600432  1
  Zr  Zr54  1  0.00000000  -0.00000000  -0.00000000  1
  Zr  Zr55  1  -0.00000000  0.33333333  -0.00000000  1
  Zr  Zr56  1  -0.00000000  0.66666667  -0.00000000  1
  Zr  Zr57  1  0.33333333  -0.00000000  -0.00000000  1
  Zr  Zr58  1  0.33333333  0.33333333  -0.00000000  1
  Zr  Zr59  1  0.33333333  0.66666667  -0.00000000  1
  Zr  Zr60  1  0.66666667  -0.00000000  -0.00000000  1
  Zr  Zr61  1  0.66666667  0.33333333  -0.00000000  1
  Zr  Zr62  1  0.66666667  0.66666667  -0.00000000  1
  Zr  Zr63  1  0.22222222  0.11111111  0.33333333  1
  Zr  Zr64  1  0.22222222  0.44444444  0.33333333  1
  Zr  Zr65  1  0.22222222  0.77777778  0.33333333  1
  Zr  Zr66  1  0.55555556  0.11111111  0.33333333  1
  Zr  Zr67  1  0.55555556  0.44444444  0.33333333  1
  Zr  Zr68  1  0.55555556  0.77777778  0.33333333  1
  Zr  Zr69  1  0.88888889  0.11111111  0.33333333  1
  Zr  Zr70  1  0.88888889  0.44444444  0.33333333  1
  Zr  Zr71  1  0.88888889  0.77777778  0.33333333  1
  Zr  Zr72  1  0.11111111  0.22222222  0.66666667  1
  Zr  Zr73  1  0.11111111  0.55555556  0.66666667  1
  Zr  Zr74  1  0.11111111  0.88888889  0.66666667  1
  Zr  Zr75  1  0.44444444  0.22222222  0.66666667  1
  Zr  Zr76  1  0.44444444  0.55555556  0.66666667  1
  Zr  Zr77  1  0.44444444  0.88888889  0.66666667  1
  Zr  Zr78  1  0.77777778  0.22222222  0.66666667  1
  Zr  Zr79  1  0.77777778  0.55555556  0.66666667  1
  Zr  Zr80  1  0.77777778  0.88888889  0.66666667  1
  B  B81  1  -0.00000000  -0.00000000  0.40338631  1
  B  B82  1  -0.00000000  0.33333333  0.40338631  1
  B  B83  1  -0.00000000  0.66666667  0.40338631  1
  B  B84  1  0.33333333  -0.00000000  0.40338631  1
  B  B85  1  0.33333333  0.33333333  0.40338631  1
  B  B86  1  0.33333333  0.66666667  0.40338631  1
  B  B87  1  0.66666667  -0.00000000  0.40338631  1
  B  B88  1  0.66666667  0.33333333  0.40338631  1
  B  B89  1  0.66666667  0.66666667  0.40338631  1
  B  B90  1  0.22222222  0.11111111  0.73671964  1
  B  B91  1  0.22222222  0.44444444  0.73671964  1
  B  B92  1  0.22222222  0.77777778  0.73671964  1
  B  B93  1  0.55555556  0.11111111  0.73671964  1
  B  B94  1  0.55555556  0.44444444  0.73671964  1
  B  B95  1  0.55555556  0.77777778  0.73671964  1
  B  B96  1  0.88888889  0.11111111  0.73671964  1
  B  B97  1  0.88888889  0.44444444  0.73671964  1
  B  B98  1  0.88888889  0.77777778  0.73671964  1
  B  B99  1  0.11111111  0.22222222  1.07005298  1
  B  B100  1  0.11111111  0.55555556  1.07005298  1
  B  B101  1  0.11111111  0.88888889  1.07005298  1
  B  B102  1  0.44444444  0.22222222  1.07005298  1
  B  B103  1  0.44444444  0.55555556  1.07005298  1
  B  B104  1  0.44444444  0.88888889  1.07005298  1
  B  B105  1  0.77777778  0.22222222  1.07005298  1
  B  B106  1  0.77777778  0.55555556  1.07005298  1
  B  B107  1  0.77777778  0.88888889  1.07005298  1
  B  B108  1  0.00000000  -0.00000000  0.59661369  1
  B  B109  1  0.00000000  0.33333333  0.59661369  1
  B  B110  1  0.00000000  0.66666667  0.59661369  1
  B  B111  1  0.33333333  -0.00000000  0.59661369  1
  B  B112  1  0.33333333  0.33333333  0.59661369  1
  B  B113  1  0.33333333  0.66666667  0.59661369  1
  B  B114  1  0.66666667  -0.00000000  0.59661369  1
  B  B115  1  0.66666667  0.33333333  0.59661369  1
  B  B116  1  0.66666667  0.66666667  0.59661369  1
  B  B117  1  0.22222222  0.11111111  0.92994702  1
  B  B118  1  0.22222222  0.44444444  0.92994702  1
  B  B119  1  0.22222222  0.77777778  0.92994702  1
  B  B120  1  0.55555556  0.11111111  0.92994702  1
  B  B121  1  0.55555556  0.44444444  0.92994702  1
  B  B122  1  0.55555556  0.77777778  0.92994702  1
  B  B123  1  0.88888889  0.11111111  0.92994702  1
  B  B124  1  0.88888889  0.44444444  0.92994702  1
  B  B125  1  0.88888889  0.77777778  0.92994702  1
  B  B126  1  0.11111111  0.22222222  1.26328036  1
  B  B127  1  0.11111111  0.55555556  1.26328036  1
  B  B128  1  0.11111111  0.88888889  1.26328036  1
  B  B129  1  0.44444444  0.22222222  1.26328036  1
  B  B130  1  0.44444444  0.55555556  1.26328036  1
  B  B131  1  0.44444444  0.88888889  1.26328036  1
  B  B132  1  0.77777778  0.22222222  1.26328036  1
  B  B133  1  0.77777778  0.55555556  1.26328036  1
  B  B134  1  0.77777778  0.88888889  1.26328036  1
  O  O135  1  -0.05014043  0.05014043  0.40378581  1
  O  O136  1  -0.05014043  0.38347376  0.40378581  1
  O  O137  1  -0.05014043  0.71680710  0.40378581  1
  O  O138  1  0.28319290  0.05014043  0.40378581  1
  O  O139  1  0.28319290  0.38347376  0.40378581  1
  O  O140  1  0.28319290  0.71680710  0.40378581  1
  O  O141  1  0.61652624  0.05014043  0.40378581  1
  O  O142  1  0.61652624  0.38347376  0.40378581  1
  O  O143  1  0.61652624  0.71680710  0.40378581  1
  O  O144  1  0.17208179  0.16125154  0.73711915  1
  O  O145  1  0.17208179  0.49458487  0.73711915  1
  O  O146  1  0.17208179  0.82791821  0.73711915  1
  O  O147  1  0.50541513  0.16125154  0.73711915  1
  O  O148  1  0.50541513  0.49458487  0.73711915  1
  O  O149  1  0.50541513  0.82791821  0.73711915  1
  O  O150  1  0.83874846  0.16125154  0.73711915  1
  O  O151  1  0.83874846  0.49458487  0.73711915  1
  O  O152  1  0.83874846  0.82791821  0.73711915  1
  O  O153  1  0.06097068  0.27236265  1.07045248  1
  O  O154  1  0.06097068  0.60569598  1.07045248  1
  O  O155  1  0.06097068  0.93902932  1.07045248  1
  O  O156  1  0.39430402  0.27236265  1.07045248  1
  O  O157  1  0.39430402  0.60569598  1.07045248  1
  O  O158  1  0.39430402  0.93902932  1.07045248  1
  O  O159  1  0.72763735  0.27236265  1.07045248  1
  O  O160  1  0.72763735  0.60569598  1.07045248  1
  O  O161  1  0.72763735  0.93902932  1.07045248  1
  O  O162  1  0.05014043  0.10028086  0.59621419  1
  O  O163  1  0.05014043  0.43361419  0.59621419  1
  O  O164  1  0.05014043  0.76694752  0.59621419  1
  O  O165  1  0.38347376  0.10028086  0.59621419  1
  O  O166  1  0.38347376  0.43361419  0.59621419  1
  O  O167  1  0.38347376  0.76694752  0.59621419  1
  O  O168  1  0.71680710  0.10028086  0.59621419  1
  O  O169  1  0.71680710  0.43361419  0.59621419  1
  O  O170  1  0.71680710  0.76694752  0.59621419  1
  O  O171  1  0.27236265  0.21139197  0.92954752  1
  O  O172  1  0.27236265  0.54472530  0.92954752  1
  O  O173  1  0.27236265  0.87805864  0.92954752  1
  O  O174  1  0.60569598  0.21139197  0.92954752  1
  O  O175  1  0.60569598  0.54472530  0.92954752  1
  O  O176  1  0.60569598  0.87805864  0.92954752  1
  O  O177  1  0.93902932  0.21139197  0.92954752  1
  O  O178  1  0.93902932  0.54472530  0.92954752  1
  O  O179  1  0.93902932  0.87805864  0.92954752  1
  O  O180  1  0.16125154  0.32250308  1.26288085  1
  O  O181  1  0.16125154  0.65583641  1.26288085  1
  O  O182  1  0.16125154  0.98916975  1.26288085  1
  O  O183  1  0.49458487  0.32250308  1.26288085  1
  O  O184  1  0.49458487  0.65583641  1.26288085  1
  O  O185  1  0.49458487  0.98916975  1.26288085  1
  O  O186  1  0.82791821  0.32250308  1.26288085  1
  O  O187  1  0.82791821  0.65583641  1.26288085  1
  O  O188  1  0.82791821  0.98916975  1.26288085  1
  O  O189  1  -0.10028086  -0.05014043  0.59621419  1
  O  O190  1  -0.10028086  0.28319290  0.59621419  1
  O  O191  1  -0.10028086  0.61652624  0.59621419  1
  O  O192  1  0.23305248  -0.05014043  0.59621419  1
  O  O193  1  0.23305248  0.28319290  0.59621419  1
  O  O194  1  0.23305248  0.61652624  0.59621419  1
  O  O195  1  0.56638581  -0.05014043  0.59621419  1
  O  O196  1  0.56638581  0.28319290  0.59621419  1
  O  O197  1  0.56638581  0.61652624  0.59621419  1
  O  O198  1  0.12194136  0.06097068  0.92954752  1
  O  O199  1  0.12194136  0.39430402  0.92954752  1
  O  O200  1  0.12194136  0.72763735  0.92954752  1
  O  O201  1  0.45527470  0.06097068  0.92954752  1
  O  O202  1  0.45527470  0.39430402  0.92954752  1
  O  O203  1  0.45527470  0.72763735  0.92954752  1
  O  O204  1  0.78860803  0.06097068  0.92954752  1
  O  O205  1  0.78860803  0.39430402  0.92954752  1
  O  O206  1  0.78860803  0.72763735  0.92954752  1
  O  O207  1  0.01083025  0.17208179  1.26288085  1
  O  O208  1  0.01083025  0.50541513  1.26288085  1
  O  O209  1  0.01083025  0.83874846  1.26288085  1
  O  O210  1  0.34416359  0.17208179  1.26288085  1
  O  O211  1  0.34416359  0.50541513  1.26288085  1
  O  O212  1  0.34416359  0.83874846  1.26288085  1
  O  O213  1  0.67749692  0.17208179  1.26288085  1
  O  O214  1  0.67749692  0.50541513  1.26288085  1
  O  O215  1  0.67749692  0.83874846  1.26288085  1
  O  O216  1  0.05014043  -0.05014043  0.59621419  1
  O  O217  1  0.05014043  0.28319290  0.59621419  1
  O  O218  1  0.05014043  0.61652624  0.59621419  1
  O  O219  1  0.38347376  -0.05014043  0.59621419  1
  O  O220  1  0.38347376  0.28319290  0.59621419  1
  O  O221  1  0.38347376  0.61652624  0.59621419  1
  O  O222  1  0.71680710  -0.05014043  0.59621419  1
  O  O223  1  0.71680710  0.28319290  0.59621419  1
  O  O224  1  0.71680710  0.61652624  0.59621419  1
  O  O225  1  0.27236265  0.06097068  0.92954752  1
  O  O226  1  0.27236265  0.39430402  0.92954752  1
  O  O227  1  0.27236265  0.72763735  0.92954752  1
  O  O228  1  0.60569598  0.06097068  0.92954752  1
  O  O229  1  0.60569598  0.39430402  0.92954752  1
  O  O230  1  0.60569598  0.72763735  0.92954752  1
  O  O231  1  0.93902932  0.06097068  0.92954752  1
  O  O232  1  0.93902932  0.39430402  0.92954752  1
  O  O233  1  0.93902932  0.72763735  0.92954752  1
  O  O234  1  0.16125154  0.17208179  1.26288085  1
  O  O235  1  0.16125154  0.50541513  1.26288085  1
  O  O236  1  0.16125154  0.83874846  1.26288085  1
  O  O237  1  0.49458487  0.17208179  1.26288085  1
  O  O238  1  0.49458487  0.50541513  1.26288085  1
  O  O239  1  0.49458487  0.83874846  1.26288085  1
  O  O240  1  0.82791821  0.17208179  1.26288085  1
  O  O241  1  0.82791821  0.50541513  1.26288085  1
  O  O242  1  0.82791821  0.83874846  1.26288085  1
  O  O243  1  -0.05014043  -0.10028086  0.40378581  1
  O  O244  1  -0.05014043  0.23305248  0.40378581  1
  O  O245  1  -0.05014043  0.56638581  0.40378581  1
  O  O246  1  0.28319290  -0.10028086  0.40378581  1
  O  O247  1  0.28319290  0.23305248  0.40378581  1
  O  O248  1  0.28319290  0.56638581  0.40378581  1
  O  O249  1  0.61652624  -0.10028086  0.40378581  1
  O  O250  1  0.61652624  0.23305248  0.40378581  1
  O  O251  1  0.61652624  0.56638581  0.40378581  1
  O  O252  1  0.17208179  0.01083025  0.73711915  1
  O  O253  1  0.17208179  0.34416359  0.73711915  1
  O  O254  1  0.17208179  0.67749692  0.73711915  1
  O  O255  1  0.50541513  0.01083025  0.73711915  1
  O  O256  1  0.50541513  0.34416359  0.73711915  1
  O  O257  1  0.50541513  0.67749692  0.73711915  1
  O  O258  1  0.83874846  0.01083025  0.73711915  1
  O  O259  1  0.83874846  0.34416359  0.73711915  1
  O  O260  1  0.83874846  0.67749692  0.73711915  1
  O  O261  1  0.06097068  0.12194136  1.07045248  1
  O  O262  1  0.06097068  0.45527470  1.07045248  1
  O  O263  1  0.06097068  0.78860803  1.07045248  1
  O  O264  1  0.39430402  0.12194136  1.07045248  1
  O  O265  1  0.39430402  0.45527470  1.07045248  1
  O  O266  1  0.39430402  0.78860803  1.07045248  1
  O  O267  1  0.72763735  0.12194136  1.07045248  1
  O  O268  1  0.72763735  0.45527470  1.07045248  1
  O  O269  1  0.72763735  0.78860803  1.07045248  1
  O  O270  1  0.10028086  0.05014043  0.40378581  1
  O  O271  1  0.10028086  0.38347376  0.40378581  1
  O  O272  1  0.10028086  0.71680710  0.40378581  1
  O  O273  1  0.43361419  0.05014043  0.40378581  1
  O  O274  1  0.43361419  0.38347376  0.40378581  1
  O  O275  1  0.43361419  0.71680710  0.40378581  1
  O  O276  1  0.76694752  0.05014043  0.40378581  1
  O  O277  1  0.76694752  0.38347376  0.40378581  1
  O  O278  1  0.76694752  0.71680710  0.40378581  1
  O  O279  1  0.32250308  0.16125154  0.73711915  1
  O  O280  1  0.32250308  0.49458487  0.73711915  1
  O  O281  1  0.32250308  0.82791821  0.73711915  1
  O  O282  1  0.65583641  0.16125154  0.73711915  1
  O  O283  1  0.65583641  0.49458487  0.73711915  1
  O  O284  1  0.65583641  0.82791821  0.73711915  1
  O  O285  1  0.98916975  0.16125154  0.73711915  1
  O  O286  1  0.98916975  0.49458487  0.73711915  1
  O  O287  1  0.98916975  0.82791821  0.73711915  1
  O  O288  1  0.21139197  0.27236265  1.07045248  1
  O  O289  1  0.21139197  0.60569598  1.07045248  1
  O  O290  1  0.21139197  0.93902932  1.07045248  1
  O  O291  1  0.54472530  0.27236265  1.07045248  1
  O  O292  1  0.54472530  0.60569598  1.07045248  1
  O  O293  1  0.54472530  0.93902932  1.07045248  1
  O  O294  1  0.87805864  0.27236265  1.07045248  1
  O  O295  1  0.87805864  0.60569598  1.07045248  1
  O  O296  1  0.87805864  0.93902932  1.07045248  1
