# generated using pymatgen
data_CaCrO4
_symmetry_space_group_name_H-M   'P 1'
_cell_length_a   14.46233664
_cell_length_b   14.46233664
_cell_length_c   12.44544721
_cell_angle_alpha   90.00000000
_cell_angle_beta   90.00000000
_cell_angle_gamma   90.00000000
_symmetry_Int_Tables_number   1
_chemical_formula_structural   CaCrO4
_chemical_formula_sum   'Ca32 Cr32 O128'
_cell_volume   2603.07954787
_cell_formula_units_Z   32
loop_
 _symmetry_equiv_pos_site_id
 _symmetry_equiv_pos_as_xyz
  1  'x, y, z'
loop_
 _atom_site_type_symbol
 _atom_site_label
 _atom_site_symmetry_multiplicity
 _atom_site_fract_x
 _atom_site_fract_y
 _atom_site_fract_z
 _atom_site_occupancy
  Ca  Ca0  1  0.00000000  0.50000000  0.00000000  1
  Ca  Ca1  1  0.00000000  0.50000000  0.50000000  1
  Ca  Ca2  1  0.50000000  0.50000000  0.00000000  1
  Ca  Ca3  1  0.50000000  0.50000000  0.50000000  1
  Ca  Ca4  1  0.00000000  0.00000000  0.00000000  1
  Ca  Ca5  1  0.00000000  0.00000000  0.50000000  1
  Ca  Ca6  1  0.50000000  0.00000000  0.00000000  1
  Ca  Ca7  1  0.50000000  0.00000000  0.50000000  1
  Ca  Ca8  1  0.25000000  0.25000000  0.25000000  1
  Ca  Ca9  1  0.25000000  0.25000000  0.75000000  1
  Ca  Ca10  1  0.75000000  0.25000000  0.25000000  1
  Ca  Ca11  1  0.75000000  0.25000000  0.75000000  1
  Ca  Ca12  1  0.25000000  -0.25000000  0.25000000  1
  Ca  Ca13  1  0.25000000  -0.25000000  0.75000000  1
  Ca  Ca14  1  0.75000000  -0.25000000  0.25000000  1
  Ca  Ca15  1  0.75000000  -0.25000000  0.75000000  1
  Ca  Ca16  1  0.25000000  0.50000000  0.12500000  1
  Ca  Ca17  1  0.25000000  0.50000000  0.62500000  1
  Ca  Ca18  1  0.75000000  0.50000000  0.12500000  1
  Ca  Ca19  1  0.75000000  0.50000000  0.62500000  1
  Ca  Ca20  1  0.25000000  -0.00000000  0.12500000  1
  Ca  Ca21  1  0.25000000  -0.00000000  0.62500000  1
  Ca  Ca22  1  0.75000000  -0.00000000  0.12500000  1
  Ca  Ca23  1  0.75000000  -0.00000000  0.62500000  1
  Ca  Ca24  1  0.50000000  0.25000000  0.37500000  1
  Ca  Ca25  1  0.50000000  0.25000000  0.87500000  1
  Ca  Ca26  1  1.00000000  0.25000000  0.37500000  1
  Ca  Ca27  1  1.00000000  0.25000000  0.87500000  1
  Ca  Ca28  1  0.50000000  -0.25000000  0.37500000  1
  Ca  Ca29  1  0.50000000  -0.25000000  0.87500000  1
  Ca  Ca30  1  1.00000000  -0.25000000  0.37500000  1
  Ca  Ca31  1  1.00000000  -0.25000000  0.87500000  1
  Cr  Cr32  1  0.00000000  0.25000000  0.12500000  1
  Cr  Cr33  1  0.00000000  0.25000000  0.62500000  1
  Cr  Cr34  1  0.50000000  0.25000000  0.12500000  1
  Cr  Cr35  1  0.50000000  0.25000000  0.62500000  1
  Cr  Cr36  1  0.00000000  -0.25000000  0.12500000  1
  Cr  Cr37  1  0.00000000  -0.25000000  0.62500000  1
  Cr  Cr38  1  0.50000000  -0.25000000  0.12500000  1
  Cr  Cr39  1  0.50000000  -0.25000000  0.62500000  1
  Cr  Cr40  1  0.25000000  0.00000000  0.37500000  1
  Cr  Cr41  1  0.25000000  0.00000000  0.87500000  1
  Cr  Cr42  1  0.75000000  0.00000000  0.37500000  1
  Cr  Cr43  1  0.75000000  0.00000000  0.87500000  1
  Cr  Cr44  1  0.25000000  -0.50000000  0.37500000  1
  Cr  Cr45  1  0.25000000  -0.50000000  0.87500000  1
  Cr  Cr46  1  0.75000000  -0.50000000  0.37500000  1
  Cr  Cr47  1  0.75000000  -0.50000000  0.87500000  1
  Cr  Cr48  1  0.00000000  0.50000000  0.25000000  1
  Cr  Cr49  1  0.00000000  0.50000000  0.75000000  1
  Cr  Cr50  1  0.50000000  0.50000000  0.25000000  1
  Cr  Cr51  1  0.50000000  0.50000000  0.75000000  1
  Cr  Cr52  1  0.00000000  0.00000000  0.25000000  1
  Cr  Cr53  1  0.00000000  0.00000000  0.75000000  1
  Cr  Cr54  1  0.50000000  0.00000000  0.25000000  1
  Cr  Cr55  1  0.50000000  0.00000000  0.75000000  1
  Cr  Cr56  1  0.25000000  0.25000000  0.50000000  1
  Cr  Cr57  1  0.25000000  0.25000000  1.00000000  1
  Cr  Cr58  1  0.75000000  0.25000000  0.50000000  1
  Cr  Cr59  1  0.75000000  0.25000000  1.00000000  1
  Cr  Cr60  1  0.25000000  -0.25000000  0.50000000  1
  Cr  Cr61  1  0.25000000  -0.25000000  1.00000000  1
  Cr  Cr62  1  0.75000000  -0.25000000  0.50000000  1
  Cr  Cr63  1  0.75000000  -0.25000000  1.00000000  1
  O  O64  1  0.25000000  0.34075721  0.08109747  1
  O  O65  1  0.25000000  0.34075721  0.58109747  1
  O  O66  1  0.75000000  0.34075721  0.08109747  1
  O  O67  1  0.75000000  0.34075721  0.58109747  1
  O  O68  1  0.25000000  -0.15924279  0.08109747  1
  O  O69  1  0.25000000  -0.15924279  0.58109747  1
  O  O70  1  0.75000000  -0.15924279  0.08109747  1
  O  O71  1  0.75000000  -0.15924279  0.58109747  1
  O  O72  1  0.50000000  0.09075721  0.33109747  1
  O  O73  1  0.50000000  0.09075721  0.83109747  1
  O  O74  1  1.00000000  0.09075721  0.33109747  1
  O  O75  1  1.00000000  0.09075721  0.83109747  1
  O  O76  1  0.50000000  -0.40924279  0.33109747  1
  O  O77  1  0.50000000  -0.40924279  0.83109747  1
  O  O78  1  1.00000000  -0.40924279  0.33109747  1
  O  O79  1  1.00000000  -0.40924279  0.83109747  1
  O  O80  1  0.09075721  0.25000000  0.20609747  1
  O  O81  1  0.09075721  0.25000000  0.70609747  1
  O  O82  1  0.59075721  0.25000000  0.20609747  1
  O  O83  1  0.59075721  0.25000000  0.70609747  1
  O  O84  1  0.09075721  -0.25000000  0.20609747  1
  O  O85  1  0.09075721  -0.25000000  0.70609747  1
  O  O86  1  0.59075721  -0.25000000  0.20609747  1
  O  O87  1  0.59075721  -0.25000000  0.70609747  1
  O  O88  1  0.34075721  0.00000000  0.45609747  1
  O  O89  1  0.34075721  0.00000000  0.95609747  1
  O  O90  1  0.84075721  0.00000000  0.45609747  1
  O  O91  1  0.84075721  0.00000000  0.95609747  1
  O  O92  1  0.34075721  -0.50000000  0.45609747  1
  O  O93  1  0.34075721  -0.50000000  0.95609747  1
  O  O94  1  0.84075721  -0.50000000  0.45609747  1
  O  O95  1  0.84075721  -0.50000000  0.95609747  1
  O  O96  1  -0.09075721  0.25000000  0.20609747  1
  O  O97  1  -0.09075721  0.25000000  0.70609747  1
  O  O98  1  0.40924279  0.25000000  0.20609747  1
  O  O99  1  0.40924279  0.25000000  0.70609747  1
  O  O100  1  -0.09075721  -0.25000000  0.20609747  1
  O  O101  1  -0.09075721  -0.25000000  0.70609747  1
  O  O102  1  0.40924279  -0.25000000  0.20609747  1
  O  O103  1  0.40924279  -0.25000000  0.70609747  1
  O  O104  1  0.15924279  0.00000000  0.45609747  1
  O  O105  1  0.15924279  0.00000000  0.95609747  1
  O  O106  1  0.65924279  0.00000000  0.45609747  1
  O  O107  1  0.65924279  0.00000000  0.95609747  1
  O  O108  1  0.15924279  -0.50000000  0.45609747  1
  O  O109  1  0.15924279  -0.50000000  0.95609747  1
  O  O110  1  0.65924279  -0.50000000  0.45609747  1
  O  O111  1  0.65924279  -0.50000000  0.95609747  1
  O  O112  1  -0.00000000  0.40924279  0.33109747  1
  O  O113  1  -0.00000000  0.40924279  0.83109747  1
  O  O114  1  0.50000000  0.40924279  0.33109747  1
  O  O115  1  0.50000000  0.40924279  0.83109747  1
  O  O116  1  -0.00000000  -0.09075721  0.33109747  1
  O  O117  1  -0.00000000  -0.09075721  0.83109747  1
  O  O118  1  0.50000000  -0.09075721  0.33109747  1
  O  O119  1  0.50000000  -0.09075721  0.83109747  1
  O  O120  1  0.25000000  0.15924279  0.58109747  1
  O  O121  1  0.25000000  0.15924279  1.08109747  1
  O  O122  1  0.75000000  0.15924279  0.58109747  1
  O  O123  1  0.75000000  0.15924279  1.08109747  1
  O  O124  1  0.25000000  -0.34075721  0.58109747  1
  O  O125  1  0.25000000  -0.34075721  1.08109747  1
  O  O126  1  0.75000000  -0.34075721  0.58109747  1
  O  O127  1  0.75000000  -0.34075721  1.08109747  1
  O  O128  1  0.15924279  0.25000000  -0.08109747  1
  O  O129  1  0.15924279  0.25000000  0.41890253  1
  O  O130  1  0.65924279  0.25000000  -0.08109747  1
  O  O131  1  0.65924279  0.25000000  0.41890253  1
  O  O132  1  0.15924279  -0.25000000  -0.08109747  1
  O  O133  1  0.15924279  -0.25000000  0.41890253  1
  O  O134  1  0.65924279  -0.25000000  -0.08109747  1
  O  O135  1  0.65924279  -0.25000000  0.41890253  1
  O  O136  1  0.40924279  0.00000000  0.16890253  1
  O  O137  1  0.40924279  0.00000000  0.66890253  1
  O  O138  1  0.90924279  0.00000000  0.16890253  1
  O  O139  1  0.90924279  0.00000000  0.66890253  1
  O  O140  1  0.40924279  -0.50000000  0.16890253  1
  O  O141  1  0.40924279  -0.50000000  0.66890253  1
  O  O142  1  0.90924279  -0.50000000  0.16890253  1
  O  O143  1  0.90924279  -0.50000000  0.66890253  1
  O  O144  1  -0.00000000  0.15924279  0.04390253  1
  O  O145  1  -0.00000000  0.15924279  0.54390253  1
  O  O146  1  0.50000000  0.15924279  0.04390253  1
  O  O147  1  0.50000000  0.15924279  0.54390253  1
  O  O148  1  -0.00000000  -0.34075721  0.04390253  1
  O  O149  1  -0.00000000  -0.34075721  0.54390253  1
  O  O150  1  0.50000000  -0.34075721  0.04390253  1
  O  O151  1  0.50000000  -0.34075721  0.54390253  1
  O  O152  1  0.25000000  -0.09075721  0.29390253  1
  O  O153  1  0.25000000  -0.09075721  0.79390253  1
  O  O154  1  0.75000000  -0.09075721  0.29390253  1
  O  O155  1  0.75000000  -0.09075721  0.79390253  1
  O  O156  1  0.25000000  -0.59075721  0.29390253  1
  O  O157  1  0.25000000  -0.59075721  0.79390253  1
  O  O158  1  0.75000000  -0.59075721  0.29390253  1
  O  O159  1  0.75000000  -0.59075721  0.79390253  1
  O  O160  1  -0.00000000  0.34075721  0.04390253  1
  O  O161  1  -0.00000000  0.34075721  0.54390253  1
  O  O162  1  0.50000000  0.34075721  0.04390253  1
  O  O163  1  0.50000000  0.34075721  0.54390253  1
  O  O164  1  -0.00000000  -0.15924279  0.04390253  1
  O  O165  1  -0.00000000  -0.15924279  0.54390253  1
  O  O166  1  0.50000000  -0.15924279  0.04390253  1
  O  O167  1  0.50000000  -0.15924279  0.54390253  1
  O  O168  1  0.25000000  0.09075721  0.29390253  1
  O  O169  1  0.25000000  0.09075721  0.79390253  1
  O  O170  1  0.75000000  0.09075721  0.29390253  1
  O  O171  1  0.75000000  0.09075721  0.79390253  1
  O  O172  1  0.25000000  -0.40924279  0.29390253  1
  O  O173  1  0.25000000  -0.40924279  0.79390253  1
  O  O174  1  0.75000000  -0.40924279  0.29390253  1
  O  O175  1  0.75000000  -0.40924279  0.79390253  1
  O  O176  1  0.09075721  0.50000000  0.16890253  1
  O  O177  1  0.09075721  0.50000000  0.66890253  1
  O  O178  1  0.59075721  0.50000000  0.16890253  1
  O  O179  1  0.59075721  0.50000000  0.66890253  1
  O  O180  1  0.09075721  0.00000000  0.16890253  1
  O  O181  1  0.09075721  0.00000000  0.66890253  1
  O  O182  1  0.59075721  0.00000000  0.16890253  1
  O  O183  1  0.59075721  0.00000000  0.66890253  1
  O  O184  1  0.34075721  0.25000000  0.41890253  1
  O  O185  1  0.34075721  0.25000000  0.91890253  1
  O  O186  1  0.84075721  0.25000000  0.41890253  1
  O  O187  1  0.84075721  0.25000000  0.91890253  1
  O  O188  1  0.34075721  -0.25000000  0.41890253  1
  O  O189  1  0.34075721  -0.25000000  0.91890253  1
  O  O190  1  0.84075721  -0.25000000  0.41890253  1
  O  O191  1  0.84075721  -0.25000000  0.91890253  1
