# generated using pymatgen
data_Li2WO4
_symmetry_space_group_name_H-M   'P 1'
_cell_length_a   9.77351396
_cell_length_b   11.84799966
_cell_length_c   9.99802299
_cell_angle_alpha   90.00000000
_cell_angle_beta   91.25784525
_cell_angle_gamma   90.00000000
_symmetry_Int_Tables_number   1
_chemical_formula_structural   Li2WO4
_chemical_formula_sum   'Li32 W16 O64'
_cell_volume   1157.45799057
_cell_formula_units_Z   16
loop_
 _symmetry_equiv_pos_site_id
 _symmetry_equiv_pos_as_xyz
  1  'x, y, z'
loop_
 _atom_site_type_symbol
 _atom_site_label
 _atom_site_symmetry_multiplicity
 _atom_site_fract_x
 _atom_site_fract_y
 _atom_site_fract_z
 _atom_site_occupancy
  Li  Li0  1  0.30199321  -0.07455895  0.37032760  1
  Li  Li1  1  0.30199321  -0.07455895  0.87032760  1
  Li  Li2  1  0.30199321  0.42544105  0.37032760  1
  Li  Li3  1  0.30199321  0.42544105  0.87032760  1
  Li  Li4  1  0.80199321  0.17544105  0.37032760  1
  Li  Li5  1  0.80199321  0.17544105  0.87032760  1
  Li  Li6  1  0.80199321  0.67544105  0.37032760  1
  Li  Li7  1  0.80199321  0.67544105  0.87032760  1
  Li  Li8  1  0.69800679  -0.07455895  0.37967240  1
  Li  Li9  1  0.69800679  -0.07455895  0.87967240  1
  Li  Li10  1  0.69800679  0.42544105  0.37967240  1
  Li  Li11  1  0.69800679  0.42544105  0.87967240  1
  Li  Li12  1  1.19800679  0.17544105  0.37967240  1
  Li  Li13  1  1.19800679  0.17544105  0.87967240  1
  Li  Li14  1  1.19800679  0.67544105  0.37967240  1
  Li  Li15  1  1.19800679  0.67544105  0.87967240  1
  Li  Li16  1  0.69800679  0.07455895  0.12967240  1
  Li  Li17  1  0.69800679  0.07455895  0.62967240  1
  Li  Li18  1  0.69800679  0.57455895  0.12967240  1
  Li  Li19  1  0.69800679  0.57455895  0.62967240  1
  Li  Li20  1  1.19800679  0.32455895  0.12967240  1
  Li  Li21  1  1.19800679  0.32455895  0.62967240  1
  Li  Li22  1  1.19800679  0.82455895  0.12967240  1
  Li  Li23  1  1.19800679  0.82455895  0.62967240  1
  Li  Li24  1  0.30199321  0.07455895  0.12032760  1
  Li  Li25  1  0.30199321  0.07455895  0.62032760  1
  Li  Li26  1  0.30199321  0.57455895  0.12032760  1
  Li  Li27  1  0.30199321  0.57455895  0.62032760  1
  Li  Li28  1  0.80199321  0.32455895  0.12032760  1
  Li  Li29  1  0.80199321  0.32455895  0.62032760  1
  Li  Li30  1  0.80199321  0.82455895  0.12032760  1
  Li  Li31  1  0.80199321  0.82455895  0.62032760  1
  W  W32  1  0.50000000  0.16492880  0.37500000  1
  W  W33  1  0.50000000  0.16492880  0.87500000  1
  W  W34  1  0.50000000  0.66492880  0.37500000  1
  W  W35  1  0.50000000  0.66492880  0.87500000  1
  W  W36  1  1.00000000  0.41492880  0.37500000  1
  W  W37  1  1.00000000  0.41492880  0.87500000  1
  W  W38  1  1.00000000  0.91492880  0.37500000  1
  W  W39  1  1.00000000  0.91492880  0.87500000  1
  W  W40  1  0.50000000  -0.16492880  0.12500000  1
  W  W41  1  0.50000000  -0.16492880  0.62500000  1
  W  W42  1  0.50000000  0.33507120  0.12500000  1
  W  W43  1  0.50000000  0.33507120  0.62500000  1
  W  W44  1  1.00000000  0.08507120  0.12500000  1
  W  W45  1  1.00000000  0.08507120  0.62500000  1
  W  W46  1  1.00000000  0.58507120  0.12500000  1
  W  W47  1  1.00000000  0.58507120  0.62500000  1
  O  O48  1  0.62878165  -0.07125163  0.06247067  1
  O  O49  1  0.62878165  -0.07125163  0.56247067  1
  O  O50  1  0.62878165  0.42874837  0.06247067  1
  O  O51  1  0.62878165  0.42874837  0.56247067  1
  O  O52  1  1.12878165  0.17874837  0.06247067  1
  O  O53  1  1.12878165  0.17874837  0.56247067  1
  O  O54  1  1.12878165  0.67874837  0.06247067  1
  O  O55  1  1.12878165  0.67874837  0.56247067  1
  O  O56  1  0.62878165  0.07125163  0.31247067  1
  O  O57  1  0.62878165  0.07125163  0.81247067  1
  O  O58  1  0.62878165  0.57125163  0.31247067  1
  O  O59  1  0.62878165  0.57125163  0.81247067  1
  O  O60  1  1.12878165  0.32125163  0.31247067  1
  O  O61  1  1.12878165  0.32125163  0.81247067  1
  O  O62  1  1.12878165  0.82125163  0.31247067  1
  O  O63  1  1.12878165  0.82125163  0.81247067  1
  O  O64  1  0.10665895  0.05004187  0.28288423  1
  O  O65  1  0.10665895  0.05004187  0.78288423  1
  O  O66  1  0.10665895  0.55004187  0.28288423  1
  O  O67  1  0.10665895  0.55004187  0.78288423  1
  O  O68  1  0.60665895  0.30004187  0.28288423  1
  O  O69  1  0.60665895  0.30004187  0.78288423  1
  O  O70  1  0.60665895  0.80004187  0.28288423  1
  O  O71  1  0.60665895  0.80004187  0.78288423  1
  O  O72  1  0.89334105  0.05004187  0.46711577  1
  O  O73  1  0.89334105  0.05004187  0.96711577  1
  O  O74  1  0.89334105  0.55004187  0.46711577  1
  O  O75  1  0.89334105  0.55004187  0.96711577  1
  O  O76  1  1.39334105  0.30004187  0.46711577  1
  O  O77  1  1.39334105  0.30004187  0.96711577  1
  O  O78  1  1.39334105  0.80004187  0.46711577  1
  O  O79  1  1.39334105  0.80004187  0.96711577  1
  O  O80  1  0.89334105  -0.05004187  0.21711577  1
  O  O81  1  0.89334105  -0.05004187  0.71711577  1
  O  O82  1  0.89334105  0.44995813  0.21711577  1
  O  O83  1  0.89334105  0.44995813  0.71711577  1
  O  O84  1  1.39334105  0.19995813  0.21711577  1
  O  O85  1  1.39334105  0.19995813  0.71711577  1
  O  O86  1  1.39334105  0.69995813  0.21711577  1
  O  O87  1  1.39334105  0.69995813  0.71711577  1
  O  O88  1  0.10665895  -0.05004187  0.03288423  1
  O  O89  1  0.10665895  -0.05004187  0.53288423  1
  O  O90  1  0.10665895  0.44995813  0.03288423  1
  O  O91  1  0.10665895  0.44995813  0.53288423  1
  O  O92  1  0.60665895  0.19995813  0.03288423  1
  O  O93  1  0.60665895  0.19995813  0.53288423  1
  O  O94  1  0.60665895  0.69995813  0.03288423  1
  O  O95  1  0.60665895  0.69995813  0.53288423  1
  O  O96  1  0.37121835  0.07125163  0.43752933  1
  O  O97  1  0.37121835  0.07125163  0.93752933  1
  O  O98  1  0.37121835  0.57125163  0.43752933  1
  O  O99  1  0.37121835  0.57125163  0.93752933  1
  O  O100  1  0.87121835  0.32125163  0.43752933  1
  O  O101  1  0.87121835  0.32125163  0.93752933  1
  O  O102  1  0.87121835  0.82125163  0.43752933  1
  O  O103  1  0.87121835  0.82125163  0.93752933  1
  O  O104  1  0.37121835  -0.07125163  0.18752933  1
  O  O105  1  0.37121835  -0.07125163  0.68752933  1
  O  O106  1  0.37121835  0.42874837  0.18752933  1
  O  O107  1  0.37121835  0.42874837  0.68752933  1
  O  O108  1  0.87121835  0.17874837  0.18752933  1
  O  O109  1  0.87121835  0.17874837  0.68752933  1
  O  O110  1  0.87121835  0.67874837  0.18752933  1
  O  O111  1  0.87121835  0.67874837  0.68752933  1
