# generated using pymatgen
data_K4Hf5O12
_symmetry_space_group_name_H-M   'P 1'
_cell_length_a   11.53939015
_cell_length_b   11.53939015
_cell_length_c   10.33491823
_cell_angle_alpha   90.00000000
_cell_angle_beta   90.00000000
_cell_angle_gamma   120.00000000
_symmetry_Int_Tables_number   1
_chemical_formula_structural   K4Hf5O12
_chemical_formula_sum   'K16 Hf20 O48'
_cell_volume   1191.80002710
_cell_formula_units_Z   4
loop_
 _symmetry_equiv_pos_site_id
 _symmetry_equiv_pos_as_xyz
  1  'x, y, z'
loop_
 _atom_site_type_symbol
 _atom_site_label
 _atom_site_symmetry_multiplicity
 _atom_site_fract_x
 _atom_site_fract_y
 _atom_site_fract_z
 _atom_site_occupancy
  K  K0  1  0.00000000  0.00000000  0.32359856  1
  K  K1  1  -0.00000000  0.50000000  0.32359856  1
  K  K2  1  0.50000000  0.00000000  0.32359856  1
  K  K3  1  0.50000000  0.50000000  0.32359856  1
  K  K4  1  0.00000000  0.00000000  0.67640144  1
  K  K5  1  -0.00000000  0.50000000  0.67640144  1
  K  K6  1  0.50000000  0.00000000  0.67640144  1
  K  K7  1  0.50000000  0.50000000  0.67640144  1
  K  K8  1  0.16666667  0.33333333  0.11171614  1
  K  K9  1  0.16666667  0.83333333  0.11171614  1
  K  K10  1  0.66666667  0.33333333  0.11171614  1
  K  K11  1  0.66666667  0.83333333  0.11171614  1
  K  K12  1  0.33333333  0.16666667  0.88828386  1
  K  K13  1  0.33333333  0.66666667  0.88828386  1
  K  K14  1  0.83333333  0.16666667  0.88828386  1
  K  K15  1  0.83333333  0.66666667  0.88828386  1
  Hf  Hf16  1  0.16666667  0.33333333  0.47720588  1
  Hf  Hf17  1  0.16666667  0.83333333  0.47720588  1
  Hf  Hf18  1  0.66666667  0.33333333  0.47720588  1
  Hf  Hf19  1  0.66666667  0.83333333  0.47720588  1
  Hf  Hf20  1  0.33333333  0.16666667  0.52279412  1
  Hf  Hf21  1  0.33333333  0.66666667  0.52279412  1
  Hf  Hf22  1  0.83333333  0.16666667  0.52279412  1
  Hf  Hf23  1  0.83333333  0.66666667  0.52279412  1
  Hf  Hf24  1  0.00000000  0.00000000  0.00000000  1
  Hf  Hf25  1  -0.00000000  0.50000000  0.00000000  1
  Hf  Hf26  1  0.50000000  0.00000000  0.00000000  1
  Hf  Hf27  1  0.50000000  0.50000000  0.00000000  1
  Hf  Hf28  1  0.16666667  0.33333333  0.78244765  1
  Hf  Hf29  1  0.16666667  0.83333333  0.78244765  1
  Hf  Hf30  1  0.66666667  0.33333333  0.78244765  1
  Hf  Hf31  1  0.66666667  0.83333333  0.78244765  1
  Hf  Hf32  1  0.33333333  0.16666667  0.21755235  1
  Hf  Hf33  1  0.33333333  0.66666667  0.21755235  1
  Hf  Hf34  1  0.83333333  0.16666667  0.21755235  1
  Hf  Hf35  1  0.83333333  0.66666667  0.21755235  1
  O  O36  1  0.41750999  0.08249001  0.12134794  1
  O  O37  1  0.41750999  0.58249001  0.12134794  1
  O  O38  1  0.91750999  0.08249001  0.12134794  1
  O  O39  1  0.91750999  0.58249001  0.12134794  1
  O  O40  1  0.41750999  0.33501997  0.12134794  1
  O  O41  1  0.41750999  0.83501997  0.12134794  1
  O  O42  1  0.91750999  0.33501997  0.12134794  1
  O  O43  1  0.91750999  0.83501997  0.12134794  1
  O  O44  1  0.16498003  0.08249001  0.12134794  1
  O  O45  1  0.16498003  0.58249001  0.12134794  1
  O  O46  1  0.66498003  0.08249001  0.12134794  1
  O  O47  1  0.66498003  0.58249001  0.12134794  1
  O  O48  1  0.33501997  0.41750999  0.87865206  1
  O  O49  1  0.33501997  0.91750999  0.87865206  1
  O  O50  1  0.83501997  0.41750999  0.87865206  1
  O  O51  1  0.83501997  0.91750999  0.87865206  1
  O  O52  1  0.08249001  0.16498003  0.87865206  1
  O  O53  1  0.08249001  0.66498003  0.87865206  1
  O  O54  1  0.58249001  0.16498003  0.87865206  1
  O  O55  1  0.58249001  0.66498003  0.87865206  1
  O  O56  1  0.08249001  0.41750999  0.87865206  1
  O  O57  1  0.08249001  0.91750999  0.87865206  1
  O  O58  1  0.58249001  0.41750999  0.87865206  1
  O  O59  1  0.58249001  0.91750999  0.87865206  1
  O  O60  1  0.25516819  0.24483181  0.37761023  1
  O  O61  1  0.25516819  0.74483181  0.37761023  1
  O  O62  1  0.75516819  0.24483181  0.37761023  1
  O  O63  1  0.75516819  0.74483181  0.37761023  1
  O  O64  1  0.25516819  0.01033637  0.37761023  1
  O  O65  1  0.25516819  0.51033637  0.37761023  1
  O  O66  1  0.75516819  0.01033637  0.37761023  1
  O  O67  1  0.75516819  0.51033637  0.37761023  1
  O  O68  1  0.48966363  0.24483181  0.37761023  1
  O  O69  1  0.48966363  0.74483181  0.37761023  1
  O  O70  1  0.98966363  0.24483181  0.37761023  1
  O  O71  1  0.98966363  0.74483181  0.37761023  1
  O  O72  1  0.01033637  0.25516819  0.62238977  1
  O  O73  1  0.01033637  0.75516819  0.62238977  1
  O  O74  1  0.51033637  0.25516819  0.62238977  1
  O  O75  1  0.51033637  0.75516819  0.62238977  1
  O  O76  1  0.24483181  0.48966363  0.62238977  1
  O  O77  1  0.24483181  0.98966363  0.62238977  1
  O  O78  1  0.74483181  0.48966363  0.62238977  1
  O  O79  1  0.74483181  0.98966363  0.62238977  1
  O  O80  1  0.24483181  0.25516819  0.62238977  1
  O  O81  1  0.24483181  0.75516819  0.62238977  1
  O  O82  1  0.74483181  0.25516819  0.62238977  1
  O  O83  1  0.74483181  0.75516819  0.62238977  1
