# generated using pymatgen
data_K3SbO3
_symmetry_space_group_name_H-M   'P 1'
_cell_length_a   16.81074484
_cell_length_b   16.81074484
_cell_length_c   16.81074484
_cell_angle_alpha   90.00000000
_cell_angle_beta   90.00000000
_cell_angle_gamma   90.00000000
_symmetry_Int_Tables_number   1
_chemical_formula_structural   K3SbO3
_chemical_formula_sum   'K96 Sb32 O96'
_cell_volume   4750.73568753
_cell_formula_units_Z   32
loop_
 _symmetry_equiv_pos_site_id
 _symmetry_equiv_pos_as_xyz
  1  'x, y, z'
loop_
 _atom_site_type_symbol
 _atom_site_label
 _atom_site_symmetry_multiplicity
 _atom_site_fract_x
 _atom_site_fract_y
 _atom_site_fract_z
 _atom_site_occupancy
  K  K0  1  0.01202498  0.01202498  0.01202498  1
  K  K1  1  0.01202498  0.01202498  0.51202498  1
  K  K2  1  0.01202498  0.51202498  0.01202498  1
  K  K3  1  0.01202498  0.51202498  0.51202498  1
  K  K4  1  0.51202498  0.01202498  0.01202498  1
  K  K5  1  0.51202498  0.01202498  0.51202498  1
  K  K6  1  0.51202498  0.51202498  0.01202498  1
  K  K7  1  0.51202498  0.51202498  0.51202498  1
  K  K8  1  0.23797502  0.48797502  0.26202498  1
  K  K9  1  0.23797502  0.48797502  0.76202498  1
  K  K10  1  0.23797502  0.98797502  0.26202498  1
  K  K11  1  0.23797502  0.98797502  0.76202498  1
  K  K12  1  0.73797502  0.48797502  0.26202498  1
  K  K13  1  0.73797502  0.48797502  0.76202498  1
  K  K14  1  0.73797502  0.98797502  0.26202498  1
  K  K15  1  0.73797502  0.98797502  0.76202498  1
  K  K16  1  0.26202498  0.23797502  0.48797502  1
  K  K17  1  0.26202498  0.23797502  0.98797502  1
  K  K18  1  0.26202498  0.73797502  0.48797502  1
  K  K19  1  0.26202498  0.73797502  0.98797502  1
  K  K20  1  0.76202498  0.23797502  0.48797502  1
  K  K21  1  0.76202498  0.23797502  0.98797502  1
  K  K22  1  0.76202498  0.73797502  0.48797502  1
  K  K23  1  0.76202498  0.73797502  0.98797502  1
  K  K24  1  0.48797502  0.26202498  0.23797502  1
  K  K25  1  0.48797502  0.26202498  0.73797502  1
  K  K26  1  0.48797502  0.76202498  0.23797502  1
  K  K27  1  0.48797502  0.76202498  0.73797502  1
  K  K28  1  0.98797502  0.26202498  0.23797502  1
  K  K29  1  0.98797502  0.26202498  0.73797502  1
  K  K30  1  0.98797502  0.76202498  0.23797502  1
  K  K31  1  0.98797502  0.76202498  0.73797502  1
  K  K32  1  0.10774255  0.35774255  0.39225745  1
  K  K33  1  0.10774255  0.35774255  0.89225745  1
  K  K34  1  0.10774255  0.85774255  0.39225745  1
  K  K35  1  0.10774255  0.85774255  0.89225745  1
  K  K36  1  0.60774255  0.35774255  0.39225745  1
  K  K37  1  0.60774255  0.35774255  0.89225745  1
  K  K38  1  0.60774255  0.85774255  0.39225745  1
  K  K39  1  0.60774255  0.85774255  0.89225745  1
  K  K40  1  0.14225745  0.14225745  0.14225745  1
  K  K41  1  0.14225745  0.14225745  0.64225745  1
  K  K42  1  0.14225745  0.64225745  0.14225745  1
  K  K43  1  0.14225745  0.64225745  0.64225745  1
  K  K44  1  0.64225745  0.14225745  0.14225745  1
  K  K45  1  0.64225745  0.14225745  0.64225745  1
  K  K46  1  0.64225745  0.64225745  0.14225745  1
  K  K47  1  0.64225745  0.64225745  0.64225745  1
  K  K48  1  0.10561291  0.14438709  0.35561291  1
  K  K49  1  0.10561291  0.14438709  0.85561291  1
  K  K50  1  0.10561291  0.64438709  0.35561291  1
  K  K51  1  0.10561291  0.64438709  0.85561291  1
  K  K52  1  0.60561291  0.14438709  0.35561291  1
  K  K53  1  0.60561291  0.14438709  0.85561291  1
  K  K54  1  0.60561291  0.64438709  0.35561291  1
  K  K55  1  0.60561291  0.64438709  0.85561291  1
  K  K56  1  0.14438709  0.35561291  0.10561291  1
  K  K57  1  0.14438709  0.35561291  0.60561291  1
  K  K58  1  0.14438709  0.85561291  0.10561291  1
  K  K59  1  0.14438709  0.85561291  0.60561291  1
  K  K60  1  0.64438709  0.35561291  0.10561291  1
  K  K61  1  0.64438709  0.35561291  0.60561291  1
  K  K62  1  0.64438709  0.85561291  0.10561291  1
  K  K63  1  0.64438709  0.85561291  0.60561291  1
  K  K64  1  0.35561291  0.10561291  0.14438709  1
  K  K65  1  0.35561291  0.10561291  0.64438709  1
  K  K66  1  0.35561291  0.60561291  0.14438709  1
  K  K67  1  0.35561291  0.60561291  0.64438709  1
  K  K68  1  0.85561291  0.10561291  0.14438709  1
  K  K69  1  0.85561291  0.10561291  0.64438709  1
  K  K70  1  0.85561291  0.60561291  0.14438709  1
  K  K71  1  0.85561291  0.60561291  0.64438709  1
  K  K72  1  0.39438709  0.39438709  0.39438709  1
  K  K73  1  0.39438709  0.39438709  0.89438709  1
  K  K74  1  0.39438709  0.89438709  0.39438709  1
  K  K75  1  0.39438709  0.89438709  0.89438709  1
  K  K76  1  0.89438709  0.39438709  0.39438709  1
  K  K77  1  0.89438709  0.39438709  0.89438709  1
  K  K78  1  0.89438709  0.89438709  0.39438709  1
  K  K79  1  0.89438709  0.89438709  0.89438709  1
  K  K80  1  0.35774255  0.39225745  0.10774255  1
  K  K81  1  0.35774255  0.39225745  0.60774255  1
  K  K82  1  0.35774255  0.89225745  0.10774255  1
  K  K83  1  0.35774255  0.89225745  0.60774255  1
  K  K84  1  0.85774255  0.39225745  0.10774255  1
  K  K85  1  0.85774255  0.39225745  0.60774255  1
  K  K86  1  0.85774255  0.89225745  0.10774255  1
  K  K87  1  0.85774255  0.89225745  0.60774255  1
  K  K88  1  0.39225745  0.10774255  0.35774255  1
  K  K89  1  0.39225745  0.10774255  0.85774255  1
  K  K90  1  0.39225745  0.60774255  0.35774255  1
  K  K91  1  0.39225745  0.60774255  0.85774255  1
  K  K92  1  0.89225745  0.10774255  0.35774255  1
  K  K93  1  0.89225745  0.10774255  0.85774255  1
  K  K94  1  0.89225745  0.60774255  0.35774255  1
  K  K95  1  0.89225745  0.60774255  0.85774255  1
  Sb  Sb96  1  0.24274983  0.00725017  0.49274983  1
  Sb  Sb97  1  0.24274983  0.00725017  0.99274983  1
  Sb  Sb98  1  0.24274983  0.50725017  0.49274983  1
  Sb  Sb99  1  0.24274983  0.50725017  0.99274983  1
  Sb  Sb100  1  0.74274983  0.00725017  0.49274983  1
  Sb  Sb101  1  0.74274983  0.00725017  0.99274983  1
  Sb  Sb102  1  0.74274983  0.50725017  0.49274983  1
  Sb  Sb103  1  0.74274983  0.50725017  0.99274983  1
  Sb  Sb104  1  0.00725017  0.49274983  0.24274983  1
  Sb  Sb105  1  0.00725017  0.49274983  0.74274983  1
  Sb  Sb106  1  0.00725017  0.99274983  0.24274983  1
  Sb  Sb107  1  0.00725017  0.99274983  0.74274983  1
  Sb  Sb108  1  0.50725017  0.49274983  0.24274983  1
  Sb  Sb109  1  0.50725017  0.49274983  0.74274983  1
  Sb  Sb110  1  0.50725017  0.99274983  0.24274983  1
  Sb  Sb111  1  0.50725017  0.99274983  0.74274983  1
  Sb  Sb112  1  0.49274983  0.24274983  0.00725017  1
  Sb  Sb113  1  0.49274983  0.24274983  0.50725017  1
  Sb  Sb114  1  0.49274983  0.74274983  0.00725017  1
  Sb  Sb115  1  0.49274983  0.74274983  0.50725017  1
  Sb  Sb116  1  0.99274983  0.24274983  0.00725017  1
  Sb  Sb117  1  0.99274983  0.24274983  0.50725017  1
  Sb  Sb118  1  0.99274983  0.74274983  0.00725017  1
  Sb  Sb119  1  0.99274983  0.74274983  0.50725017  1
  Sb  Sb120  1  0.25725017  0.25725017  0.25725017  1
  Sb  Sb121  1  0.25725017  0.25725017  0.75725017  1
  Sb  Sb122  1  0.25725017  0.75725017  0.25725017  1
  Sb  Sb123  1  0.25725017  0.75725017  0.75725017  1
  Sb  Sb124  1  0.75725017  0.25725017  0.25725017  1
  Sb  Sb125  1  0.75725017  0.25725017  0.75725017  1
  Sb  Sb126  1  0.75725017  0.75725017  0.25725017  1
  Sb  Sb127  1  0.75725017  0.75725017  0.75725017  1
  O  O128  1  0.24719261  0.39318649  0.46991734  1
  O  O129  1  0.24719261  0.39318649  0.96991734  1
  O  O130  1  0.24719261  0.89318649  0.46991734  1
  O  O131  1  0.24719261  0.89318649  0.96991734  1
  O  O132  1  0.74719261  0.39318649  0.46991734  1
  O  O133  1  0.74719261  0.39318649  0.96991734  1
  O  O134  1  0.74719261  0.89318649  0.46991734  1
  O  O135  1  0.74719261  0.89318649  0.96991734  1
  O  O136  1  0.49719261  0.35681351  0.03008266  1
  O  O137  1  0.49719261  0.35681351  0.53008266  1
  O  O138  1  0.49719261  0.85681351  0.03008266  1
  O  O139  1  0.49719261  0.85681351  0.53008266  1
  O  O140  1  0.99719261  0.35681351  0.03008266  1
  O  O141  1  0.99719261  0.35681351  0.53008266  1
  O  O142  1  0.99719261  0.85681351  0.03008266  1
  O  O143  1  0.99719261  0.85681351  0.53008266  1
  O  O144  1  0.25280739  0.14318649  0.28008266  1
  O  O145  1  0.25280739  0.14318649  0.78008266  1
  O  O146  1  0.25280739  0.64318649  0.28008266  1
  O  O147  1  0.25280739  0.64318649  0.78008266  1
  O  O148  1  0.75280739  0.14318649  0.28008266  1
  O  O149  1  0.75280739  0.14318649  0.78008266  1
  O  O150  1  0.75280739  0.64318649  0.28008266  1
  O  O151  1  0.75280739  0.64318649  0.78008266  1
  O  O152  1  0.35681351  0.03008266  0.49719261  1
  O  O153  1  0.35681351  0.03008266  0.99719261  1
  O  O154  1  0.35681351  0.53008266  0.49719261  1
  O  O155  1  0.35681351  0.53008266  0.99719261  1
  O  O156  1  0.85681351  0.03008266  0.49719261  1
  O  O157  1  0.85681351  0.03008266  0.99719261  1
  O  O158  1  0.85681351  0.53008266  0.49719261  1
  O  O159  1  0.85681351  0.53008266  0.99719261  1
  O  O160  1  0.39318649  0.46991734  0.24719261  1
  O  O161  1  0.39318649  0.46991734  0.74719261  1
  O  O162  1  0.39318649  0.96991734  0.24719261  1
  O  O163  1  0.39318649  0.96991734  0.74719261  1
  O  O164  1  0.89318649  0.46991734  0.24719261  1
  O  O165  1  0.89318649  0.46991734  0.74719261  1
  O  O166  1  0.89318649  0.96991734  0.24719261  1
  O  O167  1  0.89318649  0.96991734  0.74719261  1
  O  O168  1  0.46991734  0.24719261  0.39318649  1
  O  O169  1  0.46991734  0.24719261  0.89318649  1
  O  O170  1  0.46991734  0.74719261  0.39318649  1
  O  O171  1  0.46991734  0.74719261  0.89318649  1
  O  O172  1  0.96991734  0.24719261  0.39318649  1
  O  O173  1  0.96991734  0.24719261  0.89318649  1
  O  O174  1  0.96991734  0.74719261  0.39318649  1
  O  O175  1  0.96991734  0.74719261  0.89318649  1
  O  O176  1  0.14318649  0.28008266  0.25280739  1
  O  O177  1  0.14318649  0.28008266  0.75280739  1
  O  O178  1  0.14318649  0.78008266  0.25280739  1
  O  O179  1  0.14318649  0.78008266  0.75280739  1
  O  O180  1  0.64318649  0.28008266  0.25280739  1
  O  O181  1  0.64318649  0.28008266  0.75280739  1
  O  O182  1  0.64318649  0.78008266  0.25280739  1
  O  O183  1  0.64318649  0.78008266  0.75280739  1
  O  O184  1  0.10681351  0.21991734  0.00280739  1
  O  O185  1  0.10681351  0.21991734  0.50280739  1
  O  O186  1  0.10681351  0.71991734  0.00280739  1
  O  O187  1  0.10681351  0.71991734  0.50280739  1
  O  O188  1  0.60681351  0.21991734  0.00280739  1
  O  O189  1  0.60681351  0.21991734  0.50280739  1
  O  O190  1  0.60681351  0.71991734  0.00280739  1
  O  O191  1  0.60681351  0.71991734  0.50280739  1
  O  O192  1  0.21991734  0.00280739  0.10681351  1
  O  O193  1  0.21991734  0.00280739  0.60681351  1
  O  O194  1  0.21991734  0.50280739  0.10681351  1
  O  O195  1  0.21991734  0.50280739  0.60681351  1
  O  O196  1  0.71991734  0.00280739  0.10681351  1
  O  O197  1  0.71991734  0.00280739  0.60681351  1
  O  O198  1  0.71991734  0.50280739  0.10681351  1
  O  O199  1  0.71991734  0.50280739  0.60681351  1
  O  O200  1  0.00280739  0.10681351  0.21991734  1
  O  O201  1  0.00280739  0.10681351  0.71991734  1
  O  O202  1  0.00280739  0.60681351  0.21991734  1
  O  O203  1  0.00280739  0.60681351  0.71991734  1
  O  O204  1  0.50280739  0.10681351  0.21991734  1
  O  O205  1  0.50280739  0.10681351  0.71991734  1
  O  O206  1  0.50280739  0.60681351  0.21991734  1
  O  O207  1  0.50280739  0.60681351  0.71991734  1
  O  O208  1  0.28008266  0.25280739  0.14318649  1
  O  O209  1  0.28008266  0.25280739  0.64318649  1
  O  O210  1  0.28008266  0.75280739  0.14318649  1
  O  O211  1  0.28008266  0.75280739  0.64318649  1
  O  O212  1  0.78008266  0.25280739  0.14318649  1
  O  O213  1  0.78008266  0.25280739  0.64318649  1
  O  O214  1  0.78008266  0.75280739  0.14318649  1
  O  O215  1  0.78008266  0.75280739  0.64318649  1
  O  O216  1  0.03008266  0.49719261  0.35681351  1
  O  O217  1  0.03008266  0.49719261  0.85681351  1
  O  O218  1  0.03008266  0.99719261  0.35681351  1
  O  O219  1  0.03008266  0.99719261  0.85681351  1
  O  O220  1  0.53008266  0.49719261  0.35681351  1
  O  O221  1  0.53008266  0.49719261  0.85681351  1
  O  O222  1  0.53008266  0.99719261  0.35681351  1
  O  O223  1  0.53008266  0.99719261  0.85681351  1
