# generated using pymatgen
data_BaZr(SiO3)3
_symmetry_space_group_name_H-M   'P 1'
_cell_length_a   13.55045501
_cell_length_b   13.55045501
_cell_length_c   10.09259728
_cell_angle_alpha   90.00000000
_cell_angle_beta   90.00000000
_cell_angle_gamma   120.00000000
_symmetry_Int_Tables_number   1
_chemical_formula_structural   BaZr(SiO3)3
_chemical_formula_sum   'Ba8 Zr8 Si24 O72'
_cell_volume   1604.87544693
_cell_formula_units_Z   8
loop_
 _symmetry_equiv_pos_site_id
 _symmetry_equiv_pos_as_xyz
  1  'x, y, z'
loop_
 _atom_site_type_symbol
 _atom_site_label
 _atom_site_symmetry_multiplicity
 _atom_site_fract_x
 _atom_site_fract_y
 _atom_site_fract_z
 _atom_site_occupancy
  Ba  Ba0  1  0.00000000  0.00000000  0.00000000  1
  Ba  Ba1  1  0.00000000  0.50000000  0.00000000  1
  Ba  Ba2  1  0.50000000  0.00000000  0.00000000  1
  Ba  Ba3  1  0.50000000  0.50000000  0.00000000  1
  Ba  Ba4  1  0.00000000  0.00000000  0.50000000  1
  Ba  Ba5  1  0.00000000  0.50000000  0.50000000  1
  Ba  Ba6  1  0.50000000  0.00000000  0.50000000  1
  Ba  Ba7  1  0.50000000  0.50000000  0.50000000  1
  Zr  Zr8  1  0.33333333  0.16666667  0.00000000  1
  Zr  Zr9  1  0.33333333  0.66666667  0.00000000  1
  Zr  Zr10  1  0.83333333  0.16666667  0.00000000  1
  Zr  Zr11  1  0.83333333  0.66666667  0.00000000  1
  Zr  Zr12  1  0.33333333  0.16666667  0.50000000  1
  Zr  Zr13  1  0.33333333  0.66666667  0.50000000  1
  Zr  Zr14  1  0.83333333  0.16666667  0.50000000  1
  Zr  Zr15  1  0.83333333  0.66666667  0.50000000  1
  Si  Si16  1  0.19483358  0.22112633  0.25000000  1
  Si  Si17  1  0.19483358  0.72112633  0.25000000  1
  Si  Si18  1  0.69483358  0.22112633  0.25000000  1
  Si  Si19  1  0.69483358  0.72112633  0.25000000  1
  Si  Si20  1  0.27887367  0.47370725  0.25000000  1
  Si  Si21  1  0.27887367  0.97370725  0.25000000  1
  Si  Si22  1  0.77887367  0.47370725  0.25000000  1
  Si  Si23  1  0.77887367  0.97370725  0.25000000  1
  Si  Si24  1  0.19483358  0.47370725  0.75000000  1
  Si  Si25  1  0.19483358  0.97370725  0.75000000  1
  Si  Si26  1  0.69483358  0.47370725  0.75000000  1
  Si  Si27  1  0.69483358  0.97370725  0.75000000  1
  Si  Si28  1  0.02629275  0.30516642  0.25000000  1
  Si  Si29  1  0.02629275  0.80516642  0.25000000  1
  Si  Si30  1  0.52629275  0.30516642  0.25000000  1
  Si  Si31  1  0.52629275  0.80516642  0.25000000  1
  Si  Si32  1  0.27887367  0.30516642  0.75000000  1
  Si  Si33  1  0.27887367  0.80516642  0.75000000  1
  Si  Si34  1  0.77887367  0.30516642  0.75000000  1
  Si  Si35  1  0.77887367  0.80516642  0.75000000  1
  Si  Si36  1  0.02629275  0.22112633  0.75000000  1
  Si  Si37  1  0.02629275  0.72112633  0.75000000  1
  Si  Si38  1  0.52629275  0.22112633  0.75000000  1
  Si  Si39  1  0.52629275  0.72112633  0.75000000  1
  O  O40  1  0.45622976  0.29727870  0.11641016  1
  O  O41  1  0.45622976  0.79727870  0.11641016  1
  O  O42  1  0.95622976  0.29727870  0.11641016  1
  O  O43  1  0.95622976  0.79727870  0.11641016  1
  O  O44  1  0.20272130  0.15895106  0.11641016  1
  O  O45  1  0.20272130  0.65895106  0.11641016  1
  O  O46  1  0.70272130  0.15895106  0.11641016  1
  O  O47  1  0.70272130  0.65895106  0.11641016  1
  O  O48  1  0.45622976  0.29727870  0.38358984  1
  O  O49  1  0.45622976  0.79727870  0.38358984  1
  O  O50  1  0.95622976  0.29727870  0.38358984  1
  O  O51  1  0.95622976  0.79727870  0.38358984  1
  O  O52  1  0.45622976  0.15895106  0.61641016  1
  O  O53  1  0.45622976  0.65895106  0.61641016  1
  O  O54  1  0.95622976  0.15895106  0.61641016  1
  O  O55  1  0.95622976  0.65895106  0.61641016  1
  O  O56  1  0.34104894  0.04377024  0.11641016  1
  O  O57  1  0.34104894  0.54377024  0.11641016  1
  O  O58  1  0.84104894  0.04377024  0.11641016  1
  O  O59  1  0.84104894  0.54377024  0.11641016  1
  O  O60  1  0.20272130  0.15895106  0.38358984  1
  O  O61  1  0.20272130  0.65895106  0.38358984  1
  O  O62  1  0.70272130  0.15895106  0.38358984  1
  O  O63  1  0.70272130  0.65895106  0.38358984  1
  O  O64  1  0.20272130  0.04377024  0.61641016  1
  O  O65  1  0.20272130  0.54377024  0.61641016  1
  O  O66  1  0.70272130  0.04377024  0.61641016  1
  O  O67  1  0.70272130  0.54377024  0.61641016  1
  O  O68  1  0.45622976  0.15895106  0.88358984  1
  O  O69  1  0.45622976  0.65895106  0.88358984  1
  O  O70  1  0.95622976  0.15895106  0.88358984  1
  O  O71  1  0.95622976  0.65895106  0.88358984  1
  O  O72  1  0.34104894  0.04377024  0.38358984  1
  O  O73  1  0.34104894  0.54377024  0.38358984  1
  O  O74  1  0.84104894  0.04377024  0.38358984  1
  O  O75  1  0.84104894  0.54377024  0.38358984  1
  O  O76  1  0.20272130  0.04377024  0.88358984  1
  O  O77  1  0.20272130  0.54377024  0.88358984  1
  O  O78  1  0.70272130  0.04377024  0.88358984  1
  O  O79  1  0.70272130  0.54377024  0.88358984  1
  O  O80  1  0.34104894  0.29727870  0.61641016  1
  O  O81  1  0.34104894  0.79727870  0.61641016  1
  O  O82  1  0.84104894  0.29727870  0.61641016  1
  O  O83  1  0.84104894  0.79727870  0.61641016  1
  O  O84  1  0.34104894  0.29727870  0.88358984  1
  O  O85  1  0.34104894  0.79727870  0.88358984  1
  O  O86  1  0.84104894  0.29727870  0.88358984  1
  O  O87  1  0.84104894  0.79727870  0.88358984  1
  O  O88  1  0.06756109  0.20957300  0.25000000  1
  O  O89  1  0.06756109  0.70957300  0.25000000  1
  O  O90  1  0.56756109  0.20957300  0.25000000  1
  O  O91  1  0.56756109  0.70957300  0.25000000  1
  O  O92  1  0.29042700  0.35798809  0.25000000  1
  O  O93  1  0.29042700  0.85798809  0.25000000  1
  O  O94  1  0.79042700  0.35798809  0.25000000  1
  O  O95  1  0.79042700  0.85798809  0.25000000  1
  O  O96  1  0.06756109  0.35798809  0.75000000  1
  O  O97  1  0.06756109  0.85798809  0.75000000  1
  O  O98  1  0.56756109  0.35798809  0.75000000  1
  O  O99  1  0.56756109  0.85798809  0.75000000  1
  O  O100  1  0.14201191  0.43243891  0.25000000  1
  O  O101  1  0.14201191  0.93243891  0.25000000  1
  O  O102  1  0.64201191  0.43243891  0.25000000  1
  O  O103  1  0.64201191  0.93243891  0.25000000  1
  O  O104  1  0.29042700  0.43243891  0.75000000  1
  O  O105  1  0.29042700  0.93243891  0.75000000  1
  O  O106  1  0.79042700  0.43243891  0.75000000  1
  O  O107  1  0.79042700  0.93243891  0.75000000  1
  O  O108  1  0.14201191  0.20957300  0.75000000  1
  O  O109  1  0.14201191  0.70957300  0.75000000  1
  O  O110  1  0.64201191  0.20957300  0.75000000  1
  O  O111  1  0.64201191  0.70957300  0.75000000  1
