# generated using pymatgen
data_AsAuO4
_symmetry_space_group_name_H-M   'P 1'
_cell_length_a   16.06147846
_cell_length_b   18.56927361
_cell_length_c   15.29736789
_cell_angle_alpha   90.00000000
_cell_angle_beta   97.04071544
_cell_angle_gamma   90.00000000
_symmetry_Int_Tables_number   1
_chemical_formula_structural   AsAuO4
_chemical_formula_sum   'As48 Au48 O192'
_cell_volume   4528.03579231
_cell_formula_units_Z   48
loop_
 _symmetry_equiv_pos_site_id
 _symmetry_equiv_pos_as_xyz
  1  'x, y, z'
loop_
 _atom_site_type_symbol
 _atom_site_label
 _atom_site_symmetry_multiplicity
 _atom_site_fract_x
 _atom_site_fract_y
 _atom_site_fract_z
 _atom_site_occupancy
  As  As0  1  0.25000000  -0.14610635  0.12500000  1
  As  As1  1  0.25000000  -0.14610635  0.62500000  1
  As  As2  1  0.25000000  0.18722698  0.12500000  1
  As  As3  1  0.25000000  0.18722698  0.62500000  1
  As  As4  1  0.25000000  0.52056032  0.12500000  1
  As  As5  1  0.25000000  0.52056032  0.62500000  1
  As  As6  1  0.75000000  -0.14610635  0.12500000  1
  As  As7  1  0.75000000  -0.14610635  0.62500000  1
  As  As8  1  0.75000000  0.18722698  0.12500000  1
  As  As9  1  0.75000000  0.18722698  0.62500000  1
  As  As10  1  0.75000000  0.52056032  0.12500000  1
  As  As11  1  0.75000000  0.52056032  0.62500000  1
  As  As12  1  0.50000000  0.02056032  0.12500000  1
  As  As13  1  0.50000000  0.02056032  0.62500000  1
  As  As14  1  0.50000000  0.35389365  0.12500000  1
  As  As15  1  0.50000000  0.35389365  0.62500000  1
  As  As16  1  0.50000000  0.68722698  0.12500000  1
  As  As17  1  0.50000000  0.68722698  0.62500000  1
  As  As18  1  1.00000000  0.02056032  0.12500000  1
  As  As19  1  1.00000000  0.02056032  0.62500000  1
  As  As20  1  1.00000000  0.35389365  0.12500000  1
  As  As21  1  1.00000000  0.35389365  0.62500000  1
  As  As22  1  1.00000000  0.68722698  0.12500000  1
  As  As23  1  1.00000000  0.68722698  0.62500000  1
  As  As24  1  0.25000000  0.14610635  0.37500000  1
  As  As25  1  0.25000000  0.14610635  0.87500000  1
  As  As26  1  0.25000000  0.47943968  0.37500000  1
  As  As27  1  0.25000000  0.47943968  0.87500000  1
  As  As28  1  0.25000000  0.81277302  0.37500000  1
  As  As29  1  0.25000000  0.81277302  0.87500000  1
  As  As30  1  0.75000000  0.14610635  0.37500000  1
  As  As31  1  0.75000000  0.14610635  0.87500000  1
  As  As32  1  0.75000000  0.47943968  0.37500000  1
  As  As33  1  0.75000000  0.47943968  0.87500000  1
  As  As34  1  0.75000000  0.81277302  0.37500000  1
  As  As35  1  0.75000000  0.81277302  0.87500000  1
  As  As36  1  0.50000000  0.31277302  0.37500000  1
  As  As37  1  0.50000000  0.31277302  0.87500000  1
  As  As38  1  0.50000000  0.64610635  0.37500000  1
  As  As39  1  0.50000000  0.64610635  0.87500000  1
  As  As40  1  0.50000000  0.97943968  0.37500000  1
  As  As41  1  0.50000000  0.97943968  0.87500000  1
  As  As42  1  1.00000000  0.31277302  0.37500000  1
  As  As43  1  1.00000000  0.31277302  0.87500000  1
  As  As44  1  1.00000000  0.64610635  0.37500000  1
  As  As45  1  1.00000000  0.64610635  0.87500000  1
  As  As46  1  1.00000000  0.97943968  0.37500000  1
  As  As47  1  1.00000000  0.97943968  0.87500000  1
  Au  Au48  1  0.12500000  -0.08333333  0.25000000  1
  Au  Au49  1  0.12500000  -0.08333333  0.75000000  1
  Au  Au50  1  0.12500000  0.25000000  0.25000000  1
  Au  Au51  1  0.12500000  0.25000000  0.75000000  1
  Au  Au52  1  0.12500000  0.58333333  0.25000000  1
  Au  Au53  1  0.12500000  0.58333333  0.75000000  1
  Au  Au54  1  0.62500000  -0.08333333  0.25000000  1
  Au  Au55  1  0.62500000  -0.08333333  0.75000000  1
  Au  Au56  1  0.62500000  0.25000000  0.25000000  1
  Au  Au57  1  0.62500000  0.25000000  0.75000000  1
  Au  Au58  1  0.62500000  0.58333333  0.25000000  1
  Au  Au59  1  0.62500000  0.58333333  0.75000000  1
  Au  Au60  1  0.37500000  0.08333333  0.25000000  1
  Au  Au61  1  0.37500000  0.08333333  0.75000000  1
  Au  Au62  1  0.37500000  0.41666667  0.25000000  1
  Au  Au63  1  0.37500000  0.41666667  0.75000000  1
  Au  Au64  1  0.37500000  0.75000000  0.25000000  1
  Au  Au65  1  0.37500000  0.75000000  0.75000000  1
  Au  Au66  1  0.87500000  0.08333333  0.25000000  1
  Au  Au67  1  0.87500000  0.08333333  0.75000000  1
  Au  Au68  1  0.87500000  0.41666667  0.25000000  1
  Au  Au69  1  0.87500000  0.41666667  0.75000000  1
  Au  Au70  1  0.87500000  0.75000000  0.25000000  1
  Au  Au71  1  0.87500000  0.75000000  0.75000000  1
  Au  Au72  1  0.12500000  0.08333333  0.00000000  1
  Au  Au73  1  0.12500000  0.08333333  0.50000000  1
  Au  Au74  1  0.12500000  0.41666667  0.00000000  1
  Au  Au75  1  0.12500000  0.41666667  0.50000000  1
  Au  Au76  1  0.12500000  0.75000000  0.00000000  1
  Au  Au77  1  0.12500000  0.75000000  0.50000000  1
  Au  Au78  1  0.62500000  0.08333333  0.00000000  1
  Au  Au79  1  0.62500000  0.08333333  0.50000000  1
  Au  Au80  1  0.62500000  0.41666667  0.00000000  1
  Au  Au81  1  0.62500000  0.41666667  0.50000000  1
  Au  Au82  1  0.62500000  0.75000000  0.00000000  1
  Au  Au83  1  0.62500000  0.75000000  0.50000000  1
  Au  Au84  1  0.37500000  0.25000000  0.00000000  1
  Au  Au85  1  0.37500000  0.25000000  0.50000000  1
  Au  Au86  1  0.37500000  0.58333333  0.00000000  1
  Au  Au87  1  0.37500000  0.58333333  0.50000000  1
  Au  Au88  1  0.37500000  0.91666667  0.00000000  1
  Au  Au89  1  0.37500000  0.91666667  0.50000000  1
  Au  Au90  1  0.87500000  0.25000000  0.00000000  1
  Au  Au91  1  0.87500000  0.25000000  0.50000000  1
  Au  Au92  1  0.87500000  0.58333333  0.00000000  1
  Au  Au93  1  0.87500000  0.58333333  0.50000000  1
  Au  Au94  1  0.87500000  0.91666667  0.00000000  1
  Au  Au95  1  0.87500000  0.91666667  0.50000000  1
  O  O96  1  0.26005262  -0.09290943  0.03383048  1
  O  O97  1  0.26005262  -0.09290943  0.53383048  1
  O  O98  1  0.26005262  0.24042390  0.03383048  1
  O  O99  1  0.26005262  0.24042390  0.53383048  1
  O  O100  1  0.26005262  0.57375723  0.03383048  1
  O  O101  1  0.26005262  0.57375723  0.53383048  1
  O  O102  1  0.76005262  -0.09290943  0.03383048  1
  O  O103  1  0.76005262  -0.09290943  0.53383048  1
  O  O104  1  0.76005262  0.24042390  0.03383048  1
  O  O105  1  0.76005262  0.24042390  0.53383048  1
  O  O106  1  0.76005262  0.57375723  0.03383048  1
  O  O107  1  0.76005262  0.57375723  0.53383048  1
  O  O108  1  0.51005262  0.07375723  0.03383048  1
  O  O109  1  0.51005262  0.07375723  0.53383048  1
  O  O110  1  0.51005262  0.40709057  0.03383048  1
  O  O111  1  0.51005262  0.40709057  0.53383048  1
  O  O112  1  0.51005262  0.74042390  0.03383048  1
  O  O113  1  0.51005262  0.74042390  0.53383048  1
  O  O114  1  1.01005262  0.07375723  0.03383048  1
  O  O115  1  1.01005262  0.07375723  0.53383048  1
  O  O116  1  1.01005262  0.40709057  0.03383048  1
  O  O117  1  1.01005262  0.40709057  0.53383048  1
  O  O118  1  1.01005262  0.74042390  0.03383048  1
  O  O119  1  1.01005262  0.74042390  0.53383048  1
  O  O120  1  0.23994738  -0.09290943  0.21616952  1
  O  O121  1  0.23994738  -0.09290943  0.71616952  1
  O  O122  1  0.23994738  0.24042390  0.21616952  1
  O  O123  1  0.23994738  0.24042390  0.71616952  1
  O  O124  1  0.23994738  0.57375723  0.21616952  1
  O  O125  1  0.23994738  0.57375723  0.71616952  1
  O  O126  1  0.73994738  -0.09290943  0.21616952  1
  O  O127  1  0.73994738  -0.09290943  0.71616952  1
  O  O128  1  0.73994738  0.24042390  0.21616952  1
  O  O129  1  0.73994738  0.24042390  0.71616952  1
  O  O130  1  0.73994738  0.57375723  0.21616952  1
  O  O131  1  0.73994738  0.57375723  0.71616952  1
  O  O132  1  0.48994738  0.07375723  0.21616952  1
  O  O133  1  0.48994738  0.07375723  0.71616952  1
  O  O134  1  0.48994738  0.40709057  0.21616952  1
  O  O135  1  0.48994738  0.40709057  0.71616952  1
  O  O136  1  0.48994738  0.74042390  0.21616952  1
  O  O137  1  0.48994738  0.74042390  0.71616952  1
  O  O138  1  0.98994738  0.07375723  0.21616952  1
  O  O139  1  0.98994738  0.07375723  0.71616952  1
  O  O140  1  0.98994738  0.40709057  0.21616952  1
  O  O141  1  0.98994738  0.40709057  0.71616952  1
  O  O142  1  0.98994738  0.74042390  0.21616952  1
  O  O143  1  0.98994738  0.74042390  0.71616952  1
  O  O144  1  0.23994738  0.09290943  0.46616952  1
  O  O145  1  0.23994738  0.09290943  0.96616952  1
  O  O146  1  0.23994738  0.42624277  0.46616952  1
  O  O147  1  0.23994738  0.42624277  0.96616952  1
  O  O148  1  0.23994738  0.75957610  0.46616952  1
  O  O149  1  0.23994738  0.75957610  0.96616952  1
  O  O150  1  0.73994738  0.09290943  0.46616952  1
  O  O151  1  0.73994738  0.09290943  0.96616952  1
  O  O152  1  0.73994738  0.42624277  0.46616952  1
  O  O153  1  0.73994738  0.42624277  0.96616952  1
  O  O154  1  0.73994738  0.75957610  0.46616952  1
  O  O155  1  0.73994738  0.75957610  0.96616952  1
  O  O156  1  0.48994738  0.25957610  0.46616952  1
  O  O157  1  0.48994738  0.25957610  0.96616952  1
  O  O158  1  0.48994738  0.59290943  0.46616952  1
  O  O159  1  0.48994738  0.59290943  0.96616952  1
  O  O160  1  0.48994738  0.92624277  0.46616952  1
  O  O161  1  0.48994738  0.92624277  0.96616952  1
  O  O162  1  0.98994738  0.25957610  0.46616952  1
  O  O163  1  0.98994738  0.25957610  0.96616952  1
  O  O164  1  0.98994738  0.59290943  0.46616952  1
  O  O165  1  0.98994738  0.59290943  0.96616952  1
  O  O166  1  0.98994738  0.92624277  0.46616952  1
  O  O167  1  0.98994738  0.92624277  0.96616952  1
  O  O168  1  0.26005262  0.09290943  0.28383048  1
  O  O169  1  0.26005262  0.09290943  0.78383048  1
  O  O170  1  0.26005262  0.42624277  0.28383048  1
  O  O171  1  0.26005262  0.42624277  0.78383048  1
  O  O172  1  0.26005262  0.75957610  0.28383048  1
  O  O173  1  0.26005262  0.75957610  0.78383048  1
  O  O174  1  0.76005262  0.09290943  0.28383048  1
  O  O175  1  0.76005262  0.09290943  0.78383048  1
  O  O176  1  0.76005262  0.42624277  0.28383048  1
  O  O177  1  0.76005262  0.42624277  0.78383048  1
  O  O178  1  0.76005262  0.75957610  0.28383048  1
  O  O179  1  0.76005262  0.75957610  0.78383048  1
  O  O180  1  0.51005262  0.25957610  0.28383048  1
  O  O181  1  0.51005262  0.25957610  0.78383048  1
  O  O182  1  0.51005262  0.59290943  0.28383048  1
  O  O183  1  0.51005262  0.59290943  0.78383048  1
  O  O184  1  0.51005262  0.92624277  0.28383048  1
  O  O185  1  0.51005262  0.92624277  0.78383048  1
  O  O186  1  1.01005262  0.25957610  0.28383048  1
  O  O187  1  1.01005262  0.25957610  0.78383048  1
  O  O188  1  1.01005262  0.59290943  0.28383048  1
  O  O189  1  1.01005262  0.59290943  0.78383048  1
  O  O190  1  1.01005262  0.92624277  0.28383048  1
  O  O191  1  1.01005262  0.92624277  0.78383048  1
  O  O192  1  0.40630619  -0.02590108  0.10805754  1
  O  O193  1  0.40630619  -0.02590108  0.60805754  1
  O  O194  1  0.40630619  0.30743225  0.10805754  1
  O  O195  1  0.40630619  0.30743225  0.60805754  1
  O  O196  1  0.40630619  0.64076559  0.10805754  1
  O  O197  1  0.40630619  0.64076559  0.60805754  1
  O  O198  1  0.90630619  -0.02590108  0.10805754  1
  O  O199  1  0.90630619  -0.02590108  0.60805754  1
  O  O200  1  0.90630619  0.30743225  0.10805754  1
  O  O201  1  0.90630619  0.30743225  0.60805754  1
  O  O202  1  0.90630619  0.64076559  0.10805754  1
  O  O203  1  0.90630619  0.64076559  0.60805754  1
  O  O204  1  0.65630619  0.14076559  0.10805754  1
  O  O205  1  0.65630619  0.14076559  0.60805754  1
  O  O206  1  0.65630619  0.47409892  0.10805754  1
  O  O207  1  0.65630619  0.47409892  0.60805754  1
  O  O208  1  0.65630619  0.80743225  0.10805754  1
  O  O209  1  0.65630619  0.80743225  0.60805754  1
  O  O210  1  1.15630619  0.14076559  0.10805754  1
  O  O211  1  1.15630619  0.14076559  0.60805754  1
  O  O212  1  1.15630619  0.47409892  0.10805754  1
  O  O213  1  1.15630619  0.47409892  0.60805754  1
  O  O214  1  1.15630619  0.80743225  0.10805754  1
  O  O215  1  1.15630619  0.80743225  0.60805754  1
  O  O216  1  0.09369381  -0.02590108  0.14194246  1
  O  O217  1  0.09369381  -0.02590108  0.64194246  1
  O  O218  1  0.09369381  0.30743225  0.14194246  1
  O  O219  1  0.09369381  0.30743225  0.64194246  1
  O  O220  1  0.09369381  0.64076559  0.14194246  1
  O  O221  1  0.09369381  0.64076559  0.64194246  1
  O  O222  1  0.59369381  -0.02590108  0.14194246  1
  O  O223  1  0.59369381  -0.02590108  0.64194246  1
  O  O224  1  0.59369381  0.30743225  0.14194246  1
  O  O225  1  0.59369381  0.30743225  0.64194246  1
  O  O226  1  0.59369381  0.64076559  0.14194246  1
  O  O227  1  0.59369381  0.64076559  0.64194246  1
  O  O228  1  0.34369381  0.14076559  0.14194246  1
  O  O229  1  0.34369381  0.14076559  0.64194246  1
  O  O230  1  0.34369381  0.47409892  0.14194246  1
  O  O231  1  0.34369381  0.47409892  0.64194246  1
  O  O232  1  0.34369381  0.80743225  0.14194246  1
  O  O233  1  0.34369381  0.80743225  0.64194246  1
  O  O234  1  0.84369381  0.14076559  0.14194246  1
  O  O235  1  0.84369381  0.14076559  0.64194246  1
  O  O236  1  0.84369381  0.47409892  0.14194246  1
  O  O237  1  0.84369381  0.47409892  0.64194246  1
  O  O238  1  0.84369381  0.80743225  0.14194246  1
  O  O239  1  0.84369381  0.80743225  0.64194246  1
  O  O240  1  0.09369381  0.02590108  0.39194246  1
  O  O241  1  0.09369381  0.02590108  0.89194246  1
  O  O242  1  0.09369381  0.35923441  0.39194246  1
  O  O243  1  0.09369381  0.35923441  0.89194246  1
  O  O244  1  0.09369381  0.69256775  0.39194246  1
  O  O245  1  0.09369381  0.69256775  0.89194246  1
  O  O246  1  0.59369381  0.02590108  0.39194246  1
  O  O247  1  0.59369381  0.02590108  0.89194246  1
  O  O248  1  0.59369381  0.35923441  0.39194246  1
  O  O249  1  0.59369381  0.35923441  0.89194246  1
  O  O250  1  0.59369381  0.69256775  0.39194246  1
  O  O251  1  0.59369381  0.69256775  0.89194246  1
  O  O252  1  0.34369381  0.19256775  0.39194246  1
  O  O253  1  0.34369381  0.19256775  0.89194246  1
  O  O254  1  0.34369381  0.52590108  0.39194246  1
  O  O255  1  0.34369381  0.52590108  0.89194246  1
  O  O256  1  0.34369381  0.85923441  0.39194246  1
  O  O257  1  0.34369381  0.85923441  0.89194246  1
  O  O258  1  0.84369381  0.19256775  0.39194246  1
  O  O259  1  0.84369381  0.19256775  0.89194246  1
  O  O260  1  0.84369381  0.52590108  0.39194246  1
  O  O261  1  0.84369381  0.52590108  0.89194246  1
  O  O262  1  0.84369381  0.85923441  0.39194246  1
  O  O263  1  0.84369381  0.85923441  0.89194246  1
  O  O264  1  0.40630619  0.02590108  0.35805754  1
  O  O265  1  0.40630619  0.02590108  0.85805754  1
  O  O266  1  0.40630619  0.35923441  0.35805754  1
  O  O267  1  0.40630619  0.35923441  0.85805754  1
  O  O268  1  0.40630619  0.69256775  0.35805754  1
  O  O269  1  0.40630619  0.69256775  0.85805754  1
  O  O270  1  0.90630619  0.02590108  0.35805754  1
  O  O271  1  0.90630619  0.02590108  0.85805754  1
  O  O272  1  0.90630619  0.35923441  0.35805754  1
  O  O273  1  0.90630619  0.35923441  0.85805754  1
  O  O274  1  0.90630619  0.69256775  0.35805754  1
  O  O275  1  0.90630619  0.69256775  0.85805754  1
  O  O276  1  0.65630619  0.19256775  0.35805754  1
  O  O277  1  0.65630619  0.19256775  0.85805754  1
  O  O278  1  0.65630619  0.52590108  0.35805754  1
  O  O279  1  0.65630619  0.52590108  0.85805754  1
  O  O280  1  0.65630619  0.85923441  0.35805754  1
  O  O281  1  0.65630619  0.85923441  0.85805754  1
  O  O282  1  1.15630619  0.19256775  0.35805754  1
  O  O283  1  1.15630619  0.19256775  0.85805754  1
  O  O284  1  1.15630619  0.52590108  0.35805754  1
  O  O285  1  1.15630619  0.52590108  0.85805754  1
  O  O286  1  1.15630619  0.85923441  0.35805754  1
  O  O287  1  1.15630619  0.85923441  0.85805754  1
