# generated using pymatgen
data_YTl(WO4)2
_symmetry_space_group_name_H-M   'P 1'
_cell_length_a   21.33154272
_cell_length_b   20.92444739
_cell_length_c   14.91697543
_cell_angle_alpha   90.00000000
_cell_angle_beta   130.61992648
_cell_angle_gamma   90.00000000
_symmetry_Int_Tables_number   1
_chemical_formula_structural   YTl(WO4)2
_chemical_formula_sum   'Y32 Tl32 W64 O256'
_cell_volume   5053.87530628
_cell_formula_units_Z   32
loop_
 _symmetry_equiv_pos_site_id
 _symmetry_equiv_pos_as_xyz
  1  'x, y, z'
loop_
 _atom_site_type_symbol
 _atom_site_label
 _atom_site_symmetry_multiplicity
 _atom_site_fract_x
 _atom_site_fract_y
 _atom_site_fract_z
 _atom_site_occupancy
  Y  Y0  1  0.25000000  0.13591330  0.37500000  1
  Y  Y1  1  0.25000000  0.13591330  0.87500000  1
  Y  Y2  1  0.25000000  0.63591330  0.37500000  1
  Y  Y3  1  0.25000000  0.63591330  0.87500000  1
  Y  Y4  1  0.75000000  0.13591330  0.37500000  1
  Y  Y5  1  0.75000000  0.13591330  0.87500000  1
  Y  Y6  1  0.75000000  0.63591330  0.37500000  1
  Y  Y7  1  0.75000000  0.63591330  0.87500000  1
  Y  Y8  1  0.50000000  0.38591330  0.37500000  1
  Y  Y9  1  0.50000000  0.38591330  0.87500000  1
  Y  Y10  1  0.50000000  0.88591330  0.37500000  1
  Y  Y11  1  0.50000000  0.88591330  0.87500000  1
  Y  Y12  1  1.00000000  0.38591330  0.37500000  1
  Y  Y13  1  1.00000000  0.38591330  0.87500000  1
  Y  Y14  1  1.00000000  0.88591330  0.37500000  1
  Y  Y15  1  1.00000000  0.88591330  0.87500000  1
  Y  Y16  1  0.25000000  -0.13591330  0.12500000  1
  Y  Y17  1  0.25000000  -0.13591330  0.62500000  1
  Y  Y18  1  0.25000000  0.36408670  0.12500000  1
  Y  Y19  1  0.25000000  0.36408670  0.62500000  1
  Y  Y20  1  0.75000000  -0.13591330  0.12500000  1
  Y  Y21  1  0.75000000  -0.13591330  0.62500000  1
  Y  Y22  1  0.75000000  0.36408670  0.12500000  1
  Y  Y23  1  0.75000000  0.36408670  0.62500000  1
  Y  Y24  1  0.50000000  0.11408670  0.12500000  1
  Y  Y25  1  0.50000000  0.11408670  0.62500000  1
  Y  Y26  1  0.50000000  0.61408670  0.12500000  1
  Y  Y27  1  0.50000000  0.61408670  0.62500000  1
  Y  Y28  1  1.00000000  0.11408670  0.12500000  1
  Y  Y29  1  1.00000000  0.11408670  0.62500000  1
  Y  Y30  1  1.00000000  0.61408670  0.12500000  1
  Y  Y31  1  1.00000000  0.61408670  0.62500000  1
  Tl  Tl32  1  0.25000000  -0.14576513  0.37500000  1
  Tl  Tl33  1  0.25000000  -0.14576513  0.87500000  1
  Tl  Tl34  1  0.25000000  0.35423487  0.37500000  1
  Tl  Tl35  1  0.25000000  0.35423487  0.87500000  1
  Tl  Tl36  1  0.75000000  -0.14576513  0.37500000  1
  Tl  Tl37  1  0.75000000  -0.14576513  0.87500000  1
  Tl  Tl38  1  0.75000000  0.35423487  0.37500000  1
  Tl  Tl39  1  0.75000000  0.35423487  0.87500000  1
  Tl  Tl40  1  0.50000000  0.10423487  0.37500000  1
  Tl  Tl41  1  0.50000000  0.10423487  0.87500000  1
  Tl  Tl42  1  0.50000000  0.60423487  0.37500000  1
  Tl  Tl43  1  0.50000000  0.60423487  0.87500000  1
  Tl  Tl44  1  1.00000000  0.10423487  0.37500000  1
  Tl  Tl45  1  1.00000000  0.10423487  0.87500000  1
  Tl  Tl46  1  1.00000000  0.60423487  0.37500000  1
  Tl  Tl47  1  1.00000000  0.60423487  0.87500000  1
  Tl  Tl48  1  0.25000000  0.14576513  0.12500000  1
  Tl  Tl49  1  0.25000000  0.14576513  0.62500000  1
  Tl  Tl50  1  0.25000000  0.64576513  0.12500000  1
  Tl  Tl51  1  0.25000000  0.64576513  0.62500000  1
  Tl  Tl52  1  0.75000000  0.14576513  0.12500000  1
  Tl  Tl53  1  0.75000000  0.14576513  0.62500000  1
  Tl  Tl54  1  0.75000000  0.64576513  0.12500000  1
  Tl  Tl55  1  0.75000000  0.64576513  0.62500000  1
  Tl  Tl56  1  0.50000000  0.39576513  0.12500000  1
  Tl  Tl57  1  0.50000000  0.39576513  0.62500000  1
  Tl  Tl58  1  0.50000000  0.89576513  0.12500000  1
  Tl  Tl59  1  0.50000000  0.89576513  0.62500000  1
  Tl  Tl60  1  1.00000000  0.39576513  0.12500000  1
  Tl  Tl61  1  1.00000000  0.39576513  0.62500000  1
  Tl  Tl62  1  1.00000000  0.89576513  0.12500000  1
  Tl  Tl63  1  1.00000000  0.89576513  0.62500000  1
  W  W64  1  0.15137960  0.00125973  0.38441385  1
  W  W65  1  0.15137960  0.00125973  0.88441385  1
  W  W66  1  0.15137960  0.50125973  0.38441385  1
  W  W67  1  0.15137960  0.50125973  0.88441385  1
  W  W68  1  0.65137960  0.00125973  0.38441385  1
  W  W69  1  0.65137960  0.00125973  0.88441385  1
  W  W70  1  0.65137960  0.50125973  0.38441385  1
  W  W71  1  0.65137960  0.50125973  0.88441385  1
  W  W72  1  0.40137960  0.25125973  0.38441385  1
  W  W73  1  0.40137960  0.25125973  0.88441385  1
  W  W74  1  0.40137960  0.75125973  0.38441385  1
  W  W75  1  0.40137960  0.75125973  0.88441385  1
  W  W76  1  0.90137960  0.25125973  0.38441385  1
  W  W77  1  0.90137960  0.25125973  0.88441385  1
  W  W78  1  0.90137960  0.75125973  0.38441385  1
  W  W79  1  0.90137960  0.75125973  0.88441385  1
  W  W80  1  0.34862040  -0.00125973  0.11558615  1
  W  W81  1  0.34862040  -0.00125973  0.61558615  1
  W  W82  1  0.34862040  0.49874027  0.11558615  1
  W  W83  1  0.34862040  0.49874027  0.61558615  1
  W  W84  1  0.84862040  -0.00125973  0.11558615  1
  W  W85  1  0.84862040  -0.00125973  0.61558615  1
  W  W86  1  0.84862040  0.49874027  0.11558615  1
  W  W87  1  0.84862040  0.49874027  0.61558615  1
  W  W88  1  0.59862040  0.24874027  0.11558615  1
  W  W89  1  0.59862040  0.24874027  0.61558615  1
  W  W90  1  0.59862040  0.74874027  0.11558615  1
  W  W91  1  0.59862040  0.74874027  0.61558615  1
  W  W92  1  1.09862040  0.24874027  0.11558615  1
  W  W93  1  1.09862040  0.24874027  0.61558615  1
  W  W94  1  1.09862040  0.74874027  0.11558615  1
  W  W95  1  1.09862040  0.74874027  0.61558615  1
  W  W96  1  0.34862040  0.00125973  0.36558615  1
  W  W97  1  0.34862040  0.00125973  0.86558615  1
  W  W98  1  0.34862040  0.50125973  0.36558615  1
  W  W99  1  0.34862040  0.50125973  0.86558615  1
  W  W100  1  0.84862040  0.00125973  0.36558615  1
  W  W101  1  0.84862040  0.00125973  0.86558615  1
  W  W102  1  0.84862040  0.50125973  0.36558615  1
  W  W103  1  0.84862040  0.50125973  0.86558615  1
  W  W104  1  0.59862040  0.25125973  0.36558615  1
  W  W105  1  0.59862040  0.25125973  0.86558615  1
  W  W106  1  0.59862040  0.75125973  0.36558615  1
  W  W107  1  0.59862040  0.75125973  0.86558615  1
  W  W108  1  1.09862040  0.25125973  0.36558615  1
  W  W109  1  1.09862040  0.25125973  0.86558615  1
  W  W110  1  1.09862040  0.75125973  0.36558615  1
  W  W111  1  1.09862040  0.75125973  0.86558615  1
  W  W112  1  0.15137960  -0.00125973  0.13441385  1
  W  W113  1  0.15137960  -0.00125973  0.63441385  1
  W  W114  1  0.15137960  0.49874027  0.13441385  1
  W  W115  1  0.15137960  0.49874027  0.63441385  1
  W  W116  1  0.65137960  -0.00125973  0.13441385  1
  W  W117  1  0.65137960  -0.00125973  0.63441385  1
  W  W118  1  0.65137960  0.49874027  0.13441385  1
  W  W119  1  0.65137960  0.49874027  0.63441385  1
  W  W120  1  0.40137960  0.24874027  0.13441385  1
  W  W121  1  0.40137960  0.24874027  0.63441385  1
  W  W122  1  0.40137960  0.74874027  0.13441385  1
  W  W123  1  0.40137960  0.74874027  0.63441385  1
  W  W124  1  0.90137960  0.24874027  0.13441385  1
  W  W125  1  0.90137960  0.24874027  0.63441385  1
  W  W126  1  0.90137960  0.74874027  0.13441385  1
  W  W127  1  0.90137960  0.74874027  0.63441385  1
  O  O128  1  0.15439131  -0.03554499  0.27673587  1
  O  O129  1  0.15439131  -0.03554499  0.77673587  1
  O  O130  1  0.15439131  0.46445501  0.27673587  1
  O  O131  1  0.15439131  0.46445501  0.77673587  1
  O  O132  1  0.65439131  -0.03554499  0.27673587  1
  O  O133  1  0.65439131  -0.03554499  0.77673587  1
  O  O134  1  0.65439131  0.46445501  0.27673587  1
  O  O135  1  0.65439131  0.46445501  0.77673587  1
  O  O136  1  0.40439131  0.21445501  0.27673587  1
  O  O137  1  0.40439131  0.21445501  0.77673587  1
  O  O138  1  0.40439131  0.71445501  0.27673587  1
  O  O139  1  0.40439131  0.71445501  0.77673587  1
  O  O140  1  0.90439131  0.21445501  0.27673587  1
  O  O141  1  0.90439131  0.21445501  0.77673587  1
  O  O142  1  0.90439131  0.71445501  0.27673587  1
  O  O143  1  0.90439131  0.71445501  0.77673587  1
  O  O144  1  0.34560869  0.03554499  0.22326413  1
  O  O145  1  0.34560869  0.03554499  0.72326413  1
  O  O146  1  0.34560869  0.53554499  0.22326413  1
  O  O147  1  0.34560869  0.53554499  0.72326413  1
  O  O148  1  0.84560869  0.03554499  0.22326413  1
  O  O149  1  0.84560869  0.03554499  0.72326413  1
  O  O150  1  0.84560869  0.53554499  0.22326413  1
  O  O151  1  0.84560869  0.53554499  0.72326413  1
  O  O152  1  0.59560869  0.28554499  0.22326413  1
  O  O153  1  0.59560869  0.28554499  0.72326413  1
  O  O154  1  0.59560869  0.78554499  0.22326413  1
  O  O155  1  0.59560869  0.78554499  0.72326413  1
  O  O156  1  1.09560869  0.28554499  0.22326413  1
  O  O157  1  1.09560869  0.28554499  0.72326413  1
  O  O158  1  1.09560869  0.78554499  0.22326413  1
  O  O159  1  1.09560869  0.78554499  0.72326413  1
  O  O160  1  0.34560869  -0.03554499  0.47326413  1
  O  O161  1  0.34560869  -0.03554499  0.97326413  1
  O  O162  1  0.34560869  0.46445501  0.47326413  1
  O  O163  1  0.34560869  0.46445501  0.97326413  1
  O  O164  1  0.84560869  -0.03554499  0.47326413  1
  O  O165  1  0.84560869  -0.03554499  0.97326413  1
  O  O166  1  0.84560869  0.46445501  0.47326413  1
  O  O167  1  0.84560869  0.46445501  0.97326413  1
  O  O168  1  0.59560869  0.21445501  0.47326413  1
  O  O169  1  0.59560869  0.21445501  0.97326413  1
  O  O170  1  0.59560869  0.71445501  0.47326413  1
  O  O171  1  0.59560869  0.71445501  0.97326413  1
  O  O172  1  1.09560869  0.21445501  0.47326413  1
  O  O173  1  1.09560869  0.21445501  0.97326413  1
  O  O174  1  1.09560869  0.71445501  0.47326413  1
  O  O175  1  1.09560869  0.71445501  0.97326413  1
  O  O176  1  0.15439131  0.03554499  0.02673587  1
  O  O177  1  0.15439131  0.03554499  0.52673587  1
  O  O178  1  0.15439131  0.53554499  0.02673587  1
  O  O179  1  0.15439131  0.53554499  0.52673587  1
  O  O180  1  0.65439131  0.03554499  0.02673587  1
  O  O181  1  0.65439131  0.03554499  0.52673587  1
  O  O182  1  0.65439131  0.53554499  0.02673587  1
  O  O183  1  0.65439131  0.53554499  0.52673587  1
  O  O184  1  0.40439131  0.28554499  0.02673587  1
  O  O185  1  0.40439131  0.28554499  0.52673587  1
  O  O186  1  0.40439131  0.78554499  0.02673587  1
  O  O187  1  0.40439131  0.78554499  0.52673587  1
  O  O188  1  0.90439131  0.28554499  0.02673587  1
  O  O189  1  0.90439131  0.28554499  0.52673587  1
  O  O190  1  0.90439131  0.78554499  0.02673587  1
  O  O191  1  0.90439131  0.78554499  0.52673587  1
  O  O192  1  0.38790124  0.07941899  0.43790167  1
  O  O193  1  0.38790124  0.07941899  0.93790167  1
  O  O194  1  0.38790124  0.57941899  0.43790167  1
  O  O195  1  0.38790124  0.57941899  0.93790167  1
  O  O196  1  0.88790124  0.07941899  0.43790167  1
  O  O197  1  0.88790124  0.07941899  0.93790167  1
  O  O198  1  0.88790124  0.57941899  0.43790167  1
  O  O199  1  0.88790124  0.57941899  0.93790167  1
  O  O200  1  0.63790124  0.32941899  0.43790167  1
  O  O201  1  0.63790124  0.32941899  0.93790167  1
  O  O202  1  0.63790124  0.82941899  0.43790167  1
  O  O203  1  0.63790124  0.82941899  0.93790167  1
  O  O204  1  1.13790124  0.32941899  0.43790167  1
  O  O205  1  1.13790124  0.32941899  0.93790167  1
  O  O206  1  1.13790124  0.82941899  0.43790167  1
  O  O207  1  1.13790124  0.82941899  0.93790167  1
  O  O208  1  0.11209876  -0.07941899  0.06209833  1
  O  O209  1  0.11209876  -0.07941899  0.56209833  1
  O  O210  1  0.11209876  0.42058101  0.06209833  1
  O  O211  1  0.11209876  0.42058101  0.56209833  1
  O  O212  1  0.61209876  -0.07941899  0.06209833  1
  O  O213  1  0.61209876  -0.07941899  0.56209833  1
  O  O214  1  0.61209876  0.42058101  0.06209833  1
  O  O215  1  0.61209876  0.42058101  0.56209833  1
  O  O216  1  0.36209876  0.17058101  0.06209833  1
  O  O217  1  0.36209876  0.17058101  0.56209833  1
  O  O218  1  0.36209876  0.67058101  0.06209833  1
  O  O219  1  0.36209876  0.67058101  0.56209833  1
  O  O220  1  0.86209876  0.17058101  0.06209833  1
  O  O221  1  0.86209876  0.17058101  0.56209833  1
  O  O222  1  0.86209876  0.67058101  0.06209833  1
  O  O223  1  0.86209876  0.67058101  0.56209833  1
  O  O224  1  0.11209876  0.07941899  0.31209833  1
  O  O225  1  0.11209876  0.07941899  0.81209833  1
  O  O226  1  0.11209876  0.57941899  0.31209833  1
  O  O227  1  0.11209876  0.57941899  0.81209833  1
  O  O228  1  0.61209876  0.07941899  0.31209833  1
  O  O229  1  0.61209876  0.07941899  0.81209833  1
  O  O230  1  0.61209876  0.57941899  0.31209833  1
  O  O231  1  0.61209876  0.57941899  0.81209833  1
  O  O232  1  0.36209876  0.32941899  0.31209833  1
  O  O233  1  0.36209876  0.32941899  0.81209833  1
  O  O234  1  0.36209876  0.82941899  0.31209833  1
  O  O235  1  0.36209876  0.82941899  0.81209833  1
  O  O236  1  0.86209876  0.32941899  0.31209833  1
  O  O237  1  0.86209876  0.32941899  0.81209833  1
  O  O238  1  0.86209876  0.82941899  0.31209833  1
  O  O239  1  0.86209876  0.82941899  0.81209833  1
  O  O240  1  0.38790124  -0.07941899  0.18790167  1
  O  O241  1  0.38790124  -0.07941899  0.68790167  1
  O  O242  1  0.38790124  0.42058101  0.18790167  1
  O  O243  1  0.38790124  0.42058101  0.68790167  1
  O  O244  1  0.88790124  -0.07941899  0.18790167  1
  O  O245  1  0.88790124  -0.07941899  0.68790167  1
  O  O246  1  0.88790124  0.42058101  0.18790167  1
  O  O247  1  0.88790124  0.42058101  0.68790167  1
  O  O248  1  0.63790124  0.17058101  0.18790167  1
  O  O249  1  0.63790124  0.17058101  0.68790167  1
  O  O250  1  0.63790124  0.67058101  0.18790167  1
  O  O251  1  0.63790124  0.67058101  0.68790167  1
  O  O252  1  1.13790124  0.17058101  0.18790167  1
  O  O253  1  1.13790124  0.17058101  0.68790167  1
  O  O254  1  1.13790124  0.67058101  0.18790167  1
  O  O255  1  1.13790124  0.67058101  0.68790167  1
  O  O256  1  0.26127362  0.05414827  0.48513460  1
  O  O257  1  0.26127362  0.05414827  0.98513460  1
  O  O258  1  0.26127362  0.55414827  0.48513460  1
  O  O259  1  0.26127362  0.55414827  0.98513460  1
  O  O260  1  0.76127362  0.05414827  0.48513460  1
  O  O261  1  0.76127362  0.05414827  0.98513460  1
  O  O262  1  0.76127362  0.55414827  0.48513460  1
  O  O263  1  0.76127362  0.55414827  0.98513460  1
  O  O264  1  0.51127362  0.30414827  0.48513460  1
  O  O265  1  0.51127362  0.30414827  0.98513460  1
  O  O266  1  0.51127362  0.80414827  0.48513460  1
  O  O267  1  0.51127362  0.80414827  0.98513460  1
  O  O268  1  1.01127362  0.30414827  0.48513460  1
  O  O269  1  1.01127362  0.30414827  0.98513460  1
  O  O270  1  1.01127362  0.80414827  0.48513460  1
  O  O271  1  1.01127362  0.80414827  0.98513460  1
  O  O272  1  0.23872638  -0.05414827  0.01486540  1
  O  O273  1  0.23872638  -0.05414827  0.51486540  1
  O  O274  1  0.23872638  0.44585173  0.01486540  1
  O  O275  1  0.23872638  0.44585173  0.51486540  1
  O  O276  1  0.73872638  -0.05414827  0.01486540  1
  O  O277  1  0.73872638  -0.05414827  0.51486540  1
  O  O278  1  0.73872638  0.44585173  0.01486540  1
  O  O279  1  0.73872638  0.44585173  0.51486540  1
  O  O280  1  0.48872638  0.19585173  0.01486540  1
  O  O281  1  0.48872638  0.19585173  0.51486540  1
  O  O282  1  0.48872638  0.69585173  0.01486540  1
  O  O283  1  0.48872638  0.69585173  0.51486540  1
  O  O284  1  0.98872638  0.19585173  0.01486540  1
  O  O285  1  0.98872638  0.19585173  0.51486540  1
  O  O286  1  0.98872638  0.69585173  0.01486540  1
  O  O287  1  0.98872638  0.69585173  0.51486540  1
  O  O288  1  0.23872638  0.05414827  0.26486540  1
  O  O289  1  0.23872638  0.05414827  0.76486540  1
  O  O290  1  0.23872638  0.55414827  0.26486540  1
  O  O291  1  0.23872638  0.55414827  0.76486540  1
  O  O292  1  0.73872638  0.05414827  0.26486540  1
  O  O293  1  0.73872638  0.05414827  0.76486540  1
  O  O294  1  0.73872638  0.55414827  0.26486540  1
  O  O295  1  0.73872638  0.55414827  0.76486540  1
  O  O296  1  0.48872638  0.30414827  0.26486540  1
  O  O297  1  0.48872638  0.30414827  0.76486540  1
  O  O298  1  0.48872638  0.80414827  0.26486540  1
  O  O299  1  0.48872638  0.80414827  0.76486540  1
  O  O300  1  0.98872638  0.30414827  0.26486540  1
  O  O301  1  0.98872638  0.30414827  0.76486540  1
  O  O302  1  0.98872638  0.80414827  0.26486540  1
  O  O303  1  0.98872638  0.80414827  0.76486540  1
  O  O304  1  0.26127362  -0.05414827  0.23513460  1
  O  O305  1  0.26127362  -0.05414827  0.73513460  1
  O  O306  1  0.26127362  0.44585173  0.23513460  1
  O  O307  1  0.26127362  0.44585173  0.73513460  1
  O  O308  1  0.76127362  -0.05414827  0.23513460  1
  O  O309  1  0.76127362  -0.05414827  0.73513460  1
  O  O310  1  0.76127362  0.44585173  0.23513460  1
  O  O311  1  0.76127362  0.44585173  0.73513460  1
  O  O312  1  0.51127362  0.19585173  0.23513460  1
  O  O313  1  0.51127362  0.19585173  0.73513460  1
  O  O314  1  0.51127362  0.69585173  0.23513460  1
  O  O315  1  0.51127362  0.69585173  0.73513460  1
  O  O316  1  1.01127362  0.19585173  0.23513460  1
  O  O317  1  1.01127362  0.19585173  0.73513460  1
  O  O318  1  1.01127362  0.69585173  0.23513460  1
  O  O319  1  1.01127362  0.69585173  0.73513460  1
  O  O320  1  0.06322625  -0.04172138  0.34415831  1
  O  O321  1  0.06322625  -0.04172138  0.84415831  1
  O  O322  1  0.06322625  0.45827862  0.34415831  1
  O  O323  1  0.06322625  0.45827862  0.84415831  1
  O  O324  1  0.56322625  -0.04172138  0.34415831  1
  O  O325  1  0.56322625  -0.04172138  0.84415831  1
  O  O326  1  0.56322625  0.45827862  0.34415831  1
  O  O327  1  0.56322625  0.45827862  0.84415831  1
  O  O328  1  0.31322625  0.20827862  0.34415831  1
  O  O329  1  0.31322625  0.20827862  0.84415831  1
  O  O330  1  0.31322625  0.70827862  0.34415831  1
  O  O331  1  0.31322625  0.70827862  0.84415831  1
  O  O332  1  0.81322625  0.20827862  0.34415831  1
  O  O333  1  0.81322625  0.20827862  0.84415831  1
  O  O334  1  0.81322625  0.70827862  0.34415831  1
  O  O335  1  0.81322625  0.70827862  0.84415831  1
  O  O336  1  0.43677375  0.04172138  0.15584169  1
  O  O337  1  0.43677375  0.04172138  0.65584169  1
  O  O338  1  0.43677375  0.54172138  0.15584169  1
  O  O339  1  0.43677375  0.54172138  0.65584169  1
  O  O340  1  0.93677375  0.04172138  0.15584169  1
  O  O341  1  0.93677375  0.04172138  0.65584169  1
  O  O342  1  0.93677375  0.54172138  0.15584169  1
  O  O343  1  0.93677375  0.54172138  0.65584169  1
  O  O344  1  0.68677375  0.29172138  0.15584169  1
  O  O345  1  0.68677375  0.29172138  0.65584169  1
  O  O346  1  0.68677375  0.79172138  0.15584169  1
  O  O347  1  0.68677375  0.79172138  0.65584169  1
  O  O348  1  1.18677375  0.29172138  0.15584169  1
  O  O349  1  1.18677375  0.29172138  0.65584169  1
  O  O350  1  1.18677375  0.79172138  0.15584169  1
  O  O351  1  1.18677375  0.79172138  0.65584169  1
  O  O352  1  0.43677375  -0.04172138  0.40584169  1
  O  O353  1  0.43677375  -0.04172138  0.90584169  1
  O  O354  1  0.43677375  0.45827862  0.40584169  1
  O  O355  1  0.43677375  0.45827862  0.90584169  1
  O  O356  1  0.93677375  -0.04172138  0.40584169  1
  O  O357  1  0.93677375  -0.04172138  0.90584169  1
  O  O358  1  0.93677375  0.45827862  0.40584169  1
  O  O359  1  0.93677375  0.45827862  0.90584169  1
  O  O360  1  0.68677375  0.20827862  0.40584169  1
  O  O361  1  0.68677375  0.20827862  0.90584169  1
  O  O362  1  0.68677375  0.70827862  0.40584169  1
  O  O363  1  0.68677375  0.70827862  0.90584169  1
  O  O364  1  1.18677375  0.20827862  0.40584169  1
  O  O365  1  1.18677375  0.20827862  0.90584169  1
  O  O366  1  1.18677375  0.70827862  0.40584169  1
  O  O367  1  1.18677375  0.70827862  0.90584169  1
  O  O368  1  0.06322625  0.04172138  0.09415831  1
  O  O369  1  0.06322625  0.04172138  0.59415831  1
  O  O370  1  0.06322625  0.54172138  0.09415831  1
  O  O371  1  0.06322625  0.54172138  0.59415831  1
  O  O372  1  0.56322625  0.04172138  0.09415831  1
  O  O373  1  0.56322625  0.04172138  0.59415831  1
  O  O374  1  0.56322625  0.54172138  0.09415831  1
  O  O375  1  0.56322625  0.54172138  0.59415831  1
  O  O376  1  0.31322625  0.29172138  0.09415831  1
  O  O377  1  0.31322625  0.29172138  0.59415831  1
  O  O378  1  0.31322625  0.79172138  0.09415831  1
  O  O379  1  0.31322625  0.79172138  0.59415831  1
  O  O380  1  0.81322625  0.29172138  0.09415831  1
  O  O381  1  0.81322625  0.29172138  0.59415831  1
  O  O382  1  0.81322625  0.79172138  0.09415831  1
  O  O383  1  0.81322625  0.79172138  0.59415831  1
