data_image0
_chemical_formula_structural       OIn16O23
_chemical_formula_sum              "O24 In16"
_cell_length_a       8.91601
_cell_length_b       8.91601
_cell_length_c       8.91601
_cell_angle_alpha    109.471
_cell_angle_beta     109.471
_cell_angle_gamma    109.471

_space_group_name_H-M_alt    "P 1"
_space_group_IT_number       1

loop_
  _space_group_symop_operation_xyz
  'x, y, z'

loop_
  _atom_site_type_symbol
  _atom_site_label
  _atom_site_symmetry_multiplicity
  _atom_site_fract_x
  _atom_site_fract_y
  _atom_site_fract_z
  _atom_site_occupancy
  O   O1        1.0  0.96316  0.72788  0.95578  1.0000
  In  In1       1.0  0.50000  0.50000  0.00000  1.0000
  In  In1       1.0  0.50000  1.00000  0.50000  1.0000
  In  In1       1.0  -0.00000  0.50000  0.50000  1.0000
  In  In2       1.0  0.96620  0.75000  0.21620  1.0000
  In  In2       1.0  0.75000  0.21620  0.96620  1.0000
  In  In2       1.0  0.78380  0.03380  0.25000  1.0000
  In  In2       1.0  0.21620  0.96620  0.75000  1.0000
  In  In2       1.0  0.25000  0.78380  0.03380  1.0000
  In  In2       1.0  0.03380  0.25000  0.78380  1.0000
  In  In2       1.0  0.71620  0.46620  0.75000  1.0000
  In  In2       1.0  0.46620  0.75000  0.71620  1.0000
  In  In2       1.0  0.75000  0.71620  0.46620  1.0000
  In  In2       1.0  0.25000  0.28380  0.53380  1.0000
  In  In2       1.0  0.28380  0.53380  0.25000  1.0000
  In  In2       1.0  0.53380  0.25000  0.28380  1.0000
  In  In1       1.0  1.00000  1.00000  1.00000  1.0000
  O   O1        1.0  0.95578  0.96316  0.72788  1.0000
  O   O1        1.0  0.72788  0.95578  0.96316  1.0000
  O   O1        1.0  0.03684  0.27212  0.04422  1.0000
  O   O1        1.0  0.04422  0.03684  0.27212  1.0000
  O   O1        1.0  0.27212  0.04422  0.03684  1.0000
  O   O1        1.0  0.50738  0.54422  0.77210  1.0000
  O   O1        1.0  0.54422  0.77210  0.50738  1.0000
  O   O1        1.0  0.77210  0.50738  0.54422  1.0000
  O   O1        1.0  0.22790  0.49262  0.45578  1.0000
  O   O1        1.0  0.49262  0.45578  0.22790  1.0000
  O   O1        1.0  0.45578  0.22790  0.49262  1.0000
  O   O1        1.0  0.72790  0.77212  0.23528  1.0000
  O   O1        1.0  0.77212  0.23528  0.72790  1.0000
  O   O1        1.0  0.76472  0.27210  0.22788  1.0000
  O   O1        1.0  0.23528  0.72790  0.77212  1.0000
  O   O1        1.0  0.22788  0.76472  0.27210  1.0000
  O   O1        1.0  0.27210  0.22788  0.76472  1.0000
  O   O1        1.0  0.73528  0.46316  0.00738  1.0000
  O   O1        1.0  0.46316  0.00738  0.73528  1.0000
  O   O1        1.0  0.99262  0.26472  0.53684  1.0000
  O   O1        1.0  0.00738  0.73528  0.46316  1.0000
  O   O1        1.0  0.53684  0.99262  0.26472  1.0000
  O   O1        1.0  0.26472  0.53684  0.99262  1.0000
