data_image0
_chemical_formula_structural       OCo4O3
_chemical_formula_sum              "O4 Co4"
_cell_length_a       5.62962
_cell_length_b       3.2696
_cell_length_c       5.27695
_cell_angle_alpha    90
_cell_angle_beta     90
_cell_angle_gamma    90

_space_group_name_H-M_alt    "P 1"
_space_group_IT_number       1

loop_
  _space_group_symop_operation_xyz
  'x, y, z'

loop_
  _atom_site_type_symbol
  _atom_site_label
  _atom_site_symmetry_multiplicity
  _atom_site_fract_x
  _atom_site_fract_y
  _atom_site_fract_z
  _atom_site_occupancy
  O   O1        1.0  0.33294  0.00000  0.87904  1.0000
  Co  Co1       1.0  0.33326  1.00000  0.50019  1.0000
  Co  Co1       1.0  0.83326  0.50000  0.50019  1.0000
  Co  Co1       1.0  0.50007  0.50000  0.00019  1.0000
  Co  Co1       1.0  0.00007  1.00000  0.00019  1.0000
  O   O1        1.0  0.83294  0.50000  0.87904  1.0000
  O   O1        1.0  0.00039  0.00000  0.37904  1.0000
  O   O1        1.0  0.50039  0.50000  0.37904  1.0000
