data_image0
_chemical_formula_structural       O16Ti8
_chemical_formula_sum              "O16 Ti8"
_cell_length_a       9.29924
_cell_length_b       5.52002
_cell_length_c       5.22475
_cell_angle_alpha    90
_cell_angle_beta     90
_cell_angle_gamma    90

_space_group_name_H-M_alt    "P 1"
_space_group_IT_number       1

loop_
  _space_group_symop_operation_xyz
  'x, y, z'

loop_
  _atom_site_type_symbol
  _atom_site_label
  _atom_site_symmetry_multiplicity
  _atom_site_fract_x
  _atom_site_fract_y
  _atom_site_fract_z
  _atom_site_occupancy
  O   O2        1.0  0.72987  0.10951  0.96540  1.0000
  O   O1        1.0  0.01089  0.35109  0.68170  1.0000
  O   O1        1.0  0.48911  0.64891  0.18170  1.0000
  O   O1        1.0  0.98911  0.85109  0.81830  1.0000
  O   O1        1.0  0.48911  0.85109  0.68170  1.0000
  O   O1        1.0  0.98911  0.64891  0.31830  1.0000
  O   O1        1.0  0.51089  0.35109  0.81830  1.0000
  O   O1        1.0  0.01089  0.14891  0.18170  1.0000
  O   O1        1.0  0.51089  0.14891  0.31830  1.0000
  O   O2        1.0  0.22987  0.39049  0.03460  1.0000
  O   O2        1.0  0.27013  0.60951  0.53460  1.0000
  O   O2        1.0  0.77013  0.89049  0.46540  1.0000
  O   O2        1.0  0.27013  0.89049  0.03460  1.0000
  O   O2        1.0  0.77013  0.60951  0.96540  1.0000
  O   O2        1.0  0.72987  0.39049  0.46540  1.0000
  O   O2        1.0  0.22987  0.10951  0.53460  1.0000
  Ti  Ti1       1.0  0.62892  0.09994  0.63796  1.0000
  Ti  Ti1       1.0  0.12892  0.40005  0.36204  1.0000
  Ti  Ti1       1.0  0.37108  0.59995  0.86204  1.0000
  Ti  Ti1       1.0  0.87108  0.90006  0.13796  1.0000
  Ti  Ti1       1.0  0.37108  0.90005  0.36204  1.0000
  Ti  Ti1       1.0  0.87108  0.59994  0.63796  1.0000
  Ti  Ti1       1.0  0.62892  0.40006  0.13796  1.0000
  Ti  Ti1       1.0  0.12892  0.09995  0.86204  1.0000
