data_image0
_chemical_formula_structural       OAl11Ca10O4AlO23
_chemical_formula_sum              "O28 Al12 Ca10"
_cell_length_a       7.9434
_cell_length_b       7.9434
_cell_length_c       10.382
_cell_angle_alpha    90
_cell_angle_beta     90
_cell_angle_gamma    91.5069

_space_group_name_H-M_alt    "P 1"
_space_group_IT_number       1

loop_
  _space_group_symop_operation_xyz
  'x, y, z'

loop_
  _atom_site_type_symbol
  _atom_site_label
  _atom_site_symmetry_multiplicity
  _atom_site_fract_x
  _atom_site_fract_y
  _atom_site_fract_z
  _atom_site_occupancy
  O   O2        1.0  0.37546  0.37546  0.06664  1.0000
  Al  Al1       1.0  0.49800  0.21098  0.00885  1.0000
  Al  Al1       1.0  0.78902  0.50200  0.50885  1.0000
  Al  Al1       1.0  0.50200  0.78902  0.50885  1.0000
  Al  Al2       1.0  0.70102  0.70102  0.94053  1.0000
  Al  Al2       1.0  0.29898  0.29898  0.44053  1.0000
  Al  Al3       1.0  0.00074  0.00074  0.96212  1.0000
  Al  Al3       1.0  0.99926  0.99926  0.46211  1.0000
  Al  Al4       1.0  0.84329  0.35339  0.97592  1.0000
  Al  Al4       1.0  0.35339  0.84329  0.97592  1.0000
  Al  Al4       1.0  0.15671  0.64661  0.47592  1.0000
  Al  Al4       1.0  0.64661  0.15671  0.47592  1.0000
  Ca  Ca1       1.0  0.05343  0.73643  0.74920  1.0000
  Ca  Ca1       1.0  0.73643  0.05343  0.74920  1.0000
  Ca  Ca1       1.0  0.94657  0.26357  0.24920  1.0000
  Ca  Ca1       1.0  0.26357  0.94657  0.24920  1.0000
  Ca  Ca2       1.0  0.04096  0.32503  0.69924  1.0000
  Ca  Ca2       1.0  0.32503  0.04096  0.69924  1.0000
  Ca  Ca2       1.0  0.95904  0.67497  0.19924  1.0000
  Ca  Ca2       1.0  0.67497  0.95904  0.19924  1.0000
  Ca  Ca3       1.0  0.47441  0.47441  0.74247  1.0000
  Ca  Ca3       1.0  0.52559  0.52559  0.24247  1.0000
  O   O1        1.0  0.00909  0.43712  0.07647  1.0000
  O   O1        1.0  0.43712  0.00909  0.07647  1.0000
  O   O1        1.0  0.99091  0.56288  0.57647  1.0000
  O   O1        1.0  0.56288  0.99091  0.57647  1.0000
  Al  Al1       1.0  0.21098  0.49800  0.00885  1.0000
  O   O2        1.0  0.62454  0.62454  0.56664  1.0000
  O   O3        1.0  0.24700  0.70200  0.08478  1.0000
  O   O3        1.0  0.70200  0.24700  0.08478  1.0000
  O   O3        1.0  0.75300  0.29800  0.58478  1.0000
  O   O3        1.0  0.29800  0.75300  0.58478  1.0000
  O   O4        1.0  0.93730  0.19130  0.88411  1.0000
  O   O4        1.0  0.19130  0.93730  0.88411  1.0000
  O   O4        1.0  0.06270  0.80870  0.38411  1.0000
  O   O4        1.0  0.80870  0.06270  0.38411  1.0000
  O   O5        1.0  0.85397  0.85397  0.88710  1.0000
  O   O5        1.0  0.14603  0.14603  0.38710  1.0000
  O   O6        1.0  0.19088  0.51097  0.83964  1.0000
  O   O6        1.0  0.51097  0.19088  0.83964  1.0000
  O   O6        1.0  0.80912  0.48903  0.33964  1.0000
  O   O6        1.0  0.48903  0.80912  0.33964  1.0000
  O   O7        1.0  0.99299  0.99299  0.13127  1.0000
  O   O7        1.0  0.00701  0.00701  0.63127  1.0000
  O   O8        1.0  0.75617  0.50469  0.87317  1.0000
  O   O8        1.0  0.50469  0.75617  0.87317  1.0000
  O   O8        1.0  0.24383  0.49531  0.37317  1.0000
  O   O8        1.0  0.49531  0.24383  0.37317  1.0000
  O   O9        1.0  0.70015  0.70015  0.11000  1.0000
  O   O9        1.0  0.29985  0.29985  0.61000  1.0000
