data_image0
_chemical_formula_structural       OAl7Ca2O2AlO11
_chemical_formula_sum              "O14 Al8 Ca2"
_cell_length_a       5.4948
_cell_length_b       7.88352
_cell_length_c       7.88352
_cell_angle_alpha    69.3455
_cell_angle_beta     76.6244
_cell_angle_gamma    76.6244

_space_group_name_H-M_alt    "P 1"
_space_group_IT_number       1

loop_
  _space_group_symop_operation_xyz
  'x, y, z'

loop_
  _atom_site_type_symbol
  _atom_site_label
  _atom_site_symmetry_multiplicity
  _atom_site_fract_x
  _atom_site_fract_y
  _atom_site_fract_z
  _atom_site_occupancy
  O   O2        1.0  0.92566  0.17050  0.06050  1.0000
  Al  Al1       1.0  0.30688  0.92276  0.75146  1.0000
  Al  Al1       1.0  0.80688  0.75146  0.92276  1.0000
  Al  Al1       1.0  0.69312  0.07724  0.24854  1.0000
  Al  Al2       1.0  0.25786  0.56019  0.68062  1.0000
  Al  Al2       1.0  0.24214  0.31938  0.43981  1.0000
  Al  Al2       1.0  0.74214  0.43981  0.31938  1.0000
  Al  Al2       1.0  0.75786  0.68062  0.56019  1.0000
  Ca  Ca1       1.0  0.25000  0.80435  0.19565  1.0000
  Ca  Ca1       1.0  0.75000  0.19565  0.80435  1.0000
  O   O1        1.0  0.25000  0.53157  0.46843  1.0000
  O   O1        1.0  0.75000  0.46843  0.53157  1.0000
  Al  Al1       1.0  0.19312  0.24854  0.07724  1.0000
  O   O2        1.0  0.57434  0.93950  0.82950  1.0000
  O   O2        1.0  0.07434  0.82950  0.93950  1.0000
  O   O2        1.0  0.42566  0.06050  0.17050  1.0000
  O   O3        1.0  0.35021  0.37168  0.86432  1.0000
  O   O3        1.0  0.14979  0.13568  0.62832  1.0000
  O   O3        1.0  0.64979  0.62832  0.13568  1.0000
  O   O3        1.0  0.85021  0.86432  0.37168  1.0000
  O   O4        1.0  0.92189  0.63816  0.74826  1.0000
  O   O4        1.0  0.57811  0.25174  0.36184  1.0000
  O   O4        1.0  0.07811  0.36184  0.25174  1.0000
  O   O4        1.0  0.42189  0.74826  0.63816  1.0000
