data_image0
_chemical_formula_structural       OAl15Ba8O24AlO7
_chemical_formula_sum              "O32 Al16 Ba8"
_cell_length_a       10.5922
_cell_length_b       10.5922
_cell_length_c       8.86891
_cell_angle_alpha    90
_cell_angle_beta     90
_cell_angle_gamma    120

_space_group_name_H-M_alt    "P 1"
_space_group_IT_number       1

loop_
  _space_group_symop_operation_xyz
  'x, y, z'

loop_
  _atom_site_type_symbol
  _atom_site_label
  _atom_site_symmetry_multiplicity
  _atom_site_fract_x
  _atom_site_fract_y
  _atom_site_fract_z
  _atom_site_occupancy
  O   O5        1.0  0.78803  0.10926  0.75759  1.0000
  Al  Al1       1.0  0.33079  0.17644  0.56444  1.0000
  Al  Al1       1.0  0.84566  0.66921  0.56444  1.0000
  Al  Al1       1.0  0.17644  0.84565  0.06444  1.0000
  Al  Al1       1.0  0.66921  0.82356  0.06444  1.0000
  Al  Al1       1.0  0.15434  0.33079  0.06444  1.0000
  Al  Al2       1.0  0.82510  0.15317  0.95072  1.0000
  Al  Al2       1.0  0.32808  0.17490  0.95072  1.0000
  Al  Al2       1.0  0.84683  0.67192  0.95072  1.0000
  Al  Al2       1.0  0.17490  0.84683  0.45072  1.0000
  Al  Al2       1.0  0.67192  0.82510  0.45072  1.0000
  Al  Al2       1.0  0.15317  0.32808  0.45072  1.0000
  Al  Al3       1.0  0.66667  0.33333  0.44725  1.0000
  Al  Al3       1.0  0.33333  0.66667  0.94725  1.0000
  Al  Al4       1.0  0.66667  0.33333  0.04597  1.0000
  Al  Al4       1.0  0.33333  0.66667  0.54597  1.0000
  Ba  Ba1       1.0  1.00000  1.00000  0.74807  1.0000
  Ba  Ba1       1.0  0.00000  0.00000  0.24807  1.0000
  Ba  Ba2       1.0  0.49929  0.50782  0.75765  1.0000
  Ba  Ba2       1.0  0.00853  0.50071  0.75765  1.0000
  Ba  Ba2       1.0  0.49218  0.99147  0.75765  1.0000
  Ba  Ba2       1.0  0.50071  0.49218  0.25765  1.0000
  Ba  Ba2       1.0  0.99147  0.49929  0.25765  1.0000
  Ba  Ba2       1.0  0.50782  0.00853  0.25765  1.0000
  O   O1        1.0  0.18132  0.17880  0.47965  1.0000
  O   O1        1.0  0.99748  0.81868  0.47966  1.0000
  O   O1        1.0  0.82120  0.00252  0.47966  1.0000
  O   O1        1.0  0.81868  0.82120  0.97965  1.0000
  O   O1        1.0  0.00252  0.18132  0.97966  1.0000
  O   O1        1.0  0.17880  0.99748  0.97966  1.0000
  O   O2        1.0  0.68830  0.68757  0.54824  1.0000
  O   O2        1.0  0.99927  0.31170  0.54824  1.0000
  O   O2        1.0  0.31244  0.00074  0.54824  1.0000
  O   O2        1.0  0.31170  0.31243  0.04824  1.0000
  O   O2        1.0  0.00073  0.68830  0.04824  1.0000
  O   O2        1.0  0.68756  0.99926  0.04824  1.0000
  O   O3        1.0  0.31400  0.49723  0.48883  1.0000
  O   O3        1.0  0.18323  0.68600  0.48883  1.0000
  O   O3        1.0  0.50277  0.81677  0.48883  1.0000
  O   O3        1.0  0.68600  0.50277  0.98883  1.0000
  O   O3        1.0  0.81677  0.31400  0.98883  1.0000
  O   O3        1.0  0.49723  0.18323  0.98883  1.0000
  O   O4        1.0  0.67981  0.18045  0.50179  1.0000
  O   O4        1.0  0.50064  0.32019  0.50179  1.0000
  O   O4        1.0  0.81955  0.49936  0.50179  1.0000
  O   O4        1.0  0.32019  0.81955  0.00179  1.0000
  O   O4        1.0  0.49936  0.67981  0.00179  1.0000
  O   O4        1.0  0.18045  0.50064  0.00179  1.0000
  Al  Al1       1.0  0.82356  0.15435  0.56444  1.0000
  O   O5        1.0  0.32122  0.21197  0.75759  1.0000
  O   O5        1.0  0.89074  0.67877  0.75759  1.0000
  O   O5        1.0  0.21197  0.89074  0.25759  1.0000
  O   O5        1.0  0.67878  0.78803  0.25759  1.0000
  O   O5        1.0  0.10926  0.32123  0.25759  1.0000
  O   O6        1.0  0.66666  0.33333  0.24656  1.0000
  O   O6        1.0  0.33333  0.66667  0.74656  1.0000
