data_image0
_chemical_formula_structural       OBa3O4BaO11Y8
_chemical_formula_sum              "O16 Ba4 Y8"
_cell_length_a       10.5938
_cell_length_b       12.3886
_cell_length_c       3.52195
_cell_angle_alpha    90
_cell_angle_beta     90
_cell_angle_gamma    90

_space_group_name_H-M_alt    "P 1"
_space_group_IT_number       1

loop_
  _space_group_symop_operation_xyz
  'x, y, z'

loop_
  _atom_site_type_symbol
  _atom_site_label
  _atom_site_symmetry_multiplicity
  _atom_site_fract_x
  _atom_site_fract_y
  _atom_site_fract_z
  _atom_site_occupancy
  O   O2        1.0  0.61713  0.01830  0.25000  1.0000
  Ba  Ba1       1.0  0.75367  0.64842  0.25000  1.0000
  Ba  Ba1       1.0  0.74633  0.14842  0.75000  1.0000
  Ba  Ba1       1.0  0.24633  0.35158  0.75000  1.0000
  O   O1        1.0  0.70917  0.33849  0.25000  1.0000
  O   O1        1.0  0.20917  0.16151  0.25000  1.0000
  O   O1        1.0  0.29083  0.66151  0.75000  1.0000
  O   O1        1.0  0.79083  0.83849  0.75000  1.0000
  Ba  Ba1       1.0  0.25367  0.85158  0.25000  1.0000
  O   O2        1.0  0.11713  0.48170  0.25000  1.0000
  O   O2        1.0  0.38287  0.98170  0.75000  1.0000
  O   O2        1.0  0.88287  0.51830  0.75000  1.0000
  O   O3        1.0  0.01817  0.71672  0.25000  1.0000
  O   O3        1.0  0.51817  0.78328  0.25000  1.0000
  O   O3        1.0  0.98183  0.28328  0.75000  1.0000
  O   O3        1.0  0.48183  0.21672  0.75000  1.0000
  O   O4        1.0  0.92765  0.07464  0.25000  1.0000
  O   O4        1.0  0.42765  0.42536  0.25000  1.0000
  O   O4        1.0  0.07235  0.92536  0.75000  1.0000
  O   O4        1.0  0.57235  0.57464  0.75000  1.0000
  Y   Y1        1.0  0.92732  0.88791  0.25000  1.0000
  Y   Y1        1.0  0.42732  0.61209  0.25000  1.0000
  Y   Y1        1.0  0.07268  0.11209  0.75000  1.0000
  Y   Y1        1.0  0.57268  0.38791  0.75000  1.0000
  Y   Y2        1.0  0.92142  0.39103  0.25000  1.0000
  Y   Y2        1.0  0.42142  0.10897  0.25000  1.0000
  Y   Y2        1.0  0.07858  0.60897  0.75000  1.0000
  Y   Y2        1.0  0.57858  0.89103  0.75000  1.0000
