data_image0
_chemical_formula_structural       OAl7O12AlO3Sr4
_chemical_formula_sum              "O16 Al8 Sr4"
_cell_length_a       8.54666
_cell_length_b       8.92083
_cell_length_c       5.21684
_cell_angle_alpha    90
_cell_angle_beta     93.5475
_cell_angle_gamma    90

_space_group_name_H-M_alt    "P 1"
_space_group_IT_number       1

loop_
  _space_group_symop_operation_xyz
  'x, y, z'

loop_
  _atom_site_type_symbol
  _atom_site_label
  _atom_site_symmetry_multiplicity
  _atom_site_fract_x
  _atom_site_fract_y
  _atom_site_fract_z
  _atom_site_occupancy
  O   O7        1.0  0.51140  0.71455  0.11900  1.0000
  Al  Al1       1.0  0.18911  0.83070  0.71478  1.0000
  Al  Al2       1.0  0.20044  0.33763  0.27418  1.0000
  Al  Al2       1.0  0.79956  0.83764  0.72582  1.0000
  Al  Al3       1.0  0.29243  0.16829  0.77980  1.0000
  Al  Al3       1.0  0.70757  0.66829  0.22021  1.0000
  Al  Al4       1.0  0.31887  0.66835  0.20382  1.0000
  Al  Al4       1.0  0.68113  0.16835  0.79618  1.0000
  O   O1        1.0  0.73594  0.67083  0.56092  1.0000
  O   O1        1.0  0.26406  0.17083  0.43908  1.0000
  O   O2        1.0  0.27012  0.81454  0.41372  1.0000
  O   O2        1.0  0.72988  0.31454  0.58628  1.0000
  O   O3        1.0  0.67360  0.99011  0.64888  1.0000
  O   O3        1.0  0.32640  0.49011  0.35112  1.0000
  O   O4        1.0  0.73552  0.48459  0.09965  1.0000
  O   O4        1.0  0.26448  0.98459  0.90035  1.0000
  O   O5        1.0  0.82461  0.79692  0.06051  1.0000
  O   O5        1.0  0.17539  0.29692  0.93949  1.0000
  O   O6        1.0  0.79816  0.16716  0.09071  1.0000
  O   O6        1.0  0.20184  0.66716  0.90928  1.0000
  Al  Al1       1.0  0.81089  0.33070  0.28522  1.0000
  O   O7        1.0  0.48860  0.21455  0.88100  1.0000
  O   O8        1.0  0.00868  0.38424  0.35649  1.0000
  O   O8        1.0  0.99132  0.88424  0.64351  1.0000
  Sr  Sr1       1.0  0.51479  0.49734  0.74569  1.0000
  Sr  Sr1       1.0  0.48521  0.99734  0.25431  1.0000
  Sr  Sr2       1.0  0.97286  0.49055  0.79849  1.0000
  Sr  Sr2       1.0  0.02714  0.99055  0.20151  1.0000
