data_image0
_chemical_formula_structural       OBa7O8BaO51Ti26
_chemical_formula_sum              "O60 Ba8 Ti26"
_cell_length_a       10.0167
_cell_length_b       10.0167
_cell_length_c       14.2581
_cell_angle_alpha    90
_cell_angle_beta     90
_cell_angle_gamma    119.878

_space_group_name_H-M_alt    "P 1"
_space_group_IT_number       1

loop_
  _space_group_symop_operation_xyz
  'x, y, z'

loop_
  _atom_site_type_symbol
  _atom_site_label
  _atom_site_symmetry_multiplicity
  _atom_site_fract_x
  _atom_site_fract_y
  _atom_site_fract_z
  _atom_site_occupancy
  O   O2        1.0  0.81317  0.46860  0.90410  1.0000
  Ba  Ba1       1.0  0.68506  0.97900  0.09058  1.0000
  Ba  Ba1       1.0  0.18506  0.47900  0.40942  1.0000
  Ba  Ba1       1.0  0.52100  0.81494  0.59058  1.0000
  Ba  Ba1       1.0  0.97900  0.68506  0.09058  1.0000
  Ba  Ba1       1.0  0.31494  0.02100  0.90942  1.0000
  Ba  Ba1       1.0  0.81494  0.52100  0.59058  1.0000
  Ba  Ba1       1.0  0.47900  0.18506  0.40942  1.0000
  O   O1        1.0  0.14896  0.63822  0.56766  1.0000
  O   O1        1.0  0.36178  0.85104  0.43234  1.0000
  O   O1        1.0  0.86178  0.35104  0.06766  1.0000
  O   O1        1.0  0.64896  0.13822  0.93234  1.0000
  O   O1        1.0  0.85104  0.36178  0.43234  1.0000
  O   O1        1.0  0.63822  0.14896  0.56766  1.0000
  O   O1        1.0  0.13822  0.64896  0.93234  1.0000
  O   O1        1.0  0.35104  0.86178  0.06766  1.0000
  Ba  Ba1       1.0  0.02100  0.31494  0.90942  1.0000
  O   O2        1.0  0.53140  0.18683  0.09590  1.0000
  O   O2        1.0  0.03140  0.68683  0.40410  1.0000
  O   O2        1.0  0.31317  0.96860  0.59590  1.0000
  O   O2        1.0  0.18683  0.53140  0.09590  1.0000
  O   O2        1.0  0.46860  0.81317  0.90410  1.0000
  O   O2        1.0  0.96860  0.31317  0.59590  1.0000
  O   O2        1.0  0.68683  0.03140  0.40410  1.0000
  O   O3        1.0  0.63811  0.63811  0.90284  1.0000
  O   O3        1.0  0.36189  0.36189  0.09716  1.0000
  O   O3        1.0  0.86189  0.86189  0.40284  1.0000
  O   O3        1.0  0.13811  0.13811  0.59716  1.0000
  O   O4        1.0  0.33634  0.51128  0.92483  1.0000
  O   O4        1.0  0.48872  0.66366  0.07517  1.0000
  O   O4        1.0  0.98872  0.16366  0.42483  1.0000
  O   O4        1.0  0.83634  0.01128  0.57517  1.0000
  O   O4        1.0  0.66366  0.48872  0.07517  1.0000
  O   O4        1.0  0.51128  0.33634  0.92483  1.0000
  O   O4        1.0  0.01128  0.83634  0.57517  1.0000
  O   O4        1.0  0.16366  0.98872  0.42483  1.0000
  O   O5        1.0  0.01201  0.51201  0.75000  1.0000
  O   O5        1.0  0.48799  0.98799  0.25000  1.0000
  O   O5        1.0  0.98799  0.48799  0.25000  1.0000
  O   O5        1.0  0.51201  0.01201  0.75000  1.0000
  O   O6        1.0  0.82648  0.14363  0.76726  1.0000
  O   O6        1.0  0.85637  0.17352  0.23274  1.0000
  O   O6        1.0  0.35637  0.67352  0.26726  1.0000
  O   O6        1.0  0.32648  0.64363  0.73274  1.0000
  O   O6        1.0  0.17352  0.85637  0.23274  1.0000
  O   O6        1.0  0.14363  0.82648  0.76726  1.0000
  O   O6        1.0  0.64363  0.32648  0.73274  1.0000
  O   O6        1.0  0.67352  0.35637  0.26726  1.0000
  O   O7        1.0  0.14590  0.31932  0.73330  1.0000
  O   O7        1.0  0.68068  0.85410  0.26670  1.0000
  O   O7        1.0  0.18068  0.35410  0.23330  1.0000
  O   O7        1.0  0.64590  0.81932  0.76670  1.0000
  O   O7        1.0  0.85410  0.68068  0.26670  1.0000
  O   O7        1.0  0.31932  0.14590  0.73330  1.0000
  O   O7        1.0  0.81932  0.64590  0.76670  1.0000
  O   O7        1.0  0.35410  0.18068  0.23330  1.0000
  O   O8        1.0  0.97190  0.80397  0.91709  1.0000
  O   O8        1.0  0.19603  0.02810  0.08291  1.0000
  O   O8        1.0  0.69603  0.52810  0.41709  1.0000
  O   O8        1.0  0.47190  0.30397  0.58291  1.0000
  O   O8        1.0  0.02810  0.19603  0.08291  1.0000
  O   O8        1.0  0.80397  0.97190  0.91709  1.0000
  O   O8        1.0  0.30397  0.47190  0.58291  1.0000
  O   O8        1.0  0.52810  0.69603  0.41709  1.0000
  O   O9        1.0  0.48055  0.48055  0.74914  1.0000
  O   O9        1.0  0.51945  0.51945  0.25086  1.0000
  O   O9        1.0  0.01945  0.01945  0.24914  1.0000
  O   O9        1.0  0.98055  0.98055  0.75086  1.0000
  Ti  Ti1       1.0  0.68359  0.31641  1.00000  1.0000
  Ti  Ti1       1.0  0.18359  0.81641  0.50000  1.0000
  Ti  Ti1       1.0  0.31641  0.68359  1.00000  1.0000
  Ti  Ti1       1.0  0.81641  0.18359  0.50000  1.0000
  Ti  Ti2       1.0  0.50000  0.50000  0.00000  1.0000
  Ti  Ti2       1.0  1.00000  1.00000  0.50000  1.0000
  Ti  Ti3       1.0  0.99870  0.64788  0.83630  1.0000
  Ti  Ti3       1.0  0.35212  0.00130  0.16370  1.0000
  Ti  Ti3       1.0  0.85212  0.50130  0.33630  1.0000
  Ti  Ti3       1.0  0.49870  0.14788  0.66370  1.0000
  Ti  Ti3       1.0  0.00130  0.35212  0.16370  1.0000
  Ti  Ti3       1.0  0.64788  0.99870  0.83630  1.0000
  Ti  Ti3       1.0  0.14788  0.49870  0.66370  1.0000
  Ti  Ti3       1.0  0.50130  0.85212  0.33630  1.0000
  Ti  Ti4       1.0  0.64632  0.46269  0.81864  1.0000
  Ti  Ti4       1.0  0.53731  0.35368  0.18136  1.0000
  Ti  Ti4       1.0  0.03731  0.85368  0.31864  1.0000
  Ti  Ti4       1.0  0.14632  0.96269  0.68136  1.0000
  Ti  Ti4       1.0  0.35368  0.53731  0.18136  1.0000
  Ti  Ti4       1.0  0.46269  0.64632  0.81864  1.0000
  Ti  Ti4       1.0  0.96269  0.14632  0.68136  1.0000
  Ti  Ti4       1.0  0.85368  0.03731  0.31864  1.0000
  Ti  Ti5       1.0  0.83454  0.83454  0.84627  1.0000
  Ti  Ti5       1.0  0.16546  0.16546  0.15373  1.0000
  Ti  Ti5       1.0  0.66546  0.66546  0.34627  1.0000
  Ti  Ti5       1.0  0.33454  0.33454  0.65373  1.0000
