data_image0
_chemical_formula_structural       OIn6O17Y6
_chemical_formula_sum              "O18 In6 Y6"
_cell_length_a       6.41475
_cell_length_b       6.41475
_cell_length_c       12.4405
_cell_angle_alpha    90
_cell_angle_beta     90
_cell_angle_gamma    120

_space_group_name_H-M_alt    "P 1"
_space_group_IT_number       1

loop_
  _space_group_symop_operation_xyz
  'x, y, z'

loop_
  _atom_site_type_symbol
  _atom_site_label
  _atom_site_symmetry_multiplicity
  _atom_site_fract_x
  _atom_site_fract_y
  _atom_site_fract_z
  _atom_site_occupancy
  O   O1        1.0  0.30781  0.30781  0.67196  1.0000
  In  In1       1.0  0.66654  1.00000  0.50136  1.0000
  In  In1       1.0  1.00000  0.66654  0.50136  1.0000
  In  In1       1.0  0.66654  0.66654  0.00136  1.0000
  In  In1       1.0  0.33346  0.00000  0.00136  1.0000
  In  In1       1.0  0.00000  0.33346  0.00136  1.0000
  In  In1       1.0  0.33346  0.33346  0.50136  1.0000
  O   O1        1.0  0.69219  1.00000  0.67196  1.0000
  O   O1        1.0  1.00000  0.69219  0.67196  1.0000
  O   O1        1.0  0.69219  0.69219  0.17196  1.0000
  O   O1        1.0  0.30781  0.00000  0.17196  1.0000
  O   O1        1.0  0.00000  0.30781  0.17196  1.0000
  O   O2        1.0  0.64008  0.64008  0.83209  1.0000
  O   O2        1.0  0.35992  1.00000  0.83209  1.0000
  O   O2        1.0  1.00000  0.35992  0.83209  1.0000
  O   O2        1.0  0.35992  0.35992  0.33209  1.0000
  O   O2        1.0  0.64008  0.00000  0.33209  1.0000
  O   O2        1.0  0.00000  0.64008  0.33209  1.0000
  O   O3        1.0  0.00000  0.00000  0.97006  1.0000
  O   O3        1.0  1.00000  1.00000  0.47006  1.0000
  O   O4        1.0  0.33333  0.66667  0.52840  1.0000
  O   O4        1.0  0.66667  0.33333  0.52840  1.0000
  O   O4        1.0  0.66667  0.33333  0.02840  1.0000
  O   O4        1.0  0.33333  0.66667  0.02840  1.0000
  Y   Y1        1.0  1.00000  1.00000  0.77125  1.0000
  Y   Y1        1.0  0.00000  0.00000  0.27125  1.0000
  Y   Y2        1.0  0.33333  0.66667  0.73643  1.0000
  Y   Y2        1.0  0.66667  0.33333  0.73643  1.0000
  Y   Y2        1.0  0.66667  0.33333  0.23643  1.0000
  Y   Y2        1.0  0.33333  0.66667  0.23643  1.0000
