data_image0
_chemical_formula_structural       OAl7O16AlO19Y16
_chemical_formula_sum              "O36 Al8 Y16"
_cell_length_a       7.52847
_cell_length_b       10.6627
_cell_length_c       11.3542
_cell_angle_alpha    90
_cell_angle_beta     108.622
_cell_angle_gamma    90

_space_group_name_H-M_alt    "P 1"
_space_group_IT_number       1

loop_
  _space_group_symop_operation_xyz
  'x, y, z'

loop_
  _atom_site_type_symbol
  _atom_site_label
  _atom_site_symmetry_multiplicity
  _atom_site_fract_x
  _atom_site_fract_y
  _atom_site_fract_z
  _atom_site_occupancy
  O   O5        1.0  0.23170  0.23797  0.76739  1.0000
  Al  Al1       1.0  0.78072  0.82002  0.87180  1.0000
  Al  Al1       1.0  0.78072  0.67998  0.37180  1.0000
  Al  Al1       1.0  0.21928  0.17998  0.12820  1.0000
  Al  Al2       1.0  0.65360  0.32228  0.61582  1.0000
  Al  Al2       1.0  0.34640  0.82228  0.88418  1.0000
  Al  Al2       1.0  0.34640  0.67772  0.38418  1.0000
  Al  Al2       1.0  0.65360  0.17772  0.11582  1.0000
  O   O1        1.0  0.21067  0.48110  0.65432  1.0000
  O   O1        1.0  0.78933  0.98110  0.84568  1.0000
  O   O1        1.0  0.78933  0.51890  0.34568  1.0000
  O   O1        1.0  0.21067  0.01890  0.15432  1.0000
  O   O2        1.0  0.69589  0.48098  0.65907  1.0000
  O   O2        1.0  0.30411  0.98098  0.84093  1.0000
  O   O2        1.0  0.30411  0.51902  0.34093  1.0000
  O   O2        1.0  0.69589  0.01902  0.15907  1.0000
  O   O3        1.0  0.07615  0.50544  0.89284  1.0000
  O   O3        1.0  0.92385  0.00544  0.60716  1.0000
  O   O3        1.0  0.92385  0.49456  0.10716  1.0000
  O   O3        1.0  0.07615  0.99456  0.39284  1.0000
  O   O4        1.0  0.56548  0.49255  0.89205  1.0000
  O   O4        1.0  0.43452  0.99255  0.60795  1.0000
  O   O4        1.0  0.43452  0.50745  0.10795  1.0000
  O   O4        1.0  0.56548  0.00745  0.39205  1.0000
  Al  Al1       1.0  0.21928  0.32002  0.62820  1.0000
  O   O5        1.0  0.76830  0.73797  0.73261  1.0000
  O   O5        1.0  0.76830  0.76203  0.23261  1.0000
  O   O5        1.0  0.23170  0.26203  0.26739  1.0000
  O   O6        1.0  0.07831  0.26602  0.48153  1.0000
  O   O6        1.0  0.92169  0.76602  0.01847  1.0000
  O   O6        1.0  0.92169  0.73398  0.51847  1.0000
  O   O6        1.0  0.07831  0.23398  0.98153  1.0000
  O   O7        1.0  0.78756  0.23702  0.74837  1.0000
  O   O7        1.0  0.21244  0.73702  0.75163  1.0000
  O   O7        1.0  0.21244  0.76298  0.25163  1.0000
  O   O7        1.0  0.78756  0.26298  0.24837  1.0000
  O   O8        1.0  0.63712  0.26961  0.46486  1.0000
  O   O8        1.0  0.36288  0.76961  0.03514  1.0000
  O   O8        1.0  0.36288  0.73039  0.53514  1.0000
  O   O8        1.0  0.63712  0.23039  0.96486  1.0000
  O   O9        1.0  0.43449  0.26267  0.61769  1.0000
  O   O9        1.0  0.56551  0.76267  0.88231  1.0000
  O   O9        1.0  0.56551  0.73733  0.38231  1.0000
  O   O9        1.0  0.43449  0.23733  0.11769  1.0000
  Y   Y1        1.0  0.52444  0.39132  0.28670  1.0000
  Y   Y1        1.0  0.47556  0.89132  0.21330  1.0000
  Y   Y1        1.0  0.47556  0.60868  0.71330  1.0000
  Y   Y1        1.0  0.52444  0.10868  0.78670  1.0000
  Y   Y2        1.0  0.02422  0.40499  0.30609  1.0000
  Y   Y2        1.0  0.97578  0.90499  0.19391  1.0000
  Y   Y2        1.0  0.97578  0.59501  0.69391  1.0000
  Y   Y2        1.0  0.02422  0.09501  0.80609  1.0000
  Y   Y3        1.0  0.33938  0.37179  0.93817  1.0000
  Y   Y3        1.0  0.66062  0.87179  0.56183  1.0000
  Y   Y3        1.0  0.66062  0.62821  0.06183  1.0000
  Y   Y3        1.0  0.33938  0.12821  0.43817  1.0000
  Y   Y4        1.0  0.83855  0.37732  0.91869  1.0000
  Y   Y4        1.0  0.16145  0.87732  0.58131  1.0000
  Y   Y4        1.0  0.16145  0.62268  0.08131  1.0000
  Y   Y4        1.0  0.83855  0.12268  0.41869  1.0000
