data_image0
_chemical_formula_structural       OIn7O16InO3Ti4
_chemical_formula_sum              "O20 In8 Ti4"
_cell_length_a       7.37161
_cell_length_b       3.55408
_cell_length_c       15.153
_cell_angle_alpha    90
_cell_angle_beta     90
_cell_angle_gamma    90

_space_group_name_H-M_alt    "P 1"
_space_group_IT_number       1

loop_
  _space_group_symop_operation_xyz
  'x, y, z'

loop_
  _atom_site_type_symbol
  _atom_site_label
  _atom_site_symmetry_multiplicity
  _atom_site_fract_x
  _atom_site_fract_y
  _atom_site_fract_z
  _atom_site_occupancy
  O   O5        1.0  0.57183  0.75000  0.04540  1.0000
  In  In1       1.0  0.09920  0.25000  0.08356  1.0000
  In  In1       1.0  0.40080  0.75000  0.58356  1.0000
  In  In1       1.0  0.90080  0.75000  0.91644  1.0000
  In  In2       1.0  0.82546  0.75000  0.25988  1.0000
  In  In2       1.0  0.32546  0.75000  0.24012  1.0000
  In  In2       1.0  0.17454  0.25000  0.74012  1.0000
  In  In2       1.0  0.67454  0.25000  0.75988  1.0000
  O   O1        1.0  0.74030  0.25000  0.18011  1.0000
  O   O1        1.0  0.24030  0.25000  0.31989  1.0000
  O   O1        1.0  0.25970  0.75000  0.81989  1.0000
  O   O1        1.0  0.75970  0.75000  0.68011  1.0000
  O   O2        1.0  0.84608  0.25000  0.00430  1.0000
  O   O2        1.0  0.34608  0.25000  0.49570  1.0000
  O   O2        1.0  0.15392  0.75000  0.99570  1.0000
  O   O2        1.0  0.65392  0.75000  0.50430  1.0000
  O   O3        1.0  0.87059  0.25000  0.35095  1.0000
  O   O3        1.0  0.37059  0.25000  0.14905  1.0000
  O   O3        1.0  0.12941  0.75000  0.64905  1.0000
  O   O3        1.0  0.62941  0.75000  0.85095  1.0000
  O   O4        1.0  0.56004  0.75000  0.32448  1.0000
  O   O4        1.0  0.06004  0.75000  0.17552  1.0000
  O   O4        1.0  0.43996  0.25000  0.67552  1.0000
  O   O4        1.0  0.93996  0.25000  0.82448  1.0000
  In  In1       1.0  0.59920  0.25000  0.41644  1.0000
  O   O5        1.0  0.07183  0.75000  0.45460  1.0000
  O   O5        1.0  0.42817  0.25000  0.95460  1.0000
  O   O5        1.0  0.92817  0.25000  0.54540  1.0000
  Ti  Ti1       1.0  0.60695  0.25000  0.07725  1.0000
  Ti  Ti1       1.0  0.10695  0.25000  0.42275  1.0000
  Ti  Ti1       1.0  0.39305  0.75000  0.92275  1.0000
  Ti  Ti1       1.0  0.89305  0.75000  0.57725  1.0000
