data_image0
_chemical_formula_structural       OLa15O8LaO31Ti8
_chemical_formula_sum              "O40 La16 Ti8"
_cell_length_a       11.1374
_cell_length_b       11.6514
_cell_length_c       7.91991
_cell_angle_alpha    90
_cell_angle_beta     90
_cell_angle_gamma    90

_space_group_name_H-M_alt    "P 1"
_space_group_IT_number       1

loop_
  _space_group_symop_operation_xyz
  'x, y, z'

loop_
  _atom_site_type_symbol
  _atom_site_label
  _atom_site_symmetry_multiplicity
  _atom_site_fract_x
  _atom_site_fract_y
  _atom_site_fract_z
  _atom_site_occupancy
  O   O2        1.0  0.12737  0.91614  0.75000  1.0000
  La  La1       1.0  0.29727  0.30944  1.00000  1.0000
  La  La1       1.0  0.79727  0.69057  0.50000  1.0000
  La  La1       1.0  0.29727  0.30943  0.50000  1.0000
  La  La1       1.0  0.02375  0.19057  0.25000  1.0000
  La  La1       1.0  0.02375  0.19057  0.75000  1.0000
  La  La1       1.0  0.52375  0.80943  0.75000  1.0000
  La  La1       1.0  0.52375  0.80943  0.25000  1.0000
  La  La2       1.0  0.75891  0.03379  0.50000  1.0000
  La  La2       1.0  0.25891  0.96621  0.50000  1.0000
  La  La2       1.0  0.06213  0.53379  0.25000  1.0000
  La  La2       1.0  0.06213  0.53379  0.75000  1.0000
  La  La2       1.0  0.56213  0.46621  0.75000  1.0000
  La  La2       1.0  0.56213  0.46621  0.25000  1.0000
  La  La2       1.0  0.25892  0.96621  1.00000  1.0000
  La  La2       1.0  0.75892  0.03379  0.00000  1.0000
  O   O1        1.0  0.88588  0.21598  0.50000  1.0000
  O   O1        1.0  0.38588  0.78402  0.50000  1.0000
  O   O1        1.0  0.93514  0.71597  0.25000  1.0000
  O   O1        1.0  0.93514  0.71597  0.75000  1.0000
  O   O1        1.0  0.43514  0.28403  0.75000  1.0000
  O   O1        1.0  0.43514  0.28403  0.25000  1.0000
  O   O1        1.0  0.88587  0.21598  1.00000  1.0000
  O   O1        1.0  0.38587  0.78402  1.00000  1.0000
  La  La1       1.0  0.79726  0.69056  0.00000  1.0000
  O   O2        1.0  0.12737  0.91614  0.25000  1.0000
  O   O2        1.0  0.62737  0.08386  0.25000  1.0000
  O   O2        1.0  0.62737  0.08386  0.75000  1.0000
  O   O2        1.0  0.69368  0.41615  0.50000  1.0000
  O   O2        1.0  0.19367  0.58385  0.50000  1.0000
  O   O2        1.0  0.69369  0.41619  1.00000  1.0000
  O   O2        1.0  0.19369  0.58381  0.00000  1.0000
  O   O3        1.0  0.42441  0.12672  1.00000  1.0000
  O   O3        1.0  0.92441  0.87328  0.00000  1.0000
  O   O3        1.0  0.92442  0.87328  0.50000  1.0000
  O   O3        1.0  0.42442  0.12672  0.50000  1.0000
  O   O3        1.0  0.89662  0.37329  0.75000  1.0000
  O   O3        1.0  0.89662  0.37329  0.25000  1.0000
  O   O3        1.0  0.39662  0.62671  0.25000  1.0000
  O   O3        1.0  0.39662  0.62671  0.75000  1.0000
  O   O4        1.0  0.65232  0.85258  0.50000  1.0000
  O   O4        1.0  0.15231  0.14742  0.50000  1.0000
  O   O4        1.0  0.66869  0.64742  0.25001  1.0000
  O   O4        1.0  0.66869  0.64742  0.74999  1.0000
  O   O4        1.0  0.16869  0.35258  0.74999  1.0000
  O   O4        1.0  0.16869  0.35258  0.25001  1.0000
  O   O4        1.0  0.65232  0.85258  1.00000  1.0000
  O   O4        1.0  0.15231  0.14742  1.00000  1.0000
  O   O5        1.0  0.93680  0.51991  0.50000  1.0000
  O   O5        1.0  0.43680  0.48009  0.50000  1.0000
  O   O5        1.0  0.38424  0.98010  0.25000  1.0000
  O   O5        1.0  0.38424  0.98010  0.75000  1.0000
  O   O5        1.0  0.88424  0.01990  0.75000  1.0000
  O   O5        1.0  0.88424  0.01990  0.25000  1.0000
  O   O5        1.0  0.93681  0.51991  1.00000  1.0000
  O   O5        1.0  0.43681  0.48009  1.00000  1.0000
  Ti  Ti1       1.0  0.97022  0.87668  0.25000  1.0000
  Ti  Ti1       1.0  0.97022  0.87668  0.75000  1.0000
  Ti  Ti1       1.0  0.47022  0.12332  0.75000  1.0000
  Ti  Ti1       1.0  0.47022  0.12332  0.25000  1.0000
  Ti  Ti1       1.0  0.35082  0.62331  0.50000  1.0000
  Ti  Ti1       1.0  0.85082  0.37669  0.50000  1.0000
  Ti  Ti1       1.0  0.85083  0.37670  1.00000  1.0000
  Ti  Ti1       1.0  0.35083  0.62330  0.00000  1.0000
