data_image0
_chemical_formula_structural       O16Sr4Y8
_chemical_formula_sum              "O16 Sr4 Y8"
_cell_length_a       10.2754
_cell_length_b       12.1783
_cell_length_c       3.46969
_cell_angle_alpha    90
_cell_angle_beta     90
_cell_angle_gamma    90

_space_group_name_H-M_alt    "P 1"
_space_group_IT_number       1

loop_
  _space_group_symop_operation_xyz
  'x, y, z'

loop_
  _atom_site_type_symbol
  _atom_site_label
  _atom_site_symmetry_multiplicity
  _atom_site_fract_x
  _atom_site_fract_y
  _atom_site_fract_z
  _atom_site_occupancy
  O   O3        1.0  0.01301  0.71497  0.25000  1.0000
  O   O1        1.0  0.21093  0.17555  0.25000  1.0000
  O   O1        1.0  0.28907  0.67555  0.75000  1.0000
  O   O1        1.0  0.78907  0.82445  0.75000  1.0000
  O   O2        1.0  0.62611  0.02040  0.25000  1.0000
  O   O2        1.0  0.12611  0.47960  0.25000  1.0000
  O   O2        1.0  0.37389  0.97960  0.75000  1.0000
  O   O2        1.0  0.87389  0.52040  0.75000  1.0000
  O   O1        1.0  0.71093  0.32445  0.25000  1.0000
  O   O3        1.0  0.51301  0.78503  0.25000  1.0000
  O   O3        1.0  0.98699  0.28503  0.75000  1.0000
  O   O3        1.0  0.48699  0.21497  0.75000  1.0000
  O   O4        1.0  0.92273  0.07761  0.25000  1.0000
  O   O4        1.0  0.42273  0.42239  0.25000  1.0000
  O   O4        1.0  0.07727  0.92239  0.75000  1.0000
  O   O4        1.0  0.57727  0.57761  0.75000  1.0000
  Sr  Sr1       1.0  0.25448  0.85157  0.25000  1.0000
  Sr  Sr1       1.0  0.75448  0.64843  0.25000  1.0000
  Sr  Sr1       1.0  0.74552  0.14843  0.75000  1.0000
  Sr  Sr1       1.0  0.24552  0.35157  0.75000  1.0000
  Y   Y1        1.0  0.92190  0.38995  0.25000  1.0000
  Y   Y1        1.0  0.42190  0.11005  0.25000  1.0000
  Y   Y1        1.0  0.07810  0.61005  0.75000  1.0000
  Y   Y1        1.0  0.57810  0.88995  0.75000  1.0000
  Y   Y2        1.0  0.92479  0.88677  0.25000  1.0000
  Y   Y2        1.0  0.42479  0.61323  0.25000  1.0000
  Y   Y2        1.0  0.07521  0.11323  0.75000  1.0000
  Y   Y2        1.0  0.57521  0.38677  0.75000  1.0000
