data_image0
_chemical_formula_structural       OLa3O4LaO7Y4
_chemical_formula_sum              "O12 La4 Y4"
_cell_length_a       6.19562
_cell_length_b       8.70934
_cell_length_c       5.97458
_cell_angle_alpha    90
_cell_angle_beta     90
_cell_angle_gamma    90.0002

_space_group_name_H-M_alt    "P 1"
_space_group_IT_number       1

loop_
  _space_group_symop_operation_xyz
  'x, y, z'

loop_
  _atom_site_type_symbol
  _atom_site_label
  _atom_site_symmetry_multiplicity
  _atom_site_fract_x
  _atom_site_fract_y
  _atom_site_fract_z
  _atom_site_occupancy
  O   O2        1.0  0.69545  0.42756  0.80668  1.0000
  La  La1       1.0  0.55030  0.75000  0.01805  1.0000
  La  La1       1.0  0.94970  0.25000  0.51805  1.0000
  La  La1       1.0  0.44969  0.25000  0.98195  1.0000
  O   O1        1.0  0.56546  0.25000  0.36607  1.0000
  O   O1        1.0  0.06546  0.25000  0.13393  1.0000
  O   O1        1.0  0.43454  0.75000  0.63393  1.0000
  O   O1        1.0  0.93454  0.75000  0.86607  1.0000
  La  La1       1.0  0.05031  0.75000  0.48195  1.0000
  O   O2        1.0  0.19545  0.07244  0.69332  1.0000
  O   O2        1.0  0.30455  0.92756  0.19332  1.0000
  O   O2        1.0  0.80455  0.57244  0.30668  1.0000
  O   O2        1.0  0.30455  0.57244  0.19332  1.0000
  O   O2        1.0  0.80455  0.92756  0.30668  1.0000
  O   O2        1.0  0.69545  0.07244  0.80668  1.0000
  O   O2        1.0  0.19545  0.42756  0.69332  1.0000
  Y   Y1        1.0  0.50000  0.50000  0.50000  1.0000
  Y   Y1        1.0  0.00000  0.00000  0.00000  1.0000
  Y   Y1        1.0  0.50000  1.00000  0.50000  1.0000
  Y   Y1        1.0  0.00000  0.50000  0.00000  1.0000
