data_image0
_chemical_formula_structural       OLa7O6LaO21Ti8
_chemical_formula_sum              "O28 La8 Ti8"
_cell_length_a       7.86991
_cell_length_b       13.3122
_cell_length_c       5.61782
_cell_angle_alpha    90
_cell_angle_beta     90
_cell_angle_gamma    98.5125

_space_group_name_H-M_alt    "P 1"
_space_group_IT_number       1

loop_
  _space_group_symop_operation_xyz
  'x, y, z'

loop_
  _atom_site_type_symbol
  _atom_site_label
  _atom_site_symmetry_multiplicity
  _atom_site_fract_x
  _atom_site_fract_y
  _atom_site_fract_z
  _atom_site_occupancy
  O   O4        1.0  0.52432  0.98066  0.52644  1.0000
  La  La1       1.0  0.27950  0.11566  0.25450  1.0000
  La  La2       1.0  0.22677  0.90307  0.76002  1.0000
  La  La2       1.0  0.77323  0.09693  0.26002  1.0000
  La  La3       1.0  0.64926  0.61321  0.29427  1.0000
  La  La3       1.0  0.35074  0.38679  0.79427  1.0000
  La  La4       1.0  0.14660  0.57795  0.34747  1.0000
  La  La4       1.0  0.85340  0.42205  0.84747  1.0000
  O   O1        1.0  0.22365  0.89354  0.30477  1.0000
  O   O1        1.0  0.77635  0.10646  0.80477  1.0000
  O   O2        1.0  0.72723  0.90811  0.19155  1.0000
  O   O2        1.0  0.27277  0.09189  0.69155  1.0000
  O   O3        1.0  0.96636  0.98309  0.52584  1.0000
  O   O3        1.0  0.03364  0.01691  0.02584  1.0000
  La  La1       1.0  0.72050  0.88434  0.75450  1.0000
  O   O4        1.0  0.47568  0.01934  0.02644  1.0000
  O   O5        1.0  0.89496  0.77560  0.46940  1.0000
  O   O5        1.0  0.10504  0.22440  0.96940  1.0000
  O   O6        1.0  0.49344  0.77199  0.46222  1.0000
  O   O6        1.0  0.50656  0.22801  0.96222  1.0000
  O   O7        1.0  0.97167  0.81416  0.95799  1.0000
  O   O7        1.0  0.02833  0.18584  0.45799  1.0000
  O   O8        1.0  0.43751  0.81644  0.95212  1.0000
  O   O8        1.0  0.56249  0.18356  0.45212  1.0000
  O   O9        1.0  0.91628  0.59332  0.05313  1.0000
  O   O9        1.0  0.08372  0.40668  0.55313  1.0000
  O   O10       1.0  0.38069  0.60713  0.07224  1.0000
  O   O10       1.0  0.61931  0.39287  0.57224  1.0000
  O   O11       1.0  0.87557  0.57145  0.57172  1.0000
  O   O11       1.0  0.12443  0.42855  0.07172  1.0000
  O   O12       1.0  0.40592  0.56158  0.58520  1.0000
  O   O12       1.0  0.59408  0.43842  0.08520  1.0000
  O   O13       1.0  0.67298  0.69288  0.83708  1.0000
  O   O13       1.0  0.32702  0.30712  0.33708  1.0000
  O   O14       1.0  0.17433  0.69644  0.70979  1.0000
  O   O14       1.0  0.82567  0.30356  0.20979  1.0000
  Ti  Ti1       1.0  0.96897  0.88257  0.26578  1.0000
  Ti  Ti1       1.0  0.03103  0.11743  0.76578  1.0000
  Ti  Ti2       1.0  0.47295  0.88060  0.26461  1.0000
  Ti  Ti2       1.0  0.52705  0.11940  0.76461  1.0000
  Ti  Ti3       1.0  0.92354  0.67971  0.78993  1.0000
  Ti  Ti3       1.0  0.07646  0.32029  0.28993  1.0000
  Ti  Ti4       1.0  0.41688  0.67581  0.79501  1.0000
  Ti  Ti4       1.0  0.58312  0.32419  0.29501  1.0000
