data_image0
_chemical_formula_structural       OFe7O16FeO7Al8
_chemical_formula_sum              "O24 Fe8 Al8"
_cell_length_a       5.0119
_cell_length_b       8.63502
_cell_length_c       9.35501
_cell_angle_alpha    90
_cell_angle_beta     90
_cell_angle_gamma    90

_space_group_name_H-M_alt    "P 1"
_space_group_IT_number       1

loop_
  _space_group_symop_operation_xyz
  'x, y, z'

loop_
  _atom_site_type_symbol
  _atom_site_label
  _atom_site_symmetry_multiplicity
  _atom_site_fract_x
  _atom_site_fract_y
  _atom_site_fract_z
  _atom_site_occupancy
  O   O5        1.0  0.33615  0.33179  0.67195  1.0000
  Fe  Fe1       1.0  0.31490  0.65044  0.08020  1.0000
  Fe  Fe1       1.0  0.81490  0.84956  0.08020  1.0000
  Fe  Fe1       1.0  0.18510  0.15044  0.58020  1.0000
  Fe  Fe2       1.0  0.16699  0.46774  0.79885  1.0000
  Fe  Fe2       1.0  0.83301  0.53226  0.29885  1.0000
  Fe  Fe2       1.0  0.33301  0.96774  0.29885  1.0000
  Fe  Fe2       1.0  0.66699  0.03226  0.79885  1.0000
  O   O1        1.0  0.48627  0.17913  0.41714  1.0000
  O   O1        1.0  0.51373  0.82087  0.91714  1.0000
  O   O1        1.0  0.01373  0.67913  0.91714  1.0000
  O   O1        1.0  0.98627  0.32087  0.41714  1.0000
  O   O2        1.0  0.99920  0.01062  0.42910  1.0000
  O   O2        1.0  0.00080  0.98938  0.92910  1.0000
  O   O2        1.0  0.50080  0.51062  0.92910  1.0000
  O   O2        1.0  0.49920  0.48938  0.42910  1.0000
  O   O3        1.0  0.16425  0.49560  0.20006  1.0000
  O   O3        1.0  0.83574  0.50440  0.70006  1.0000
  O   O3        1.0  0.33574  0.99560  0.70006  1.0000
  O   O3        1.0  0.66426  0.00440  0.20006  1.0000
  O   O4        1.0  0.64610  0.33303  0.19499  1.0000
  O   O4        1.0  0.35390  0.66697  0.69499  1.0000
  O   O4        1.0  0.85390  0.83303  0.69499  1.0000
  O   O4        1.0  0.14610  0.16697  0.19499  1.0000
  Fe  Fe1       1.0  0.68510  0.34956  0.58020  1.0000
  O   O5        1.0  0.66385  0.66821  0.17195  1.0000
  O   O5        1.0  0.16385  0.83179  0.17195  1.0000
  O   O5        1.0  0.83615  0.16821  0.67195  1.0000
  O   O6        1.0  0.00054  0.32506  0.94343  1.0000
  O   O6        1.0  0.99946  0.67494  0.44343  1.0000
  O   O6        1.0  0.49946  0.82506  0.44343  1.0000
  O   O6        1.0  0.50054  0.17494  0.94343  1.0000
  Al  Al1       1.0  0.66805  0.34524  0.00254  1.0000
  Al  Al1       1.0  0.33195  0.65476  0.50254  1.0000
  Al  Al1       1.0  0.83195  0.84524  0.50254  1.0000
  Al  Al1       1.0  0.16805  0.15476  0.00254  1.0000
  Al  Al2       1.0  0.31898  0.33722  0.30555  1.0000
  Al  Al2       1.0  0.68102  0.66278  0.80555  1.0000
  Al  Al2       1.0  0.18102  0.83722  0.80555  1.0000
  Al  Al2       1.0  0.81898  0.16278  0.30555  1.0000
