data_image0
_chemical_formula_structural       OBa5O6BaO11Fe6
_chemical_formula_sum              "O18 Ba6 Fe6"
_cell_length_a       5.74508
_cell_length_b       5.727
_cell_length_c       14.0181
_cell_angle_alpha    89.5586
_cell_angle_beta     90.8813
_cell_angle_gamma    120.104

_space_group_name_H-M_alt    "P 1"
_space_group_IT_number       1

loop_
  _space_group_symop_operation_xyz
  'x, y, z'

loop_
  _atom_site_type_symbol
  _atom_site_label
  _atom_site_symmetry_multiplicity
  _atom_site_fract_x
  _atom_site_fract_y
  _atom_site_fract_z
  _atom_site_occupancy
  O   O5        1.0  0.83641  0.17742  0.41193  1.0000
  Ba  Ba2       1.0  0.99719  0.99436  0.75000  1.0000
  Ba  Ba3       1.0  0.34193  0.66920  0.41079  1.0000
  Ba  Ba3       1.0  0.32730  0.66926  0.08921  1.0000
  Ba  Ba4       1.0  0.67478  0.33146  0.58950  1.0000
  Ba  Ba4       1.0  0.65671  0.33153  0.91050  1.0000
  O   O1        1.0  0.52516  0.48213  0.25094  1.0000
  O   O1        1.0  0.95696  0.48215  0.24906  1.0000
  O   O2        1.0  0.52413  0.04822  0.24999  1.0000
  O   O3        1.0  0.48028  0.50630  0.73780  1.0000
  O   O3        1.0  0.02602  0.50633  0.76222  1.0000
  O   O4        1.0  0.47160  0.94318  0.74999  1.0000
  Ba  Ba1       1.0  0.00202  0.00405  0.25000  1.0000
  O   O5        1.0  0.34102  0.17745  0.08806  1.0000
  O   O6        1.0  0.83880  0.65787  0.41419  1.0000
  O   O6        1.0  0.81905  0.65790  0.08580  1.0000
  O   O7        1.0  0.35953  0.17745  0.41485  1.0000
  O   O7        1.0  0.81798  0.17752  0.08514  1.0000
  O   O8        1.0  0.18199  0.82723  0.58237  1.0000
  O   O8        1.0  0.64531  0.82733  0.91762  1.0000
  O   O9        1.0  0.17450  0.34080  0.57828  1.0000
  O   O9        1.0  0.16636  0.34088  0.92173  1.0000
  O   O10       1.0  0.68568  0.84106  0.57698  1.0000
  O   O10       1.0  0.15541  0.84113  0.92302  1.0000
  Fe  Fe1       1.0  0.00807  0.99717  0.50526  1.0000
  Fe  Fe1       1.0  0.98916  0.99728  0.99475  1.0000
  Fe  Fe2       1.0  0.34485  0.65986  0.65324  1.0000
  Fe  Fe2       1.0  0.31504  0.65992  0.84676  1.0000
  Fe  Fe3       1.0  0.67400  0.33676  0.34454  1.0000
  Fe  Fe3       1.0  0.66277  0.33680  0.15546  1.0000
