data_image0
_chemical_formula_structural       OBa3O4BaO11Fe8
_chemical_formula_sum              "O16 Ba4 Fe8"
_cell_length_a       5.46313
_cell_length_b       8.55772
_cell_length_c       10.54
_cell_angle_alpha    113.95
_cell_angle_beta     90.0466
_cell_angle_gamma    89.9999

_space_group_name_H-M_alt    "P 1"
_space_group_IT_number       1

loop_
  _space_group_symop_operation_xyz
  'x, y, z'

loop_
  _atom_site_type_symbol
  _atom_site_label
  _atom_site_symmetry_multiplicity
  _atom_site_fract_x
  _atom_site_fract_y
  _atom_site_fract_z
  _atom_site_occupancy
  O   O2        1.0  0.61458  0.33570  0.25199  1.0000
  Ba  Ba1       1.0  0.74179  0.86978  0.73953  1.0000
  Ba  Ba2       1.0  0.27726  0.61883  0.23764  1.0000
  Ba  Ba2       1.0  0.77519  0.38115  0.76233  1.0000
  O   O1        1.0  0.09743  0.25968  0.07423  1.0000
  O   O1        1.0  0.09745  0.81453  0.07421  1.0000
  O   O1        1.0  0.59831  0.73832  0.92392  1.0000
  O   O1        1.0  0.59830  0.18565  0.92396  1.0000
  Ba  Ba1       1.0  0.24327  0.13028  0.26057  1.0000
  O   O2        1.0  0.61462  0.91628  0.25196  1.0000
  O   O2        1.0  0.12130  0.66402  0.74768  1.0000
  O   O2        1.0  0.12134  0.08367  0.74771  1.0000
  O   O3        1.0  0.09237  0.49532  0.42035  1.0000
  O   O3        1.0  0.09236  0.92502  0.42038  1.0000
  O   O3        1.0  0.59289  0.50662  0.58122  1.0000
  O   O3        1.0  0.59291  0.07459  0.58120  1.0000
  O   O4        1.0  0.25903  0.45192  0.90382  1.0000
  O   O4        1.0  0.76212  0.54794  0.09585  1.0000
  O   O5        1.0  0.15580  0.28485  0.56973  1.0000
  O   O5        1.0  0.65673  0.71576  0.43154  1.0000
  Fe  Fe1       1.0  0.76801  0.32458  0.08617  1.0000
  Fe  Fe1       1.0  0.76802  0.76159  0.08613  1.0000
  Fe  Fe1       1.0  0.26733  0.67507  0.91268  1.0000
  Fe  Fe1       1.0  0.26731  0.23764  0.91271  1.0000
  Fe  Fe2       1.0  0.74877  0.50168  0.42028  1.0000
  Fe  Fe2       1.0  0.74876  0.91858  0.42026  1.0000
  Fe  Fe2       1.0  0.24837  0.49912  0.58095  1.0000
  Fe  Fe2       1.0  0.24839  0.08183  0.58097  1.0000
