data_image0
_chemical_formula_structural       OBa7O2BaO41Fe24
_chemical_formula_sum              "O44 Ba8 Fe24"
_cell_length_a       23.3128
_cell_length_b       5.23698
_cell_length_c       9.00555
_cell_angle_alpha    89.9963
_cell_angle_beta     90.0392
_cell_angle_gamma    89.9391

_space_group_name_H-M_alt    "P 1"
_space_group_IT_number       1

loop_
  _space_group_symop_operation_xyz
  'x, y, z'

loop_
  _atom_site_type_symbol
  _atom_site_label
  _atom_site_symmetry_multiplicity
  _atom_site_fract_x
  _atom_site_fract_y
  _atom_site_fract_z
  _atom_site_occupancy
  O   O2        1.0  0.21584  0.53064  0.76182  1.0000
  Ba  Ba1       1.0  0.14095  0.38641  0.00106  1.0000
  Ba  Ba2       1.0  0.35996  0.89007  0.50349  1.0000
  Ba  Ba2       1.0  0.86000  0.60789  0.00493  1.0000
  Ba  Ba3       1.0  0.84522  0.53375  0.50210  1.0000
  Ba  Ba3       1.0  0.34616  0.96816  0.00138  1.0000
  Ba  Ba4       1.0  0.15297  0.46689  0.50139  1.0000
  Ba  Ba4       1.0  0.65239  0.02996  0.00036  1.0000
  O   O1        1.0  0.78604  0.47695  0.76640  1.0000
  O   O1        1.0  0.28542  0.03054  0.74092  1.0000
  Ba  Ba1       1.0  0.64084  0.11219  0.49899  1.0000
  O   O2        1.0  0.71291  0.97713  0.73896  1.0000
  O   O3        1.0  0.21537  0.53054  0.24133  1.0000
  O   O3        1.0  0.71366  0.97181  0.26123  1.0000
  O   O4        1.0  0.78630  0.47070  0.23902  1.0000
  O   O4        1.0  0.28475  0.02963  0.26262  1.0000
  O   O5        1.0  0.54918  0.31667  0.65987  1.0000
  O   O5        1.0  0.04855  0.17702  0.84032  1.0000
  O   O6        1.0  0.45152  0.67315  0.65638  1.0000
  O   O6        1.0  0.95110  0.82278  0.83885  1.0000
  O   O7        1.0  0.45043  0.67464  0.34455  1.0000
  O   O7        1.0  0.95214  0.82691  0.15345  1.0000
  O   O8        1.0  0.54836  0.32523  0.34578  1.0000
  O   O8        1.0  0.04924  0.18264  0.15655  1.0000
  O   O9        1.0  0.95025  0.35104  0.66301  1.0000
  O   O9        1.0  0.44982  0.14534  0.84052  1.0000
  O   O10       1.0  0.04923  0.64905  0.66087  1.0000
  O   O10       1.0  0.54969  0.85267  0.83526  1.0000
  O   O11       1.0  0.05001  0.64671  0.33364  1.0000
  O   O11       1.0  0.54938  0.85368  0.16108  1.0000
  O   O12       1.0  0.94984  0.35307  0.33925  1.0000
  O   O12       1.0  0.44945  0.14525  0.16276  1.0000
  O   O13       1.0  0.84523  0.99748  0.67038  1.0000
  O   O13       1.0  0.34712  0.50769  0.82096  1.0000
  O   O14       1.0  0.15436  0.01142  0.67369  1.0000
  O   O14       1.0  0.65293  0.49709  0.82078  1.0000
  O   O15       1.0  0.15270  0.01081  0.31655  1.0000
  O   O15       1.0  0.65291  0.49086  0.18516  1.0000
  O   O16       1.0  0.84741  0.98716  0.31221  1.0000
  O   O16       1.0  0.34644  0.50370  0.17816  1.0000
  O   O17       1.0  0.54484  0.82775  0.49950  1.0000
  O   O17       1.0  0.04497  0.67001  0.99768  1.0000
  O   O18       1.0  0.45628  0.16754  0.50112  1.0000
  O   O18       1.0  0.95592  0.33222  0.99963  1.0000
  O   O19       1.0  0.05462  0.17621  0.50014  1.0000
  O   O19       1.0  0.55508  0.32481  0.00240  1.0000
  O   O20       1.0  0.94570  0.81951  0.49847  1.0000
  O   O20       1.0  0.44567  0.67881  0.00098  1.0000
  O   O21       1.0  0.70402  0.56466  0.50185  1.0000
  O   O21       1.0  0.20243  0.93724  0.99998  1.0000
  O   O22       1.0  0.29979  0.43709  0.50095  1.0000
  O   O22       1.0  0.79728  0.06387  0.99863  1.0000
  Fe  Fe1       1.0  0.49861  0.50151  0.49956  1.0000
  Fe  Fe1       1.0  0.99889  0.99837  0.99628  1.0000
  Fe  Fe2       1.0  0.49766  0.99345  0.00301  1.0000
  Fe  Fe2       1.0  0.99773  0.50536  0.49939  1.0000
  Fe  Fe3       1.0  0.50260  0.00149  0.66991  1.0000
  Fe  Fe3       1.0  0.00056  0.49924  0.83048  1.0000
  Fe  Fe4       1.0  0.50030  0.99996  0.33567  1.0000
  Fe  Fe4       1.0  0.00273  0.49826  0.16626  1.0000
  Fe  Fe5       1.0  0.92631  0.01064  0.67639  1.0000
  Fe  Fe5       1.0  0.42691  0.48990  0.82183  1.0000
  Fe  Fe6       1.0  0.07305  0.99139  0.67601  1.0000
  Fe  Fe6       1.0  0.57285  0.50727  0.82394  1.0000
  Fe  Fe7       1.0  0.07281  0.99320  0.32191  1.0000
  Fe  Fe7       1.0  0.57295  0.50729  0.17860  1.0000
  Fe  Fe8       1.0  0.92700  0.00880  0.31917  1.0000
  Fe  Fe8       1.0  0.42616  0.48991  0.17870  1.0000
  Fe  Fe9       1.0  0.71360  0.61486  0.70789  1.0000
  Fe  Fe9       1.0  0.21425  0.88470  0.79321  1.0000
  Fe  Fe10      1.0  0.28662  0.38461  0.70773  1.0000
  Fe  Fe10      1.0  0.78564  0.11462  0.79449  1.0000
  Fe  Fe11      1.0  0.28633  0.38412  0.29438  1.0000
  Fe  Fe11      1.0  0.78595  0.11041  0.20422  1.0000
  Fe  Fe12      1.0  0.71395  0.61116  0.29559  1.0000
  Fe  Fe12      1.0  0.21384  0.88451  0.20805  1.0000
