data_image0
_chemical_formula_structural       OCaCoCaO2
_chemical_formula_sum              "O3 Ca2 Co1"
_cell_length_a       3.31575
_cell_length_b       3.70424
_cell_length_c       6.62118
_cell_angle_alpha    73.7564
_cell_angle_beta     75.5036
_cell_angle_gamma    89.9932

_space_group_name_H-M_alt    "P 1"
_space_group_IT_number       1

loop_
  _space_group_symop_operation_xyz
  'x, y, z'

loop_
  _atom_site_type_symbol
  _atom_site_label
  _atom_site_symmetry_multiplicity
  _atom_site_fract_x
  _atom_site_fract_y
  _atom_site_fract_z
  _atom_site_occupancy
  O   O1        1.0  0.65526  0.23902  0.49582  1.0000
  Ca  Ca1       1.0  0.00458  0.08791  0.79797  1.0000
  Co  Co1       1.0  0.65575  0.73902  0.49583  1.0000
  Ca  Ca1       1.0  0.30678  0.39006  0.19370  1.0000
  O   O2        1.0  0.49570  0.57893  0.81599  1.0000
  O   O2        1.0  0.81595  0.89907  0.17568  1.0000
