data_image0
_chemical_formula_structural       OCo11O20CoO15La16
_chemical_formula_sum              "O36 Co12 La16"
_cell_length_a       5.50635
_cell_length_b       28.6879
_cell_length_c       5.77397
_cell_angle_alpha    89.9962
_cell_angle_beta     90.0022
_cell_angle_gamma    90.0266

_space_group_name_H-M_alt    "P 1"
_space_group_IT_number       1

loop_
  _space_group_symop_operation_xyz
  'x, y, z'

loop_
  _atom_site_type_symbol
  _atom_site_label
  _atom_site_symmetry_multiplicity
  _atom_site_fract_x
  _atom_site_fract_y
  _atom_site_fract_z
  _atom_site_occupancy
  O   O4        1.0  0.48164  0.11951  0.76643  1.0000
  Co  Co1       1.0  0.20240  0.25010  0.55940  1.0000
  Co  Co1       1.0  0.29731  0.74994  0.05966  1.0000
  Co  Co1       1.0  0.79730  0.74995  0.44042  1.0000
  Co  Co2       1.0  0.74931  0.11028  0.99915  1.0000
  Co  Co2       1.0  0.24910  0.38972  0.50065  1.0000
  Co  Co2       1.0  0.25062  0.61035  0.00062  1.0000
  Co  Co2       1.0  0.75102  0.88954  0.49940  1.0000
  Co  Co2       1.0  0.25103  0.88954  0.00061  1.0000
  Co  Co2       1.0  0.75062  0.61035  0.49953  1.0000
  Co  Co2       1.0  0.74910  0.38977  0.99965  1.0000
  Co  Co2       1.0  0.24910  0.11000  0.50089  1.0000
  O   O1        1.0  0.83860  0.25019  0.61477  1.0000
  O   O1        1.0  0.33827  0.25026  0.88492  1.0000
  O   O1        1.0  0.16200  0.74993  0.38591  1.0000
  O   O1        1.0  0.66201  0.74993  0.11416  1.0000
  O   O2        1.0  0.73635  0.03083  0.93056  1.0000
  O   O2        1.0  0.23746  0.46920  0.56887  1.0000
  O   O2        1.0  0.26206  0.53091  0.06884  1.0000
  O   O2        1.0  0.76323  0.96891  0.43081  1.0000
  O   O2        1.0  0.26322  0.96892  0.06922  1.0000
  O   O2        1.0  0.76200  0.53091  0.43137  1.0000
  O   O2        1.0  0.73757  0.46920  0.93139  1.0000
  O   O2        1.0  0.23636  0.03085  0.56929  1.0000
  O   O3        1.0  0.51249  0.10213  0.26280  1.0000
  O   O3        1.0  0.00827  0.39717  0.24178  1.0000
  O   O3        1.0  0.49159  0.60295  0.74188  1.0000
  O   O3        1.0  0.99135  0.89701  0.75885  1.0000
  O   O3        1.0  0.49134  0.89701  0.74117  1.0000
  O   O3        1.0  0.99159  0.60295  0.75829  1.0000
  O   O3        1.0  0.50834  0.39718  0.25850  1.0000
  O   O3        1.0  0.01252  0.10221  0.23712  1.0000
  Co  Co1       1.0  0.70258  0.25007  0.94091  1.0000
  O   O4        1.0  0.98538  0.38128  0.73799  1.0000
  O   O4        1.0  0.51418  0.61881  0.23798  1.0000
  O   O4        1.0  0.01527  0.88103  0.26275  1.0000
  O   O4        1.0  0.51525  0.88103  0.23730  1.0000
  O   O4        1.0  0.01418  0.61880  0.26216  1.0000
  O   O4        1.0  0.48541  0.38130  0.76241  1.0000
  O   O4        1.0  0.98167  0.11956  0.73316  1.0000
  O   O5        1.0  0.78188  0.18945  0.07522  1.0000
  O   O5        1.0  0.28216  0.31073  0.42478  1.0000
  O   O5        1.0  0.21746  0.68945  0.92473  1.0000
  O   O5        1.0  0.71765  0.81044  0.57540  1.0000
  O   O5        1.0  0.21765  0.81044  0.92467  1.0000
  O   O5        1.0  0.71746  0.68945  0.57538  1.0000
  O   O5        1.0  0.78230  0.31057  0.07578  1.0000
  O   O5        1.0  0.28407  0.18976  0.42206  1.0000
  La  La1       1.0  0.76163  0.04973  0.51655  1.0000
  La  La1       1.0  0.25929  0.45016  0.98278  1.0000
  La  La1       1.0  0.24057  0.54994  0.48275  1.0000
  La  La1       1.0  0.74055  0.94998  0.01714  1.0000
  La  La1       1.0  0.24053  0.94997  0.48282  1.0000
  La  La1       1.0  0.74055  0.54995  0.01745  1.0000
  La  La1       1.0  0.75933  0.45016  0.51747  1.0000
  La  La1       1.0  0.26171  0.04974  0.98351  1.0000
  La  La2       1.0  0.73179  0.17274  0.48128  1.0000
  La  La2       1.0  0.23374  0.32764  0.01910  1.0000
  La  La2       1.0  0.26584  0.67244  0.51907  1.0000
  La  La2       1.0  0.76638  0.82742  0.98109  1.0000
  La  La2       1.0  0.26638  0.82741  0.51897  1.0000
  La  La2       1.0  0.76584  0.67245  0.98105  1.0000
  La  La2       1.0  0.73371  0.32764  0.48132  1.0000
  La  La2       1.0  0.23246  0.17274  0.01803  1.0000
