data_image0
_chemical_formula_structural       OSr2Fe2SrO5
_chemical_formula_sum              "O6 Sr3 Fe2"
_cell_length_a       3.95758
_cell_length_b       3.95758
_cell_length_c       10.433
_cell_angle_alpha    100.933
_cell_angle_beta     100.933
_cell_angle_gamma    90.0006

_space_group_name_H-M_alt    "P 1"
_space_group_IT_number       1

loop_
  _space_group_symop_operation_xyz
  'x, y, z'

loop_
  _atom_site_type_symbol
  _atom_site_label
  _atom_site_symmetry_multiplicity
  _atom_site_fract_x
  _atom_site_fract_y
  _atom_site_fract_z
  _atom_site_occupancy
  O   O1        1.0  0.41527  0.91527  0.83052  1.0000
  Sr  Sr2       1.0  0.67962  0.67962  0.35926  1.0000
  Sr  Sr2       1.0  0.32038  0.32038  0.64074  1.0000
  Fe  Fe1       1.0  0.89729  0.89729  0.79457  1.0000
  Fe  Fe1       1.0  0.10271  0.10271  0.20543  1.0000
  Sr  Sr1       1.0  0.50000  0.50000  0.00000  1.0000
  O   O1        1.0  0.91527  0.41527  0.83052  1.0000
  O   O1        1.0  0.58473  0.08473  0.16948  1.0000
  O   O1        1.0  0.08473  0.58473  0.16948  1.0000
  O   O2        1.0  0.80303  0.80303  0.60606  1.0000
  O   O2        1.0  0.19697  0.19697  0.39394  1.0000
