data_image0
_chemical_formula_structural       OMg7Nb4O6MgO11
_chemical_formula_sum              "O18 Mg8 Nb4"
_cell_length_a       5.23472
_cell_length_b       5.23472
_cell_length_c       14.2506
_cell_angle_alpha    90
_cell_angle_beta     90
_cell_angle_gamma    120

_space_group_name_H-M_alt    "P 1"
_space_group_IT_number       1

loop_
  _space_group_symop_operation_xyz
  'x, y, z'

loop_
  _atom_site_type_symbol
  _atom_site_label
  _atom_site_symmetry_multiplicity
  _atom_site_fract_x
  _atom_site_fract_y
  _atom_site_fract_z
  _atom_site_occupancy
  O   O2        1.0  0.32037  0.34921  0.08410  1.0000
  Mg  Mg1       1.0  0.33333  0.66667  0.48374  1.0000
  Mg  Mg1       1.0  0.66667  0.33333  0.01626  1.0000
  Mg  Mg1       1.0  0.66667  0.33333  0.51626  1.0000
  Mg  Mg2       1.0  0.33333  0.66667  0.69122  1.0000
  Mg  Mg2       1.0  0.33333  0.66667  0.19122  1.0000
  Mg  Mg2       1.0  0.66667  0.33333  0.30878  1.0000
  Mg  Mg2       1.0  0.66667  0.33333  0.80878  1.0000
  Nb  Nb1       1.0  0.00000  1.00000  0.14223  1.0000
  Nb  Nb1       1.0  0.00000  1.00000  0.64223  1.0000
  Nb  Nb1       1.0  1.00000  0.00000  0.85777  1.0000
  Nb  Nb1       1.0  1.00000  0.00000  0.35777  1.0000
  O   O1        1.0  0.29109  0.00000  0.25000  1.0000
  O   O1        1.0  0.70891  0.70891  0.25000  1.0000
  O   O1        1.0  0.00000  0.29109  0.25000  1.0000
  O   O1        1.0  0.29109  0.29109  0.75000  1.0000
  O   O1        1.0  1.00000  0.70891  0.75000  1.0000
  O   O1        1.0  0.70891  1.00000  0.75000  1.0000
  Mg  Mg1       1.0  0.33333  0.66667  0.98374  1.0000
  O   O2        1.0  0.02884  0.67963  0.08410  1.0000
  O   O2        1.0  0.65079  0.97116  0.08410  1.0000
  O   O2        1.0  0.32037  0.97116  0.58410  1.0000
  O   O2        1.0  0.65079  0.67963  0.58410  1.0000
  O   O2        1.0  0.02884  0.34921  0.58410  1.0000
  O   O2        1.0  0.67963  0.65079  0.91590  1.0000
  O   O2        1.0  0.97116  0.32037  0.91590  1.0000
  O   O2        1.0  0.34921  0.02884  0.91590  1.0000
  O   O2        1.0  0.67963  0.02884  0.41590  1.0000
  O   O2        1.0  0.34921  0.32037  0.41590  1.0000
  O   O2        1.0  0.97116  0.65079  0.41590  1.0000
