data_image0
_chemical_formula_structural       OMn9Ba12MnO31
_chemical_formula_sum              "O32 Mn10 Ba12"
_cell_length_a       5.79377
_cell_length_b       7.23795
_cell_length_c       20.5
_cell_angle_alpha    90.0175
_cell_angle_beta     90.0008
_cell_angle_gamma    113.593

_space_group_name_H-M_alt    "P 1"
_space_group_IT_number       1

loop_
  _space_group_symop_operation_xyz
  'x, y, z'

loop_
  _atom_site_type_symbol
  _atom_site_label
  _atom_site_symmetry_multiplicity
  _atom_site_fract_x
  _atom_site_fract_y
  _atom_site_fract_z
  _atom_site_occupancy
  O   O1        1.0  0.51247  0.52499  0.25005  1.0000
  Mn  Mn1       1.0  0.24661  0.49318  0.81095  1.0000
  Mn  Mn1       1.0  0.74601  0.49202  0.68843  1.0000
  Mn  Mn1       1.0  0.25501  0.51004  0.31109  1.0000
  Mn  Mn2       1.0  0.99986  0.99973  0.00019  1.0000
  Mn  Mn2       1.0  0.50015  0.00030  0.49986  1.0000
  Mn  Mn3       1.0  0.87923  0.75847  0.09326  1.0000
  Mn  Mn3       1.0  0.12042  0.24081  0.90711  1.0000
  Mn  Mn3       1.0  0.62069  0.24140  0.59302  1.0000
  Mn  Mn3       1.0  0.37943  0.75885  0.40680  1.0000
  Ba  Ba1       1.0  0.62387  0.24775  0.33440  1.0000
  Ba  Ba1       1.0  0.37667  0.75333  0.66482  1.0000
  Ba  Ba1       1.0  0.87659  0.75316  0.83504  1.0000
  Ba  Ba1       1.0  0.12376  0.24754  0.16553  1.0000
  Ba  Ba2       1.0  0.91574  0.83149  0.32195  1.0000
  Ba  Ba2       1.0  0.08495  0.16990  0.67840  1.0000
  Ba  Ba2       1.0  0.58509  0.17016  0.82183  1.0000
  Ba  Ba2       1.0  0.41564  0.83131  0.17806  1.0000
  Ba  Ba3       1.0  0.64452  0.28904  0.02371  1.0000
  Ba  Ba3       1.0  0.35479  0.70957  0.97714  1.0000
  Ba  Ba3       1.0  0.85502  0.71005  0.52279  1.0000
  Ba  Ba3       1.0  0.14481  0.28962  0.47631  1.0000
  Mn  Mn1       1.0  0.75494  0.50990  0.18897  1.0000
  O   O1        1.0  0.98563  0.47104  0.74994  1.0000
  O   O1        1.0  0.48552  0.47105  0.74996  1.0000
  O   O1        1.0  0.01250  0.52499  0.25005  1.0000
  O   O2        1.0  0.61600  0.23203  0.18628  1.0000
  O   O2        1.0  0.38463  0.76925  0.81309  1.0000
  O   O2        1.0  0.88428  0.76854  0.68674  1.0000
  O   O2        1.0  0.11610  0.23222  0.31386  1.0000
  O   O3        1.0  0.91225  0.82449  0.18401  1.0000
  O   O3        1.0  0.08719  0.17437  0.81661  1.0000
  O   O3        1.0  0.58759  0.17522  0.68339  1.0000
  O   O3        1.0  0.41236  0.82470  0.31607  1.0000
  O   O4        1.0  0.85348  0.70706  0.99982  1.0000
  O   O4        1.0  0.14614  0.29224  0.00074  1.0000
  O   O4        1.0  0.64633  0.29263  0.49942  1.0000
  O   O4        1.0  0.35379  0.70764  0.50025  1.0000
  O   O5        1.0  0.75886  0.96445  0.06901  1.0000
  O   O5        1.0  0.79384  0.03461  0.93149  1.0000
  O   O5        1.0  0.29433  0.03526  0.56863  1.0000
  O   O5        1.0  0.25906  0.96490  0.43107  1.0000
  O   O5        1.0  0.24075  0.03458  0.93149  1.0000
  O   O5        1.0  0.20558  0.96440  0.06901  1.0000
  O   O5        1.0  0.70586  0.96487  0.43109  1.0000
  O   O5        1.0  0.74088  0.03524  0.56864  1.0000
  O   O6        1.0  0.49148  0.55067  0.38400  1.0000
  O   O6        1.0  0.94134  0.45017  0.61570  1.0000
  O   O6        1.0  0.44057  0.44966  0.88403  1.0000
  O   O6        1.0  0.99122  0.55028  0.11610  1.0000
  O   O6        1.0  0.50883  0.45019  0.61571  1.0000
  O   O6        1.0  0.05920  0.55067  0.38400  1.0000
  O   O6        1.0  0.55903  0.55029  0.11610  1.0000
  O   O6        1.0  0.00913  0.44967  0.88402  1.0000
