data_image0
_chemical_formula_structural       OSrFe24OSrO36
_chemical_formula_sum              "O38 Sr2 Fe24"
_cell_length_a       5.93763
_cell_length_b       5.94968
_cell_length_c       23.2024
_cell_angle_alpha    89.9643
_cell_angle_beta     89.988
_cell_angle_gamma    120.033

_space_group_name_H-M_alt    "P 1"
_space_group_IT_number       1

loop_
  _space_group_symop_operation_xyz
  'x, y, z'

loop_
  _atom_site_type_symbol
  _atom_site_label
  _atom_site_symmetry_multiplicity
  _atom_site_fract_x
  _atom_site_fract_y
  _atom_site_fract_z
  _atom_site_occupancy
  O   O2        1.0  0.99846  0.99875  0.65121  1.0000
  Sr  Sr2       1.0  0.32848  0.66196  0.74975  1.0000
  Fe  Fe1       1.0  0.99844  0.99822  0.50033  1.0000
  Fe  Fe2       1.0  0.99895  0.00213  0.00058  1.0000
  Fe  Fe3       1.0  0.00040  0.99989  0.25602  1.0000
  Fe  Fe4       1.0  0.99716  0.99646  0.75418  1.0000
  Fe  Fe5       1.0  0.33382  0.66915  0.47286  1.0000
  Fe  Fe6       1.0  0.66551  0.33209  0.52755  1.0000
  Fe  Fe7       1.0  0.66504  0.33202  0.97294  1.0000
  Fe  Fe8       1.0  0.33442  0.66537  0.02672  1.0000
  Fe  Fe9       1.0  0.33400  0.66851  0.30843  1.0000
  Fe  Fe10      1.0  0.66475  0.33174  0.69052  1.0000
  Fe  Fe11      1.0  0.66224  0.32643  0.80830  1.0000
  Fe  Fe12      1.0  0.33443  0.66586  0.19146  1.0000
  Fe  Fe13      1.0  0.16683  0.83004  0.60918  1.0000
  Fe  Fe13      1.0  0.66112  0.82999  0.60923  1.0000
  Fe  Fe14      1.0  0.16687  0.33575  0.60908  1.0000
  Fe  Fe15      1.0  0.83501  0.17465  0.39050  1.0000
  Fe  Fe15      1.0  0.33926  0.17479  0.39054  1.0000
  Fe  Fe16      1.0  0.83181  0.66426  0.39105  1.0000
  Fe  Fe17      1.0  0.83765  0.16320  0.11093  1.0000
  Fe  Fe17      1.0  0.34176  0.16532  0.10931  1.0000
  Fe  Fe18      1.0  0.83527  0.65924  0.10920  1.0000
  Fe  Fe19      1.0  0.16556  0.82361  0.89042  1.0000
  Fe  Fe19      1.0  0.65566  0.82338  0.89020  1.0000
  Fe  Fe20      1.0  0.16203  0.32619  0.88959  1.0000
  O   O1        1.0  0.00219  0.00456  0.34766  1.0000
  Sr  Sr1       1.0  0.66875  0.33531  0.24853  1.0000
  O   O3        1.0  0.99893  0.99985  0.84702  1.0000
  O   O4        1.0  0.00386  0.99641  0.15081  1.0000
  O   O5        1.0  0.66854  0.33758  0.44428  1.0000
  O   O6        1.0  0.33200  0.66576  0.55509  1.0000
  O   O7        1.0  0.33737  0.67640  0.94476  1.0000
  O   O8        1.0  0.66310  0.33741  0.05503  1.0000
  O   O9        1.0  0.17961  0.81697  0.24993  1.0000
  O   O9        1.0  0.63859  0.81893  0.25047  1.0000
  O   O10       1.0  0.17970  0.36234  0.25100  1.0000
  O   O11       1.0  0.81763  0.18016  0.75003  1.0000
  O   O11       1.0  0.36085  0.17922  0.75000  1.0000
  O   O12       1.0  0.81729  0.63454  0.75012  1.0000
  O   O13       1.0  0.15545  0.84384  0.44751  1.0000
  O   O13       1.0  0.68722  0.84359  0.44741  1.0000
  O   O14       1.0  0.15404  0.30884  0.44745  1.0000
  O   O15       1.0  0.84114  0.15594  0.55243  1.0000
  O   O15       1.0  0.31340  0.15620  0.55249  1.0000
  O   O16       1.0  0.84127  0.68441  0.55256  1.0000
  O   O17       1.0  0.84893  0.16372  0.94614  1.0000
  O   O17       1.0  0.31158  0.16359  0.94611  1.0000
  O   O18       1.0  0.84427  0.69141  0.94642  1.0000
  O   O19       1.0  0.15548  0.84631  0.05233  1.0000
  O   O19       1.0  0.68694  0.84681  0.05252  1.0000
  O   O20       1.0  0.15465  0.31422  0.05258  1.0000
  O   O21       1.0  0.51014  0.50322  0.34897  1.0000
  O   O21       1.0  0.99285  0.50358  0.34911  1.0000
  O   O22       1.0  0.51009  0.02109  0.34707  1.0000
  O   O23       1.0  0.49412  0.50251  0.65138  1.0000
  O   O23       1.0  0.00608  0.50230  0.65122  1.0000
  O   O24       1.0  0.49442  0.99072  0.65137  1.0000
  O   O25       1.0  0.49209  0.50691  0.84770  1.0000
  O   O25       1.0  0.01239  0.50690  0.84796  1.0000
  O   O26       1.0  0.49511  0.99249  0.84815  1.0000
  O   O27       1.0  0.51049  0.48974  0.15338  1.0000
  O   O27       1.0  0.99271  0.48897  0.15131  1.0000
  O   O28       1.0  0.51178  0.00822  0.15158  1.0000
