data_image0
_chemical_formula_structural       OFe4O9Ti2
_chemical_formula_sum              "O10 Fe4 Ti2"
_cell_length_a       5.06915
_cell_length_b       5.70428
_cell_length_c       7.12029
_cell_angle_alpha    108.912
_cell_angle_beta     89.9993
_cell_angle_gamma    116.38

_space_group_name_H-M_alt    "P 1"
_space_group_IT_number       1

loop_
  _space_group_symop_operation_xyz
  'x, y, z'

loop_
  _atom_site_type_symbol
  _atom_site_label
  _atom_site_symmetry_multiplicity
  _atom_site_fract_x
  _atom_site_fract_y
  _atom_site_fract_z
  _atom_site_occupancy
  O   O1        1.0  0.33893  0.37266  0.65249  1.0000
  Fe  Fe1       1.0  0.62894  0.26980  0.72672  1.0000
  Fe  Fe1       1.0  0.64083  0.26974  0.22672  1.0000
  Fe  Fe1       1.0  0.37106  0.73020  0.27328  1.0000
  Fe  Fe1       1.0  0.35916  0.73026  0.77328  1.0000
  O   O1        1.0  0.96629  0.62736  0.84752  1.0000
  O   O1        1.0  0.66107  0.62734  0.34751  1.0000
  O   O1        1.0  0.03371  0.37264  0.15248  1.0000
  O   O2        1.0  0.58411  0.83495  0.05064  1.0000
  O   O2        1.0  0.74918  0.16507  0.44937  1.0000
  O   O2        1.0  0.41589  0.16505  0.94936  1.0000
  O   O2        1.0  0.25082  0.83494  0.55063  1.0000
  O   O3        1.0  0.18735  0.00000  0.25000  1.0000
  O   O3        1.0  0.81266  1.00000  0.75000  1.0000
  Ti  Ti1       1.0  0.00001  0.00000  0.49999  1.0000
  Ti  Ti1       1.0  1.00000  0.00000  0.99999  1.0000
