data_image0
_chemical_formula_structural       ONb3O8NbO19La12
_chemical_formula_sum              "O28 Nb4 La12"
_cell_length_a       7.87559
_cell_length_b       11.2741
_cell_length_c       7.85957
_cell_angle_alpha    90
_cell_angle_beta     90
_cell_angle_gamma    90

_space_group_name_H-M_alt    "P 1"
_space_group_IT_number       1

loop_
  _space_group_symop_operation_xyz
  'x, y, z'

loop_
  _atom_site_type_symbol
  _atom_site_label
  _atom_site_symmetry_multiplicity
  _atom_site_fract_x
  _atom_site_fract_y
  _atom_site_fract_z
  _atom_site_occupancy
  O   O2        1.0  0.74710  0.25000  0.18202  1.0000
  Nb  Nb1       1.0  0.00199  0.25000  0.24974  1.0000
  Nb  Nb1       1.0  0.49801  0.75000  0.74974  1.0000
  Nb  Nb1       1.0  0.99801  0.75000  0.75026  1.0000
  O   O1        1.0  0.46304  0.38197  0.08660  1.0000
  O   O1        1.0  0.96304  0.11803  0.41340  1.0000
  O   O1        1.0  0.53696  0.88197  0.91340  1.0000
  O   O1        1.0  0.03696  0.61803  0.58660  1.0000
  O   O1        1.0  0.53696  0.61803  0.91340  1.0000
  O   O1        1.0  0.03696  0.88197  0.58660  1.0000
  O   O1        1.0  0.46304  0.11803  0.08660  1.0000
  O   O1        1.0  0.96304  0.38197  0.41340  1.0000
  Nb  Nb1       1.0  0.50199  0.25000  0.25026  1.0000
  O   O2        1.0  0.24710  0.25000  0.31798  1.0000
  O   O2        1.0  0.25290  0.75000  0.81798  1.0000
  O   O2        1.0  0.75290  0.75000  0.68202  1.0000
  O   O3        1.0  0.75387  0.38170  0.77133  1.0000
  O   O3        1.0  0.25387  0.11830  0.72866  1.0000
  O   O3        1.0  0.24613  0.88170  0.22866  1.0000
  O   O3        1.0  0.74613  0.61830  0.27133  1.0000
  O   O3        1.0  0.24613  0.61830  0.22866  1.0000
  O   O3        1.0  0.74613  0.88170  0.27134  1.0000
  O   O3        1.0  0.75387  0.11830  0.77134  1.0000
  O   O3        1.0  0.25387  0.38170  0.72866  1.0000
  O   O4        1.0  0.46838  0.87188  0.55240  1.0000
  O   O4        1.0  0.96838  0.62812  0.94760  1.0000
  O   O4        1.0  0.53162  0.37188  0.44760  1.0000
  O   O4        1.0  0.03162  0.12812  0.05240  1.0000
  O   O4        1.0  0.53162  0.12812  0.44760  1.0000
  O   O4        1.0  0.03162  0.37188  0.05240  1.0000
  O   O4        1.0  0.46838  0.62812  0.55240  1.0000
  O   O4        1.0  0.96838  0.87188  0.94760  1.0000
  La  La1       1.0  0.74907  0.47791  0.04219  1.0000
  La  La1       1.0  0.24907  0.02209  0.45781  1.0000
  La  La1       1.0  0.25093  0.97791  0.95781  1.0000
  La  La1       1.0  0.75093  0.52209  0.54219  1.0000
  La  La1       1.0  0.25093  0.52209  0.95781  1.0000
  La  La1       1.0  0.75093  0.97791  0.54219  1.0000
  La  La1       1.0  0.74907  0.02209  0.04219  1.0000
  La  La1       1.0  0.24907  0.47791  0.45781  1.0000
  La  La2       1.0  0.50808  0.25000  0.71777  1.0000
  La  La2       1.0  0.00808  0.25000  0.78223  1.0000
  La  La2       1.0  0.49192  0.75000  0.28223  1.0000
  La  La2       1.0  0.99192  0.75000  0.21777  1.0000
