data_image0
_chemical_formula_structural       OMg3Nb8MgO23
_chemical_formula_sum              "O24 Mg4 Nb8"
_cell_length_a       14.4239
_cell_length_b       5.81383
_cell_length_c       5.14465
_cell_angle_alpha    90
_cell_angle_beta     90
_cell_angle_gamma    90

_space_group_name_H-M_alt    "P 1"
_space_group_IT_number       1

loop_
  _space_group_symop_operation_xyz
  'x, y, z'

loop_
  _atom_site_type_symbol
  _atom_site_label
  _atom_site_symmetry_multiplicity
  _atom_site_fract_x
  _atom_site_fract_y
  _atom_site_fract_z
  _atom_site_occupancy
  O   O1        1.0  0.09517  0.60779  0.92713  1.0000
  Mg  Mg1       1.0  0.50000  0.66091  0.25000  1.0000
  Mg  Mg1       1.0  0.00000  0.16091  0.25000  1.0000
  Mg  Mg1       1.0  0.50000  0.33909  0.75000  1.0000
  Nb  Nb1       1.0  0.15973  0.67863  0.25555  1.0000
  Nb  Nb1       1.0  0.34027  0.82137  0.75555  1.0000
  Nb  Nb1       1.0  0.65973  0.82137  0.74445  1.0000
  Nb  Nb1       1.0  0.84027  0.67863  0.24445  1.0000
  Nb  Nb1       1.0  0.84027  0.32137  0.74445  1.0000
  Nb  Nb1       1.0  0.65973  0.17863  0.24445  1.0000
  Nb  Nb1       1.0  0.34027  0.17863  0.25555  1.0000
  Nb  Nb1       1.0  0.15973  0.32137  0.75555  1.0000
  Mg  Mg1       1.0  0.00000  0.83909  0.75000  1.0000
  O   O1        1.0  0.40483  0.89221  0.42713  1.0000
  O   O1        1.0  0.59517  0.89221  0.07287  1.0000
  O   O1        1.0  0.90483  0.60779  0.57287  1.0000
  O   O1        1.0  0.90483  0.39221  0.07287  1.0000
  O   O1        1.0  0.59517  0.10779  0.57287  1.0000
  O   O1        1.0  0.40483  0.10779  0.92713  1.0000
  O   O1        1.0  0.09517  0.39221  0.42713  1.0000
  O   O2        1.0  0.07851  0.88361  0.41047  1.0000
  O   O2        1.0  0.42149  0.61639  0.91047  1.0000
  O   O2        1.0  0.57851  0.61639  0.58953  1.0000
  O   O2        1.0  0.92149  0.88361  0.08953  1.0000
  O   O2        1.0  0.92149  0.11639  0.58953  1.0000
  O   O2        1.0  0.57851  0.38361  0.08953  1.0000
  O   O2        1.0  0.42149  0.38361  0.41047  1.0000
  O   O2        1.0  0.07851  0.11639  0.91047  1.0000
  O   O3        1.0  0.25619  0.87671  0.08344  1.0000
  O   O3        1.0  0.24381  0.62329  0.58344  1.0000
  O   O3        1.0  0.75619  0.62329  0.91656  1.0000
  O   O3        1.0  0.74381  0.87671  0.41656  1.0000
  O   O3        1.0  0.74381  0.12329  0.91656  1.0000
  O   O3        1.0  0.75619  0.37671  0.41656  1.0000
  O   O3        1.0  0.24381  0.37671  0.08344  1.0000
  O   O3        1.0  0.25619  0.12329  0.58344  1.0000
