data_image0
_chemical_formula_structural       OSr3Mn4O8SrO
_chemical_formula_sum              "O10 Sr4 Mn4"
_cell_length_a       5.58811
_cell_length_b       10.9665
_cell_length_c       3.85217
_cell_angle_alpha    90
_cell_angle_beta     90
_cell_angle_gamma    90

_space_group_name_H-M_alt    "P 1"
_space_group_IT_number       1

loop_
  _space_group_symop_operation_xyz
  'x, y, z'

loop_
  _atom_site_type_symbol
  _atom_site_label
  _atom_site_symmetry_multiplicity
  _atom_site_fract_x
  _atom_site_fract_y
  _atom_site_fract_z
  _atom_site_occupancy
  O   O3        1.0  0.50000  0.50000  0.50000  1.0000
  Sr  Sr1       1.0  0.21591  0.86612  1.00000  1.0000
  Sr  Sr1       1.0  0.28409  0.36612  1.00000  1.0000
  Sr  Sr1       1.0  0.71591  0.63388  1.00000  1.0000
  Mn  Mn1       1.0  0.75869  0.37723  0.50000  1.0000
  Mn  Mn1       1.0  0.24131  0.62277  0.50000  1.0000
  Mn  Mn1       1.0  0.25869  0.12277  0.50000  1.0000
  Mn  Mn1       1.0  0.74131  0.87723  0.50000  1.0000
  O   O1        1.0  0.79549  0.40054  1.00000  1.0000
  O   O1        1.0  0.20451  0.59946  1.00000  1.0000
  O   O1        1.0  0.29549  0.09946  1.00000  1.0000
  O   O1        1.0  0.70451  0.90054  1.00000  1.0000
  O   O2        1.0  0.02864  0.27073  0.50000  1.0000
  O   O2        1.0  0.97136  0.72927  0.50000  1.0000
  O   O2        1.0  0.52864  0.22927  0.50000  1.0000
  O   O2        1.0  0.47136  0.77073  0.50000  1.0000
  Sr  Sr1       1.0  0.78409  0.13388  1.00000  1.0000
  O   O3        1.0  0.00000  0.00000  0.50000  1.0000
