data_image0
_chemical_formula_structural       OSr15Mn12O16SrO23
_chemical_formula_sum              "O40 Sr16 Mn12"
_cell_length_a       5.54114
_cell_length_b       12.5137
_cell_length_c       12.8361
_cell_angle_alpha    90.05
_cell_angle_beta     90
_cell_angle_gamma    90.0006

_space_group_name_H-M_alt    "P 1"
_space_group_IT_number       1

loop_
  _space_group_symop_operation_xyz
  'x, y, z'

loop_
  _atom_site_type_symbol
  _atom_site_label
  _atom_site_symmetry_multiplicity
  _atom_site_fract_x
  _atom_site_fract_y
  _atom_site_fract_z
  _atom_site_occupancy
  O   O2        1.0  0.50009  0.11449  0.24983  1.0000
  Sr  Sr1       1.0  0.75000  0.73818  0.88501  1.0000
  Sr  Sr1       1.0  0.25000  0.73807  0.61517  1.0000
  Sr  Sr1       1.0  0.24999  0.26181  0.38345  1.0000
  Sr  Sr1       1.0  0.25003  0.76149  0.11546  1.0000
  Sr  Sr1       1.0  0.25003  0.23837  0.88591  1.0000
  Sr  Sr1       1.0  0.75003  0.23826  0.61470  1.0000
  Sr  Sr1       1.0  0.75002  0.76146  0.38422  1.0000
  Sr  Sr2       1.0  0.74997  0.46887  0.35730  1.0000
  Sr  Sr2       1.0  0.75002  0.53049  0.64293  1.0000
  Sr  Sr2       1.0  0.25002  0.53102  0.85697  1.0000
  Sr  Sr2       1.0  0.24997  0.46857  0.14276  1.0000
  Sr  Sr2       1.0  0.25000  0.96940  0.35738  1.0000
  Sr  Sr2       1.0  0.25002  0.03076  0.64277  1.0000
  Sr  Sr2       1.0  0.75002  0.03120  0.85692  1.0000
  Sr  Sr2       1.0  0.75000  0.96887  0.14243  1.0000
  Mn  Mn1       1.0  0.75000  0.12944  0.34727  1.0000
  Mn  Mn1       1.0  0.75001  0.86902  0.65283  1.0000
  Mn  Mn1       1.0  0.25001  0.86980  0.84788  1.0000
  Mn  Mn1       1.0  0.25000  0.12924  0.15253  1.0000
  Mn  Mn1       1.0  0.24996  0.63103  0.34693  1.0000
  Mn  Mn1       1.0  0.25002  0.36879  0.65320  1.0000
  Mn  Mn1       1.0  0.75003  0.36971  0.84801  1.0000
  Mn  Mn1       1.0  0.74997  0.63014  0.15202  1.0000
  Mn  Mn2       1.0  0.75000  0.00033  0.49962  1.0000
  Mn  Mn2       1.0  0.25000  0.99996  0.99998  1.0000
  Mn  Mn2       1.0  0.25002  0.49996  0.50006  1.0000
  Mn  Mn2       1.0  0.75003  0.49994  0.00001  1.0000
  O   O1        1.0  0.52100  0.10988  0.46237  1.0000
  O   O1        1.0  0.52149  0.89057  0.53742  1.0000
  O   O1        1.0  0.47921  0.89026  0.96288  1.0000
  O   O1        1.0  0.47887  0.10948  0.03735  1.0000
  O   O1        1.0  0.52087  0.60974  0.03714  1.0000
  O   O1        1.0  0.52083  0.39044  0.96290  1.0000
  O   O1        1.0  0.47870  0.39039  0.53788  1.0000
  O   O1        1.0  0.47870  0.60972  0.46210  1.0000
  O   O1        1.0  0.02136  0.60972  0.46217  1.0000
  O   O1        1.0  0.02137  0.39039  0.53786  1.0000
  O   O1        1.0  0.97926  0.39045  0.96288  1.0000
  O   O1        1.0  0.97921  0.60973  0.03721  1.0000
  O   O1        1.0  0.02112  0.10948  0.03736  1.0000
  O   O1        1.0  0.02077  0.89027  0.96286  1.0000
  O   O1        1.0  0.97850  0.89056  0.53740  1.0000
  O   O1        1.0  0.97899  0.10988  0.46237  1.0000
  Sr  Sr1       1.0  0.74999  0.26141  0.11687  1.0000
  O   O2        1.0  0.50003  0.88735  0.75003  1.0000
  O   O2        1.0  0.99970  0.61289  0.24992  1.0000
  O   O2        1.0  0.99991  0.38720  0.75021  1.0000
  O   O2        1.0  0.99994  0.11448  0.24984  1.0000
  O   O2        1.0  0.00010  0.88736  0.74999  1.0000
  O   O2        1.0  0.49978  0.61290  0.24974  1.0000
  O   O2        1.0  0.49997  0.38719  0.75028  1.0000
  O   O3        1.0  0.74998  0.46266  0.14463  1.0000
  O   O3        1.0  0.75005  0.53747  0.85550  1.0000
  O   O3        1.0  0.25006  0.53779  0.64469  1.0000
  O   O3        1.0  0.24999  0.46236  0.35526  1.0000
  O   O3        1.0  0.24999  0.96265  0.14505  1.0000
  O   O3        1.0  0.25001  0.03736  0.85565  1.0000
  O   O3        1.0  0.75001  0.03763  0.64425  1.0000
  O   O3        1.0  0.74999  0.96269  0.35462  1.0000
  O   O4        1.0  0.75001  0.27509  0.34199  1.0000
  O   O4        1.0  0.75000  0.72419  0.65829  1.0000
  O   O4        1.0  0.24999  0.72478  0.84166  1.0000
  O   O4        1.0  0.24999  0.27488  0.15752  1.0000
  O   O4        1.0  0.24997  0.77604  0.34140  1.0000
  O   O4        1.0  0.25001  0.22402  0.65875  1.0000
  O   O4        1.0  0.75004  0.22468  0.84196  1.0000
  O   O4        1.0  0.74999  0.77534  0.15821  1.0000
