data_image0
_chemical_formula_structural       OSr7Mn6O8SrO11
_chemical_formula_sum              "O20 Sr8 Mn6"
_cell_length_a       5.54144
_cell_length_b       6.84126
_cell_length_c       12.8292
_cell_angle_alpha    89.9677
_cell_angle_beta     90.0004
_cell_angle_gamma    113.891

_space_group_name_H-M_alt    "P 1"
_space_group_IT_number       1

loop_
  _space_group_symop_operation_xyz
  'x, y, z'

loop_
  _atom_site_type_symbol
  _atom_site_label
  _atom_site_symmetry_multiplicity
  _atom_site_fract_x
  _atom_site_fract_y
  _atom_site_fract_z
  _atom_site_occupancy
  O   O3        1.0  0.38044  0.21916  0.46292  1.0000
  Sr  Sr1       1.0  0.03156  0.06314  0.64264  1.0000
  Sr  Sr1       1.0  0.53128  0.06255  0.85770  1.0000
  Sr  Sr1       1.0  0.46903  0.93805  0.14280  1.0000
  Sr  Sr2       1.0  0.76166  0.52329  0.11472  1.0000
  Sr  Sr2       1.0  0.23859  0.47721  0.88352  1.0000
  Sr  Sr2       1.0  0.73864  0.47730  0.61619  1.0000
  Sr  Sr2       1.0  0.26143  0.52284  0.38504  1.0000
  Mn  Mn1       1.0  0.49998  0.99997  0.49993  1.0000
  Mn  Mn1       1.0  0.00037  0.00073  0.00042  1.0000
  Mn  Mn2       1.0  0.63019  0.26038  0.34774  1.0000
  Mn  Mn2       1.0  0.37079  0.74158  0.65251  1.0000
  Mn  Mn2       1.0  0.87009  0.74016  0.84668  1.0000
  Mn  Mn2       1.0  0.13039  0.26078  0.15238  1.0000
  O   O1        1.0  0.53727  0.07452  0.64514  1.0000
  O   O1        1.0  0.46239  0.92485  0.35557  1.0000
  O   O1        1.0  0.96242  0.92485  0.14474  1.0000
  O   O1        1.0  0.03751  0.07501  0.85495  1.0000
  O   O2        1.0  0.77523  0.55048  0.34163  1.0000
  O   O2        1.0  0.22505  0.45010  0.65777  1.0000
  O   O2        1.0  0.72464  0.44917  0.84227  1.0000
  O   O2        1.0  0.27540  0.55085  0.15861  1.0000
  Sr  Sr1       1.0  0.96880  0.93758  0.35719  1.0000
  O   O3        1.0  0.16150  0.78074  0.53740  1.0000
  O   O3        1.0  0.66245  0.78162  0.96233  1.0000
  O   O3        1.0  0.88065  0.21989  0.03735  1.0000
  O   O3        1.0  0.61920  0.78071  0.53739  1.0000
  O   O3        1.0  0.83873  0.21912  0.46290  1.0000
  O   O3        1.0  0.33924  0.21988  0.03736  1.0000
  O   O3        1.0  0.11917  0.78162  0.96233  1.0000
  O   O4        1.0  0.36240  0.22504  0.25014  1.0000
  O   O4        1.0  0.13527  0.77093  0.74981  1.0000
  O   O4        1.0  0.63564  0.77090  0.74981  1.0000
  O   O4        1.0  0.86259  0.22503  0.25012  1.0000
