data_image0
_chemical_formula_structural       ONb3Mn8NbO17
_chemical_formula_sum              "O18 Nb4 Mn8"
_cell_length_a       5.38349
_cell_length_b       5.38349
_cell_length_c       14.566
_cell_angle_alpha    90
_cell_angle_beta     90
_cell_angle_gamma    120

_space_group_name_H-M_alt    "P 1"
_space_group_IT_number       1

loop_
  _space_group_symop_operation_xyz
  'x, y, z'

loop_
  _atom_site_type_symbol
  _atom_site_label
  _atom_site_symmetry_multiplicity
  _atom_site_fract_x
  _atom_site_fract_y
  _atom_site_fract_z
  _atom_site_occupancy
  O   O1        1.0  0.28078  0.99985  0.24999  1.0000
  Nb  Nb1       1.0  1.00000  1.00000  0.64271  1.0000
  Nb  Nb1       1.0  1.00000  1.00000  0.85725  1.0000
  Nb  Nb1       1.0  1.00000  1.00000  0.35725  1.0000
  Mn  Mn1       1.0  0.66667  0.33333  0.48296  1.0000
  Mn  Mn1       1.0  0.66667  0.33333  0.98296  1.0000
  Mn  Mn1       1.0  0.33333  0.66667  0.51682  1.0000
  Mn  Mn1       1.0  0.33333  0.66667  0.01682  1.0000
  Mn  Mn2       1.0  0.66667  0.33333  0.19594  1.0000
  Mn  Mn2       1.0  0.66667  0.33333  0.69594  1.0000
  Mn  Mn2       1.0  0.33333  0.66667  0.80437  1.0000
  Mn  Mn2       1.0  0.33333  0.66667  0.30437  1.0000
  Nb  Nb1       1.0  1.00000  1.00000  0.14271  1.0000
  O   O1        1.0  0.71907  0.71922  0.24999  1.0000
  O   O1        1.0  0.00015  0.28093  0.24999  1.0000
  O   O1        1.0  0.28078  0.28093  0.74999  1.0000
  O   O1        1.0  0.00015  0.71922  0.74999  1.0000
  O   O1        1.0  0.71907  0.99985  0.74999  1.0000
  O   O2        1.0  0.02684  0.68815  0.41488  1.0000
  O   O2        1.0  0.66130  0.97315  0.41488  1.0000
  O   O2        1.0  0.31185  0.33870  0.41488  1.0000
  O   O2        1.0  0.02684  0.33870  0.91488  1.0000
  O   O2        1.0  0.31185  0.97315  0.91488  1.0000
  O   O2        1.0  0.66130  0.68815  0.91488  1.0000
  O   O2        1.0  0.97344  0.31233  0.58512  1.0000
  O   O2        1.0  0.33889  0.02656  0.58512  1.0000
  O   O2        1.0  0.68767  0.66111  0.58512  1.0000
  O   O2        1.0  0.97344  0.66111  0.08512  1.0000
  O   O2        1.0  0.68767  0.02656  0.08512  1.0000
  O   O2        1.0  0.33889  0.31233  0.08512  1.0000
