data_image0
_chemical_formula_structural       OSr13Mn8O12SrO17
_chemical_formula_sum              "O30 Sr14 Mn8"
_cell_length_a       6.88184
_cell_length_b       9.74508
_cell_length_c       10.5296
_cell_angle_alpha    90.0088
_cell_angle_beta     91.6672
_cell_angle_gamma    90.0027

_space_group_name_H-M_alt    "P 1"
_space_group_IT_number       1

loop_
  _space_group_symop_operation_xyz
  'x, y, z'

loop_
  _atom_site_type_symbol
  _atom_site_label
  _atom_site_symmetry_multiplicity
  _atom_site_fract_x
  _atom_site_fract_y
  _atom_site_fract_z
  _atom_site_occupancy
  O   O7        1.0  0.83812  0.41907  0.38209  1.0000
  Sr  Sr1       1.0  0.99900  0.18644  0.46548  1.0000
  Sr  Sr2       1.0  0.00101  0.81415  0.53460  1.0000
  Sr  Sr2       1.0  0.00101  0.68570  0.03469  1.0000
  Sr  Sr3       1.0  0.35171  0.35002  0.69653  1.0000
  Sr  Sr3       1.0  0.35254  0.15013  0.19633  1.0000
  Sr  Sr4       1.0  0.64836  0.85135  0.80351  1.0000
  Sr  Sr4       1.0  0.64829  0.64884  0.30370  1.0000
  Sr  Sr5       1.0  0.49822  0.50217  0.99865  1.0000
  Sr  Sr5       1.0  0.49887  0.99991  0.49967  1.0000
  Sr  Sr6       1.0  0.17952  0.49625  0.33181  1.0000
  Sr  Sr6       1.0  0.17881  0.00248  0.83114  1.0000
  Sr  Sr7       1.0  0.82244  0.99479  0.17141  1.0000
  Sr  Sr7       1.0  0.82204  0.50451  0.67057  1.0000
  Mn  Mn1       1.0  0.57735  0.33351  0.42684  1.0000
  Mn  Mn1       1.0  0.57726  0.16684  0.92597  1.0000
  Mn  Mn2       1.0  0.42282  0.83452  0.07386  1.0000
  Mn  Mn2       1.0  0.42303  0.66596  0.57398  1.0000
  Mn  Mn3       1.0  0.77987  0.33111  0.21979  1.0000
  Mn  Mn3       1.0  0.77961  0.16931  0.72065  1.0000
  Mn  Mn4       1.0  0.22042  0.83010  0.27909  1.0000
  Mn  Mn4       1.0  0.21998  0.66955  0.77892  1.0000
  O   O1        1.0  0.50743  0.39690  0.25354  1.0000
  O   O1        1.0  0.50613  0.10277  0.75305  1.0000
  O   O2        1.0  0.49261  0.89913  0.24595  1.0000
  O   O2        1.0  0.49264  0.60094  0.74615  1.0000
  O   O3        1.0  0.68124  0.32535  0.83910  1.0000
  O   O3        1.0  0.68082  0.17482  0.33924  1.0000
  O   O4        1.0  0.32073  0.82540  0.66199  1.0000
  O   O4        1.0  0.32134  0.67449  0.16196  1.0000
  O   O5        1.0  0.33898  0.25209  0.45520  1.0000
  O   O5        1.0  0.34095  0.24998  0.95552  1.0000
  O   O6        1.0  0.66375  0.75683  0.04617  1.0000
  O   O6        1.0  0.66321  0.74466  0.54644  1.0000
  Sr  Sr1       1.0  0.99948  0.31312  0.96554  1.0000
  O   O7        1.0  0.83770  0.08035  0.88190  1.0000
  O   O8        1.0  0.16045  0.91757  0.11725  1.0000
  O   O8        1.0  0.16061  0.58199  0.61692  1.0000
  O   O9        1.0  0.68882  0.28096  0.58445  1.0000
  O   O9        1.0  0.69079  0.21589  0.08508  1.0000
  O   O10       1.0  0.31436  0.77657  0.91677  1.0000
  O   O10       1.0  0.31474  0.72261  0.41666  1.0000
  O   O11       1.0  0.49683  0.49982  0.49882  1.0000
  O   O11       1.0  0.49323  0.00085  0.99781  1.0000
  O   O12       1.0  0.83459  0.48109  0.11910  1.0000
  O   O12       1.0  0.83631  0.01885  0.62038  1.0000
  O   O13       1.0  0.15870  0.98117  0.37743  1.0000
  O   O13       1.0  0.15822  0.51852  0.87709  1.0000
  O   O14       1.0  0.02986  0.25690  0.21196  1.0000
  O   O14       1.0  0.02898  0.24420  0.71236  1.0000
  O   O15       1.0  0.97329  0.75174  0.28853  1.0000
  O   O15       1.0  0.97295  0.74772  0.78831  1.0000
