data_image0
_chemical_formula_structural       ONi15Nb8O20NiO15
_chemical_formula_sum              "O36 Ni16 Nb8"
_cell_length_a       8.82914
_cell_length_b       5.13558
_cell_length_c       14.5353
_cell_angle_alpha    90.0101
_cell_angle_beta     90.0009
_cell_angle_gamma    89.9933

_space_group_name_H-M_alt    "P 1"
_space_group_IT_number       1

loop_
  _space_group_symop_operation_xyz
  'x, y, z'

loop_
  _atom_site_type_symbol
  _atom_site_label
  _atom_site_symmetry_multiplicity
  _atom_site_fract_x
  _atom_site_fract_y
  _atom_site_fract_z
  _atom_site_occupancy
  O   O4        1.0  0.14949  0.84850  0.74838  1.0000
  Ni  Ni1       1.0  0.16377  0.49634  0.68566  1.0000
  Ni  Ni1       1.0  0.83640  0.49638  0.81403  1.0000
  Ni  Ni1       1.0  0.66368  0.00360  0.31439  1.0000
  Ni  Ni1       1.0  0.66364  0.99660  0.81413  1.0000
  Ni  Ni1       1.0  0.83642  0.50358  0.31411  1.0000
  Ni  Ni1       1.0  0.16367  0.50371  0.18577  1.0000
  Ni  Ni1       1.0  0.33615  0.99633  0.68566  1.0000
  Ni  Ni2       1.0  0.33541  0.00308  0.00168  1.0000
  Ni  Ni2       1.0  0.16483  0.49685  0.50167  1.0000
  Ni  Ni2       1.0  0.83555  0.49726  0.99837  1.0000
  Ni  Ni2       1.0  0.66471  0.00295  0.49840  1.0000
  Ni  Ni2       1.0  0.66469  0.99683  0.99825  1.0000
  Ni  Ni2       1.0  0.83521  0.50343  0.49849  1.0000
  Ni  Ni2       1.0  0.16452  0.50357  0.00168  1.0000
  Ni  Ni2       1.0  0.33522  0.99641  0.50169  1.0000
  Nb  Nb1       1.0  0.02845  0.00387  0.35518  1.0000
  Nb  Nb1       1.0  0.47162  0.49647  0.85526  1.0000
  Nb  Nb1       1.0  0.52819  0.49580  0.64495  1.0000
  Nb  Nb1       1.0  0.97189  0.00409  0.14488  1.0000
  Nb  Nb1       1.0  0.97174  0.99588  0.64493  1.0000
  Nb  Nb1       1.0  0.52818  0.50398  0.14488  1.0000
  Nb  Nb1       1.0  0.47157  0.50371  0.35516  1.0000
  Nb  Nb1       1.0  0.02837  0.99632  0.85519  1.0000
  O   O1        1.0  0.99999  0.70981  0.24986  1.0000
  O   O1        1.0  0.50008  0.79031  0.74984  1.0000
  O   O1        1.0  0.00012  0.29009  0.74999  1.0000
  O   O1        1.0  0.50008  0.20973  0.25005  1.0000
  O   O2        1.0  0.17150  0.83015  0.42858  1.0000
  O   O2        1.0  0.32813  0.66994  0.92834  1.0000
  O   O2        1.0  0.67097  0.66960  0.57137  1.0000
  O   O2        1.0  0.82867  0.83064  0.07155  1.0000
  O   O2        1.0  0.82872  0.16945  0.57150  1.0000
  O   O2        1.0  0.67160  0.33063  0.07170  1.0000
  O   O2        1.0  0.32847  0.33020  0.42854  1.0000
  O   O2        1.0  0.17159  0.16973  0.92842  1.0000
  O   O3        1.0  0.16705  0.82914  0.09557  1.0000
  O   O3        1.0  0.33285  0.67031  0.59566  1.0000
  O   O3        1.0  0.66598  0.67063  0.90449  1.0000
  O   O3        1.0  0.83392  0.82942  0.40435  1.0000
  O   O3        1.0  0.83377  0.17028  0.90448  1.0000
  O   O3        1.0  0.66629  0.32989  0.40435  1.0000
  O   O3        1.0  0.33308  0.32903  0.09566  1.0000
  O   O3        1.0  0.16703  0.17038  0.59576  1.0000
  Ni  Ni1       1.0  0.33651  0.00370  0.18584  1.0000
  O   O4        1.0  0.35032  0.65124  0.24843  1.0000
  O   O4        1.0  0.64964  0.65118  0.25152  1.0000
  O   O4        1.0  0.85011  0.84872  0.75148  1.0000
  O   O4        1.0  0.85039  0.15115  0.25150  1.0000
  O   O4        1.0  0.64981  0.34857  0.75148  1.0000
  O   O4        1.0  0.35048  0.34891  0.74833  1.0000
  O   O4        1.0  0.14967  0.15121  0.24841  1.0000
  O   O5        1.0  0.50415  0.83922  0.41531  1.0000
  O   O5        1.0  0.99579  0.66052  0.91520  1.0000
  O   O5        1.0  0.00404  0.66070  0.58461  1.0000
  O   O5        1.0  0.49595  0.83944  0.08465  1.0000
  O   O5        1.0  0.49597  0.16064  0.58455  1.0000
  O   O5        1.0  0.00409  0.33965  0.08467  1.0000
  O   O5        1.0  0.99555  0.33821  0.41561  1.0000
  O   O5        1.0  0.50431  0.16206  0.91554  1.0000
