data_image0
_chemical_formula_structural       OY3Co4O4YO7
_chemical_formula_sum              "O12 Y4 Co4"
_cell_length_a       5.3489
_cell_length_b       5.74706
_cell_length_c       7.47242
_cell_angle_alpha    90
_cell_angle_beta     90.0035
_cell_angle_gamma    90

_space_group_name_H-M_alt    "P 1"
_space_group_IT_number       1

loop_
  _space_group_symop_operation_xyz
  'x, y, z'

loop_
  _atom_site_type_symbol
  _atom_site_label
  _atom_site_symmetry_multiplicity
  _atom_site_fract_x
  _atom_site_fract_y
  _atom_site_fract_z
  _atom_site_occupancy
  O   O2        1.0  0.69371  0.69280  0.05091  1.0000
  Y   Y1        1.0  0.97917  0.92244  0.25001  1.0000
  Y   Y1        1.0  0.47917  0.57756  0.75001  1.0000
  Y   Y1        1.0  0.02083  0.07756  0.74999  1.0000
  Co  Co1       1.0  0.00000  0.50000  0.00000  1.0000
  Co  Co1       1.0  0.50000  0.00000  0.50000  1.0000
  Co  Co1       1.0  0.00000  0.50000  0.50000  1.0000
  Co  Co1       1.0  0.50000  0.00000  0.00000  1.0000
  O   O1        1.0  0.39656  0.02920  0.25003  1.0000
  O   O1        1.0  0.10344  0.52920  0.24997  1.0000
  O   O1        1.0  0.60344  0.97080  0.74997  1.0000
  O   O1        1.0  0.89656  0.47080  0.75003  1.0000
  Y   Y1        1.0  0.52083  0.42244  0.24999  1.0000
  O   O2        1.0  0.80629  0.19280  0.44909  1.0000
  O   O2        1.0  0.30625  0.30723  0.55090  1.0000
  O   O2        1.0  0.19375  0.80723  0.94910  1.0000
  O   O2        1.0  0.30629  0.30720  0.94909  1.0000
  O   O2        1.0  0.19371  0.80720  0.55091  1.0000
  O   O2        1.0  0.69375  0.69277  0.44910  1.0000
  O   O2        1.0  0.80625  0.19277  0.05090  1.0000
