data_image0
_chemical_formula_structural       OBa7O4BaO11Fe4
_chemical_formula_sum              "O16 Ba8 Fe4"
_cell_length_a       6.24868
_cell_length_b       7.74611
_cell_length_c       10.2577
_cell_angle_alpha    90
_cell_angle_beta     94.487
_cell_angle_gamma    90

_space_group_name_H-M_alt    "P 1"
_space_group_IT_number       1

loop_
  _space_group_symop_operation_xyz
  'x, y, z'

loop_
  _atom_site_type_symbol
  _atom_site_label
  _atom_site_symmetry_multiplicity
  _atom_site_fract_x
  _atom_site_fract_y
  _atom_site_fract_z
  _atom_site_occupancy
  O   O2        1.0  0.00058  0.74843  0.33496  1.0000
  Ba  Ba1       1.0  0.24331  0.15444  0.92339  1.0000
  Ba  Ba1       1.0  0.25669  0.65444  0.57661  1.0000
  Ba  Ba1       1.0  0.75669  0.84556  0.07661  1.0000
  Ba  Ba2       1.0  0.28120  0.00704  0.30353  1.0000
  Ba  Ba2       1.0  0.78120  0.49296  0.80353  1.0000
  Ba  Ba2       1.0  0.71880  0.99296  0.69647  1.0000
  Ba  Ba2       1.0  0.21880  0.50704  0.19647  1.0000
  O   O1        1.0  0.79579  0.50418  0.09547  1.0000
  O   O1        1.0  0.29579  0.99582  0.59547  1.0000
  O   O1        1.0  0.20421  0.49582  0.90453  1.0000
  O   O1        1.0  0.70421  0.00418  0.40453  1.0000
  Ba  Ba1       1.0  0.74331  0.34556  0.42339  1.0000
  O   O2        1.0  0.50058  0.75157  0.83496  1.0000
  O   O2        1.0  0.99942  0.25157  0.66504  1.0000
  O   O2        1.0  0.49942  0.24843  0.16504  1.0000
  O   O3        1.0  0.49971  0.68357  0.36867  1.0000
  O   O3        1.0  0.99971  0.81643  0.86867  1.0000
  O   O3        1.0  0.50029  0.31643  0.63133  1.0000
  O   O3        1.0  0.00029  0.18357  0.13133  1.0000
  O   O4        1.0  0.82177  0.66425  0.57033  1.0000
  O   O4        1.0  0.32177  0.83575  0.07033  1.0000
  O   O4        1.0  0.17823  0.33575  0.42967  1.0000
  O   O4        1.0  0.67823  0.16425  0.92967  1.0000
  Fe  Fe1       1.0  0.75788  0.77771  0.41627  1.0000
  Fe  Fe1       1.0  0.25788  0.72229  0.91627  1.0000
  Fe  Fe1       1.0  0.24212  0.22229  0.58373  1.0000
  Fe  Fe1       1.0  0.74212  0.27771  0.08373  1.0000
