data_image0
_chemical_formula_structural       OCoO2CoO3La2
_chemical_formula_sum              "O6 Co2 La2"
_cell_length_a       5.47279
_cell_length_b       5.51756
_cell_length_c       5.51758
_cell_angle_alpha    60.4853
_cell_angle_beta     61.9926
_cell_angle_gamma    61.992

_space_group_name_H-M_alt    "P 1"
_space_group_IT_number       1

loop_
  _space_group_symop_operation_xyz
  'x, y, z'

loop_
  _atom_site_type_symbol
  _atom_site_label
  _atom_site_symmetry_multiplicity
  _atom_site_fract_x
  _atom_site_fract_y
  _atom_site_fract_z
  _atom_site_occupancy
  O   O2        1.0  0.32102  0.19314  0.24453  1.0000
  Co  Co1       1.0  0.50000  0.50000  0.00000  1.0000
  O   O1        1.0  0.75006  0.31226  0.68775  1.0000
  O   O1        1.0  0.24994  0.68774  0.31225  1.0000
  Co  Co1       1.0  0.00000  0.00000  0.50000  1.0000
  O   O2        1.0  0.17903  0.75540  0.80682  1.0000
  O   O2        1.0  0.67898  0.80686  0.75547  1.0000
  O   O2        1.0  0.82097  0.24460  0.19318  1.0000
  La  La1       1.0  0.75001  0.75002  0.24996  1.0000
  La  La1       1.0  0.24999  0.24998  0.75004  1.0000
