data_image0
_chemical_formula_structural       OMn5Co4O8MnO7
_chemical_formula_sum              "O16 Mn6 Co4"
_cell_length_a       5.81815
_cell_length_b       4.97927
_cell_length_c       9.40175
_cell_angle_alpha    90.0299
_cell_angle_beta     90.1772
_cell_angle_gamma    90.0312

_space_group_name_H-M_alt    "P 1"
_space_group_IT_number       1

loop_
  _space_group_symop_operation_xyz
  'x, y, z'

loop_
  _atom_site_type_symbol
  _atom_site_label
  _atom_site_symmetry_multiplicity
  _atom_site_fract_x
  _atom_site_fract_y
  _atom_site_fract_z
  _atom_site_occupancy
  O   O3        1.0  0.50119  0.31471  0.60773  1.0000
  Mn  Mn1       1.0  0.26026  0.16396  0.50225  1.0000
  Mn  Mn1       1.0  0.75938  0.83623  0.00079  1.0000
  Mn  Mn1       1.0  0.24021  0.83595  0.00057  1.0000
  Mn  Mn2       1.0  0.00010  0.67323  0.49798  1.0000
  Mn  Mn2       1.0  0.49962  0.32614  0.99879  1.0000
  Co  Co1       1.0  0.49893  0.67378  0.71438  1.0000
  Co  Co1       1.0  0.00048  0.32977  0.21030  1.0000
  Co  Co2       1.0  0.99832  0.33267  0.81735  1.0000
  Co  Co2       1.0  0.49958  0.66575  0.31705  1.0000
  O   O1        1.0  0.24041  0.84081  0.60495  1.0000
  O   O1        1.0  0.76065  0.83958  0.60405  1.0000
  O   O1        1.0  0.26174  0.15848  0.10431  1.0000
  O   O1        1.0  0.73900  0.15879  0.10443  1.0000
  O   O2        1.0  0.27712  0.51807  0.87965  1.0000
  O   O2        1.0  0.72090  0.51837  0.87959  1.0000
  O   O2        1.0  0.22093  0.47971  0.37894  1.0000
  O   O2        1.0  0.77912  0.48120  0.37935  1.0000
  Mn  Mn1       1.0  0.74094  0.16383  0.49997  1.0000
  O   O3        1.0  0.00027  0.69021  0.10871  1.0000
  O   O4        1.0  0.00095  0.33951  0.60757  1.0000
  O   O4        1.0  0.50011  0.66102  0.10681  1.0000
  O   O5        1.0  0.49955  0.99400  0.89207  1.0000
  O   O5        1.0  0.00072  0.00512  0.39424  1.0000
  O   O6        1.0  0.99912  0.96432  0.88586  1.0000
  O   O6        1.0  0.50039  0.03478  0.38607  1.0000
