data_image0
_chemical_formula_structural       OSr5Co5OSrO13
_chemical_formula_sum              "O15 Sr6 Co5"
_cell_length_a       6.93716
_cell_length_b       6.92848
_cell_length_c       6.94317
_cell_angle_alpha    87.8735
_cell_angle_beta     87.7208
_cell_angle_gamma    87.6447

_space_group_name_H-M_alt    "P 1"
_space_group_IT_number       1

loop_
  _space_group_symop_operation_xyz
  'x, y, z'

loop_
  _atom_site_type_symbol
  _atom_site_label
  _atom_site_symmetry_multiplicity
  _atom_site_fract_x
  _atom_site_fract_y
  _atom_site_fract_z
  _atom_site_occupancy
  O   O2        1.0  0.15056  0.99864  0.84128  1.0000
  Sr  Sr2       1.0  0.67491  0.97401  0.31561  1.0000
  Sr  Sr3       1.0  0.97385  0.31408  0.67651  1.0000
  Sr  Sr4       1.0  0.13861  0.84926  0.49049  1.0000
  Sr  Sr5       1.0  0.85382  0.49292  0.14169  1.0000
  Sr  Sr6       1.0  0.49002  0.13954  0.85335  1.0000
  Co  Co1       1.0  0.50841  0.50000  0.50640  1.0000
  Co  Co2       1.0  0.09689  0.09862  0.09721  1.0000
  Co  Co3       1.0  0.90151  0.90201  0.90230  1.0000
  Co  Co4       1.0  0.29687  0.30051  0.30373  1.0000
  Co  Co5       1.0  0.70895  0.70899  0.70733  1.0000
  O   O1        1.0  0.84048  0.15107  0.99996  1.0000
  Sr  Sr1       1.0  0.31477  0.67246  0.97120  1.0000
  O   O3        1.0  0.00002  0.84149  0.15042  1.0000
  O   O4        1.0  0.97113  0.65673  0.79752  1.0000
  O   O5        1.0  0.65541  0.79831  0.97135  1.0000
  O   O6        1.0  0.79735  0.97195  0.65729  1.0000
  O   O7        1.0  0.34076  0.04421  0.21326  1.0000
  O   O8        1.0  0.21054  0.34115  0.03685  1.0000
  O   O9        1.0  0.03758  0.21313  0.34046  1.0000
  O   O10       1.0  0.45177  0.74760  0.62341  1.0000
  O   O11       1.0  0.75410  0.63012  0.45117  1.0000
  O   O12       1.0  0.62739  0.45111  0.74691  1.0000
  O   O13       1.0  0.30326  0.56712  0.32741  1.0000
  O   O14       1.0  0.32880  0.30204  0.57090  1.0000
  O   O15       1.0  0.57226  0.33289  0.30599  1.0000
