data_image0
_chemical_formula_structural       OFeO10FeOLa6
_chemical_formula_sum              "O12 Fe2 La6"
_cell_length_a       5.76441
_cell_length_b       7.64872
_cell_length_c       7.64872
_cell_angle_alpha    102.976
_cell_angle_beta     90
_cell_angle_gamma    90

_space_group_name_H-M_alt    "P 1"
_space_group_IT_number       1

loop_
  _space_group_symop_operation_xyz
  'x, y, z'

loop_
  _atom_site_type_symbol
  _atom_site_label
  _atom_site_symmetry_multiplicity
  _atom_site_fract_x
  _atom_site_fract_y
  _atom_site_fract_z
  _atom_site_occupancy
  O   O4        1.0  0.17227  0.28658  0.71342  1.0000
  Fe  Fe1       1.0  0.00087  0.69214  0.30786  1.0000
  O   O1        1.0  0.19706  0.85240  0.82844  1.0000
  O   O1        1.0  0.19706  0.17156  0.14760  1.0000
  O   O1        1.0  0.69706  0.14760  0.17156  1.0000
  O   O1        1.0  0.69706  0.82844  0.85240  1.0000
  O   O2        1.0  0.16710  0.91184  0.39061  1.0000
  O   O2        1.0  0.16710  0.60939  0.08816  1.0000
  O   O2        1.0  0.66710  0.08816  0.60939  1.0000
  O   O2        1.0  0.66710  0.39061  0.91184  1.0000
  O   O3        1.0  0.13508  0.54616  0.45384  1.0000
  O   O3        1.0  0.63508  0.45384  0.54616  1.0000
  Fe  Fe1       1.0  0.50087  0.30786  0.69214  1.0000
  O   O4        1.0  0.67227  0.71342  0.28658  1.0000
  La  La1       1.0  0.46356  0.80108  0.58632  1.0000
  La  La1       1.0  0.46356  0.41368  0.19892  1.0000
  La  La1       1.0  0.96356  0.19892  0.41368  1.0000
  La  La1       1.0  0.96356  0.58632  0.80108  1.0000
  La  La2       1.0  0.92621  0.10508  0.89492  1.0000
  La  La2       1.0  0.42621  0.89492  0.10508  1.0000
