data_image0
_chemical_formula_structural       OY3Mn4O4YO7
_chemical_formula_sum              "O12 Y4 Mn4"
_cell_length_a       5.97171
_cell_length_b       7.47028
_cell_length_c       5.36847
_cell_angle_alpha    90.0012
_cell_angle_beta     90.0551
_cell_angle_gamma    90.0823

_space_group_name_H-M_alt    "P 1"
_space_group_IT_number       1

loop_
  _space_group_symop_operation_xyz
  'x, y, z'

loop_
  _atom_site_type_symbol
  _atom_site_label
  _atom_site_symmetry_multiplicity
  _atom_site_fract_x
  _atom_site_fract_y
  _atom_site_fract_z
  _atom_site_occupancy
  O   O2        1.0  0.82685  0.05197  0.29723  1.0000
  Y   Y1        1.0  0.58522  0.25009  0.01751  1.0000
  Y   Y1        1.0  0.91489  0.74990  0.51708  1.0000
  Y   Y1        1.0  0.41478  0.74991  0.98249  1.0000
  Mn  Mn1       1.0  0.50000  0.00000  0.50000  1.0000
  Mn  Mn1       1.0  0.00000  0.50000  0.00000  1.0000
  Mn  Mn1       1.0  0.50000  0.50000  0.50000  1.0000
  Mn  Mn1       1.0  0.00000  0.00000  0.00000  1.0000
  O   O1        1.0  0.96203  0.25041  0.88964  1.0000
  O   O1        1.0  0.46303  0.25039  0.61001  1.0000
  O   O1        1.0  0.03797  0.74959  0.11036  1.0000
  O   O1        1.0  0.53697  0.74961  0.38999  1.0000
  Y   Y1        1.0  0.08511  0.25010  0.48292  1.0000
  O   O2        1.0  0.33072  0.44712  0.20276  1.0000
  O   O2        1.0  0.16933  0.55285  0.70276  1.0000
  O   O2        1.0  0.67326  0.94785  0.79728  1.0000
  O   O2        1.0  0.17315  0.94803  0.70277  1.0000
  O   O2        1.0  0.66928  0.55288  0.79724  1.0000
  O   O2        1.0  0.83067  0.44715  0.29724  1.0000
  O   O2        1.0  0.32674  0.05215  0.20272  1.0000
