data_image0
_chemical_formula_structural       OSr13Mn8O20SrO5
_chemical_formula_sum              "O26 Sr14 Mn8"
_cell_length_a       6.92355
_cell_length_b       9.94391
_cell_length_c       10.2405
_cell_angle_alpha    89.9249
_cell_angle_beta     94.1324
_cell_angle_gamma    90.0223

_space_group_name_H-M_alt    "P 1"
_space_group_IT_number       1

loop_
  _space_group_symop_operation_xyz
  'x, y, z'

loop_
  _atom_site_type_symbol
  _atom_site_label
  _atom_site_symmetry_multiplicity
  _atom_site_fract_x
  _atom_site_fract_y
  _atom_site_fract_z
  _atom_site_occupancy
  O   O6        1.0  0.00192  0.22716  0.19686  1.0000
  Sr  Sr1       1.0  0.99417  0.82246  0.53840  1.0000
  Sr  Sr1       1.0  0.99432  0.67767  0.03852  1.0000
  Sr  Sr1       1.0  0.00529  0.17746  0.46103  1.0000
  Sr  Sr2       1.0  0.33672  0.35756  0.69730  1.0000
  Sr  Sr2       1.0  0.66382  0.85826  0.80283  1.0000
  Sr  Sr2       1.0  0.66377  0.64151  0.30276  1.0000
  Sr  Sr2       1.0  0.33661  0.14271  0.19739  1.0000
  Sr  Sr3       1.0  0.49889  0.50005  0.00028  1.0000
  Sr  Sr3       1.0  0.49877  0.99992  0.50033  1.0000
  Sr  Sr4       1.0  0.16480  0.49124  0.34225  1.0000
  Sr  Sr4       1.0  0.83732  0.99220  0.15815  1.0000
  Sr  Sr4       1.0  0.83638  0.50765  0.65765  1.0000
  Sr  Sr4       1.0  0.16391  0.00879  0.84177  1.0000
  Mn  Mn1       1.0  0.57457  0.33435  0.42106  1.0000
  Mn  Mn1       1.0  0.42828  0.83732  0.08042  1.0000
  Mn  Mn1       1.0  0.42784  0.66366  0.58064  1.0000
  Mn  Mn1       1.0  0.57412  0.16480  0.92135  1.0000
  Mn  Mn2       1.0  0.77002  0.32444  0.21949  1.0000
  Mn  Mn2       1.0  0.22817  0.82487  0.27870  1.0000
  Mn  Mn2       1.0  0.22797  0.67522  0.77887  1.0000
  Mn  Mn2       1.0  0.76976  0.17538  0.71966  1.0000
  O   O1        1.0  0.50447  0.39449  0.22631  1.0000
  O   O1        1.0  0.49447  0.89380  0.27637  1.0000
  O   O1        1.0  0.49435  0.60628  0.77619  1.0000
  O   O1        1.0  0.50425  0.10555  0.72621  1.0000
  O   O2        1.0  0.67227  0.32596  0.83081  1.0000
  O   O2        1.0  0.32751  0.82654  0.66827  1.0000
  O   O2        1.0  0.32807  0.67434  0.16811  1.0000
  O   O2        1.0  0.67289  0.17325  0.33061  1.0000
  O   O3        1.0  0.84025  0.40879  0.41503  1.0000
  O   O3        1.0  0.16072  0.90974  0.08327  1.0000
  O   O3        1.0  0.16084  0.59074  0.58329  1.0000
  O   O3        1.0  0.84026  0.09086  0.91512  1.0000
  O   O4        1.0  0.33889  0.25290  0.45566  1.0000
  O   O4        1.0  0.66307  0.75563  0.04478  1.0000
  O   O4        1.0  0.66281  0.74468  0.54496  1.0000
  O   O4        1.0  0.33877  0.24683  0.95601  1.0000
  O   O5        1.0  0.84452  0.47166  0.11888  1.0000
  O   O5        1.0  0.15155  0.97180  0.37888  1.0000
  O   O5        1.0  0.15176  0.52823  0.87929  1.0000
  O   O5        1.0  0.84468  0.02821  0.61940  1.0000
  Sr  Sr1       1.0  0.00516  0.32237  0.96089  1.0000
  O   O6        1.0  0.99819  0.72558  0.30242  1.0000
  O   O6        1.0  0.99810  0.77438  0.80253  1.0000
  O   O6        1.0  0.00172  0.27292  0.69689  1.0000
  O   O7        1.0  0.50156  0.49813  0.50225  1.0000
  O   O7        1.0  0.50144  0.00166  0.00182  1.0000
