data_image0
_chemical_formula_structural       OBa11O12BaO7Fe4
_chemical_formula_sum              "O20 Ba12 Fe4"
_cell_length_a       10.6208
_cell_length_b       8.39432
_cell_length_c       7.36781
_cell_angle_alpha    90.0001
_cell_angle_beta     90
_cell_angle_gamma    90

_space_group_name_H-M_alt    "P 1"
_space_group_IT_number       1

loop_
  _space_group_symop_operation_xyz
  'x, y, z'

loop_
  _atom_site_type_symbol
  _atom_site_label
  _atom_site_symmetry_multiplicity
  _atom_site_fract_x
  _atom_site_fract_y
  _atom_site_fract_z
  _atom_site_occupancy
  O   O3        1.0  0.49742  0.75000  0.49827  1.0000
  Ba  Ba1       1.0  0.18258  0.02688  0.07555  1.0000
  Ba  Ba1       1.0  0.31742  0.97313  0.57555  1.0000
  Ba  Ba1       1.0  0.81742  0.52688  0.92445  1.0000
  Ba  Ba1       1.0  0.31742  0.52688  0.57555  1.0000
  Ba  Ba1       1.0  0.81742  0.97312  0.92445  1.0000
  Ba  Ba1       1.0  0.68258  0.02688  0.42445  1.0000
  Ba  Ba1       1.0  0.18258  0.47312  0.07555  1.0000
  Ba  Ba2       1.0  0.97468  0.75000  0.37769  1.0000
  Ba  Ba2       1.0  0.47468  0.75000  0.12231  1.0000
  Ba  Ba2       1.0  0.02532  0.25000  0.62231  1.0000
  Ba  Ba2       1.0  0.52532  0.25000  0.87769  1.0000
  O   O1        1.0  0.76442  0.75000  0.65913  1.0000
  O   O1        1.0  0.26442  0.75000  0.84087  1.0000
  O   O1        1.0  0.23558  0.25000  0.34087  1.0000
  O   O1        1.0  0.73558  0.25000  0.15913  1.0000
  O   O2        1.0  0.93517  0.44475  0.28806  1.0000
  O   O2        1.0  0.43517  0.05525  0.21194  1.0000
  O   O2        1.0  0.06483  0.94474  0.71194  1.0000
  O   O2        1.0  0.56483  0.55526  0.78806  1.0000
  O   O2        1.0  0.06483  0.55525  0.71194  1.0000
  O   O2        1.0  0.56483  0.94475  0.78806  1.0000
  O   O2        1.0  0.93517  0.05525  0.28806  1.0000
  O   O2        1.0  0.43517  0.44475  0.21194  1.0000
  Ba  Ba1       1.0  0.68258  0.47312  0.42445  1.0000
  O   O3        1.0  0.99742  0.75000  0.00173  1.0000
  O   O3        1.0  0.50258  0.25000  0.50173  1.0000
  O   O3        1.0  0.00258  0.25000  0.99827  1.0000
  O   O4        1.0  0.71815  0.75000  0.16295  1.0000
  O   O4        1.0  0.21815  0.75000  0.33705  1.0000
  O   O4        1.0  0.28185  0.25000  0.83705  1.0000
  O   O4        1.0  0.78185  0.25000  0.66295  1.0000
  Fe  Fe1       1.0  0.59333  0.75000  0.69857  1.0000
  Fe  Fe1       1.0  0.09333  0.75000  0.80143  1.0000
  Fe  Fe1       1.0  0.40667  0.25000  0.30143  1.0000
  Fe  Fe1       1.0  0.90667  0.25000  0.19857  1.0000
