data_image0
_chemical_formula_structural       OBa27OBaO68Fe28
_chemical_formula_sum              "O70 Ba28 Fe28"
_cell_length_a       7.07281
_cell_length_b       11.9083
_cell_length_c       23.7446
_cell_angle_alpha    90.0016
_cell_angle_beta     98.9609
_cell_angle_gamma    90.011

_space_group_name_H-M_alt    "P 1"
_space_group_IT_number       1

loop_
  _space_group_symop_operation_xyz
  'x, y, z'

loop_
  _atom_site_type_symbol
  _atom_site_label
  _atom_site_symmetry_multiplicity
  _atom_site_fract_x
  _atom_site_fract_y
  _atom_site_fract_z
  _atom_site_occupancy
  O   O2        1.0  0.00026  0.99936  0.00012  1.0000
  Ba  Ba2       1.0  0.64526  0.88878  0.96410  1.0000
  Ba  Ba3       1.0  0.64422  0.60962  0.46443  1.0000
  Ba  Ba4       1.0  0.35376  0.11059  0.03563  1.0000
  Ba  Ba5       1.0  0.75359  0.38724  0.67104  1.0000
  Ba  Ba6       1.0  0.24896  0.88519  0.82975  1.0000
  Ba  Ba7       1.0  0.24844  0.61497  0.33031  1.0000
  Ba  Ba8       1.0  0.75073  0.11485  0.17031  1.0000
  Ba  Ba9       1.0  0.14165  0.36636  0.82199  1.0000
  Ba  Ba10      1.0  0.85978  0.86713  0.67792  1.0000
  Ba  Ba11      1.0  0.85988  0.63293  0.17870  1.0000
  Ba  Ba12      1.0  0.13853  0.13379  0.32129  1.0000
  Ba  Ba13      1.0  0.67593  0.36703  0.96044  1.0000
  Ba  Ba14      1.0  0.32276  0.86717  0.53942  1.0000
  Ba  Ba15      1.0  0.32302  0.63183  0.03997  1.0000
  Ba  Ba16      1.0  0.67492  0.13102  0.45897  1.0000
  Ba  Ba17      1.0  0.05379  0.35172  0.11344  1.0000
  Ba  Ba18      1.0  0.94557  0.85170  0.38596  1.0000
  Ba  Ba19      1.0  0.94489  0.64812  0.88549  1.0000
  Ba  Ba20      1.0  0.05555  0.14738  0.61397  1.0000
  Ba  Ba21      1.0  0.56224  0.35278  0.25810  1.0000
  Ba  Ba22      1.0  0.43757  0.85204  0.24223  1.0000
  Ba  Ba23      1.0  0.43755  0.64701  0.74211  1.0000
  Ba  Ba24      1.0  0.56497  0.14673  0.75781  1.0000
  Ba  Ba25      1.0  0.94126  0.38614  0.39872  1.0000
  Ba  Ba26      1.0  0.05808  0.88536  0.10188  1.0000
  Ba  Ba27      1.0  0.05643  0.61269  0.60182  1.0000
  Ba  Ba28      1.0  0.94455  0.11434  0.89875  1.0000
  O   O1        1.0  0.99839  0.49936  0.50024  1.0000
  Ba  Ba1       1.0  0.35143  0.39078  0.53574  1.0000
  O   O3        1.0  0.00474  0.25176  0.50205  1.0000
  O   O4        1.0  0.99378  0.75277  0.99816  1.0000
  O   O5        1.0  0.99316  0.74674  0.49828  1.0000
  O   O6        1.0  0.00629  0.24782  0.00201  1.0000
  O   O7        1.0  0.70180  0.50014  0.57001  1.0000
  O   O8        1.0  0.29812  0.00069  0.93002  1.0000
  O   O9        1.0  0.29637  0.49938  0.43028  1.0000
  O   O10       1.0  0.70310  0.99984  0.06978  1.0000
  O   O11       1.0  0.70995  0.23917  0.57532  1.0000
  O   O12       1.0  0.29008  0.73477  0.92430  1.0000
  O   O13       1.0  0.29019  0.76762  0.42395  1.0000
  O   O14       1.0  0.70860  0.26566  0.07642  1.0000
  O   O15       1.0  0.05799  0.37704  0.60988  1.0000
  O   O16       1.0  0.94264  0.87835  0.89068  1.0000
  O   O17       1.0  0.94176  0.62165  0.39081  1.0000
  O   O18       1.0  0.05686  0.12102  0.10940  1.0000
  O   O19       1.0  0.40957  0.51472  0.64360  1.0000
  O   O20       1.0  0.59190  0.01543  0.85662  1.0000
  O   O21       1.0  0.59025  0.48536  0.35687  1.0000
  O   O22       1.0  0.40922  0.98519  0.14333  1.0000
  O   O23       1.0  0.40423  0.25484  0.64493  1.0000
  O   O24       1.0  0.59649  0.75288  0.85367  1.0000
  O   O25       1.0  0.59675  0.74800  0.35326  1.0000
  O   O26       1.0  0.40186  0.24762  0.14639  1.0000
  O   O27       1.0  0.10984  0.49506  0.71587  1.0000
  O   O28       1.0  0.89157  0.99415  0.78415  1.0000
  O   O29       1.0  0.89046  0.50519  0.28433  1.0000
  O   O30       1.0  0.10911  0.00484  0.21581  1.0000
  O   O31       1.0  0.93042  0.21593  0.72270  1.0000
  O   O32       1.0  0.06981  0.71728  0.77665  1.0000
  O   O33       1.0  0.06798  0.78211  0.27591  1.0000
  O   O34       1.0  0.93160  0.28201  0.22423  1.0000
  O   O35       1.0  0.44580  0.36928  0.74804  1.0000
  O   O36       1.0  0.55378  0.87077  0.75227  1.0000
  O   O37       1.0  0.55378  0.62937  0.25217  1.0000
  O   O38       1.0  0.44508  0.12948  0.24796  1.0000
  O   O39       1.0  0.80386  0.51071  0.78881  1.0000
  O   O40       1.0  0.19610  0.01086  0.71028  1.0000
  O   O41       1.0  0.19449  0.48956  0.21058  1.0000
  O   O42       1.0  0.80377  0.98917  0.28904  1.0000
  O   O43       1.0  0.45924  0.50973  0.85421  1.0000
  O   O44       1.0  0.55161  0.01290  0.64749  1.0000
  O   O45       1.0  0.54403  0.48985  0.14678  1.0000
  O   O46       1.0  0.45828  0.99172  0.35479  1.0000
  O   O47       1.0  0.71569  0.28764  0.84934  1.0000
  O   O48       1.0  0.28908  0.78846  0.65022  1.0000
  O   O49       1.0  0.29012  0.71244  0.15024  1.0000
  O   O50       1.0  0.71172  0.21240  0.34950  1.0000
  O   O51       1.0  0.03916  0.45124  0.92520  1.0000
  O   O52       1.0  0.96000  0.94989  0.57406  1.0000
  O   O53       1.0  0.95962  0.55086  0.07457  1.0000
  O   O54       1.0  0.03625  0.05122  0.42519  1.0000
  O   O55       1.0  0.31641  0.25824  0.92518  1.0000
  O   O56       1.0  0.68609  0.75542  0.57354  1.0000
  O   O57       1.0  0.68701  0.74506  0.07336  1.0000
  O   O58       1.0  0.30955  0.24479  0.42611  1.0000
  O   O59       1.0  0.35441  0.40173  0.03540  1.0000
  O   O60       1.0  0.64844  0.89566  0.46449  1.0000
  O   O61       1.0  0.64758  0.60487  0.96448  1.0000
  O   O62       1.0  0.35580  0.10176  0.53554  1.0000
  O   O63       1.0  0.24904  0.35538  0.32242  1.0000
  O   O64       1.0  0.75074  0.85505  0.17732  1.0000
  O   O65       1.0  0.75189  0.64491  0.67750  1.0000
  O   O66       1.0  0.24928  0.14382  0.82211  1.0000
  O   O67       1.0  0.64924  0.36718  0.46431  1.0000
  O   O68       1.0  0.34899  0.86895  0.03557  1.0000
  O   O69       1.0  0.34785  0.63107  0.53579  1.0000
  O   O70       1.0  0.65156  0.13052  0.96460  1.0000
  Fe  Fe1       1.0  0.85559  0.37103  0.53520  1.0000
  Fe  Fe2       1.0  0.13902  0.87395  0.96581  1.0000
  Fe  Fe3       1.0  0.13471  0.62273  0.46644  1.0000
  Fe  Fe4       1.0  0.86055  0.12140  0.03455  1.0000
  Fe  Fe5       1.0  0.27708  0.39475  0.67428  1.0000
  Fe  Fe6       1.0  0.72563  0.89606  0.82551  1.0000
  Fe  Fe7       1.0  0.72433  0.60383  0.32563  1.0000
  Fe  Fe8       1.0  0.27478  0.10352  0.17461  1.0000
  Fe  Fe9       1.0  0.61516  0.41661  0.81350  1.0000
  Fe  Fe10      1.0  0.38673  0.91746  0.68652  1.0000
  Fe  Fe11      1.0  0.38576  0.58273  0.18662  1.0000
  Fe  Fe12      1.0  0.61398  0.08299  0.31336  1.0000
  Fe  Fe13      1.0  0.17578  0.34773  0.97125  1.0000
  Fe  Fe14      1.0  0.82356  0.84626  0.52836  1.0000
  Fe  Fe15      1.0  0.82366  0.65342  0.02834  1.0000
  Fe  Fe16      1.0  0.17446  0.15336  0.47141  1.0000
  Fe  Fe17      1.0  0.52093  0.35448  0.10276  1.0000
  Fe  Fe18      1.0  0.47950  0.85476  0.39765  1.0000
  Fe  Fe19      1.0  0.47868  0.64561  0.89774  1.0000
  Fe  Fe20      1.0  0.52413  0.14846  0.60229  1.0000
  Fe  Fe21      1.0  0.06439  0.40136  0.25962  1.0000
  Fe  Fe22      1.0  0.93487  0.90099  0.24031  1.0000
  Fe  Fe23      1.0  0.93649  0.59907  0.74046  1.0000
  Fe  Fe24      1.0  0.06469  0.09843  0.75930  1.0000
  Fe  Fe25      1.0  0.43100  0.37883  0.39993  1.0000
  Fe  Fe26      1.0  0.56740  0.87877  0.10019  1.0000
  Fe  Fe27      1.0  0.56692  0.62082  0.60019  1.0000
  Fe  Fe28      1.0  0.43443  0.11957  0.89939  1.0000
