data_image0
_chemical_formula_structural       OCo4Ba5O8CoO5
_chemical_formula_sum              "O14 Co5 Ba5"
_cell_length_a       5.82104
_cell_length_b       5.75874
_cell_length_c       12.0585
_cell_angle_alpha    89.1256
_cell_angle_beta     90.0014
_cell_angle_gamma    120.359

_space_group_name_H-M_alt    "P 1"
_space_group_IT_number       1

loop_
  _space_group_symop_operation_xyz
  'x, y, z'

loop_
  _atom_site_type_symbol
  _atom_site_label
  _atom_site_symmetry_multiplicity
  _atom_site_fract_x
  _atom_site_fract_y
  _atom_site_fract_z
  _atom_site_occupancy
  O   O4        1.0  0.30070  0.15504  0.40438  1.0000
  Co  Co2       1.0  0.99969  0.99948  0.71067  1.0000
  Co  Co2       1.0  0.00029  0.00050  0.28933  1.0000
  Co  Co3       1.0  0.66850  0.33705  0.86502  1.0000
  Co  Co3       1.0  0.33154  0.66302  0.13498  1.0000
  Ba  Ba1       1.0  0.99994  0.00004  1.00000  1.0000
  Ba  Ba2       1.0  0.66580  0.33155  0.23073  1.0000
  Ba  Ba2       1.0  0.33420  0.66845  0.76927  1.0000
  Ba  Ba3       1.0  0.66533  0.33068  0.57865  1.0000
  Ba  Ba3       1.0  0.33461  0.66922  0.42135  1.0000
  O   O1        1.0  0.67019  0.34019  0.00917  1.0000
  O   O1        1.0  0.33001  0.65989  0.99083  1.0000
  O   O2        1.0  0.33419  0.16852  0.80820  1.0000
  O   O2        1.0  0.83426  0.16853  0.80818  1.0000
  O   O2        1.0  0.66586  0.83157  0.19179  1.0000
  O   O2        1.0  0.16577  0.83157  0.19179  1.0000
  O   O3        1.0  0.84030  0.68066  0.80479  1.0000
  O   O3        1.0  0.15974  0.31945  0.19524  1.0000
  Co  Co1       1.0  0.99996  0.99994  0.50000  1.0000
  O   O4        1.0  0.85437  0.15504  0.40438  1.0000
  O   O4        1.0  0.69924  0.84485  0.59562  1.0000
  O   O4        1.0  0.14556  0.84484  0.59562  1.0000
  O   O5        1.0  0.85348  0.70693  0.39656  1.0000
  O   O5        1.0  0.14647  0.29298  0.60343  1.0000
