data_image0
_chemical_formula_structural       OY3Fe4YO11
_chemical_formula_sum              "O12 Y4 Fe4"
_cell_length_a       5.68927
_cell_length_b       7.69676
_cell_length_c       5.369
_cell_angle_alpha    90
_cell_angle_beta     90
_cell_angle_gamma    90

_space_group_name_H-M_alt    "P 1"
_space_group_IT_number       1

loop_
  _space_group_symop_operation_xyz
  'x, y, z'

loop_
  _atom_site_type_symbol
  _atom_site_label
  _atom_site_symmetry_multiplicity
  _atom_site_fract_x
  _atom_site_fract_y
  _atom_site_fract_z
  _atom_site_occupancy
  O   O1        1.0  0.96343  0.25000  0.39453  1.0000
  Y   Y1        1.0  0.06927  0.25000  0.98227  1.0000
  Y   Y1        1.0  0.43073  0.75000  0.48227  1.0000
  Y   Y1        1.0  0.93073  0.75000  0.01773  1.0000
  Fe  Fe1       1.0  0.50000  1.00000  0.00000  1.0000
  Fe  Fe1       1.0  1.00000  0.50000  0.50000  1.0000
  Fe  Fe1       1.0  0.50000  0.50000  0.00000  1.0000
  Fe  Fe1       1.0  1.00000  1.00000  0.50000  1.0000
  Y   Y1        1.0  0.56927  0.25000  0.51773  1.0000
  O   O1        1.0  0.46343  0.25000  0.10547  1.0000
  O   O1        1.0  0.03657  0.75000  0.60547  1.0000
  O   O1        1.0  0.53657  0.75000  0.89453  1.0000
  O   O2        1.0  0.19688  0.94550  0.19435  1.0000
  O   O2        1.0  0.69688  0.55450  0.30565  1.0000
  O   O2        1.0  0.80312  0.44550  0.80565  1.0000
  O   O2        1.0  0.30312  0.05450  0.69435  1.0000
  O   O2        1.0  0.80312  0.05450  0.80565  1.0000
  O   O2        1.0  0.30312  0.44550  0.69435  1.0000
  O   O2        1.0  0.19688  0.55450  0.19435  1.0000
  O   O2        1.0  0.69688  0.94550  0.30565  1.0000
