data_image0
_chemical_formula_structural       ONi2O7La4
_chemical_formula_sum              "O8 Ni2 La4"
_cell_length_a       5.4878
_cell_length_b       5.64721
_cell_length_c       6.89508
_cell_angle_alpha    90
_cell_angle_beta     113.448
_cell_angle_gamma    89.9999

_space_group_name_H-M_alt    "P 1"
_space_group_IT_number       1

loop_
  _space_group_symop_operation_xyz
  'x, y, z'

loop_
  _atom_site_type_symbol
  _atom_site_label
  _atom_site_symmetry_multiplicity
  _atom_site_fract_x
  _atom_site_fract_y
  _atom_site_fract_z
  _atom_site_occupancy
  O   O1        1.0  0.23762  0.24998  0.97518  1.0000
  Ni  Ni1       1.0  0.00000  1.00000  0.00000  1.0000
  Ni  Ni1       1.0  0.50000  0.50000  0.00000  1.0000
  O   O1        1.0  0.26238  0.74998  0.02482  1.0000
  O   O1        1.0  0.76238  0.75002  0.02482  1.0000
  O   O1        1.0  0.73762  0.25002  0.97518  1.0000
  O   O2        1.0  0.67731  0.44966  0.35460  1.0000
  O   O2        1.0  0.32269  0.55034  0.64540  1.0000
  O   O2        1.0  0.82269  0.94966  0.64540  1.0000
  O   O2        1.0  0.17731  0.05034  0.35460  1.0000
  La  La1       1.0  0.86385  0.51344  0.72766  1.0000
  La  La1       1.0  0.13615  0.48656  0.27234  1.0000
  La  La1       1.0  0.63614  0.01344  0.27234  1.0000
  La  La1       1.0  0.36385  0.98656  0.72766  1.0000
