data_image0
_chemical_formula_structural       ONb7Mn4NbO23
_chemical_formula_sum              "O24 Nb8 Mn4"
_cell_length_a       14.6377
_cell_length_b       5.8793
_cell_length_c       5.19359
_cell_angle_alpha    89.9982
_cell_angle_beta     90
_cell_angle_gamma    90

_space_group_name_H-M_alt    "P 1"
_space_group_IT_number       1

loop_
  _space_group_symop_operation_xyz
  'x, y, z'

loop_
  _atom_site_type_symbol
  _atom_site_label
  _atom_site_symmetry_multiplicity
  _atom_site_fract_x
  _atom_site_fract_y
  _atom_site_fract_z
  _atom_site_occupancy
  O   O1        1.0  0.09782  0.60318  0.93553  1.0000
  Nb  Nb1       1.0  0.33802  0.82383  0.75991  1.0000
  Nb  Nb1       1.0  0.66196  0.82390  0.74010  1.0000
  Nb  Nb1       1.0  0.83802  0.67617  0.24009  1.0000
  Nb  Nb1       1.0  0.83804  0.32389  0.74011  1.0000
  Nb  Nb1       1.0  0.66198  0.17618  0.24008  1.0000
  Nb  Nb1       1.0  0.33804  0.17611  0.25989  1.0000
  Nb  Nb1       1.0  0.16198  0.32382  0.75992  1.0000
  Mn  Mn1       1.0  0.99999  0.83126  0.75003  1.0000
  Mn  Mn1       1.0  0.49999  0.66874  0.24997  1.0000
  Mn  Mn1       1.0  0.00001  0.16872  0.24999  1.0000
  Mn  Mn1       1.0  0.50001  0.33128  0.75001  1.0000
  Nb  Nb1       1.0  0.16196  0.67610  0.25990  1.0000
  O   O1        1.0  0.40215  0.89668  0.43550  1.0000
  O   O1        1.0  0.59782  0.89682  0.06447  1.0000
  O   O1        1.0  0.90215  0.60332  0.56450  1.0000
  O   O1        1.0  0.90217  0.39681  0.06449  1.0000
  O   O1        1.0  0.59785  0.10333  0.56448  1.0000
  O   O1        1.0  0.40217  0.10319  0.93551  1.0000
  O   O1        1.0  0.09785  0.39667  0.43552  1.0000
  O   O2        1.0  0.08085  0.88136  0.40552  1.0000
  O   O2        1.0  0.41910  0.61849  0.90553  1.0000
  O   O2        1.0  0.58085  0.61864  0.59448  1.0000
  O   O2        1.0  0.91910  0.88151  0.09447  1.0000
  O   O2        1.0  0.91915  0.11862  0.59450  1.0000
  O   O2        1.0  0.58090  0.38153  0.09445  1.0000
  O   O2        1.0  0.41915  0.38138  0.40550  1.0000
  O   O2        1.0  0.08090  0.11847  0.90555  1.0000
  O   O3        1.0  0.25616  0.87432  0.08870  1.0000
  O   O3        1.0  0.24382  0.62565  0.58871  1.0000
  O   O3        1.0  0.75616  0.62568  0.91130  1.0000
  O   O3        1.0  0.74382  0.87435  0.41129  1.0000
  O   O3        1.0  0.74384  0.12567  0.91130  1.0000
  O   O3        1.0  0.75619  0.37434  0.41129  1.0000
  O   O3        1.0  0.24384  0.37433  0.08870  1.0000
  O   O3        1.0  0.25619  0.12566  0.58871  1.0000
