data_image0
_chemical_formula_structural       OBa7O12BaO3Ti4
_chemical_formula_sum              "O16 Ba8 Ti4"
_cell_length_a       6.26153
_cell_length_b       7.78701
_cell_length_c       12.0117
_cell_angle_alpha    90
_cell_angle_beta     117.323
_cell_angle_gamma    90

_space_group_name_H-M_alt    "P 1"
_space_group_IT_number       1

loop_
  _space_group_symop_operation_xyz
  'x, y, z'

loop_
  _atom_site_type_symbol
  _atom_site_label
  _atom_site_symmetry_multiplicity
  _atom_site_fract_x
  _atom_site_fract_y
  _atom_site_fract_z
  _atom_site_occupancy
  O   O4        1.0  0.26758  0.32037  0.42927  1.0000
  Ba  Ba1       1.0  0.69635  0.16069  0.92730  1.0000
  Ba  Ba1       1.0  0.69635  0.33931  0.42730  1.0000
  Ba  Ba1       1.0  0.30365  0.83931  0.07270  1.0000
  Ba  Ba2       1.0  0.97729  0.99668  0.70003  1.0000
  Ba  Ba2       1.0  0.02271  0.49668  0.79997  1.0000
  Ba  Ba2       1.0  0.02271  0.00332  0.29997  1.0000
  Ba  Ba2       1.0  0.97729  0.50331  0.20003  1.0000
  O   O1        1.0  0.27365  0.99160  0.56232  1.0000
  O   O1        1.0  0.72635  0.49160  0.93768  1.0000
  O   O1        1.0  0.72635  0.00840  0.43768  1.0000
  O   O1        1.0  0.27365  0.50840  0.06232  1.0000
  O   O2        1.0  0.66787  0.25380  0.69234  1.0000
  O   O2        1.0  0.33213  0.75380  0.80766  1.0000
  O   O2        1.0  0.33213  0.74620  0.30766  1.0000
  O   O2        1.0  0.66787  0.24620  0.19234  1.0000
  O   O3        1.0  0.14258  0.32578  0.63667  1.0000
  O   O3        1.0  0.85742  0.82578  0.86333  1.0000
  O   O3        1.0  0.85742  0.67422  0.36333  1.0000
  O   O3        1.0  0.14258  0.17422  0.13667  1.0000
  Ba  Ba1       1.0  0.30365  0.66069  0.57270  1.0000
  O   O4        1.0  0.73242  0.82037  0.07073  1.0000
  O   O4        1.0  0.73242  0.67963  0.57073  1.0000
  O   O4        1.0  0.26758  0.17963  0.92927  1.0000
  Ti  Ti1       1.0  0.34514  0.21962  0.58340  1.0000
  Ti  Ti1       1.0  0.65486  0.71962  0.91660  1.0000
  Ti  Ti1       1.0  0.65486  0.78038  0.41660  1.0000
  Ti  Ti1       1.0  0.34514  0.28038  0.08340  1.0000
