data_image0
_chemical_formula_structural       OMg3O4MgO7Ce4
_chemical_formula_sum              "O12 Mg4 Ce4"
_cell_length_a       5.66014
_cell_length_b       8.48396
_cell_length_c       5.67579
_cell_angle_alpha    90
_cell_angle_beta     90
_cell_angle_gamma    90

_space_group_name_H-M_alt    "P 1"
_space_group_IT_number       1

loop_
  _space_group_symop_operation_xyz
  'x, y, z'

loop_
  _atom_site_type_symbol
  _atom_site_label
  _atom_site_symmetry_multiplicity
  _atom_site_fract_x
  _atom_site_fract_y
  _atom_site_fract_z
  _atom_site_occupancy
  O   O2        1.0  0.15564  0.91980  0.15977  1.0000
  Mg  Mg1       1.0  0.47737  0.25000  0.51576  1.0000
  Mg  Mg1       1.0  0.97738  0.75000  0.98424  1.0000
  Mg  Mg1       1.0  0.52263  0.75000  0.48424  1.0000
  O   O1        1.0  0.35526  0.25000  0.86509  1.0000
  O   O1        1.0  0.14474  0.25000  0.36509  1.0000
  O   O1        1.0  0.64474  0.75000  0.13491  1.0000
  O   O1        1.0  0.85526  0.75000  0.63491  1.0000
  Mg  Mg1       1.0  0.02262  0.25000  0.01576  1.0000
  O   O2        1.0  0.34436  0.58020  0.65977  1.0000
  O   O2        1.0  0.34436  0.91980  0.65977  1.0000
  O   O2        1.0  0.84436  0.41980  0.84023  1.0000
  O   O2        1.0  0.84436  0.08020  0.84023  1.0000
  O   O2        1.0  0.65564  0.41980  0.34023  1.0000
  O   O2        1.0  0.65564  0.08020  0.34023  1.0000
  O   O2        1.0  0.15564  0.58020  0.15977  1.0000
  Ce  Ce1       1.0  0.50000  0.00000  0.00000  1.0000
  Ce  Ce1       1.0  0.00000  0.50000  0.50000  1.0000
  Ce  Ce1       1.0  1.00000  1.00000  0.50000  1.0000
  Ce  Ce1       1.0  0.50000  0.50000  0.00000  1.0000
