data_image0
_chemical_formula_structural       OMnBa2MnO5
_chemical_formula_sum              "O6 Mn2 Ba2"
_cell_length_a       5.79191
_cell_length_b       5.79191
_cell_length_c       4.91114
_cell_angle_alpha    90
_cell_angle_beta     90
_cell_angle_gamma    120

_space_group_name_H-M_alt    "P 1"
_space_group_IT_number       1

loop_
  _space_group_symop_operation_xyz
  'x, y, z'

loop_
  _atom_site_type_symbol
  _atom_site_label
  _atom_site_symmetry_multiplicity
  _atom_site_fract_x
  _atom_site_fract_y
  _atom_site_fract_z
  _atom_site_occupancy
  O   O1        1.0  0.14846  0.29692  0.25000  1.0000
  Mn  Mn1       1.0  0.00000  1.00000  0.50000  1.0000
  Ba  Ba1       1.0  0.33333  0.66667  0.75000  1.0000
  Ba  Ba1       1.0  0.66667  0.33333  0.25000  1.0000
  Mn  Mn1       1.0  0.00000  0.00000  1.00000  1.0000
  O   O1        1.0  0.29692  0.14846  0.75000  1.0000
  O   O1        1.0  0.85154  0.70308  0.75000  1.0000
  O   O1        1.0  0.85154  0.14846  0.75000  1.0000
  O   O1        1.0  0.70308  0.85154  0.25000  1.0000
  O   O1        1.0  0.14846  0.85154  0.25000  1.0000
