data_image0
_chemical_formula_structural       ONb7Ca8O16NbO11
_chemical_formula_sum              "O28 Nb8 Ca8"
_cell_length_a       7.8148
_cell_length_b       13.7484
_cell_length_c       5.54202
_cell_angle_alpha    90
_cell_angle_beta     90
_cell_angle_gamma    98.2642

_space_group_name_H-M_alt    "P 1"
_space_group_IT_number       1

loop_
  _space_group_symop_operation_xyz
  'x, y, z'

loop_
  _atom_site_type_symbol
  _atom_site_label
  _atom_site_symmetry_multiplicity
  _atom_site_fract_x
  _atom_site_fract_y
  _atom_site_fract_z
  _atom_site_occupancy
  O   O9        1.0  0.88501  0.78033  0.47065  1.0000
  Nb  Nb1       1.0  0.52675  0.11409  0.76448  1.0000
  Nb  Nb2       1.0  0.41281  0.67648  0.77731  1.0000
  Nb  Nb2       1.0  0.58719  0.32352  0.27731  1.0000
  Nb  Nb3       1.0  0.97012  0.88715  0.26458  1.0000
  Nb  Nb3       1.0  0.02988  0.11285  0.76458  1.0000
  Nb  Nb4       1.0  0.91993  0.67760  0.77242  1.0000
  Nb  Nb4       1.0  0.08007  0.32240  0.27242  1.0000
  Ca  Ca1       1.0  0.22882  0.91414  0.77251  1.0000
  Ca  Ca1       1.0  0.77118  0.08586  0.27251  1.0000
  Ca  Ca2       1.0  0.13820  0.56449  0.33116  1.0000
  Ca  Ca2       1.0  0.86180  0.43551  0.83116  1.0000
  Ca  Ca3       1.0  0.71648  0.87459  0.75211  1.0000
  Ca  Ca3       1.0  0.28352  0.12541  0.25211  1.0000
  Ca  Ca4       1.0  0.63781  0.59301  0.25719  1.0000
  Ca  Ca4       1.0  0.36219  0.40699  0.75719  1.0000
  O   O1        1.0  0.54403  0.98078  0.54549  1.0000
  O   O1        1.0  0.45597  0.01922  0.04549  1.0000
  O   O2        1.0  0.50327  0.77714  0.46534  1.0000
  O   O2        1.0  0.49673  0.22286  0.96534  1.0000
  O   O3        1.0  0.41656  0.56350  0.57187  1.0000
  O   O3        1.0  0.58344  0.43650  0.07187  1.0000
  O   O4        1.0  0.22283  0.89100  0.34621  1.0000
  O   O4        1.0  0.77717  0.10900  0.84621  1.0000
  O   O5        1.0  0.17142  0.69170  0.67090  1.0000
  O   O5        1.0  0.82858  0.30830  0.17090  1.0000
  O   O6        1.0  0.42357  0.82124  0.94664  1.0000
  O   O6        1.0  0.57643  0.17876  0.44664  1.0000
  O   O7        1.0  0.36572  0.61419  0.07203  1.0000
  O   O7        1.0  0.63428  0.38581  0.57203  1.0000
  O   O8        1.0  0.94616  0.98221  0.54656  1.0000
  O   O8        1.0  0.05384  0.01779  0.04656  1.0000
  Nb  Nb1       1.0  0.47325  0.88591  0.26448  1.0000
  O   O9        1.0  0.11499  0.21967  0.97065  1.0000
  O   O10       1.0  0.86006  0.57422  0.54834  1.0000
  O   O10       1.0  0.13994  0.42578  0.04834  1.0000
  O   O11       1.0  0.72889  0.91471  0.16354  1.0000
  O   O11       1.0  0.27111  0.08529  0.66354  1.0000
  O   O12       1.0  0.67320  0.69864  0.85653  1.0000
  O   O12       1.0  0.32680  0.30136  0.35653  1.0000
  O   O13       1.0  0.98768  0.81764  0.95328  1.0000
  O   O13       1.0  0.01232  0.18236  0.45328  1.0000
  O   O14       1.0  0.92532  0.59184  0.04126  1.0000
  O   O14       1.0  0.07468  0.40816  0.54126  1.0000
