data_image0
_chemical_formula_structural       OSr4O11Ce4
_chemical_formula_sum              "O12 Sr4 Ce4"
_cell_length_a       8.69814
_cell_length_b       6.06784
_cell_length_c       6.2341
_cell_angle_alpha    90
_cell_angle_beta     90.0001
_cell_angle_gamma    90

_space_group_name_H-M_alt    "P 1"
_space_group_IT_number       1

loop_
  _space_group_symop_operation_xyz
  'x, y, z'

loop_
  _atom_site_type_symbol
  _atom_site_label
  _atom_site_symmetry_multiplicity
  _atom_site_fract_x
  _atom_site_fract_y
  _atom_site_fract_z
  _atom_site_occupancy
  O   O1        1.0  0.25000  0.61026  0.04774  1.0000
  Sr  Sr1       1.0  0.25000  0.48640  0.45356  1.0000
  Sr  Sr1       1.0  0.75000  0.98640  0.04644  1.0000
  Sr  Sr1       1.0  0.75000  0.51360  0.54644  1.0000
  Sr  Sr1       1.0  0.25000  0.01360  0.95356  1.0000
  O   O1        1.0  0.25000  0.88974  0.54774  1.0000
  O   O1        1.0  0.75000  0.38974  0.95226  1.0000
  O   O1        1.0  0.75000  0.11026  0.45226  1.0000
  O   O2        1.0  0.94028  0.70091  0.29837  1.0000
  O   O2        1.0  0.55972  0.79909  0.79837  1.0000
  O   O2        1.0  0.05972  0.29909  0.70163  1.0000
  O   O2        1.0  0.55972  0.70090  0.29837  1.0000
  O   O2        1.0  0.94028  0.79909  0.79837  1.0000
  O   O2        1.0  0.44028  0.20091  0.20163  1.0000
  O   O2        1.0  0.44028  0.29910  0.70163  1.0000
  O   O2        1.0  0.05972  0.20091  0.20163  1.0000
  Ce  Ce1       1.0  1.00000  0.50000  0.00000  1.0000
  Ce  Ce1       1.0  0.50000  0.00000  0.50000  1.0000
  Ce  Ce1       1.0  0.50000  0.50000  1.00000  1.0000
  Ce  Ce1       1.0  1.00000  0.00000  0.50000  1.0000
