data_image0
_chemical_formula_structural       OY16O23
_chemical_formula_sum              "O24 Y16"
_cell_length_a       9.39644
_cell_length_b       9.39644
_cell_length_c       9.39644
_cell_angle_alpha    109.471
_cell_angle_beta     109.471
_cell_angle_gamma    109.471

_space_group_name_H-M_alt    "P 1"
_space_group_IT_number       1

loop_
  _space_group_symop_operation_xyz
  'x, y, z'

loop_
  _atom_site_type_symbol
  _atom_site_label
  _atom_site_symmetry_multiplicity
  _atom_site_fract_x
  _atom_site_fract_y
  _atom_site_fract_z
  _atom_site_occupancy
  O   O1        1.0  0.53235  0.77076  0.54221  1.0000
  Y   Y1        1.0  0.50000  1.00000  0.00000  1.0000
  Y   Y1        1.0  0.00000  1.00000  0.50000  1.0000
  Y   Y1        1.0  0.00000  0.50000  0.00000  1.0000
  Y   Y2        1.0  0.25000  0.21739  0.96739  1.0000
  Y   Y2        1.0  0.25000  0.71739  0.46739  1.0000
  Y   Y2        1.0  0.03261  0.75000  0.78261  1.0000
  Y   Y2        1.0  0.96739  0.25000  0.21739  1.0000
  Y   Y2        1.0  0.21739  0.96739  0.25000  1.0000
  Y   Y2        1.0  0.75000  0.78261  0.03261  1.0000
  Y   Y2        1.0  0.78261  0.03261  0.75000  1.0000
  Y   Y2        1.0  0.75000  0.28261  0.53261  1.0000
  Y   Y2        1.0  0.28261  0.53261  0.75000  1.0000
  Y   Y2        1.0  0.53261  0.75000  0.28261  1.0000
  Y   Y2        1.0  0.46739  0.25000  0.71739  1.0000
  Y   Y2        1.0  0.71739  0.46739  0.25000  1.0000
  Y   Y1        1.0  0.50000  0.50000  0.50000  1.0000
  O   O1        1.0  0.27144  0.00986  0.04221  1.0000
  O   O1        1.0  0.76158  0.03235  0.49014  1.0000
  O   O1        1.0  0.96765  0.50986  0.23842  1.0000
  O   O1        1.0  0.54221  0.53235  0.77076  1.0000
  O   O1        1.0  0.77076  0.54221  0.53235  1.0000
  O   O1        1.0  0.03235  0.49014  0.76158  1.0000
  O   O1        1.0  0.49014  0.76158  0.03235  1.0000
  O   O1        1.0  0.77144  0.72924  0.26158  1.0000
  O   O1        1.0  0.22856  0.27076  0.73842  1.0000
  O   O1        1.0  0.99014  0.95779  0.72856  1.0000
  O   O1        1.0  0.95779  0.72856  0.99014  1.0000
  O   O1        1.0  0.73842  0.22856  0.27076  1.0000
  O   O1        1.0  0.72924  0.26158  0.77144  1.0000
  O   O1        1.0  0.27076  0.73842  0.22856  1.0000
  O   O1        1.0  0.50986  0.23842  0.96765  1.0000
  O   O1        1.0  0.46765  0.22924  0.45779  1.0000
  O   O1        1.0  0.23842  0.96765  0.50986  1.0000
  O   O1        1.0  0.04221  0.27144  0.00986  1.0000
  O   O1        1.0  0.72856  0.99014  0.95779  1.0000
  O   O1        1.0  0.45779  0.46765  0.22924  1.0000
  O   O1        1.0  0.00986  0.04221  0.27144  1.0000
  O   O1        1.0  0.22924  0.45779  0.46765  1.0000
  O   O1        1.0  0.26158  0.77144  0.72924  1.0000
