data_image0
_chemical_formula_structural       O16La8Ba4
_chemical_formula_sum              "O16 La8 Ba4"
_cell_length_a       10.8996
_cell_length_b       3.72959
_cell_length_c       12.8562
_cell_angle_alpha    90
_cell_angle_beta     90
_cell_angle_gamma    90

_space_group_name_H-M_alt    "P 1"
_space_group_IT_number       1

loop_
  _space_group_symop_operation_xyz
  'x, y, z'

loop_
  _atom_site_type_symbol
  _atom_site_label
  _atom_site_symmetry_multiplicity
  _atom_site_fract_x
  _atom_site_fract_y
  _atom_site_fract_z
  _atom_site_occupancy
  O   O3        1.0  0.98982  0.25000  0.71544  1.0000
  O   O1        1.0  0.28734  0.25000  0.32402  1.0000
  O   O1        1.0  0.21266  0.75000  0.82402  1.0000
  O   O1        1.0  0.71266  0.75000  0.67598  1.0000
  O   O2        1.0  0.87513  0.25000  0.48219  1.0000
  O   O2        1.0  0.37513  0.25000  0.01781  1.0000
  O   O2        1.0  0.12487  0.75000  0.51781  1.0000
  O   O2        1.0  0.62487  0.75000  0.98219  1.0000
  O   O1        1.0  0.78734  0.25000  0.17598  1.0000
  O   O3        1.0  0.48982  0.25000  0.78456  1.0000
  O   O3        1.0  0.01018  0.75000  0.28456  1.0000
  O   O3        1.0  0.51018  0.75000  0.21544  1.0000
  O   O4        1.0  0.57109  0.25000  0.42281  1.0000
  O   O4        1.0  0.07109  0.25000  0.07719  1.0000
  O   O4        1.0  0.42891  0.75000  0.57719  1.0000
  O   O4        1.0  0.92891  0.75000  0.92281  1.0000
  La  La1       1.0  0.57555  0.25000  0.11345  1.0000
  La  La1       1.0  0.07555  0.25000  0.38655  1.0000
  La  La1       1.0  0.42445  0.75000  0.88655  1.0000
  La  La1       1.0  0.92445  0.75000  0.61345  1.0000
  La  La2       1.0  0.08025  0.25000  0.88728  1.0000
  La  La2       1.0  0.58025  0.25000  0.61272  1.0000
  La  La2       1.0  0.91975  0.75000  0.11272  1.0000
  La  La2       1.0  0.41975  0.75000  0.38728  1.0000
  Ba  Ba1       1.0  0.74825  0.25000  0.85445  1.0000
  Ba  Ba1       1.0  0.24825  0.25000  0.64555  1.0000
  Ba  Ba1       1.0  0.25175  0.75000  0.14555  1.0000
  Ba  Ba1       1.0  0.75175  0.75000  0.35445  1.0000
