data_image0
_chemical_formula_structural       O16Ce8Ba4
_chemical_formula_sum              "O16 Ce8 Ba4"
_cell_length_a       10.8073
_cell_length_b       3.67451
_cell_length_c       12.725
_cell_angle_alpha    90
_cell_angle_beta     90
_cell_angle_gamma    90

_space_group_name_H-M_alt    "P 1"
_space_group_IT_number       1

loop_
  _space_group_symop_operation_xyz
  'x, y, z'

loop_
  _atom_site_type_symbol
  _atom_site_label
  _atom_site_symmetry_multiplicity
  _atom_site_fract_x
  _atom_site_fract_y
  _atom_site_fract_z
  _atom_site_occupancy
  O   O3        1.0  0.98521  0.25000  0.71606  1.0000
  O   O1        1.0  0.28892  0.25000  0.32679  1.0000
  O   O1        1.0  0.21108  0.75000  0.82679  1.0000
  O   O1        1.0  0.71108  0.75000  0.67321  1.0000
  O   O2        1.0  0.87788  0.25000  0.48153  1.0000
  O   O2        1.0  0.37788  0.25000  0.01847  1.0000
  O   O2        1.0  0.12212  0.75000  0.51847  1.0000
  O   O2        1.0  0.62212  0.75000  0.98153  1.0000
  O   O1        1.0  0.78892  0.25000  0.17321  1.0000
  O   O3        1.0  0.48521  0.25000  0.78394  1.0000
  O   O3        1.0  0.01479  0.75000  0.28394  1.0000
  O   O3        1.0  0.51479  0.75000  0.21606  1.0000
  O   O4        1.0  0.57175  0.25000  0.42382  1.0000
  O   O4        1.0  0.07175  0.25000  0.07618  1.0000
  O   O4        1.0  0.42825  0.75000  0.57618  1.0000
  O   O4        1.0  0.92825  0.75000  0.92382  1.0000
  Ce  Ce1       1.0  0.57754  0.25000  0.11151  1.0000
  Ce  Ce1       1.0  0.07754  0.25000  0.38849  1.0000
  Ce  Ce1       1.0  0.42246  0.75000  0.88849  1.0000
  Ce  Ce1       1.0  0.92246  0.75000  0.61151  1.0000
  Ce  Ce2       1.0  0.07734  0.25000  0.88679  1.0000
  Ce  Ce2       1.0  0.57734  0.25000  0.61321  1.0000
  Ce  Ce2       1.0  0.92266  0.75000  0.11321  1.0000
  Ce  Ce2       1.0  0.42266  0.75000  0.38679  1.0000
  Ba  Ba1       1.0  0.74785  0.25000  0.85292  1.0000
  Ba  Ba1       1.0  0.24785  0.25000  0.64708  1.0000
  Ba  Ba1       1.0  0.25215  0.75000  0.14708  1.0000
  Ba  Ba1       1.0  0.75215  0.75000  0.35292  1.0000
