# generated using pymatgen
data_NaLi2AsO4
_symmetry_space_group_name_H-M   'P 1'
_cell_length_a   13.89423731
_cell_length_b   15.73735157
_cell_length_c   15.15957308
_cell_angle_alpha   90.00000000
_cell_angle_beta   90.00000000
_cell_angle_gamma   90.00000000
_symmetry_Int_Tables_number   1
_chemical_formula_structural   NaLi2AsO4
_chemical_formula_sum   'Na36 Li72 As36 O144'
_cell_volume   3314.76946969
_cell_formula_units_Z   36
loop_
 _symmetry_equiv_pos_site_id
 _symmetry_equiv_pos_as_xyz
  1  'x, y, z'
loop_
 _atom_site_type_symbol
 _atom_site_label
 _atom_site_symmetry_multiplicity
 _atom_site_fract_x
 _atom_site_fract_y
 _atom_site_fract_z
 _atom_site_occupancy
  Na  Na0  1  0.00000000  0.26567020  0.17387546  1
  Na  Na1  1  0.00000000  0.26567020  0.50720879  1
  Na  Na2  1  0.00000000  0.26567020  0.84054212  1
  Na  Na3  1  0.00000000  0.59900353  0.17387546  1
  Na  Na4  1  0.00000000  0.59900353  0.50720879  1
  Na  Na5  1  0.00000000  0.59900353  0.84054212  1
  Na  Na6  1  0.00000000  0.93233687  0.17387546  1
  Na  Na7  1  0.00000000  0.93233687  0.50720879  1
  Na  Na8  1  0.00000000  0.93233687  0.84054212  1
  Na  Na9  1  0.50000000  0.26567020  0.17387546  1
  Na  Na10  1  0.50000000  0.26567020  0.50720879  1
  Na  Na11  1  0.50000000  0.26567020  0.84054212  1
  Na  Na12  1  0.50000000  0.59900353  0.17387546  1
  Na  Na13  1  0.50000000  0.59900353  0.50720879  1
  Na  Na14  1  0.50000000  0.59900353  0.84054212  1
  Na  Na15  1  0.50000000  0.93233687  0.17387546  1
  Na  Na16  1  0.50000000  0.93233687  0.50720879  1
  Na  Na17  1  0.50000000  0.93233687  0.84054212  1
  Na  Na18  1  0.25000000  0.06766313  0.00720879  1
  Na  Na19  1  0.25000000  0.06766313  0.34054212  1
  Na  Na20  1  0.25000000  0.06766313  0.67387546  1
  Na  Na21  1  0.25000000  0.40099647  0.00720879  1
  Na  Na22  1  0.25000000  0.40099647  0.34054212  1
  Na  Na23  1  0.25000000  0.40099647  0.67387546  1
  Na  Na24  1  0.25000000  0.73432980  0.00720879  1
  Na  Na25  1  0.25000000  0.73432980  0.34054212  1
  Na  Na26  1  0.25000000  0.73432980  0.67387546  1
  Na  Na27  1  0.75000000  0.06766313  0.00720879  1
  Na  Na28  1  0.75000000  0.06766313  0.34054212  1
  Na  Na29  1  0.75000000  0.06766313  0.67387546  1
  Na  Na30  1  0.75000000  0.40099647  0.00720879  1
  Na  Na31  1  0.75000000  0.40099647  0.34054212  1
  Na  Na32  1  0.75000000  0.40099647  0.67387546  1
  Na  Na33  1  0.75000000  0.73432980  0.00720879  1
  Na  Na34  1  0.75000000  0.73432980  0.34054212  1
  Na  Na35  1  0.75000000  0.73432980  0.67387546  1
  Li  Li36  1  0.37468649  0.10752780  0.16946384  1
  Li  Li37  1  0.37468649  0.10752780  0.50279718  1
  Li  Li38  1  0.37468649  0.10752780  0.83613051  1
  Li  Li39  1  0.37468649  0.44086113  0.16946384  1
  Li  Li40  1  0.37468649  0.44086113  0.50279718  1
  Li  Li41  1  0.37468649  0.44086113  0.83613051  1
  Li  Li42  1  0.37468649  0.77419447  0.16946384  1
  Li  Li43  1  0.37468649  0.77419447  0.50279718  1
  Li  Li44  1  0.37468649  0.77419447  0.83613051  1
  Li  Li45  1  0.87468649  0.10752780  0.16946384  1
  Li  Li46  1  0.87468649  0.10752780  0.50279718  1
  Li  Li47  1  0.87468649  0.10752780  0.83613051  1
  Li  Li48  1  0.87468649  0.44086113  0.16946384  1
  Li  Li49  1  0.87468649  0.44086113  0.50279718  1
  Li  Li50  1  0.87468649  0.44086113  0.83613051  1
  Li  Li51  1  0.87468649  0.77419447  0.16946384  1
  Li  Li52  1  0.87468649  0.77419447  0.50279718  1
  Li  Li53  1  0.87468649  0.77419447  0.83613051  1
  Li  Li54  1  0.12468649  0.22580553  0.00279718  1
  Li  Li55  1  0.12468649  0.22580553  0.33613051  1
  Li  Li56  1  0.12468649  0.22580553  0.66946384  1
  Li  Li57  1  0.12468649  0.55913887  0.00279718  1
  Li  Li58  1  0.12468649  0.55913887  0.33613051  1
  Li  Li59  1  0.12468649  0.55913887  0.66946384  1
  Li  Li60  1  0.12468649  0.89247220  0.00279718  1
  Li  Li61  1  0.12468649  0.89247220  0.33613051  1
  Li  Li62  1  0.12468649  0.89247220  0.66946384  1
  Li  Li63  1  0.62468649  0.22580553  0.00279718  1
  Li  Li64  1  0.62468649  0.22580553  0.33613051  1
  Li  Li65  1  0.62468649  0.22580553  0.66946384  1
  Li  Li66  1  0.62468649  0.55913887  0.00279718  1
  Li  Li67  1  0.62468649  0.55913887  0.33613051  1
  Li  Li68  1  0.62468649  0.55913887  0.66946384  1
  Li  Li69  1  0.62468649  0.89247220  0.00279718  1
  Li  Li70  1  0.62468649  0.89247220  0.33613051  1
  Li  Li71  1  0.62468649  0.89247220  0.66946384  1
  Li  Li72  1  0.12531351  0.10752780  0.16946384  1
  Li  Li73  1  0.12531351  0.10752780  0.50279718  1
  Li  Li74  1  0.12531351  0.10752780  0.83613051  1
  Li  Li75  1  0.12531351  0.44086113  0.16946384  1
  Li  Li76  1  0.12531351  0.44086113  0.50279718  1
  Li  Li77  1  0.12531351  0.44086113  0.83613051  1
  Li  Li78  1  0.12531351  0.77419447  0.16946384  1
  Li  Li79  1  0.12531351  0.77419447  0.50279718  1
  Li  Li80  1  0.12531351  0.77419447  0.83613051  1
  Li  Li81  1  0.62531351  0.10752780  0.16946384  1
  Li  Li82  1  0.62531351  0.10752780  0.50279718  1
  Li  Li83  1  0.62531351  0.10752780  0.83613051  1
  Li  Li84  1  0.62531351  0.44086113  0.16946384  1
  Li  Li85  1  0.62531351  0.44086113  0.50279718  1
  Li  Li86  1  0.62531351  0.44086113  0.83613051  1
  Li  Li87  1  0.62531351  0.77419447  0.16946384  1
  Li  Li88  1  0.62531351  0.77419447  0.50279718  1
  Li  Li89  1  0.62531351  0.77419447  0.83613051  1
  Li  Li90  1  0.37531351  0.22580553  0.00279718  1
  Li  Li91  1  0.37531351  0.22580553  0.33613051  1
  Li  Li92  1  0.37531351  0.22580553  0.66946384  1
  Li  Li93  1  0.37531351  0.55913887  0.00279718  1
  Li  Li94  1  0.37531351  0.55913887  0.33613051  1
  Li  Li95  1  0.37531351  0.55913887  0.66946384  1
  Li  Li96  1  0.37531351  0.89247220  0.00279718  1
  Li  Li97  1  0.37531351  0.89247220  0.33613051  1
  Li  Li98  1  0.37531351  0.89247220  0.66946384  1
  Li  Li99  1  0.87531351  0.22580553  0.00279718  1
  Li  Li100  1  0.87531351  0.22580553  0.33613051  1
  Li  Li101  1  0.87531351  0.22580553  0.66946384  1
  Li  Li102  1  0.87531351  0.55913887  0.00279718  1
  Li  Li103  1  0.87531351  0.55913887  0.33613051  1
  Li  Li104  1  0.87531351  0.55913887  0.66946384  1
  Li  Li105  1  0.87531351  0.89247220  0.00279718  1
  Li  Li106  1  0.87531351  0.89247220  0.33613051  1
  Li  Li107  1  0.87531351  0.89247220  0.66946384  1
  As  As108  1  0.25000000  0.27065062  0.16636058  1
  As  As109  1  0.25000000  0.27065062  0.49969392  1
  As  As110  1  0.25000000  0.27065062  0.83302725  1
  As  As111  1  0.25000000  0.60398396  0.16636058  1
  As  As112  1  0.25000000  0.60398396  0.49969392  1
  As  As113  1  0.25000000  0.60398396  0.83302725  1
  As  As114  1  0.25000000  0.93731729  0.16636058  1
  As  As115  1  0.25000000  0.93731729  0.49969392  1
  As  As116  1  0.25000000  0.93731729  0.83302725  1
  As  As117  1  0.75000000  0.27065062  0.16636058  1
  As  As118  1  0.75000000  0.27065062  0.49969392  1
  As  As119  1  0.75000000  0.27065062  0.83302725  1
  As  As120  1  0.75000000  0.60398396  0.16636058  1
  As  As121  1  0.75000000  0.60398396  0.49969392  1
  As  As122  1  0.75000000  0.60398396  0.83302725  1
  As  As123  1  0.75000000  0.93731729  0.16636058  1
  As  As124  1  0.75000000  0.93731729  0.49969392  1
  As  As125  1  0.75000000  0.93731729  0.83302725  1
  As  As126  1  0.00000000  0.06268271  0.33302725  1
  As  As127  1  0.00000000  0.06268271  0.66636058  1
  As  As128  1  0.00000000  0.06268271  0.99969392  1
  As  As129  1  0.00000000  0.39601604  0.33302725  1
  As  As130  1  0.00000000  0.39601604  0.66636058  1
  As  As131  1  0.00000000  0.39601604  0.99969392  1
  As  As132  1  0.00000000  0.72934938  0.33302725  1
  As  As133  1  0.00000000  0.72934938  0.66636058  1
  As  As134  1  0.00000000  0.72934938  0.99969392  1
  As  As135  1  0.50000000  0.06268271  0.33302725  1
  As  As136  1  0.50000000  0.06268271  0.66636058  1
  As  As137  1  0.50000000  0.06268271  0.99969392  1
  As  As138  1  0.50000000  0.39601604  0.33302725  1
  As  As139  1  0.50000000  0.39601604  0.66636058  1
  As  As140  1  0.50000000  0.39601604  0.99969392  1
  As  As141  1  0.50000000  0.72934938  0.33302725  1
  As  As142  1  0.50000000  0.72934938  0.66636058  1
  As  As143  1  0.50000000  0.72934938  0.99969392  1
  O  O144  1  0.00000000  0.28878817  0.02231594  1
  O  O145  1  0.00000000  0.28878817  0.35564927  1
  O  O146  1  0.00000000  0.28878817  0.68898261  1
  O  O147  1  0.00000000  0.62212151  0.02231594  1
  O  O148  1  0.00000000  0.62212151  0.35564927  1
  O  O149  1  0.00000000  0.62212151  0.68898261  1
  O  O150  1  0.00000000  0.95545484  0.02231594  1
  O  O151  1  0.00000000  0.95545484  0.35564927  1
  O  O152  1  0.00000000  0.95545484  0.68898261  1
  O  O153  1  0.50000000  0.28878817  0.02231594  1
  O  O154  1  0.50000000  0.28878817  0.35564927  1
  O  O155  1  0.50000000  0.28878817  0.68898261  1
  O  O156  1  0.50000000  0.62212151  0.02231594  1
  O  O157  1  0.50000000  0.62212151  0.35564927  1
  O  O158  1  0.50000000  0.62212151  0.68898261  1
  O  O159  1  0.50000000  0.95545484  0.02231594  1
  O  O160  1  0.50000000  0.95545484  0.35564927  1
  O  O161  1  0.50000000  0.95545484  0.68898261  1
  O  O162  1  0.00000000  0.07514602  0.22032429  1
  O  O163  1  0.00000000  0.07514602  0.55365763  1
  O  O164  1  0.00000000  0.07514602  0.88699096  1
  O  O165  1  0.00000000  0.40847935  0.22032429  1
  O  O166  1  0.00000000  0.40847935  0.55365763  1
  O  O167  1  0.00000000  0.40847935  0.88699096  1
  O  O168  1  0.00000000  0.74181269  0.22032429  1
  O  O169  1  0.00000000  0.74181269  0.55365763  1
  O  O170  1  0.00000000  0.74181269  0.88699096  1
  O  O171  1  0.50000000  0.07514602  0.22032429  1
  O  O172  1  0.50000000  0.07514602  0.55365763  1
  O  O173  1  0.50000000  0.07514602  0.88699096  1
  O  O174  1  0.50000000  0.40847935  0.22032429  1
  O  O175  1  0.50000000  0.40847935  0.55365763  1
  O  O176  1  0.50000000  0.40847935  0.88699096  1
  O  O177  1  0.50000000  0.74181269  0.22032429  1
  O  O178  1  0.50000000  0.74181269  0.55365763  1
  O  O179  1  0.50000000  0.74181269  0.88699096  1
  O  O180  1  0.25000000  0.04454516  0.18898261  1
  O  O181  1  0.25000000  0.04454516  0.52231594  1
  O  O182  1  0.25000000  0.04454516  0.85564927  1
  O  O183  1  0.25000000  0.37787849  0.18898261  1
  O  O184  1  0.25000000  0.37787849  0.52231594  1
  O  O185  1  0.25000000  0.37787849  0.85564927  1
  O  O186  1  0.25000000  0.71121183  0.18898261  1
  O  O187  1  0.25000000  0.71121183  0.52231594  1
  O  O188  1  0.25000000  0.71121183  0.85564927  1
  O  O189  1  0.75000000  0.04454516  0.18898261  1
  O  O190  1  0.75000000  0.04454516  0.52231594  1
  O  O191  1  0.75000000  0.04454516  0.85564927  1
  O  O192  1  0.75000000  0.37787849  0.18898261  1
  O  O193  1  0.75000000  0.37787849  0.52231594  1
  O  O194  1  0.75000000  0.37787849  0.85564927  1
  O  O195  1  0.75000000  0.71121183  0.18898261  1
  O  O196  1  0.75000000  0.71121183  0.52231594  1
  O  O197  1  0.75000000  0.71121183  0.85564927  1
  O  O198  1  0.25000000  0.25818731  0.05365763  1
  O  O199  1  0.25000000  0.25818731  0.38699096  1
  O  O200  1  0.25000000  0.25818731  0.72032429  1
  O  O201  1  0.25000000  0.59152065  0.05365763  1
  O  O202  1  0.25000000  0.59152065  0.38699096  1
  O  O203  1  0.25000000  0.59152065  0.72032429  1
  O  O204  1  0.25000000  0.92485398  0.05365763  1
  O  O205  1  0.25000000  0.92485398  0.38699096  1
  O  O206  1  0.25000000  0.92485398  0.72032429  1
  O  O207  1  0.75000000  0.25818731  0.05365763  1
  O  O208  1  0.75000000  0.25818731  0.38699096  1
  O  O209  1  0.75000000  0.25818731  0.72032429  1
  O  O210  1  0.75000000  0.59152065  0.05365763  1
  O  O211  1  0.75000000  0.59152065  0.38699096  1
  O  O212  1  0.75000000  0.59152065  0.72032429  1
  O  O213  1  0.75000000  0.92485398  0.05365763  1
  O  O214  1  0.75000000  0.92485398  0.38699096  1
  O  O215  1  0.75000000  0.92485398  0.72032429  1
  O  O216  1  0.39913639  0.10945502  0.04244819  1
  O  O217  1  0.39913639  0.10945502  0.37578152  1
  O  O218  1  0.39913639  0.10945502  0.70911485  1
  O  O219  1  0.39913639  0.44278835  0.04244819  1
  O  O220  1  0.39913639  0.44278835  0.37578152  1
  O  O221  1  0.39913639  0.44278835  0.70911485  1
  O  O222  1  0.39913639  0.77612169  0.04244819  1
  O  O223  1  0.39913639  0.77612169  0.37578152  1
  O  O224  1  0.39913639  0.77612169  0.70911485  1
  O  O225  1  0.89913639  0.10945502  0.04244819  1
  O  O226  1  0.89913639  0.10945502  0.37578152  1
  O  O227  1  0.89913639  0.10945502  0.70911485  1
  O  O228  1  0.89913639  0.44278835  0.04244819  1
  O  O229  1  0.89913639  0.44278835  0.37578152  1
  O  O230  1  0.89913639  0.44278835  0.70911485  1
  O  O231  1  0.89913639  0.77612169  0.04244819  1
  O  O232  1  0.89913639  0.77612169  0.37578152  1
  O  O233  1  0.89913639  0.77612169  0.70911485  1
  O  O234  1  0.35086361  0.22387831  0.20911485  1
  O  O235  1  0.35086361  0.22387831  0.54244819  1
  O  O236  1  0.35086361  0.22387831  0.87578152  1
  O  O237  1  0.35086361  0.55721165  0.20911485  1
  O  O238  1  0.35086361  0.55721165  0.54244819  1
  O  O239  1  0.35086361  0.55721165  0.87578152  1
  O  O240  1  0.35086361  0.89054498  0.20911485  1
  O  O241  1  0.35086361  0.89054498  0.54244819  1
  O  O242  1  0.35086361  0.89054498  0.87578152  1
  O  O243  1  0.85086361  0.22387831  0.20911485  1
  O  O244  1  0.85086361  0.22387831  0.54244819  1
  O  O245  1  0.85086361  0.22387831  0.87578152  1
  O  O246  1  0.85086361  0.55721165  0.20911485  1
  O  O247  1  0.85086361  0.55721165  0.54244819  1
  O  O248  1  0.85086361  0.55721165  0.87578152  1
  O  O249  1  0.85086361  0.89054498  0.20911485  1
  O  O250  1  0.85086361  0.89054498  0.54244819  1
  O  O251  1  0.85086361  0.89054498  0.87578152  1
  O  O252  1  0.14913639  0.22387831  0.20911485  1
  O  O253  1  0.14913639  0.22387831  0.54244819  1
  O  O254  1  0.14913639  0.22387831  0.87578152  1
  O  O255  1  0.14913639  0.55721165  0.20911485  1
  O  O256  1  0.14913639  0.55721165  0.54244819  1
  O  O257  1  0.14913639  0.55721165  0.87578152  1
  O  O258  1  0.14913639  0.89054498  0.20911485  1
  O  O259  1  0.14913639  0.89054498  0.54244819  1
  O  O260  1  0.14913639  0.89054498  0.87578152  1
  O  O261  1  0.64913639  0.22387831  0.20911485  1
  O  O262  1  0.64913639  0.22387831  0.54244819  1
  O  O263  1  0.64913639  0.22387831  0.87578152  1
  O  O264  1  0.64913639  0.55721165  0.20911485  1
  O  O265  1  0.64913639  0.55721165  0.54244819  1
  O  O266  1  0.64913639  0.55721165  0.87578152  1
  O  O267  1  0.64913639  0.89054498  0.20911485  1
  O  O268  1  0.64913639  0.89054498  0.54244819  1
  O  O269  1  0.64913639  0.89054498  0.87578152  1
  O  O270  1  0.10086361  0.10945502  0.04244819  1
  O  O271  1  0.10086361  0.10945502  0.37578152  1
  O  O272  1  0.10086361  0.10945502  0.70911485  1
  O  O273  1  0.10086361  0.44278835  0.04244819  1
  O  O274  1  0.10086361  0.44278835  0.37578152  1
  O  O275  1  0.10086361  0.44278835  0.70911485  1
  O  O276  1  0.10086361  0.77612169  0.04244819  1
  O  O277  1  0.10086361  0.77612169  0.37578152  1
  O  O278  1  0.10086361  0.77612169  0.70911485  1
  O  O279  1  0.60086361  0.10945502  0.04244819  1
  O  O280  1  0.60086361  0.10945502  0.37578152  1
  O  O281  1  0.60086361  0.10945502  0.70911485  1
  O  O282  1  0.60086361  0.44278835  0.04244819  1
  O  O283  1  0.60086361  0.44278835  0.37578152  1
  O  O284  1  0.60086361  0.44278835  0.70911485  1
  O  O285  1  0.60086361  0.77612169  0.04244819  1
  O  O286  1  0.60086361  0.77612169  0.37578152  1
  O  O287  1  0.60086361  0.77612169  0.70911485  1
