# generated using pymatgen
data_HfO2
_symmetry_space_group_name_H-M   'P 1'
_cell_length_a   15.23818791
_cell_length_b   15.49224951
_cell_length_c   15.70941258
_cell_angle_alpha   90.00000000
_cell_angle_beta   99.67647126
_cell_angle_gamma   90.00000000
_symmetry_Int_Tables_number   1
_chemical_formula_structural   HfO2
_chemical_formula_sum   'Hf108 O216'
_cell_volume   3655.81731878
_cell_formula_units_Z   108
loop_
 _symmetry_equiv_pos_site_id
 _symmetry_equiv_pos_as_xyz
  1  'x, y, z'
loop_
 _atom_site_type_symbol
 _atom_site_label
 _atom_site_symmetry_multiplicity
 _atom_site_fract_x
 _atom_site_fract_y
 _atom_site_fract_z
 _atom_site_occupancy
  Hf  Hf0  1  0.09254563  0.18092367  0.23568913  1
  Hf  Hf1  1  0.09254563  0.18092367  0.56902246  1
  Hf  Hf2  1  0.09254563  0.18092367  0.90235580  1
  Hf  Hf3  1  0.09254563  0.51425700  0.23568913  1
  Hf  Hf4  1  0.09254563  0.51425700  0.56902246  1
  Hf  Hf5  1  0.09254563  0.51425700  0.90235580  1
  Hf  Hf6  1  0.09254563  0.84759033  0.23568913  1
  Hf  Hf7  1  0.09254563  0.84759033  0.56902246  1
  Hf  Hf8  1  0.09254563  0.84759033  0.90235580  1
  Hf  Hf9  1  0.42587896  0.18092367  0.23568913  1
  Hf  Hf10  1  0.42587896  0.18092367  0.56902246  1
  Hf  Hf11  1  0.42587896  0.18092367  0.90235580  1
  Hf  Hf12  1  0.42587896  0.51425700  0.23568913  1
  Hf  Hf13  1  0.42587896  0.51425700  0.56902246  1
  Hf  Hf14  1  0.42587896  0.51425700  0.90235580  1
  Hf  Hf15  1  0.42587896  0.84759033  0.23568913  1
  Hf  Hf16  1  0.42587896  0.84759033  0.56902246  1
  Hf  Hf17  1  0.42587896  0.84759033  0.90235580  1
  Hf  Hf18  1  0.75921229  0.18092367  0.23568913  1
  Hf  Hf19  1  0.75921229  0.18092367  0.56902246  1
  Hf  Hf20  1  0.75921229  0.18092367  0.90235580  1
  Hf  Hf21  1  0.75921229  0.51425700  0.23568913  1
  Hf  Hf22  1  0.75921229  0.51425700  0.56902246  1
  Hf  Hf23  1  0.75921229  0.51425700  0.90235580  1
  Hf  Hf24  1  0.75921229  0.84759033  0.23568913  1
  Hf  Hf25  1  0.75921229  0.84759033  0.56902246  1
  Hf  Hf26  1  0.75921229  0.84759033  0.90235580  1
  Hf  Hf27  1  0.24078771  0.01425700  0.26431087  1
  Hf  Hf28  1  0.24078771  0.01425700  0.59764420  1
  Hf  Hf29  1  0.24078771  0.01425700  0.93097754  1
  Hf  Hf30  1  0.24078771  0.34759033  0.26431087  1
  Hf  Hf31  1  0.24078771  0.34759033  0.59764420  1
  Hf  Hf32  1  0.24078771  0.34759033  0.93097754  1
  Hf  Hf33  1  0.24078771  0.68092367  0.26431087  1
  Hf  Hf34  1  0.24078771  0.68092367  0.59764420  1
  Hf  Hf35  1  0.24078771  0.68092367  0.93097754  1
  Hf  Hf36  1  0.57412104  0.01425700  0.26431087  1
  Hf  Hf37  1  0.57412104  0.01425700  0.59764420  1
  Hf  Hf38  1  0.57412104  0.01425700  0.93097754  1
  Hf  Hf39  1  0.57412104  0.34759033  0.26431087  1
  Hf  Hf40  1  0.57412104  0.34759033  0.59764420  1
  Hf  Hf41  1  0.57412104  0.34759033  0.93097754  1
  Hf  Hf42  1  0.57412104  0.68092367  0.26431087  1
  Hf  Hf43  1  0.57412104  0.68092367  0.59764420  1
  Hf  Hf44  1  0.57412104  0.68092367  0.93097754  1
  Hf  Hf45  1  0.90745437  0.01425700  0.26431087  1
  Hf  Hf46  1  0.90745437  0.01425700  0.59764420  1
  Hf  Hf47  1  0.90745437  0.01425700  0.93097754  1
  Hf  Hf48  1  0.90745437  0.34759033  0.26431087  1
  Hf  Hf49  1  0.90745437  0.34759033  0.59764420  1
  Hf  Hf50  1  0.90745437  0.34759033  0.93097754  1
  Hf  Hf51  1  0.90745437  0.68092367  0.26431087  1
  Hf  Hf52  1  0.90745437  0.68092367  0.59764420  1
  Hf  Hf53  1  0.90745437  0.68092367  0.93097754  1
  Hf  Hf54  1  0.24078771  0.15240967  0.09764420  1
  Hf  Hf55  1  0.24078771  0.15240967  0.43097754  1
  Hf  Hf56  1  0.24078771  0.15240967  0.76431087  1
  Hf  Hf57  1  0.24078771  0.48574300  0.09764420  1
  Hf  Hf58  1  0.24078771  0.48574300  0.43097754  1
  Hf  Hf59  1  0.24078771  0.48574300  0.76431087  1
  Hf  Hf60  1  0.24078771  0.81907633  0.09764420  1
  Hf  Hf61  1  0.24078771  0.81907633  0.43097754  1
  Hf  Hf62  1  0.24078771  0.81907633  0.76431087  1
  Hf  Hf63  1  0.57412104  0.15240967  0.09764420  1
  Hf  Hf64  1  0.57412104  0.15240967  0.43097754  1
  Hf  Hf65  1  0.57412104  0.15240967  0.76431087  1
  Hf  Hf66  1  0.57412104  0.48574300  0.09764420  1
  Hf  Hf67  1  0.57412104  0.48574300  0.43097754  1
  Hf  Hf68  1  0.57412104  0.48574300  0.76431087  1
  Hf  Hf69  1  0.57412104  0.81907633  0.09764420  1
  Hf  Hf70  1  0.57412104  0.81907633  0.43097754  1
  Hf  Hf71  1  0.57412104  0.81907633  0.76431087  1
  Hf  Hf72  1  0.90745437  0.15240967  0.09764420  1
  Hf  Hf73  1  0.90745437  0.15240967  0.43097754  1
  Hf  Hf74  1  0.90745437  0.15240967  0.76431087  1
  Hf  Hf75  1  0.90745437  0.48574300  0.09764420  1
  Hf  Hf76  1  0.90745437  0.48574300  0.43097754  1
  Hf  Hf77  1  0.90745437  0.48574300  0.76431087  1
  Hf  Hf78  1  0.90745437  0.81907633  0.09764420  1
  Hf  Hf79  1  0.90745437  0.81907633  0.43097754  1
  Hf  Hf80  1  0.90745437  0.81907633  0.76431087  1
  Hf  Hf81  1  0.09254563  0.31907633  0.06902246  1
  Hf  Hf82  1  0.09254563  0.31907633  0.40235580  1
  Hf  Hf83  1  0.09254563  0.31907633  0.73568913  1
  Hf  Hf84  1  0.09254563  0.65240967  0.06902246  1
  Hf  Hf85  1  0.09254563  0.65240967  0.40235580  1
  Hf  Hf86  1  0.09254563  0.65240967  0.73568913  1
  Hf  Hf87  1  0.09254563  0.98574300  0.06902246  1
  Hf  Hf88  1  0.09254563  0.98574300  0.40235580  1
  Hf  Hf89  1  0.09254563  0.98574300  0.73568913  1
  Hf  Hf90  1  0.42587896  0.31907633  0.06902246  1
  Hf  Hf91  1  0.42587896  0.31907633  0.40235580  1
  Hf  Hf92  1  0.42587896  0.31907633  0.73568913  1
  Hf  Hf93  1  0.42587896  0.65240967  0.06902246  1
  Hf  Hf94  1  0.42587896  0.65240967  0.40235580  1
  Hf  Hf95  1  0.42587896  0.65240967  0.73568913  1
  Hf  Hf96  1  0.42587896  0.98574300  0.06902246  1
  Hf  Hf97  1  0.42587896  0.98574300  0.40235580  1
  Hf  Hf98  1  0.42587896  0.98574300  0.73568913  1
  Hf  Hf99  1  0.75921229  0.31907633  0.06902246  1
  Hf  Hf100  1  0.75921229  0.31907633  0.40235580  1
  Hf  Hf101  1  0.75921229  0.31907633  0.73568913  1
  Hf  Hf102  1  0.75921229  0.65240967  0.06902246  1
  Hf  Hf103  1  0.75921229  0.65240967  0.40235580  1
  Hf  Hf104  1  0.75921229  0.65240967  0.73568913  1
  Hf  Hf105  1  0.75921229  0.98574300  0.06902246  1
  Hf  Hf106  1  0.75921229  0.98574300  0.40235580  1
  Hf  Hf107  1  0.75921229  0.98574300  0.73568913  1
  O  O108  1  0.14892050  0.08619236  0.32745839  1
  O  O109  1  0.14892050  0.08619236  0.66079172  1
  O  O110  1  0.14892050  0.08619236  0.99412506  1
  O  O111  1  0.14892050  0.41952570  0.32745839  1
  O  O112  1  0.14892050  0.41952570  0.66079172  1
  O  O113  1  0.14892050  0.41952570  0.99412506  1
  O  O114  1  0.14892050  0.75285903  0.32745839  1
  O  O115  1  0.14892050  0.75285903  0.66079172  1
  O  O116  1  0.14892050  0.75285903  0.99412506  1
  O  O117  1  0.48225384  0.08619236  0.32745839  1
  O  O118  1  0.48225384  0.08619236  0.66079172  1
  O  O119  1  0.48225384  0.08619236  0.99412506  1
  O  O120  1  0.48225384  0.41952570  0.32745839  1
  O  O121  1  0.48225384  0.41952570  0.66079172  1
  O  O122  1  0.48225384  0.41952570  0.99412506  1
  O  O123  1  0.48225384  0.75285903  0.32745839  1
  O  O124  1  0.48225384  0.75285903  0.66079172  1
  O  O125  1  0.48225384  0.75285903  0.99412506  1
  O  O126  1  0.81558717  0.08619236  0.32745839  1
  O  O127  1  0.81558717  0.08619236  0.66079172  1
  O  O128  1  0.81558717  0.08619236  0.99412506  1
  O  O129  1  0.81558717  0.41952570  0.32745839  1
  O  O130  1  0.81558717  0.41952570  0.66079172  1
  O  O131  1  0.81558717  0.41952570  0.99412506  1
  O  O132  1  0.81558717  0.75285903  0.32745839  1
  O  O133  1  0.81558717  0.75285903  0.66079172  1
  O  O134  1  0.81558717  0.75285903  0.99412506  1
  O  O135  1  0.18441283  0.25285903  0.17254161  1
  O  O136  1  0.18441283  0.25285903  0.50587494  1
  O  O137  1  0.18441283  0.25285903  0.83920828  1
  O  O138  1  0.18441283  0.58619236  0.17254161  1
  O  O139  1  0.18441283  0.58619236  0.50587494  1
  O  O140  1  0.18441283  0.58619236  0.83920828  1
  O  O141  1  0.18441283  0.91952570  0.17254161  1
  O  O142  1  0.18441283  0.91952570  0.50587494  1
  O  O143  1  0.18441283  0.91952570  0.83920828  1
  O  O144  1  0.51774616  0.25285903  0.17254161  1
  O  O145  1  0.51774616  0.25285903  0.50587494  1
  O  O146  1  0.51774616  0.25285903  0.83920828  1
  O  O147  1  0.51774616  0.58619236  0.17254161  1
  O  O148  1  0.51774616  0.58619236  0.50587494  1
  O  O149  1  0.51774616  0.58619236  0.83920828  1
  O  O150  1  0.51774616  0.91952570  0.17254161  1
  O  O151  1  0.51774616  0.91952570  0.50587494  1
  O  O152  1  0.51774616  0.91952570  0.83920828  1
  O  O153  1  0.85107950  0.25285903  0.17254161  1
  O  O154  1  0.85107950  0.25285903  0.50587494  1
  O  O155  1  0.85107950  0.25285903  0.83920828  1
  O  O156  1  0.85107950  0.58619236  0.17254161  1
  O  O157  1  0.85107950  0.58619236  0.50587494  1
  O  O158  1  0.85107950  0.58619236  0.83920828  1
  O  O159  1  0.85107950  0.91952570  0.17254161  1
  O  O160  1  0.85107950  0.91952570  0.50587494  1
  O  O161  1  0.85107950  0.91952570  0.83920828  1
  O  O162  1  0.18441283  0.24714097  0.00587494  1
  O  O163  1  0.18441283  0.24714097  0.33920828  1
  O  O164  1  0.18441283  0.24714097  0.67254161  1
  O  O165  1  0.18441283  0.58047430  0.00587494  1
  O  O166  1  0.18441283  0.58047430  0.33920828  1
  O  O167  1  0.18441283  0.58047430  0.67254161  1
  O  O168  1  0.18441283  0.91380764  0.00587494  1
  O  O169  1  0.18441283  0.91380764  0.33920828  1
  O  O170  1  0.18441283  0.91380764  0.67254161  1
  O  O171  1  0.51774616  0.24714097  0.00587494  1
  O  O172  1  0.51774616  0.24714097  0.33920828  1
  O  O173  1  0.51774616  0.24714097  0.67254161  1
  O  O174  1  0.51774616  0.58047430  0.00587494  1
  O  O175  1  0.51774616  0.58047430  0.33920828  1
  O  O176  1  0.51774616  0.58047430  0.67254161  1
  O  O177  1  0.51774616  0.91380764  0.00587494  1
  O  O178  1  0.51774616  0.91380764  0.33920828  1
  O  O179  1  0.51774616  0.91380764  0.67254161  1
  O  O180  1  0.85107950  0.24714097  0.00587494  1
  O  O181  1  0.85107950  0.24714097  0.33920828  1
  O  O182  1  0.85107950  0.24714097  0.67254161  1
  O  O183  1  0.85107950  0.58047430  0.00587494  1
  O  O184  1  0.85107950  0.58047430  0.33920828  1
  O  O185  1  0.85107950  0.58047430  0.67254161  1
  O  O186  1  0.85107950  0.91380764  0.00587494  1
  O  O187  1  0.85107950  0.91380764  0.33920828  1
  O  O188  1  0.85107950  0.91380764  0.67254161  1
  O  O189  1  0.14892050  0.08047430  0.16079172  1
  O  O190  1  0.14892050  0.08047430  0.49412506  1
  O  O191  1  0.14892050  0.08047430  0.82745839  1
  O  O192  1  0.14892050  0.41380764  0.16079172  1
  O  O193  1  0.14892050  0.41380764  0.49412506  1
  O  O194  1  0.14892050  0.41380764  0.82745839  1
  O  O195  1  0.14892050  0.74714097  0.16079172  1
  O  O196  1  0.14892050  0.74714097  0.49412506  1
  O  O197  1  0.14892050  0.74714097  0.82745839  1
  O  O198  1  0.48225384  0.08047430  0.16079172  1
  O  O199  1  0.48225384  0.08047430  0.49412506  1
  O  O200  1  0.48225384  0.08047430  0.82745839  1
  O  O201  1  0.48225384  0.41380764  0.16079172  1
  O  O202  1  0.48225384  0.41380764  0.49412506  1
  O  O203  1  0.48225384  0.41380764  0.82745839  1
  O  O204  1  0.48225384  0.74714097  0.16079172  1
  O  O205  1  0.48225384  0.74714097  0.49412506  1
  O  O206  1  0.48225384  0.74714097  0.82745839  1
  O  O207  1  0.81558717  0.08047430  0.16079172  1
  O  O208  1  0.81558717  0.08047430  0.49412506  1
  O  O209  1  0.81558717  0.08047430  0.82745839  1
  O  O210  1  0.81558717  0.41380764  0.16079172  1
  O  O211  1  0.81558717  0.41380764  0.49412506  1
  O  O212  1  0.81558717  0.41380764  0.82745839  1
  O  O213  1  0.81558717  0.74714097  0.16079172  1
  O  O214  1  0.81558717  0.74714097  0.49412506  1
  O  O215  1  0.81558717  0.74714097  0.82745839  1
  O  O216  1  0.02430573  0.21976022  0.11260720  1
  O  O217  1  0.02430573  0.21976022  0.44594053  1
  O  O218  1  0.02430573  0.21976022  0.77927386  1
  O  O219  1  0.02430573  0.55309355  0.11260720  1
  O  O220  1  0.02430573  0.55309355  0.44594053  1
  O  O221  1  0.02430573  0.55309355  0.77927386  1
  O  O222  1  0.02430573  0.88642689  0.11260720  1
  O  O223  1  0.02430573  0.88642689  0.44594053  1
  O  O224  1  0.02430573  0.88642689  0.77927386  1
  O  O225  1  0.35763906  0.21976022  0.11260720  1
  O  O226  1  0.35763906  0.21976022  0.44594053  1
  O  O227  1  0.35763906  0.21976022  0.77927386  1
  O  O228  1  0.35763906  0.55309355  0.11260720  1
  O  O229  1  0.35763906  0.55309355  0.44594053  1
  O  O230  1  0.35763906  0.55309355  0.77927386  1
  O  O231  1  0.35763906  0.88642689  0.11260720  1
  O  O232  1  0.35763906  0.88642689  0.44594053  1
  O  O233  1  0.35763906  0.88642689  0.77927386  1
  O  O234  1  0.69097239  0.21976022  0.11260720  1
  O  O235  1  0.69097239  0.21976022  0.44594053  1
  O  O236  1  0.69097239  0.21976022  0.77927386  1
  O  O237  1  0.69097239  0.55309355  0.11260720  1
  O  O238  1  0.69097239  0.55309355  0.44594053  1
  O  O239  1  0.69097239  0.55309355  0.77927386  1
  O  O240  1  0.69097239  0.88642689  0.11260720  1
  O  O241  1  0.69097239  0.88642689  0.44594053  1
  O  O242  1  0.69097239  0.88642689  0.77927386  1
  O  O243  1  0.30902761  0.05309355  0.05405947  1
  O  O244  1  0.30902761  0.05309355  0.38739280  1
  O  O245  1  0.30902761  0.05309355  0.72072614  1
  O  O246  1  0.30902761  0.38642689  0.05405947  1
  O  O247  1  0.30902761  0.38642689  0.38739280  1
  O  O248  1  0.30902761  0.38642689  0.72072614  1
  O  O249  1  0.30902761  0.71976022  0.05405947  1
  O  O250  1  0.30902761  0.71976022  0.38739280  1
  O  O251  1  0.30902761  0.71976022  0.72072614  1
  O  O252  1  0.64236094  0.05309355  0.05405947  1
  O  O253  1  0.64236094  0.05309355  0.38739280  1
  O  O254  1  0.64236094  0.05309355  0.72072614  1
  O  O255  1  0.64236094  0.38642689  0.05405947  1
  O  O256  1  0.64236094  0.38642689  0.38739280  1
  O  O257  1  0.64236094  0.38642689  0.72072614  1
  O  O258  1  0.64236094  0.71976022  0.05405947  1
  O  O259  1  0.64236094  0.71976022  0.38739280  1
  O  O260  1  0.64236094  0.71976022  0.72072614  1
  O  O261  1  0.97569427  0.05309355  0.05405947  1
  O  O262  1  0.97569427  0.05309355  0.38739280  1
  O  O263  1  0.97569427  0.05309355  0.72072614  1
  O  O264  1  0.97569427  0.38642689  0.05405947  1
  O  O265  1  0.97569427  0.38642689  0.38739280  1
  O  O266  1  0.97569427  0.38642689  0.72072614  1
  O  O267  1  0.97569427  0.71976022  0.05405947  1
  O  O268  1  0.97569427  0.71976022  0.38739280  1
  O  O269  1  0.97569427  0.71976022  0.72072614  1
  O  O270  1  0.30902761  0.11357311  0.22072614  1
  O  O271  1  0.30902761  0.11357311  0.55405947  1
  O  O272  1  0.30902761  0.11357311  0.88739280  1
  O  O273  1  0.30902761  0.44690645  0.22072614  1
  O  O274  1  0.30902761  0.44690645  0.55405947  1
  O  O275  1  0.30902761  0.44690645  0.88739280  1
  O  O276  1  0.30902761  0.78023978  0.22072614  1
  O  O277  1  0.30902761  0.78023978  0.55405947  1
  O  O278  1  0.30902761  0.78023978  0.88739280  1
  O  O279  1  0.64236094  0.11357311  0.22072614  1
  O  O280  1  0.64236094  0.11357311  0.55405947  1
  O  O281  1  0.64236094  0.11357311  0.88739280  1
  O  O282  1  0.64236094  0.44690645  0.22072614  1
  O  O283  1  0.64236094  0.44690645  0.55405947  1
  O  O284  1  0.64236094  0.44690645  0.88739280  1
  O  O285  1  0.64236094  0.78023978  0.22072614  1
  O  O286  1  0.64236094  0.78023978  0.55405947  1
  O  O287  1  0.64236094  0.78023978  0.88739280  1
  O  O288  1  0.97569427  0.11357311  0.22072614  1
  O  O289  1  0.97569427  0.11357311  0.55405947  1
  O  O290  1  0.97569427  0.11357311  0.88739280  1
  O  O291  1  0.97569427  0.44690645  0.22072614  1
  O  O292  1  0.97569427  0.44690645  0.55405947  1
  O  O293  1  0.97569427  0.44690645  0.88739280  1
  O  O294  1  0.97569427  0.78023978  0.22072614  1
  O  O295  1  0.97569427  0.78023978  0.55405947  1
  O  O296  1  0.97569427  0.78023978  0.88739280  1
  O  O297  1  0.02430573  0.28023978  0.27927386  1
  O  O298  1  0.02430573  0.28023978  0.61260720  1
  O  O299  1  0.02430573  0.28023978  0.94594053  1
  O  O300  1  0.02430573  0.61357311  0.27927386  1
  O  O301  1  0.02430573  0.61357311  0.61260720  1
  O  O302  1  0.02430573  0.61357311  0.94594053  1
  O  O303  1  0.02430573  0.94690645  0.27927386  1
  O  O304  1  0.02430573  0.94690645  0.61260720  1
  O  O305  1  0.02430573  0.94690645  0.94594053  1
  O  O306  1  0.35763906  0.28023978  0.27927386  1
  O  O307  1  0.35763906  0.28023978  0.61260720  1
  O  O308  1  0.35763906  0.28023978  0.94594053  1
  O  O309  1  0.35763906  0.61357311  0.27927386  1
  O  O310  1  0.35763906  0.61357311  0.61260720  1
  O  O311  1  0.35763906  0.61357311  0.94594053  1
  O  O312  1  0.35763906  0.94690645  0.27927386  1
  O  O313  1  0.35763906  0.94690645  0.61260720  1
  O  O314  1  0.35763906  0.94690645  0.94594053  1
  O  O315  1  0.69097239  0.28023978  0.27927386  1
  O  O316  1  0.69097239  0.28023978  0.61260720  1
  O  O317  1  0.69097239  0.28023978  0.94594053  1
  O  O318  1  0.69097239  0.61357311  0.27927386  1
  O  O319  1  0.69097239  0.61357311  0.61260720  1
  O  O320  1  0.69097239  0.61357311  0.94594053  1
  O  O321  1  0.69097239  0.94690645  0.27927386  1
  O  O322  1  0.69097239  0.94690645  0.61260720  1
  O  O323  1  0.69097239  0.94690645  0.94594053  1
