# generated using pymatgen
data_LiBO2
_symmetry_space_group_name_H-M   'P 1'
_cell_length_a   11.69145200
_cell_length_b   13.10864713
_cell_length_c   12.83585818
_cell_angle_alpha   90.00000000
_cell_angle_beta   114.99598550
_cell_angle_gamma   90.00000000
_symmetry_Int_Tables_number   1
_chemical_formula_structural   LiBO2
_chemical_formula_sum   'Li48 B48 O96'
_cell_volume   1782.95808581
_cell_formula_units_Z   48
loop_
 _symmetry_equiv_pos_site_id
 _symmetry_equiv_pos_as_xyz
  1  'x, y, z'
loop_
 _atom_site_type_symbol
 _atom_site_label
 _atom_site_symmetry_multiplicity
 _atom_site_fract_x
 _atom_site_fract_y
 _atom_site_fract_z
 _atom_site_occupancy
  Li  Li0  1  0.21682157  0.26240981  0.17225561  1
  Li  Li1  1  0.21682157  0.26240981  0.67225561  1
  Li  Li2  1  0.21682157  0.59574314  0.17225561  1
  Li  Li3  1  0.21682157  0.59574314  0.67225561  1
  Li  Li4  1  0.21682157  0.92907648  0.17225561  1
  Li  Li5  1  0.21682157  0.92907648  0.67225561  1
  Li  Li6  1  0.71682157  0.26240981  0.17225561  1
  Li  Li7  1  0.71682157  0.26240981  0.67225561  1
  Li  Li8  1  0.71682157  0.59574314  0.17225561  1
  Li  Li9  1  0.71682157  0.59574314  0.67225561  1
  Li  Li10  1  0.71682157  0.92907648  0.17225561  1
  Li  Li11  1  0.71682157  0.92907648  0.67225561  1
  Li  Li12  1  0.28317843  0.09574314  0.07774439  1
  Li  Li13  1  0.28317843  0.09574314  0.57774439  1
  Li  Li14  1  0.28317843  0.42907648  0.07774439  1
  Li  Li15  1  0.28317843  0.42907648  0.57774439  1
  Li  Li16  1  0.28317843  0.76240981  0.07774439  1
  Li  Li17  1  0.28317843  0.76240981  0.57774439  1
  Li  Li18  1  0.78317843  0.09574314  0.07774439  1
  Li  Li19  1  0.78317843  0.09574314  0.57774439  1
  Li  Li20  1  0.78317843  0.42907648  0.07774439  1
  Li  Li21  1  0.78317843  0.42907648  0.57774439  1
  Li  Li22  1  0.78317843  0.76240981  0.07774439  1
  Li  Li23  1  0.78317843  0.76240981  0.57774439  1
  Li  Li24  1  0.28317843  0.07092352  0.32774439  1
  Li  Li25  1  0.28317843  0.07092352  0.82774439  1
  Li  Li26  1  0.28317843  0.40425686  0.32774439  1
  Li  Li27  1  0.28317843  0.40425686  0.82774439  1
  Li  Li28  1  0.28317843  0.73759019  0.32774439  1
  Li  Li29  1  0.28317843  0.73759019  0.82774439  1
  Li  Li30  1  0.78317843  0.07092352  0.32774439  1
  Li  Li31  1  0.78317843  0.07092352  0.82774439  1
  Li  Li32  1  0.78317843  0.40425686  0.32774439  1
  Li  Li33  1  0.78317843  0.40425686  0.82774439  1
  Li  Li34  1  0.78317843  0.73759019  0.32774439  1
  Li  Li35  1  0.78317843  0.73759019  0.82774439  1
  Li  Li36  1  0.21682157  0.23759019  0.42225561  1
  Li  Li37  1  0.21682157  0.23759019  0.92225561  1
  Li  Li38  1  0.21682157  0.57092352  0.42225561  1
  Li  Li39  1  0.21682157  0.57092352  0.92225561  1
  Li  Li40  1  0.21682157  0.90425686  0.42225561  1
  Li  Li41  1  0.21682157  0.90425686  0.92225561  1
  Li  Li42  1  0.71682157  0.23759019  0.42225561  1
  Li  Li43  1  0.71682157  0.23759019  0.92225561  1
  Li  Li44  1  0.71682157  0.57092352  0.42225561  1
  Li  Li45  1  0.71682157  0.57092352  0.92225561  1
  Li  Li46  1  0.71682157  0.90425686  0.42225561  1
  Li  Li47  1  0.71682157  0.90425686  0.92225561  1
  B  B48  1  0.06239443  0.10775528  0.13637728  1
  B  B49  1  0.06239443  0.10775528  0.63637728  1
  B  B50  1  0.06239443  0.44108861  0.13637728  1
  B  B51  1  0.06239443  0.44108861  0.63637728  1
  B  B52  1  0.06239443  0.77442194  0.13637728  1
  B  B53  1  0.06239443  0.77442194  0.63637728  1
  B  B54  1  0.56239443  0.10775528  0.13637728  1
  B  B55  1  0.56239443  0.10775528  0.63637728  1
  B  B56  1  0.56239443  0.44108861  0.13637728  1
  B  B57  1  0.56239443  0.44108861  0.63637728  1
  B  B58  1  0.56239443  0.77442194  0.13637728  1
  B  B59  1  0.56239443  0.77442194  0.63637728  1
  B  B60  1  0.43760557  0.27442194  0.11362272  1
  B  B61  1  0.43760557  0.27442194  0.61362272  1
  B  B62  1  0.43760557  0.60775528  0.11362272  1
  B  B63  1  0.43760557  0.60775528  0.61362272  1
  B  B64  1  0.43760557  0.94108861  0.11362272  1
  B  B65  1  0.43760557  0.94108861  0.61362272  1
  B  B66  1  0.93760557  0.27442194  0.11362272  1
  B  B67  1  0.93760557  0.27442194  0.61362272  1
  B  B68  1  0.93760557  0.60775528  0.11362272  1
  B  B69  1  0.93760557  0.60775528  0.61362272  1
  B  B70  1  0.93760557  0.94108861  0.11362272  1
  B  B71  1  0.93760557  0.94108861  0.61362272  1
  B  B72  1  0.43760557  0.22557806  0.36362272  1
  B  B73  1  0.43760557  0.22557806  0.86362272  1
  B  B74  1  0.43760557  0.55891139  0.36362272  1
  B  B75  1  0.43760557  0.55891139  0.86362272  1
  B  B76  1  0.43760557  0.89224472  0.36362272  1
  B  B77  1  0.43760557  0.89224472  0.86362272  1
  B  B78  1  0.93760557  0.22557806  0.36362272  1
  B  B79  1  0.93760557  0.22557806  0.86362272  1
  B  B80  1  0.93760557  0.55891139  0.36362272  1
  B  B81  1  0.93760557  0.55891139  0.86362272  1
  B  B82  1  0.93760557  0.89224472  0.36362272  1
  B  B83  1  0.93760557  0.89224472  0.86362272  1
  B  B84  1  0.06239443  0.05891139  0.38637728  1
  B  B85  1  0.06239443  0.05891139  0.88637728  1
  B  B86  1  0.06239443  0.39224472  0.38637728  1
  B  B87  1  0.06239443  0.39224472  0.88637728  1
  B  B88  1  0.06239443  0.72557806  0.38637728  1
  B  B89  1  0.06239443  0.72557806  0.88637728  1
  B  B90  1  0.56239443  0.05891139  0.38637728  1
  B  B91  1  0.56239443  0.05891139  0.88637728  1
  B  B92  1  0.56239443  0.39224472  0.38637728  1
  B  B93  1  0.56239443  0.39224472  0.88637728  1
  B  B94  1  0.56239443  0.72557806  0.38637728  1
  B  B95  1  0.56239443  0.72557806  0.88637728  1
  O  O96  1  0.04249765  0.21430749  0.12956573  1
  O  O97  1  0.04249765  0.21430749  0.62956573  1
  O  O98  1  0.04249765  0.54764083  0.12956573  1
  O  O99  1  0.04249765  0.54764083  0.62956573  1
  O  O100  1  0.04249765  0.88097416  0.12956573  1
  O  O101  1  0.04249765  0.88097416  0.62956573  1
  O  O102  1  0.54249765  0.21430749  0.12956573  1
  O  O103  1  0.54249765  0.21430749  0.62956573  1
  O  O104  1  0.54249765  0.54764083  0.12956573  1
  O  O105  1  0.54249765  0.54764083  0.62956573  1
  O  O106  1  0.54249765  0.88097416  0.12956573  1
  O  O107  1  0.54249765  0.88097416  0.62956573  1
  O  O108  1  0.45750235  0.04764083  0.12043427  1
  O  O109  1  0.45750235  0.04764083  0.62043427  1
  O  O110  1  0.45750235  0.38097416  0.12043427  1
  O  O111  1  0.45750235  0.38097416  0.62043427  1
  O  O112  1  0.45750235  0.71430749  0.12043427  1
  O  O113  1  0.45750235  0.71430749  0.62043427  1
  O  O114  1  0.95750235  0.04764083  0.12043427  1
  O  O115  1  0.95750235  0.04764083  0.62043427  1
  O  O116  1  0.95750235  0.38097416  0.12043427  1
  O  O117  1  0.95750235  0.38097416  0.62043427  1
  O  O118  1  0.95750235  0.71430749  0.12043427  1
  O  O119  1  0.95750235  0.71430749  0.62043427  1
  O  O120  1  0.45750235  0.11902584  0.37043427  1
  O  O121  1  0.45750235  0.11902584  0.87043427  1
  O  O122  1  0.45750235  0.45235917  0.37043427  1
  O  O123  1  0.45750235  0.45235917  0.87043427  1
  O  O124  1  0.45750235  0.78569251  0.37043427  1
  O  O125  1  0.45750235  0.78569251  0.87043427  1
  O  O126  1  0.95750235  0.11902584  0.37043427  1
  O  O127  1  0.95750235  0.11902584  0.87043427  1
  O  O128  1  0.95750235  0.45235917  0.37043427  1
  O  O129  1  0.95750235  0.45235917  0.87043427  1
  O  O130  1  0.95750235  0.78569251  0.37043427  1
  O  O131  1  0.95750235  0.78569251  0.87043427  1
  O  O132  1  0.04249765  0.28569251  0.37956573  1
  O  O133  1  0.04249765  0.28569251  0.87956573  1
  O  O134  1  0.04249765  0.61902584  0.37956573  1
  O  O135  1  0.04249765  0.61902584  0.87956573  1
  O  O136  1  0.04249765  0.95235917  0.37956573  1
  O  O137  1  0.04249765  0.95235917  0.87956573  1
  O  O138  1  0.54249765  0.28569251  0.37956573  1
  O  O139  1  0.54249765  0.28569251  0.87956573  1
  O  O140  1  0.54249765  0.61902584  0.37956573  1
  O  O141  1  0.54249765  0.61902584  0.87956573  1
  O  O142  1  0.54249765  0.95235917  0.37956573  1
  O  O143  1  0.54249765  0.95235917  0.87956573  1
  O  O144  1  0.17810810  0.07437507  0.15886475  1
  O  O145  1  0.17810810  0.07437507  0.65886475  1
  O  O146  1  0.17810810  0.40770840  0.15886475  1
  O  O147  1  0.17810810  0.40770840  0.65886475  1
  O  O148  1  0.17810810  0.74104173  0.15886475  1
  O  O149  1  0.17810810  0.74104173  0.65886475  1
  O  O150  1  0.67810810  0.07437507  0.15886475  1
  O  O151  1  0.67810810  0.07437507  0.65886475  1
  O  O152  1  0.67810810  0.40770840  0.15886475  1
  O  O153  1  0.67810810  0.40770840  0.65886475  1
  O  O154  1  0.67810810  0.74104173  0.15886475  1
  O  O155  1  0.67810810  0.74104173  0.65886475  1
  O  O156  1  0.32189190  0.24104173  0.09113525  1
  O  O157  1  0.32189190  0.24104173  0.59113525  1
  O  O158  1  0.32189190  0.57437507  0.09113525  1
  O  O159  1  0.32189190  0.57437507  0.59113525  1
  O  O160  1  0.32189190  0.90770840  0.09113525  1
  O  O161  1  0.32189190  0.90770840  0.59113525  1
  O  O162  1  0.82189190  0.24104173  0.09113525  1
  O  O163  1  0.82189190  0.24104173  0.59113525  1
  O  O164  1  0.82189190  0.57437507  0.09113525  1
  O  O165  1  0.82189190  0.57437507  0.59113525  1
  O  O166  1  0.82189190  0.90770840  0.09113525  1
  O  O167  1  0.82189190  0.90770840  0.59113525  1
  O  O168  1  0.32189190  0.25895827  0.34113525  1
  O  O169  1  0.32189190  0.25895827  0.84113525  1
  O  O170  1  0.32189190  0.59229160  0.34113525  1
  O  O171  1  0.32189190  0.59229160  0.84113525  1
  O  O172  1  0.32189190  0.92562493  0.34113525  1
  O  O173  1  0.32189190  0.92562493  0.84113525  1
  O  O174  1  0.82189190  0.25895827  0.34113525  1
  O  O175  1  0.82189190  0.25895827  0.84113525  1
  O  O176  1  0.82189190  0.59229160  0.34113525  1
  O  O177  1  0.82189190  0.59229160  0.84113525  1
  O  O178  1  0.82189190  0.92562493  0.34113525  1
  O  O179  1  0.82189190  0.92562493  0.84113525  1
  O  O180  1  0.17810810  0.09229160  0.40886475  1
  O  O181  1  0.17810810  0.09229160  0.90886475  1
  O  O182  1  0.17810810  0.42562493  0.40886475  1
  O  O183  1  0.17810810  0.42562493  0.90886475  1
  O  O184  1  0.17810810  0.75895827  0.40886475  1
  O  O185  1  0.17810810  0.75895827  0.90886475  1
  O  O186  1  0.67810810  0.09229160  0.40886475  1
  O  O187  1  0.67810810  0.09229160  0.90886475  1
  O  O188  1  0.67810810  0.42562493  0.40886475  1
  O  O189  1  0.67810810  0.42562493  0.90886475  1
  O  O190  1  0.67810810  0.75895827  0.40886475  1
  O  O191  1  0.67810810  0.75895827  0.90886475  1
