# generated using pymatgen
data_Li3BO3
_symmetry_space_group_name_H-M   'P 1'
_cell_length_a   9.73837545
_cell_length_b   9.18014049
_cell_length_c   8.29711268
_cell_angle_alpha   90.00000000
_cell_angle_beta   100.94664589
_cell_angle_gamma   90.00000000
_symmetry_Int_Tables_number   1
_chemical_formula_structural   Li3BO3
_chemical_formula_sum   'Li36 B12 O36'
_cell_volume   728.26228839
_cell_formula_units_Z   12
loop_
 _symmetry_equiv_pos_site_id
 _symmetry_equiv_pos_as_xyz
  1  'x, y, z'
loop_
 _atom_site_type_symbol
 _atom_site_label
 _atom_site_symmetry_multiplicity
 _atom_site_fract_x
 _atom_site_fract_y
 _atom_site_fract_z
 _atom_site_occupancy
  Li  Li0  1  0.16482055  0.76680503  0.01872520  1
  Li  Li1  1  0.49815388  0.76680503  0.01872520  1
  Li  Li2  1  0.83148722  0.76680503  0.01872520  1
  Li  Li3  1  0.16851278  0.26680503  0.48127480  1
  Li  Li4  1  0.50184612  0.26680503  0.48127480  1
  Li  Li5  1  0.83517945  0.26680503  0.48127480  1
  Li  Li6  1  0.16851278  0.23319497  0.98127480  1
  Li  Li7  1  0.50184612  0.23319497  0.98127480  1
  Li  Li8  1  0.83517945  0.23319497  0.98127480  1
  Li  Li9  1  0.16482055  0.73319497  0.51872520  1
  Li  Li10  1  0.49815388  0.73319497  0.51872520  1
  Li  Li11  1  0.83148722  0.73319497  0.51872520  1
  Li  Li12  1  0.09206381  0.52304264  0.11281211  1
  Li  Li13  1  0.42539714  0.52304264  0.11281211  1
  Li  Li14  1  0.75873047  0.52304264  0.11281211  1
  Li  Li15  1  0.24126953  0.02304264  0.38718789  1
  Li  Li16  1  0.57460286  0.02304264  0.38718789  1
  Li  Li17  1  0.90793619  0.02304264  0.38718789  1
  Li  Li18  1  0.24126953  0.47695736  0.88718789  1
  Li  Li19  1  0.57460286  0.47695736  0.88718789  1
  Li  Li20  1  0.90793619  0.47695736  0.88718789  1
  Li  Li21  1  0.09206381  0.97695736  0.61281211  1
  Li  Li22  1  0.42539714  0.97695736  0.61281211  1
  Li  Li23  1  0.75873047  0.97695736  0.61281211  1
  Li  Li24  1  0.30288629  0.57351756  0.36778836  1
  Li  Li25  1  0.63621962  0.57351756  0.36778836  1
  Li  Li26  1  0.96955295  0.57351756  0.36778836  1
  Li  Li27  1  0.03044705  0.07351756  0.13221164  1
  Li  Li28  1  0.36378038  0.07351756  0.13221164  1
  Li  Li29  1  0.69711371  0.07351756  0.13221164  1
  Li  Li30  1  0.03044705  0.42648244  0.63221164  1
  Li  Li31  1  0.36378038  0.42648244  0.63221164  1
  Li  Li32  1  0.69711371  0.42648244  0.63221164  1
  Li  Li33  1  0.30288629  0.92648244  0.86778836  1
  Li  Li34  1  0.63621962  0.92648244  0.86778836  1
  Li  Li35  1  0.96955295  0.92648244  0.86778836  1
  B  B36  1  0.06621291  0.81414050  0.25473962  1
  B  B37  1  0.39954625  0.81414050  0.25473962  1
  B  B38  1  0.73287958  0.81414050  0.25473962  1
  B  B39  1  0.26712042  0.31414050  0.24526038  1
  B  B40  1  0.60045375  0.31414050  0.24526038  1
  B  B41  1  0.93378709  0.31414050  0.24526038  1
  B  B42  1  0.26712042  0.18585950  0.74526038  1
  B  B43  1  0.60045375  0.18585950  0.74526038  1
  B  B44  1  0.93378709  0.18585950  0.74526038  1
  B  B45  1  0.06621291  0.68585950  0.75473962  1
  B  B46  1  0.39954625  0.68585950  0.75473962  1
  B  B47  1  0.73287958  0.68585950  0.75473962  1
  O  O48  1  0.00945186  0.86303766  0.09884553  1
  O  O49  1  0.34278519  0.86303766  0.09884553  1
  O  O50  1  0.67611852  0.86303766  0.09884553  1
  O  O51  1  0.32388148  0.36303766  0.40115447  1
  O  O52  1  0.65721481  0.36303766  0.40115447  1
  O  O53  1  0.99054814  0.36303766  0.40115447  1
  O  O54  1  0.32388148  0.13696234  0.90115447  1
  O  O55  1  0.65721481  0.13696234  0.90115447  1
  O  O56  1  0.99054814  0.13696234  0.90115447  1
  O  O57  1  0.00945186  0.63696234  0.59884553  1
  O  O58  1  0.34278519  0.63696234  0.59884553  1
  O  O59  1  0.67611852  0.63696234  0.59884553  1
  O  O60  1  0.07575728  0.90652437  0.38914239  1
  O  O61  1  0.40909061  0.90652437  0.38914239  1
  O  O62  1  0.74242395  0.90652437  0.38914239  1
  O  O63  1  0.25757605  0.40652437  0.11085761  1
  O  O64  1  0.59090939  0.40652437  0.11085761  1
  O  O65  1  0.92424272  0.40652437  0.11085761  1
  O  O66  1  0.25757605  0.09347563  0.61085761  1
  O  O67  1  0.59090939  0.09347563  0.61085761  1
  O  O68  1  0.92424272  0.09347563  0.61085761  1
  O  O69  1  0.07575728  0.59347563  0.88914239  1
  O  O70  1  0.40909061  0.59347563  0.88914239  1
  O  O71  1  0.74242395  0.59347563  0.88914239  1
  O  O72  1  0.12199316  0.67379861  0.27883719  1
  O  O73  1  0.45532650  0.67379861  0.27883719  1
  O  O74  1  0.78865983  0.67379861  0.27883719  1
  O  O75  1  0.21134017  0.17379861  0.22116281  1
  O  O76  1  0.54467350  0.17379861  0.22116281  1
  O  O77  1  0.87800684  0.17379861  0.22116281  1
  O  O78  1  0.21134017  0.32620139  0.72116281  1
  O  O79  1  0.54467350  0.32620139  0.72116281  1
  O  O80  1  0.87800684  0.32620139  0.72116281  1
  O  O81  1  0.12199316  0.82620139  0.77883719  1
  O  O82  1  0.45532650  0.82620139  0.77883719  1
  O  O83  1  0.78865983  0.82620139  0.77883719  1
