# generated using pymatgen
data_NbVO5
_symmetry_space_group_name_H-M   'P 1'
_cell_length_a   11.98340344
_cell_length_b   11.18795581
_cell_length_c   14.06791408
_cell_angle_alpha   90.00000000
_cell_angle_beta   90.00000000
_cell_angle_gamma   90.00000000
_symmetry_Int_Tables_number   1
_chemical_formula_structural   NbVO5
_chemical_formula_sum   'Nb16 V16 O80'
_cell_volume   1886.08225973
_cell_formula_units_Z   16
loop_
 _symmetry_equiv_pos_site_id
 _symmetry_equiv_pos_as_xyz
  1  'x, y, z'
loop_
 _atom_site_type_symbol
 _atom_site_label
 _atom_site_symmetry_multiplicity
 _atom_site_fract_x
 _atom_site_fract_y
 _atom_site_fract_z
 _atom_site_occupancy
  Nb  Nb0  1  0.05940730  0.37500000  0.42135011  1
  Nb  Nb1  1  0.05940730  0.37500000  0.92135011  1
  Nb  Nb2  1  0.05940730  0.87500000  0.42135011  1
  Nb  Nb3  1  0.05940730  0.87500000  0.92135011  1
  Nb  Nb4  1  0.44059270  0.12500000  0.17135011  1
  Nb  Nb5  1  0.44059270  0.12500000  0.67135011  1
  Nb  Nb6  1  0.44059270  0.62500000  0.17135011  1
  Nb  Nb7  1  0.44059270  0.62500000  0.67135011  1
  Nb  Nb8  1  0.55940730  0.37500000  0.32864989  1
  Nb  Nb9  1  0.55940730  0.37500000  0.82864989  1
  Nb  Nb10  1  0.55940730  0.87500000  0.32864989  1
  Nb  Nb11  1  0.55940730  0.87500000  0.82864989  1
  Nb  Nb12  1  0.94059270  0.12500000  0.07864989  1
  Nb  Nb13  1  0.94059270  0.12500000  0.57864989  1
  Nb  Nb14  1  0.94059270  0.62500000  0.07864989  1
  Nb  Nb15  1  0.94059270  0.62500000  0.57864989  1
  V  V16  1  0.15373311  0.12500000  0.26479615  1
  V  V17  1  0.15373311  0.12500000  0.76479615  1
  V  V18  1  0.15373311  0.62500000  0.26479615  1
  V  V19  1  0.15373311  0.62500000  0.76479615  1
  V  V20  1  0.34626689  0.37500000  0.01479615  1
  V  V21  1  0.34626689  0.37500000  0.51479615  1
  V  V22  1  0.34626689  0.87500000  0.01479615  1
  V  V23  1  0.34626689  0.87500000  0.51479615  1
  V  V24  1  0.65373311  0.12500000  0.48520385  1
  V  V25  1  0.65373311  0.12500000  0.98520385  1
  V  V26  1  0.65373311  0.62500000  0.48520385  1
  V  V27  1  0.65373311  0.62500000  0.98520385  1
  V  V28  1  0.84626689  0.37500000  0.23520385  1
  V  V29  1  0.84626689  0.37500000  0.73520385  1
  V  V30  1  0.84626689  0.87500000  0.23520385  1
  V  V31  1  0.84626689  0.87500000  0.73520385  1
  O  O32  1  0.00000000  0.00000000  0.00000000  1
  O  O33  1  0.00000000  0.00000000  0.50000000  1
  O  O34  1  0.00000000  0.50000000  0.00000000  1
  O  O35  1  0.00000000  0.50000000  0.50000000  1
  O  O36  1  0.00000000  0.25000000  0.00000000  1
  O  O37  1  0.00000000  0.25000000  0.50000000  1
  O  O38  1  0.00000000  0.75000000  0.00000000  1
  O  O39  1  0.00000000  0.75000000  0.50000000  1
  O  O40  1  0.07557780  0.12500000  0.16206971  1
  O  O41  1  0.07557780  0.12500000  0.66206971  1
  O  O42  1  0.07557780  0.62500000  0.16206971  1
  O  O43  1  0.07557780  0.62500000  0.66206971  1
  O  O44  1  0.12415573  0.00039995  0.32895457  1
  O  O45  1  0.12415573  0.00039995  0.82895457  1
  O  O46  1  0.12415573  0.50039995  0.32895457  1
  O  O47  1  0.12415573  0.50039995  0.82895457  1
  O  O48  1  0.12415573  0.24960005  0.32895457  1
  O  O49  1  0.12415573  0.24960005  0.82895457  1
  O  O50  1  0.12415573  0.74960005  0.32895457  1
  O  O51  1  0.12415573  0.74960005  0.82895457  1
  O  O52  1  0.20551262  0.37500000  0.48492960  1
  O  O53  1  0.20551262  0.37500000  0.98492960  1
  O  O54  1  0.20551262  0.87500000  0.48492960  1
  O  O55  1  0.20551262  0.87500000  0.98492960  1
  O  O56  1  0.29448738  0.12500000  0.23492960  1
  O  O57  1  0.29448738  0.12500000  0.73492960  1
  O  O58  1  0.29448738  0.62500000  0.23492960  1
  O  O59  1  0.29448738  0.62500000  0.73492960  1
  O  O60  1  0.37584427  0.49960005  0.07895457  1
  O  O61  1  0.37584427  0.49960005  0.57895457  1
  O  O62  1  0.37584427  0.99960005  0.07895457  1
  O  O63  1  0.37584427  0.99960005  0.57895457  1
  O  O64  1  0.37584427  0.25039995  0.07895457  1
  O  O65  1  0.37584427  0.25039995  0.57895457  1
  O  O66  1  0.37584427  0.75039995  0.07895457  1
  O  O67  1  0.37584427  0.75039995  0.57895457  1
  O  O68  1  0.42442220  0.37500000  0.41206971  1
  O  O69  1  0.42442220  0.37500000  0.91206971  1
  O  O70  1  0.42442220  0.87500000  0.41206971  1
  O  O71  1  0.42442220  0.87500000  0.91206971  1
  O  O72  1  0.50000000  0.00000000  0.25000000  1
  O  O73  1  0.50000000  0.00000000  0.75000000  1
  O  O74  1  0.50000000  0.50000000  0.25000000  1
  O  O75  1  0.50000000  0.50000000  0.75000000  1
  O  O76  1  0.50000000  0.25000000  0.25000000  1
  O  O77  1  0.50000000  0.25000000  0.75000000  1
  O  O78  1  0.50000000  0.75000000  0.25000000  1
  O  O79  1  0.50000000  0.75000000  0.75000000  1
  O  O80  1  0.57557780  0.12500000  0.08793029  1
  O  O81  1  0.57557780  0.12500000  0.58793029  1
  O  O82  1  0.57557780  0.62500000  0.08793029  1
  O  O83  1  0.57557780  0.62500000  0.58793029  1
  O  O84  1  0.62415573  0.00039995  0.42104543  1
  O  O85  1  0.62415573  0.00039995  0.92104543  1
  O  O86  1  0.62415573  0.50039995  0.42104543  1
  O  O87  1  0.62415573  0.50039995  0.92104543  1
  O  O88  1  0.62415573  0.24960005  0.42104543  1
  O  O89  1  0.62415573  0.24960005  0.92104543  1
  O  O90  1  0.62415573  0.74960005  0.42104543  1
  O  O91  1  0.62415573  0.74960005  0.92104543  1
  O  O92  1  0.70551262  0.37500000  0.26507040  1
  O  O93  1  0.70551262  0.37500000  0.76507040  1
  O  O94  1  0.70551262  0.87500000  0.26507040  1
  O  O95  1  0.70551262  0.87500000  0.76507040  1
  O  O96  1  0.79448738  0.12500000  0.01507040  1
  O  O97  1  0.79448738  0.12500000  0.51507040  1
  O  O98  1  0.79448738  0.62500000  0.01507040  1
  O  O99  1  0.79448738  0.62500000  0.51507040  1
  O  O100  1  0.87584427  0.25039995  0.17104543  1
  O  O101  1  0.87584427  0.25039995  0.67104543  1
  O  O102  1  0.87584427  0.75039995  0.17104543  1
  O  O103  1  0.87584427  0.75039995  0.67104543  1
  O  O104  1  0.87584427  0.49960005  0.17104543  1
  O  O105  1  0.87584427  0.49960005  0.67104543  1
  O  O106  1  0.87584427  0.99960005  0.17104543  1
  O  O107  1  0.87584427  0.99960005  0.67104543  1
  O  O108  1  0.92442220  0.37500000  0.33793029  1
  O  O109  1  0.92442220  0.37500000  0.83793029  1
  O  O110  1  0.92442220  0.87500000  0.33793029  1
  O  O111  1  0.92442220  0.87500000  0.83793029  1
