# generated using pymatgen
data_SrBe3O4
_symmetry_space_group_name_H-M   'P 1'
_cell_length_a   9.17942478
_cell_length_b   9.17942478
_cell_length_c   8.90934302
_cell_angle_alpha   90.00000000
_cell_angle_beta   90.00000000
_cell_angle_gamma   120.00000000
_symmetry_Int_Tables_number   1
_chemical_formula_structural   SrBe3O4
_chemical_formula_sum   'Sr8 Be24 O32'
_cell_volume   650.14053874
_cell_formula_units_Z   8
loop_
 _symmetry_equiv_pos_site_id
 _symmetry_equiv_pos_as_xyz
  1  'x, y, z'
loop_
 _atom_site_type_symbol
 _atom_site_label
 _atom_site_symmetry_multiplicity
 _atom_site_fract_x
 _atom_site_fract_y
 _atom_site_fract_z
 _atom_site_occupancy
  Sr  Sr0  1  0.33333333  0.16666667  0.75000000  1
  Sr  Sr1  1  0.33333333  0.66666667  0.75000000  1
  Sr  Sr2  1  0.83333333  0.16666667  0.75000000  1
  Sr  Sr3  1  0.83333333  0.66666667  0.75000000  1
  Sr  Sr4  1  0.16666667  0.33333333  0.25000000  1
  Sr  Sr5  1  0.16666667  0.83333333  0.25000000  1
  Sr  Sr6  1  0.66666667  0.33333333  0.25000000  1
  Sr  Sr7  1  0.66666667  0.83333333  0.25000000  1
  Be  Be8  1  0.00000000  0.00000000  0.00000000  1
  Be  Be9  1  0.00000000  0.50000000  0.00000000  1
  Be  Be10  1  0.50000000  0.00000000  0.00000000  1
  Be  Be11  1  0.50000000  0.50000000  0.00000000  1
  Be  Be12  1  0.00000000  0.00000000  0.50000000  1
  Be  Be13  1  0.00000000  0.50000000  0.50000000  1
  Be  Be14  1  0.50000000  0.00000000  0.50000000  1
  Be  Be15  1  0.50000000  0.50000000  0.50000000  1
  Be  Be16  1  0.16666667  0.33333333  0.57111140  1
  Be  Be17  1  0.16666667  0.83333333  0.57111140  1
  Be  Be18  1  0.66666667  0.33333333  0.57111140  1
  Be  Be19  1  0.66666667  0.83333333  0.57111140  1
  Be  Be20  1  0.16666667  0.33333333  0.92888860  1
  Be  Be21  1  0.16666667  0.83333333  0.92888860  1
  Be  Be22  1  0.66666667  0.33333333  0.92888860  1
  Be  Be23  1  0.66666667  0.83333333  0.92888860  1
  Be  Be24  1  0.33333333  0.16666667  0.42888860  1
  Be  Be25  1  0.33333333  0.66666667  0.42888860  1
  Be  Be26  1  0.83333333  0.16666667  0.42888860  1
  Be  Be27  1  0.83333333  0.66666667  0.42888860  1
  Be  Be28  1  0.33333333  0.16666667  0.07111140  1
  Be  Be29  1  0.33333333  0.66666667  0.07111140  1
  Be  Be30  1  0.83333333  0.16666667  0.07111140  1
  Be  Be31  1  0.83333333  0.66666667  0.07111140  1
  O  O32  1  0.33248783  0.00000000  0.50000000  1
  O  O33  1  0.33248783  0.50000000  0.50000000  1
  O  O34  1  0.83248783  0.00000000  0.50000000  1
  O  O35  1  0.83248783  0.50000000  0.50000000  1
  O  O36  1  0.16751217  0.16751217  0.00000000  1
  O  O37  1  0.16751217  0.66751217  0.00000000  1
  O  O38  1  0.66751217  0.16751217  0.00000000  1
  O  O39  1  0.66751217  0.66751217  0.00000000  1
  O  O40  1  0.33333333  0.16666667  0.25000000  1
  O  O41  1  0.33333333  0.66666667  0.25000000  1
  O  O42  1  0.83333333  0.16666667  0.25000000  1
  O  O43  1  0.83333333  0.66666667  0.25000000  1
  O  O44  1  0.16666667  0.33333333  0.75000000  1
  O  O45  1  0.16666667  0.83333333  0.75000000  1
  O  O46  1  0.66666667  0.33333333  0.75000000  1
  O  O47  1  0.66666667  0.83333333  0.75000000  1
  O  O48  1  0.33248783  0.00000000  0.00000000  1
  O  O49  1  0.33248783  0.50000000  0.00000000  1
  O  O50  1  0.83248783  0.00000000  0.00000000  1
  O  O51  1  0.83248783  0.50000000  0.00000000  1
  O  O52  1  0.16751217  0.16751217  0.50000000  1
  O  O53  1  0.16751217  0.66751217  0.50000000  1
  O  O54  1  0.66751217  0.16751217  0.50000000  1
  O  O55  1  0.66751217  0.66751217  0.50000000  1
  O  O56  1  -0.00000000  0.33248783  0.50000000  1
  O  O57  1  0.00000000  0.83248783  0.50000000  1
  O  O58  1  0.50000000  0.33248783  0.50000000  1
  O  O59  1  0.50000000  0.83248783  0.50000000  1
  O  O60  1  -0.00000000  0.33248783  0.00000000  1
  O  O61  1  0.00000000  0.83248783  0.00000000  1
  O  O62  1  0.50000000  0.33248783  0.00000000  1
  O  O63  1  0.50000000  0.83248783  0.00000000  1
