# generated using pymatgen
data_Sr4Nb2O9
_symmetry_space_group_name_H-M   'P 1'
_cell_length_a   17.61689114
_cell_length_b   17.61689114
_cell_length_c   15.71527609
_cell_angle_alpha   90.00000000
_cell_angle_beta   90.00000000
_cell_angle_gamma   120.00000000
_symmetry_Int_Tables_number   1
_chemical_formula_structural   Sr4Nb2O9
_chemical_formula_sum   'Sr72 Nb36 O162'
_cell_volume   4223.87627444
_cell_formula_units_Z   18
loop_
 _symmetry_equiv_pos_site_id
 _symmetry_equiv_pos_as_xyz
  1  'x, y, z'
loop_
 _atom_site_type_symbol
 _atom_site_label
 _atom_site_symmetry_multiplicity
 _atom_site_fract_x
 _atom_site_fract_y
 _atom_site_fract_z
 _atom_site_occupancy
  Sr  Sr0  1  0.22222222  0.11111111  0.14005286  1
  Sr  Sr1  1  0.22222222  0.44444444  0.14005286  1
  Sr  Sr2  1  0.22222222  0.77777778  0.14005286  1
  Sr  Sr3  1  0.55555556  0.11111111  0.14005286  1
  Sr  Sr4  1  0.55555556  0.44444444  0.14005286  1
  Sr  Sr5  1  0.55555556  0.77777778  0.14005286  1
  Sr  Sr6  1  0.88888889  0.11111111  0.14005286  1
  Sr  Sr7  1  0.88888889  0.44444444  0.14005286  1
  Sr  Sr8  1  0.88888889  0.77777778  0.14005286  1
  Sr  Sr9  1  0.11111111  0.22222222  0.64005286  1
  Sr  Sr10  1  0.11111111  0.55555556  0.64005286  1
  Sr  Sr11  1  0.11111111  0.88888889  0.64005286  1
  Sr  Sr12  1  0.44444444  0.22222222  0.64005286  1
  Sr  Sr13  1  0.44444444  0.55555556  0.64005286  1
  Sr  Sr14  1  0.44444444  0.88888889  0.64005286  1
  Sr  Sr15  1  0.77777778  0.22222222  0.64005286  1
  Sr  Sr16  1  0.77777778  0.55555556  0.64005286  1
  Sr  Sr17  1  0.77777778  0.88888889  0.64005286  1
  Sr  Sr18  1  0.11111111  0.22222222  0.85994714  1
  Sr  Sr19  1  0.11111111  0.55555556  0.85994714  1
  Sr  Sr20  1  0.11111111  0.88888889  0.85994714  1
  Sr  Sr21  1  0.44444444  0.22222222  0.85994714  1
  Sr  Sr22  1  0.44444444  0.55555556  0.85994714  1
  Sr  Sr23  1  0.44444444  0.88888889  0.85994714  1
  Sr  Sr24  1  0.77777778  0.22222222  0.85994714  1
  Sr  Sr25  1  0.77777778  0.55555556  0.85994714  1
  Sr  Sr26  1  0.77777778  0.88888889  0.85994714  1
  Sr  Sr27  1  0.22222222  0.11111111  0.35994714  1
  Sr  Sr28  1  0.22222222  0.44444444  0.35994714  1
  Sr  Sr29  1  0.22222222  0.77777778  0.35994714  1
  Sr  Sr30  1  0.55555556  0.11111111  0.35994714  1
  Sr  Sr31  1  0.55555556  0.44444444  0.35994714  1
  Sr  Sr32  1  0.55555556  0.77777778  0.35994714  1
  Sr  Sr33  1  0.88888889  0.11111111  0.35994714  1
  Sr  Sr34  1  0.88888889  0.44444444  0.35994714  1
  Sr  Sr35  1  0.88888889  0.77777778  0.35994714  1
  Sr  Sr36  1  0.00000000  0.00000000  0.25000000  1
  Sr  Sr37  1  0.00000000  0.33333333  0.25000000  1
  Sr  Sr38  1  0.00000000  0.66666667  0.25000000  1
  Sr  Sr39  1  0.33333333  0.00000000  0.25000000  1
  Sr  Sr40  1  0.33333333  0.33333333  0.25000000  1
  Sr  Sr41  1  0.33333333  0.66666667  0.25000000  1
  Sr  Sr42  1  0.66666667  0.00000000  0.25000000  1
  Sr  Sr43  1  0.66666667  0.33333333  0.25000000  1
  Sr  Sr44  1  0.66666667  0.66666667  0.25000000  1
  Sr  Sr45  1  0.00000000  0.00000000  0.00000000  1
  Sr  Sr46  1  0.00000000  0.33333333  0.00000000  1
  Sr  Sr47  1  0.00000000  0.66666667  0.00000000  1
  Sr  Sr48  1  0.33333333  0.00000000  0.00000000  1
  Sr  Sr49  1  0.33333333  0.33333333  0.00000000  1
  Sr  Sr50  1  0.33333333  0.66666667  0.00000000  1
  Sr  Sr51  1  0.66666667  0.00000000  0.00000000  1
  Sr  Sr52  1  0.66666667  0.33333333  0.00000000  1
  Sr  Sr53  1  0.66666667  0.66666667  0.00000000  1
  Sr  Sr54  1  0.00000000  0.00000000  0.75000000  1
  Sr  Sr55  1  0.00000000  0.33333333  0.75000000  1
  Sr  Sr56  1  0.00000000  0.66666667  0.75000000  1
  Sr  Sr57  1  0.33333333  0.00000000  0.75000000  1
  Sr  Sr58  1  0.33333333  0.33333333  0.75000000  1
  Sr  Sr59  1  0.33333333  0.66666667  0.75000000  1
  Sr  Sr60  1  0.66666667  0.00000000  0.75000000  1
  Sr  Sr61  1  0.66666667  0.33333333  0.75000000  1
  Sr  Sr62  1  0.66666667  0.66666667  0.75000000  1
  Sr  Sr63  1  0.00000000  0.00000000  0.50000000  1
  Sr  Sr64  1  0.00000000  0.33333333  0.50000000  1
  Sr  Sr65  1  0.00000000  0.66666667  0.50000000  1
  Sr  Sr66  1  0.33333333  0.00000000  0.50000000  1
  Sr  Sr67  1  0.33333333  0.33333333  0.50000000  1
  Sr  Sr68  1  0.33333333  0.66666667  0.50000000  1
  Sr  Sr69  1  0.66666667  0.00000000  0.50000000  1
  Sr  Sr70  1  0.66666667  0.33333333  0.50000000  1
  Sr  Sr71  1  0.66666667  0.66666667  0.50000000  1
  Nb  Nb72  1  0.22222222  0.11111111  0.65421236  1
  Nb  Nb73  1  0.22222222  0.44444444  0.65421236  1
  Nb  Nb74  1  0.22222222  0.77777778  0.65421236  1
  Nb  Nb75  1  0.55555556  0.11111111  0.65421236  1
  Nb  Nb76  1  0.55555556  0.44444444  0.65421236  1
  Nb  Nb77  1  0.55555556  0.77777778  0.65421236  1
  Nb  Nb78  1  0.88888889  0.11111111  0.65421236  1
  Nb  Nb79  1  0.88888889  0.44444444  0.65421236  1
  Nb  Nb80  1  0.88888889  0.77777778  0.65421236  1
  Nb  Nb81  1  0.22222222  0.11111111  0.84578764  1
  Nb  Nb82  1  0.22222222  0.44444444  0.84578764  1
  Nb  Nb83  1  0.22222222  0.77777778  0.84578764  1
  Nb  Nb84  1  0.55555556  0.11111111  0.84578764  1
  Nb  Nb85  1  0.55555556  0.44444444  0.84578764  1
  Nb  Nb86  1  0.55555556  0.77777778  0.84578764  1
  Nb  Nb87  1  0.88888889  0.11111111  0.84578764  1
  Nb  Nb88  1  0.88888889  0.44444444  0.84578764  1
  Nb  Nb89  1  0.88888889  0.77777778  0.84578764  1
  Nb  Nb90  1  0.11111111  0.22222222  0.34578764  1
  Nb  Nb91  1  0.11111111  0.55555556  0.34578764  1
  Nb  Nb92  1  0.11111111  0.88888889  0.34578764  1
  Nb  Nb93  1  0.44444444  0.22222222  0.34578764  1
  Nb  Nb94  1  0.44444444  0.55555556  0.34578764  1
  Nb  Nb95  1  0.44444444  0.88888889  0.34578764  1
  Nb  Nb96  1  0.77777778  0.22222222  0.34578764  1
  Nb  Nb97  1  0.77777778  0.55555556  0.34578764  1
  Nb  Nb98  1  0.77777778  0.88888889  0.34578764  1
  Nb  Nb99  1  0.11111111  0.22222222  0.15421236  1
  Nb  Nb100  1  0.11111111  0.55555556  0.15421236  1
  Nb  Nb101  1  0.11111111  0.88888889  0.15421236  1
  Nb  Nb102  1  0.44444444  0.22222222  0.15421236  1
  Nb  Nb103  1  0.44444444  0.55555556  0.15421236  1
  Nb  Nb104  1  0.44444444  0.88888889  0.15421236  1
  Nb  Nb105  1  0.77777778  0.22222222  0.15421236  1
  Nb  Nb106  1  0.77777778  0.55555556  0.15421236  1
  Nb  Nb107  1  0.77777778  0.88888889  0.15421236  1
  O  O108  1  0.02588022  0.11559685  0.10290273  1
  O  O109  1  0.02588022  0.44893018  0.10290273  1
  O  O110  1  0.02588022  0.78226351  0.10290273  1
  O  O111  1  0.35921355  0.11559685  0.10290273  1
  O  O112  1  0.35921355  0.44893018  0.10290273  1
  O  O113  1  0.35921355  0.78226351  0.10290273  1
  O  O114  1  0.69254688  0.11559685  0.10290273  1
  O  O115  1  0.69254688  0.44893018  0.10290273  1
  O  O116  1  0.69254688  0.78226351  0.10290273  1
  O  O117  1  0.11559685  0.08971663  0.60290273  1
  O  O118  1  0.11559685  0.42304996  0.60290273  1
  O  O119  1  0.11559685  0.75638330  0.60290273  1
  O  O120  1  0.44893018  0.08971663  0.60290273  1
  O  O121  1  0.44893018  0.42304996  0.60290273  1
  O  O122  1  0.44893018  0.75638330  0.60290273  1
  O  O123  1  0.78226351  0.08971663  0.60290273  1
  O  O124  1  0.78226351  0.42304996  0.60290273  1
  O  O125  1  0.78226351  0.75638330  0.60290273  1
  O  O126  1  0.21773649  0.24361670  0.39709727  1
  O  O127  1  0.21773649  0.57695004  0.39709727  1
  O  O128  1  0.21773649  0.91028337  0.39709727  1
  O  O129  1  0.55106982  0.24361670  0.39709727  1
  O  O130  1  0.55106982  0.57695004  0.39709727  1
  O  O131  1  0.55106982  0.91028337  0.39709727  1
  O  O132  1  0.88440315  0.24361670  0.39709727  1
  O  O133  1  0.88440315  0.57695004  0.39709727  1
  O  O134  1  0.88440315  0.91028337  0.39709727  1
  O  O135  1  0.14833612  0.01169794  0.75000000  1
  O  O136  1  0.14833612  0.34503128  0.75000000  1
  O  O137  1  0.14833612  0.67836461  0.75000000  1
  O  O138  1  0.48166946  0.01169794  0.75000000  1
  O  O139  1  0.48166946  0.34503128  0.75000000  1
  O  O140  1  0.48166946  0.67836461  0.75000000  1
  O  O141  1  0.81500279  0.01169794  0.75000000  1
  O  O142  1  0.81500279  0.34503128  0.75000000  1
  O  O143  1  0.81500279  0.67836461  0.75000000  1
  O  O144  1  0.13663818  0.14833612  0.25000000  1
  O  O145  1  0.13663818  0.48166946  0.25000000  1
  O  O146  1  0.13663818  0.81500279  0.25000000  1
  O  O147  1  0.46997151  0.14833612  0.25000000  1
  O  O148  1  0.46997151  0.48166946  0.25000000  1
  O  O149  1  0.46997151  0.81500279  0.25000000  1
  O  O150  1  0.80330484  0.14833612  0.25000000  1
  O  O151  1  0.80330484  0.48166946  0.25000000  1
  O  O152  1  0.80330484  0.81500279  0.25000000  1
  O  O153  1  0.11559685  0.08971663  0.89709727  1
  O  O154  1  0.11559685  0.42304996  0.89709727  1
  O  O155  1  0.11559685  0.75638330  0.89709727  1
  O  O156  1  0.44893018  0.08971663  0.89709727  1
  O  O157  1  0.44893018  0.42304996  0.89709727  1
  O  O158  1  0.44893018  0.75638330  0.89709727  1
  O  O159  1  0.78226351  0.08971663  0.89709727  1
  O  O160  1  0.78226351  0.42304996  0.89709727  1
  O  O161  1  0.78226351  0.75638330  0.89709727  1
  O  O162  1  0.08971663  0.30745312  0.10290273  1
  O  O163  1  0.08971663  0.64078645  0.10290273  1
  O  O164  1  0.08971663  0.97411978  0.10290273  1
  O  O165  1  0.42304996  0.30745312  0.10290273  1
  O  O166  1  0.42304996  0.64078645  0.10290273  1
  O  O167  1  0.42304996  0.97411978  0.10290273  1
  O  O168  1  0.75638330  0.30745312  0.10290273  1
  O  O169  1  0.75638330  0.64078645  0.10290273  1
  O  O170  1  0.75638330  0.97411978  0.10290273  1
  O  O171  1  0.19669516  0.18499721  0.75000000  1
  O  O172  1  0.19669516  0.51833054  0.75000000  1
  O  O173  1  0.19669516  0.85166388  0.75000000  1
  O  O174  1  0.53002849  0.18499721  0.75000000  1
  O  O175  1  0.53002849  0.51833054  0.75000000  1
  O  O176  1  0.53002849  0.85166388  0.75000000  1
  O  O177  1  0.86336182  0.18499721  0.75000000  1
  O  O178  1  0.86336182  0.51833054  0.75000000  1
  O  O179  1  0.86336182  0.85166388  0.75000000  1
  O  O180  1  0.30745312  0.21773649  0.89709727  1
  O  O181  1  0.30745312  0.55106982  0.89709727  1
  O  O182  1  0.30745312  0.88440315  0.89709727  1
  O  O183  1  0.64078645  0.21773649  0.89709727  1
  O  O184  1  0.64078645  0.55106982  0.89709727  1
  O  O185  1  0.64078645  0.88440315  0.89709727  1
  O  O186  1  0.97411978  0.21773649  0.89709727  1
  O  O187  1  0.97411978  0.55106982  0.89709727  1
  O  O188  1  0.97411978  0.88440315  0.89709727  1
  O  O189  1  0.32163539  0.13663818  0.75000000  1
  O  O190  1  0.32163539  0.46997151  0.75000000  1
  O  O191  1  0.32163539  0.80330484  0.75000000  1
  O  O192  1  0.65496872  0.13663818  0.75000000  1
  O  O193  1  0.65496872  0.46997151  0.75000000  1
  O  O194  1  0.65496872  0.80330484  0.75000000  1
  O  O195  1  0.98830206  0.13663818  0.75000000  1
  O  O196  1  0.98830206  0.46997151  0.75000000  1
  O  O197  1  0.98830206  0.80330484  0.75000000  1
  O  O198  1  0.01169794  0.19669516  0.25000000  1
  O  O199  1  0.01169794  0.53002849  0.25000000  1
  O  O200  1  0.01169794  0.86336182  0.25000000  1
  O  O201  1  0.34503128  0.19669516  0.25000000  1
  O  O202  1  0.34503128  0.53002849  0.25000000  1
  O  O203  1  0.34503128  0.86336182  0.25000000  1
  O  O204  1  0.67836461  0.19669516  0.25000000  1
  O  O205  1  0.67836461  0.53002849  0.25000000  1
  O  O206  1  0.67836461  0.86336182  0.25000000  1
  O  O207  1  0.18499721  0.32163539  0.25000000  1
  O  O208  1  0.18499721  0.65496872  0.25000000  1
  O  O209  1  0.18499721  0.98830206  0.25000000  1
  O  O210  1  0.51833054  0.32163539  0.25000000  1
  O  O211  1  0.51833054  0.65496872  0.25000000  1
  O  O212  1  0.51833054  0.98830206  0.25000000  1
  O  O213  1  0.85166388  0.32163539  0.25000000  1
  O  O214  1  0.85166388  0.65496872  0.25000000  1
  O  O215  1  0.85166388  0.98830206  0.25000000  1
  O  O216  1  0.08971663  0.30745312  0.39709727  1
  O  O217  1  0.08971663  0.64078645  0.39709727  1
  O  O218  1  0.08971663  0.97411978  0.39709727  1
  O  O219  1  0.42304996  0.30745312  0.39709727  1
  O  O220  1  0.42304996  0.64078645  0.39709727  1
  O  O221  1  0.42304996  0.97411978  0.39709727  1
  O  O222  1  0.75638330  0.30745312  0.39709727  1
  O  O223  1  0.75638330  0.64078645  0.39709727  1
  O  O224  1  0.75638330  0.97411978  0.39709727  1
  O  O225  1  0.02588022  0.11559685  0.39709727  1
  O  O226  1  0.02588022  0.44893018  0.39709727  1
  O  O227  1  0.02588022  0.78226351  0.39709727  1
  O  O228  1  0.35921355  0.11559685  0.39709727  1
  O  O229  1  0.35921355  0.44893018  0.39709727  1
  O  O230  1  0.35921355  0.78226351  0.39709727  1
  O  O231  1  0.69254688  0.11559685  0.39709727  1
  O  O232  1  0.69254688  0.44893018  0.39709727  1
  O  O233  1  0.69254688  0.78226351  0.39709727  1
  O  O234  1  0.24361670  0.02588022  0.60290273  1
  O  O235  1  0.24361670  0.35921355  0.60290273  1
  O  O236  1  0.24361670  0.69254688  0.60290273  1
  O  O237  1  0.57695004  0.02588022  0.60290273  1
  O  O238  1  0.57695004  0.35921355  0.60290273  1
  O  O239  1  0.57695004  0.69254688  0.60290273  1
  O  O240  1  0.91028337  0.02588022  0.60290273  1
  O  O241  1  0.91028337  0.35921355  0.60290273  1
  O  O242  1  0.91028337  0.69254688  0.60290273  1
  O  O243  1  0.24361670  0.02588022  0.89709727  1
  O  O244  1  0.24361670  0.35921355  0.89709727  1
  O  O245  1  0.24361670  0.69254688  0.89709727  1
  O  O246  1  0.57695004  0.02588022  0.89709727  1
  O  O247  1  0.57695004  0.35921355  0.89709727  1
  O  O248  1  0.57695004  0.69254688  0.89709727  1
  O  O249  1  0.91028337  0.02588022  0.89709727  1
  O  O250  1  0.91028337  0.35921355  0.89709727  1
  O  O251  1  0.91028337  0.69254688  0.89709727  1
  O  O252  1  0.30745312  0.21773649  0.60290273  1
  O  O253  1  0.30745312  0.55106982  0.60290273  1
  O  O254  1  0.30745312  0.88440315  0.60290273  1
  O  O255  1  0.64078645  0.21773649  0.60290273  1
  O  O256  1  0.64078645  0.55106982  0.60290273  1
  O  O257  1  0.64078645  0.88440315  0.60290273  1
  O  O258  1  0.97411978  0.21773649  0.60290273  1
  O  O259  1  0.97411978  0.55106982  0.60290273  1
  O  O260  1  0.97411978  0.88440315  0.60290273  1
  O  O261  1  0.21773649  0.24361670  0.10290273  1
  O  O262  1  0.21773649  0.57695004  0.10290273  1
  O  O263  1  0.21773649  0.91028337  0.10290273  1
  O  O264  1  0.55106982  0.24361670  0.10290273  1
  O  O265  1  0.55106982  0.57695004  0.10290273  1
  O  O266  1  0.55106982  0.91028337  0.10290273  1
  O  O267  1  0.88440315  0.24361670  0.10290273  1
  O  O268  1  0.88440315  0.57695004  0.10290273  1
  O  O269  1  0.88440315  0.91028337  0.10290273  1
