# generated using pymatgen
data_ZrO2
_symmetry_space_group_name_H-M   'P 1'
_cell_length_a   10.26147212
_cell_length_b   10.43082085
_cell_length_c   10.59260053
_cell_angle_alpha   90.00000000
_cell_angle_beta   99.58184393
_cell_angle_gamma   90.00000000
_symmetry_Int_Tables_number   1
_chemical_formula_structural   ZrO2
_chemical_formula_sum   'Zr32 O64'
_cell_volume   1117.96748956
_cell_formula_units_Z   32
loop_
 _symmetry_equiv_pos_site_id
 _symmetry_equiv_pos_as_xyz
  1  'x, y, z'
loop_
 _atom_site_type_symbol
 _atom_site_label
 _atom_site_symmetry_multiplicity
 _atom_site_fract_x
 _atom_site_fract_y
 _atom_site_fract_z
 _atom_site_occupancy
  Zr  Zr0  1  0.36138314  0.02149256  0.39530320  1
  Zr  Zr1  1  0.36138314  0.02149256  0.89530320  1
  Zr  Zr2  1  0.36138314  0.52149256  0.39530320  1
  Zr  Zr3  1  0.36138314  0.52149256  0.89530320  1
  Zr  Zr4  1  0.86138314  0.02149256  0.39530320  1
  Zr  Zr5  1  0.86138314  0.02149256  0.89530320  1
  Zr  Zr6  1  0.86138314  0.52149256  0.39530320  1
  Zr  Zr7  1  0.86138314  0.52149256  0.89530320  1
  Zr  Zr8  1  0.36138314  0.22850744  0.14530320  1
  Zr  Zr9  1  0.36138314  0.22850744  0.64530320  1
  Zr  Zr10  1  0.36138314  0.72850744  0.14530320  1
  Zr  Zr11  1  0.36138314  0.72850744  0.64530320  1
  Zr  Zr12  1  0.86138314  0.22850744  0.14530320  1
  Zr  Zr13  1  0.86138314  0.22850744  0.64530320  1
  Zr  Zr14  1  0.86138314  0.72850744  0.14530320  1
  Zr  Zr15  1  0.86138314  0.72850744  0.64530320  1
  Zr  Zr16  1  0.13861686  0.27149256  0.35469680  1
  Zr  Zr17  1  0.13861686  0.27149256  0.85469680  1
  Zr  Zr18  1  0.13861686  0.77149256  0.35469680  1
  Zr  Zr19  1  0.13861686  0.77149256  0.85469680  1
  Zr  Zr20  1  0.63861686  0.27149256  0.35469680  1
  Zr  Zr21  1  0.63861686  0.27149256  0.85469680  1
  Zr  Zr22  1  0.63861686  0.77149256  0.35469680  1
  Zr  Zr23  1  0.63861686  0.77149256  0.85469680  1
  Zr  Zr24  1  0.13861686  0.47850744  0.10469680  1
  Zr  Zr25  1  0.13861686  0.47850744  0.60469680  1
  Zr  Zr26  1  0.13861686  0.97850744  0.10469680  1
  Zr  Zr27  1  0.13861686  0.97850744  0.60469680  1
  Zr  Zr28  1  0.63861686  0.47850744  0.10469680  1
  Zr  Zr29  1  0.63861686  0.47850744  0.60469680  1
  Zr  Zr30  1  0.63861686  0.97850744  0.10469680  1
  Zr  Zr31  1  0.63861686  0.97850744  0.60469680  1
  O  O32  1  0.03525908  0.41865972  0.42032218  1
  O  O33  1  0.03525908  0.41865972  0.92032218  1
  O  O34  1  0.03525908  0.91865972  0.42032218  1
  O  O35  1  0.03525908  0.91865972  0.92032218  1
  O  O36  1  0.53525908  0.41865972  0.42032218  1
  O  O37  1  0.53525908  0.41865972  0.92032218  1
  O  O38  1  0.53525908  0.91865972  0.42032218  1
  O  O39  1  0.53525908  0.91865972  0.92032218  1
  O  O40  1  0.03525908  0.33134028  0.17032218  1
  O  O41  1  0.03525908  0.33134028  0.67032218  1
  O  O42  1  0.03525908  0.83134028  0.17032218  1
  O  O43  1  0.03525908  0.83134028  0.67032218  1
  O  O44  1  0.53525908  0.33134028  0.17032218  1
  O  O45  1  0.53525908  0.33134028  0.67032218  1
  O  O46  1  0.53525908  0.83134028  0.17032218  1
  O  O47  1  0.53525908  0.83134028  0.67032218  1
  O  O48  1  0.27574667  0.37110423  0.01002874  1
  O  O49  1  0.27574667  0.37110423  0.51002874  1
  O  O50  1  0.27574667  0.87110423  0.01002874  1
  O  O51  1  0.27574667  0.87110423  0.51002874  1
  O  O52  1  0.77574667  0.37110423  0.01002874  1
  O  O53  1  0.77574667  0.37110423  0.51002874  1
  O  O54  1  0.77574667  0.87110423  0.01002874  1
  O  O55  1  0.77574667  0.87110423  0.51002874  1
  O  O56  1  0.22425333  0.12110423  0.23997126  1
  O  O57  1  0.22425333  0.12110423  0.73997126  1
  O  O58  1  0.22425333  0.62110423  0.23997126  1
  O  O59  1  0.22425333  0.62110423  0.73997126  1
  O  O60  1  0.72425333  0.12110423  0.23997126  1
  O  O61  1  0.72425333  0.12110423  0.73997126  1
  O  O62  1  0.72425333  0.62110423  0.23997126  1
  O  O63  1  0.72425333  0.62110423  0.73997126  1
  O  O64  1  0.27574667  0.37889577  0.26002874  1
  O  O65  1  0.27574667  0.37889577  0.76002874  1
  O  O66  1  0.27574667  0.87889577  0.26002874  1
  O  O67  1  0.27574667  0.87889577  0.76002874  1
  O  O68  1  0.77574667  0.37889577  0.26002874  1
  O  O69  1  0.77574667  0.37889577  0.76002874  1
  O  O70  1  0.77574667  0.87889577  0.26002874  1
  O  O71  1  0.77574667  0.87889577  0.76002874  1
  O  O72  1  0.22425333  0.12889577  0.48997126  1
  O  O73  1  0.22425333  0.12889577  0.98997126  1
  O  O74  1  0.22425333  0.62889577  0.48997126  1
  O  O75  1  0.22425333  0.62889577  0.98997126  1
  O  O76  1  0.72425333  0.12889577  0.48997126  1
  O  O77  1  0.72425333  0.12889577  0.98997126  1
  O  O78  1  0.72425333  0.62889577  0.48997126  1
  O  O79  1  0.72425333  0.62889577  0.98997126  1
  O  O80  1  0.46474092  0.16865972  0.32967782  1
  O  O81  1  0.46474092  0.16865972  0.82967782  1
  O  O82  1  0.46474092  0.66865972  0.32967782  1
  O  O83  1  0.46474092  0.66865972  0.82967782  1
  O  O84  1  0.96474092  0.16865972  0.32967782  1
  O  O85  1  0.96474092  0.16865972  0.82967782  1
  O  O86  1  0.96474092  0.66865972  0.32967782  1
  O  O87  1  0.96474092  0.66865972  0.82967782  1
  O  O88  1  0.46474092  0.08134028  0.07967782  1
  O  O89  1  0.46474092  0.08134028  0.57967782  1
  O  O90  1  0.46474092  0.58134028  0.07967782  1
  O  O91  1  0.46474092  0.58134028  0.57967782  1
  O  O92  1  0.96474092  0.08134028  0.07967782  1
  O  O93  1  0.96474092  0.08134028  0.57967782  1
  O  O94  1  0.96474092  0.58134028  0.07967782  1
  O  O95  1  0.96474092  0.58134028  0.57967782  1
