# generated using pymatgen
data_Na3BeAl(SiO4)2
_symmetry_space_group_name_H-M   'P 1'
_cell_length_a   13.64032377
_cell_length_b   14.34192781
_cell_length_c   14.56181498
_cell_angle_alpha   90.00000000
_cell_angle_beta   90.00000000
_cell_angle_gamma   90.00000000
_symmetry_Int_Tables_number   1
_chemical_formula_structural   Na3BeAl(SiO4)2
_chemical_formula_sum   'Na48 Be16 Al16 Si32 O128'
_cell_volume   2848.70658551
_cell_formula_units_Z   16
loop_
 _symmetry_equiv_pos_site_id
 _symmetry_equiv_pos_as_xyz
  1  'x, y, z'
loop_
 _atom_site_type_symbol
 _atom_site_label
 _atom_site_symmetry_multiplicity
 _atom_site_fract_x
 _atom_site_fract_y
 _atom_site_fract_z
 _atom_site_occupancy
  Na  Na0  1  0.12500306  0.14401851  0.16200890  1
  Na  Na1  1  0.12500306  0.14401851  0.66200890  1
  Na  Na2  1  0.12500306  0.64401851  0.16200890  1
  Na  Na3  1  0.12500306  0.64401851  0.66200890  1
  Na  Na4  1  0.62500306  0.14401851  0.16200890  1
  Na  Na5  1  0.62500306  0.14401851  0.66200890  1
  Na  Na6  1  0.62500306  0.64401851  0.16200890  1
  Na  Na7  1  0.62500306  0.64401851  0.66200890  1
  Na  Na8  1  0.37499694  0.35598149  0.16200890  1
  Na  Na9  1  0.37499694  0.35598149  0.66200890  1
  Na  Na10  1  0.37499694  0.85598149  0.16200890  1
  Na  Na11  1  0.37499694  0.85598149  0.66200890  1
  Na  Na12  1  0.87499694  0.35598149  0.16200890  1
  Na  Na13  1  0.87499694  0.35598149  0.66200890  1
  Na  Na14  1  0.87499694  0.85598149  0.16200890  1
  Na  Na15  1  0.87499694  0.85598149  0.66200890  1
  Na  Na16  1  0.25000000  0.00000000  0.01677759  1
  Na  Na17  1  0.25000000  0.00000000  0.51677759  1
  Na  Na18  1  0.25000000  0.50000000  0.01677759  1
  Na  Na19  1  0.25000000  0.50000000  0.51677759  1
  Na  Na20  1  0.75000000  0.00000000  0.01677759  1
  Na  Na21  1  0.75000000  0.00000000  0.51677759  1
  Na  Na22  1  0.75000000  0.50000000  0.01677759  1
  Na  Na23  1  0.75000000  0.50000000  0.51677759  1
  Na  Na24  1  0.00000000  0.25000000  0.48322241  1
  Na  Na25  1  0.00000000  0.25000000  0.98322241  1
  Na  Na26  1  0.00000000  0.75000000  0.48322241  1
  Na  Na27  1  0.00000000  0.75000000  0.98322241  1
  Na  Na28  1  0.50000000  0.25000000  0.48322241  1
  Na  Na29  1  0.50000000  0.25000000  0.98322241  1
  Na  Na30  1  0.50000000  0.75000000  0.48322241  1
  Na  Na31  1  0.50000000  0.75000000  0.98322241  1
  Na  Na32  1  0.37500306  0.10598149  0.33799110  1
  Na  Na33  1  0.37500306  0.10598149  0.83799110  1
  Na  Na34  1  0.37500306  0.60598149  0.33799110  1
  Na  Na35  1  0.37500306  0.60598149  0.83799110  1
  Na  Na36  1  0.87500306  0.10598149  0.33799110  1
  Na  Na37  1  0.87500306  0.10598149  0.83799110  1
  Na  Na38  1  0.87500306  0.60598149  0.33799110  1
  Na  Na39  1  0.87500306  0.60598149  0.83799110  1
  Na  Na40  1  0.12499694  0.39401851  0.33799110  1
  Na  Na41  1  0.12499694  0.39401851  0.83799110  1
  Na  Na42  1  0.12499694  0.89401851  0.33799110  1
  Na  Na43  1  0.12499694  0.89401851  0.83799110  1
  Na  Na44  1  0.62499694  0.39401851  0.33799110  1
  Na  Na45  1  0.62499694  0.39401851  0.83799110  1
  Na  Na46  1  0.62499694  0.89401851  0.33799110  1
  Na  Na47  1  0.62499694  0.89401851  0.83799110  1
  Be  Be48  1  0.00000000  0.25000000  0.28510231  1
  Be  Be49  1  0.00000000  0.25000000  0.78510231  1
  Be  Be50  1  0.00000000  0.75000000  0.28510231  1
  Be  Be51  1  0.00000000  0.75000000  0.78510231  1
  Be  Be52  1  0.50000000  0.25000000  0.28510231  1
  Be  Be53  1  0.50000000  0.25000000  0.78510231  1
  Be  Be54  1  0.50000000  0.75000000  0.28510231  1
  Be  Be55  1  0.50000000  0.75000000  0.78510231  1
  Be  Be56  1  0.25000000  0.00000000  0.21489769  1
  Be  Be57  1  0.25000000  0.00000000  0.71489769  1
  Be  Be58  1  0.25000000  0.50000000  0.21489769  1
  Be  Be59  1  0.25000000  0.50000000  0.71489769  1
  Be  Be60  1  0.75000000  0.00000000  0.21489769  1
  Be  Be61  1  0.75000000  0.00000000  0.71489769  1
  Be  Be62  1  0.75000000  0.50000000  0.21489769  1
  Be  Be63  1  0.75000000  0.50000000  0.71489769  1
  Al  Al64  1  0.00000000  0.00000000  0.01802496  1
  Al  Al65  1  0.00000000  0.00000000  0.51802496  1
  Al  Al66  1  0.00000000  0.50000000  0.01802496  1
  Al  Al67  1  0.00000000  0.50000000  0.51802496  1
  Al  Al68  1  0.50000000  0.00000000  0.01802496  1
  Al  Al69  1  0.50000000  0.00000000  0.51802496  1
  Al  Al70  1  0.50000000  0.50000000  0.01802496  1
  Al  Al71  1  0.50000000  0.50000000  0.51802496  1
  Al  Al72  1  0.25000000  0.25000000  0.48197504  1
  Al  Al73  1  0.25000000  0.25000000  0.98197504  1
  Al  Al74  1  0.25000000  0.75000000  0.48197504  1
  Al  Al75  1  0.25000000  0.75000000  0.98197504  1
  Al  Al76  1  0.75000000  0.25000000  0.48197504  1
  Al  Al77  1  0.75000000  0.25000000  0.98197504  1
  Al  Al78  1  0.75000000  0.75000000  0.48197504  1
  Al  Al79  1  0.75000000  0.75000000  0.98197504  1
  Si  Si80  1  0.38217369  0.15189663  0.13005749  1
  Si  Si81  1  0.38217369  0.15189663  0.63005749  1
  Si  Si82  1  0.38217369  0.65189663  0.13005749  1
  Si  Si83  1  0.38217369  0.65189663  0.63005749  1
  Si  Si84  1  0.88217369  0.15189663  0.13005749  1
  Si  Si85  1  0.88217369  0.15189663  0.63005749  1
  Si  Si86  1  0.88217369  0.65189663  0.13005749  1
  Si  Si87  1  0.88217369  0.65189663  0.63005749  1
  Si  Si88  1  0.13217369  0.09810337  0.36994251  1
  Si  Si89  1  0.13217369  0.09810337  0.86994251  1
  Si  Si90  1  0.13217369  0.59810337  0.36994251  1
  Si  Si91  1  0.13217369  0.59810337  0.86994251  1
  Si  Si92  1  0.63217369  0.09810337  0.36994251  1
  Si  Si93  1  0.63217369  0.09810337  0.86994251  1
  Si  Si94  1  0.63217369  0.59810337  0.36994251  1
  Si  Si95  1  0.63217369  0.59810337  0.86994251  1
  Si  Si96  1  0.11782631  0.34810337  0.13005749  1
  Si  Si97  1  0.11782631  0.34810337  0.63005749  1
  Si  Si98  1  0.11782631  0.84810337  0.13005749  1
  Si  Si99  1  0.11782631  0.84810337  0.63005749  1
  Si  Si100  1  0.61782631  0.34810337  0.13005749  1
  Si  Si101  1  0.61782631  0.34810337  0.63005749  1
  Si  Si102  1  0.61782631  0.84810337  0.13005749  1
  Si  Si103  1  0.61782631  0.84810337  0.63005749  1
  Si  Si104  1  0.36782631  0.40189663  0.36994251  1
  Si  Si105  1  0.36782631  0.40189663  0.86994251  1
  Si  Si106  1  0.36782631  0.90189663  0.36994251  1
  Si  Si107  1  0.36782631  0.90189663  0.86994251  1
  Si  Si108  1  0.86782631  0.40189663  0.36994251  1
  Si  Si109  1  0.86782631  0.40189663  0.86994251  1
  Si  Si110  1  0.86782631  0.90189663  0.36994251  1
  Si  Si111  1  0.86782631  0.90189663  0.86994251  1
  O  O112  1  0.02020839  0.40049017  0.08626460  1
  O  O113  1  0.02020839  0.40049017  0.58626460  1
  O  O114  1  0.02020839  0.90049017  0.08626460  1
  O  O115  1  0.02020839  0.90049017  0.58626460  1
  O  O116  1  0.52020839  0.40049017  0.08626460  1
  O  O117  1  0.52020839  0.40049017  0.58626460  1
  O  O118  1  0.52020839  0.90049017  0.08626460  1
  O  O119  1  0.52020839  0.90049017  0.58626460  1
  O  O120  1  0.08809887  0.29223518  0.22270143  1
  O  O121  1  0.08809887  0.29223518  0.72270143  1
  O  O122  1  0.08809887  0.79223518  0.22270143  1
  O  O123  1  0.08809887  0.79223518  0.72270143  1
  O  O124  1  0.58809887  0.29223518  0.22270143  1
  O  O125  1  0.58809887  0.29223518  0.72270143  1
  O  O126  1  0.58809887  0.79223518  0.22270143  1
  O  O127  1  0.58809887  0.79223518  0.72270143  1
  O  O128  1  0.39699869  0.48207991  0.44776924  1
  O  O129  1  0.39699869  0.48207991  0.94776924  1
  O  O130  1  0.39699869  0.98207991  0.44776924  1
  O  O131  1  0.39699869  0.98207991  0.94776924  1
  O  O132  1  0.89699869  0.48207991  0.44776924  1
  O  O133  1  0.89699869  0.48207991  0.94776924  1
  O  O134  1  0.89699869  0.98207991  0.44776924  1
  O  O135  1  0.89699869  0.98207991  0.94776924  1
  O  O136  1  0.10300131  0.01792009  0.44776924  1
  O  O137  1  0.10300131  0.01792009  0.94776924  1
  O  O138  1  0.10300131  0.51792009  0.44776924  1
  O  O139  1  0.10300131  0.51792009  0.94776924  1
  O  O140  1  0.60300131  0.01792009  0.44776924  1
  O  O141  1  0.60300131  0.01792009  0.94776924  1
  O  O142  1  0.60300131  0.51792009  0.44776924  1
  O  O143  1  0.60300131  0.51792009  0.94776924  1
  O  O144  1  0.21022164  0.41761752  0.14499064  1
  O  O145  1  0.21022164  0.41761752  0.64499064  1
  O  O146  1  0.21022164  0.91761752  0.14499064  1
  O  O147  1  0.21022164  0.91761752  0.64499064  1
  O  O148  1  0.71022164  0.41761752  0.14499064  1
  O  O149  1  0.71022164  0.41761752  0.64499064  1
  O  O150  1  0.71022164  0.91761752  0.14499064  1
  O  O151  1  0.71022164  0.91761752  0.64499064  1
  O  O152  1  0.22979161  0.15049017  0.41373540  1
  O  O153  1  0.22979161  0.15049017  0.91373540  1
  O  O154  1  0.22979161  0.65049017  0.41373540  1
  O  O155  1  0.22979161  0.65049017  0.91373540  1
  O  O156  1  0.72979161  0.15049017  0.41373540  1
  O  O157  1  0.72979161  0.15049017  0.91373540  1
  O  O158  1  0.72979161  0.65049017  0.41373540  1
  O  O159  1  0.72979161  0.65049017  0.91373540  1
  O  O160  1  0.47979161  0.09950983  0.08626460  1
  O  O161  1  0.47979161  0.09950983  0.58626460  1
  O  O162  1  0.47979161  0.59950983  0.08626460  1
  O  O163  1  0.47979161  0.59950983  0.58626460  1
  O  O164  1  0.97979161  0.09950983  0.08626460  1
  O  O165  1  0.97979161  0.09950983  0.58626460  1
  O  O166  1  0.97979161  0.59950983  0.08626460  1
  O  O167  1  0.97979161  0.59950983  0.58626460  1
  O  O168  1  0.16190113  0.04223518  0.27729857  1
  O  O169  1  0.16190113  0.04223518  0.77729857  1
  O  O170  1  0.16190113  0.54223518  0.27729857  1
  O  O171  1  0.16190113  0.54223518  0.77729857  1
  O  O172  1  0.66190113  0.04223518  0.27729857  1
  O  O173  1  0.66190113  0.04223518  0.77729857  1
  O  O174  1  0.66190113  0.54223518  0.27729857  1
  O  O175  1  0.66190113  0.54223518  0.77729857  1
  O  O176  1  0.03977836  0.16761752  0.35500936  1
  O  O177  1  0.03977836  0.16761752  0.85500936  1
  O  O178  1  0.03977836  0.66761752  0.35500936  1
  O  O179  1  0.03977836  0.66761752  0.85500936  1
  O  O180  1  0.53977836  0.16761752  0.35500936  1
  O  O181  1  0.53977836  0.16761752  0.85500936  1
  O  O182  1  0.53977836  0.66761752  0.35500936  1
  O  O183  1  0.53977836  0.66761752  0.85500936  1
  O  O184  1  0.33809887  0.45776482  0.27729857  1
  O  O185  1  0.33809887  0.45776482  0.77729857  1
  O  O186  1  0.33809887  0.95776482  0.27729857  1
  O  O187  1  0.33809887  0.95776482  0.77729857  1
  O  O188  1  0.83809887  0.45776482  0.27729857  1
  O  O189  1  0.83809887  0.45776482  0.77729857  1
  O  O190  1  0.83809887  0.95776482  0.27729857  1
  O  O191  1  0.83809887  0.95776482  0.77729857  1
  O  O192  1  0.27020839  0.34950983  0.41373540  1
  O  O193  1  0.27020839  0.34950983  0.91373540  1
  O  O194  1  0.27020839  0.84950983  0.41373540  1
  O  O195  1  0.27020839  0.84950983  0.91373540  1
  O  O196  1  0.77020839  0.34950983  0.41373540  1
  O  O197  1  0.77020839  0.34950983  0.91373540  1
  O  O198  1  0.77020839  0.84950983  0.41373540  1
  O  O199  1  0.77020839  0.84950983  0.91373540  1
  O  O200  1  0.41190113  0.20776482  0.22270143  1
  O  O201  1  0.41190113  0.20776482  0.72270143  1
  O  O202  1  0.41190113  0.70776482  0.22270143  1
  O  O203  1  0.41190113  0.70776482  0.72270143  1
  O  O204  1  0.91190113  0.20776482  0.22270143  1
  O  O205  1  0.91190113  0.20776482  0.72270143  1
  O  O206  1  0.91190113  0.70776482  0.22270143  1
  O  O207  1  0.91190113  0.70776482  0.72270143  1
  O  O208  1  0.14699869  0.26792009  0.05223076  1
  O  O209  1  0.14699869  0.26792009  0.55223076  1
  O  O210  1  0.14699869  0.76792009  0.05223076  1
  O  O211  1  0.14699869  0.76792009  0.55223076  1
  O  O212  1  0.64699869  0.26792009  0.05223076  1
  O  O213  1  0.64699869  0.26792009  0.55223076  1
  O  O214  1  0.64699869  0.76792009  0.05223076  1
  O  O215  1  0.64699869  0.76792009  0.55223076  1
  O  O216  1  0.28977836  0.08238248  0.14499064  1
  O  O217  1  0.28977836  0.08238248  0.64499064  1
  O  O218  1  0.28977836  0.58238248  0.14499064  1
  O  O219  1  0.28977836  0.58238248  0.64499064  1
  O  O220  1  0.78977836  0.08238248  0.14499064  1
  O  O221  1  0.78977836  0.08238248  0.64499064  1
  O  O222  1  0.78977836  0.58238248  0.14499064  1
  O  O223  1  0.78977836  0.58238248  0.64499064  1
  O  O224  1  0.35300131  0.23207991  0.05223076  1
  O  O225  1  0.35300131  0.23207991  0.55223076  1
  O  O226  1  0.35300131  0.73207991  0.05223076  1
  O  O227  1  0.35300131  0.73207991  0.55223076  1
  O  O228  1  0.85300131  0.23207991  0.05223076  1
  O  O229  1  0.85300131  0.23207991  0.55223076  1
  O  O230  1  0.85300131  0.73207991  0.05223076  1
  O  O231  1  0.85300131  0.73207991  0.55223076  1
  O  O232  1  0.46022164  0.33238248  0.35500936  1
  O  O233  1  0.46022164  0.33238248  0.85500936  1
  O  O234  1  0.46022164  0.83238248  0.35500936  1
  O  O235  1  0.46022164  0.83238248  0.85500936  1
  O  O236  1  0.96022164  0.33238248  0.35500936  1
  O  O237  1  0.96022164  0.33238248  0.85500936  1
  O  O238  1  0.96022164  0.83238248  0.35500936  1
  O  O239  1  0.96022164  0.83238248  0.85500936  1
