# generated using pymatgen
data_Ba3Sb2O
_symmetry_space_group_name_H-M   'P 1'
_cell_length_a   24.70935365
_cell_length_b   25.27071114
_cell_length_c   25.44445424
_cell_angle_alpha   90.00000000
_cell_angle_beta   90.00000000
_cell_angle_gamma   90.00000000
_symmetry_Int_Tables_number   1
_chemical_formula_structural   Ba3Sb2O
_chemical_formula_sum   'Ba240 Sb160 O80'
_cell_volume   15888.10088288
_cell_formula_units_Z   80
loop_
 _symmetry_equiv_pos_site_id
 _symmetry_equiv_pos_as_xyz
  1  'x, y, z'
loop_
 _atom_site_type_symbol
 _atom_site_label
 _atom_site_symmetry_multiplicity
 _atom_site_fract_x
 _atom_site_fract_y
 _atom_site_fract_z
 _atom_site_occupancy
  Ba  Ba0  1  0.12215025  0.38123362  0.10000000  1
  Ba  Ba1  1  0.12215025  0.38123362  0.30000000  1
  Ba  Ba2  1  0.12215025  0.38123362  0.50000000  1
  Ba  Ba3  1  0.12215025  0.38123362  0.70000000  1
  Ba  Ba4  1  0.12215025  0.38123362  0.90000000  1
  Ba  Ba5  1  0.12215025  0.88123362  0.10000000  1
  Ba  Ba6  1  0.12215025  0.88123362  0.30000000  1
  Ba  Ba7  1  0.12215025  0.88123362  0.50000000  1
  Ba  Ba8  1  0.12215025  0.88123362  0.70000000  1
  Ba  Ba9  1  0.12215025  0.88123362  0.90000000  1
  Ba  Ba10  1  0.62215025  0.38123362  0.10000000  1
  Ba  Ba11  1  0.62215025  0.38123362  0.30000000  1
  Ba  Ba12  1  0.62215025  0.38123362  0.50000000  1
  Ba  Ba13  1  0.62215025  0.38123362  0.70000000  1
  Ba  Ba14  1  0.62215025  0.38123362  0.90000000  1
  Ba  Ba15  1  0.62215025  0.88123362  0.10000000  1
  Ba  Ba16  1  0.62215025  0.88123362  0.30000000  1
  Ba  Ba17  1  0.62215025  0.88123362  0.50000000  1
  Ba  Ba18  1  0.62215025  0.88123362  0.70000000  1
  Ba  Ba19  1  0.62215025  0.88123362  0.90000000  1
  Ba  Ba20  1  0.37784975  0.11876638  0.10000000  1
  Ba  Ba21  1  0.37784975  0.11876638  0.30000000  1
  Ba  Ba22  1  0.37784975  0.11876638  0.50000000  1
  Ba  Ba23  1  0.37784975  0.11876638  0.70000000  1
  Ba  Ba24  1  0.37784975  0.11876638  0.90000000  1
  Ba  Ba25  1  0.37784975  0.61876638  0.10000000  1
  Ba  Ba26  1  0.37784975  0.61876638  0.30000000  1
  Ba  Ba27  1  0.37784975  0.61876638  0.50000000  1
  Ba  Ba28  1  0.37784975  0.61876638  0.70000000  1
  Ba  Ba29  1  0.37784975  0.61876638  0.90000000  1
  Ba  Ba30  1  0.87784975  0.11876638  0.10000000  1
  Ba  Ba31  1  0.87784975  0.11876638  0.30000000  1
  Ba  Ba32  1  0.87784975  0.11876638  0.50000000  1
  Ba  Ba33  1  0.87784975  0.11876638  0.70000000  1
  Ba  Ba34  1  0.87784975  0.11876638  0.90000000  1
  Ba  Ba35  1  0.87784975  0.61876638  0.10000000  1
  Ba  Ba36  1  0.87784975  0.61876638  0.30000000  1
  Ba  Ba37  1  0.87784975  0.61876638  0.50000000  1
  Ba  Ba38  1  0.87784975  0.61876638  0.70000000  1
  Ba  Ba39  1  0.87784975  0.61876638  0.90000000  1
  Ba  Ba40  1  0.37215025  0.36876638  0.10000000  1
  Ba  Ba41  1  0.37215025  0.36876638  0.30000000  1
  Ba  Ba42  1  0.37215025  0.36876638  0.50000000  1
  Ba  Ba43  1  0.37215025  0.36876638  0.70000000  1
  Ba  Ba44  1  0.37215025  0.36876638  0.90000000  1
  Ba  Ba45  1  0.37215025  0.86876638  0.10000000  1
  Ba  Ba46  1  0.37215025  0.86876638  0.30000000  1
  Ba  Ba47  1  0.37215025  0.86876638  0.50000000  1
  Ba  Ba48  1  0.37215025  0.86876638  0.70000000  1
  Ba  Ba49  1  0.37215025  0.86876638  0.90000000  1
  Ba  Ba50  1  0.87215025  0.36876638  0.10000000  1
  Ba  Ba51  1  0.87215025  0.36876638  0.30000000  1
  Ba  Ba52  1  0.87215025  0.36876638  0.50000000  1
  Ba  Ba53  1  0.87215025  0.36876638  0.70000000  1
  Ba  Ba54  1  0.87215025  0.36876638  0.90000000  1
  Ba  Ba55  1  0.87215025  0.86876638  0.10000000  1
  Ba  Ba56  1  0.87215025  0.86876638  0.30000000  1
  Ba  Ba57  1  0.87215025  0.86876638  0.50000000  1
  Ba  Ba58  1  0.87215025  0.86876638  0.70000000  1
  Ba  Ba59  1  0.87215025  0.86876638  0.90000000  1
  Ba  Ba60  1  0.12784975  0.13123362  0.10000000  1
  Ba  Ba61  1  0.12784975  0.13123362  0.30000000  1
  Ba  Ba62  1  0.12784975  0.13123362  0.50000000  1
  Ba  Ba63  1  0.12784975  0.13123362  0.70000000  1
  Ba  Ba64  1  0.12784975  0.13123362  0.90000000  1
  Ba  Ba65  1  0.12784975  0.63123362  0.10000000  1
  Ba  Ba66  1  0.12784975  0.63123362  0.30000000  1
  Ba  Ba67  1  0.12784975  0.63123362  0.50000000  1
  Ba  Ba68  1  0.12784975  0.63123362  0.70000000  1
  Ba  Ba69  1  0.12784975  0.63123362  0.90000000  1
  Ba  Ba70  1  0.62784975  0.13123362  0.10000000  1
  Ba  Ba71  1  0.62784975  0.13123362  0.30000000  1
  Ba  Ba72  1  0.62784975  0.13123362  0.50000000  1
  Ba  Ba73  1  0.62784975  0.13123362  0.70000000  1
  Ba  Ba74  1  0.62784975  0.13123362  0.90000000  1
  Ba  Ba75  1  0.62784975  0.63123362  0.10000000  1
  Ba  Ba76  1  0.62784975  0.63123362  0.30000000  1
  Ba  Ba77  1  0.62784975  0.63123362  0.50000000  1
  Ba  Ba78  1  0.62784975  0.63123362  0.70000000  1
  Ba  Ba79  1  0.62784975  0.63123362  0.90000000  1
  Ba  Ba80  1  0.09029855  0.49345127  0.00000000  1
  Ba  Ba81  1  0.09029855  0.49345127  0.20000000  1
  Ba  Ba82  1  0.09029855  0.49345127  0.40000000  1
  Ba  Ba83  1  0.09029855  0.49345127  0.60000000  1
  Ba  Ba84  1  0.09029855  0.49345127  0.80000000  1
  Ba  Ba85  1  0.09029855  0.99345127  0.00000000  1
  Ba  Ba86  1  0.09029855  0.99345127  0.20000000  1
  Ba  Ba87  1  0.09029855  0.99345127  0.40000000  1
  Ba  Ba88  1  0.09029855  0.99345127  0.60000000  1
  Ba  Ba89  1  0.09029855  0.99345127  0.80000000  1
  Ba  Ba90  1  0.59029855  0.49345127  0.00000000  1
  Ba  Ba91  1  0.59029855  0.49345127  0.20000000  1
  Ba  Ba92  1  0.59029855  0.49345127  0.40000000  1
  Ba  Ba93  1  0.59029855  0.49345127  0.60000000  1
  Ba  Ba94  1  0.59029855  0.49345127  0.80000000  1
  Ba  Ba95  1  0.59029855  0.99345127  0.00000000  1
  Ba  Ba96  1  0.59029855  0.99345127  0.20000000  1
  Ba  Ba97  1  0.59029855  0.99345127  0.40000000  1
  Ba  Ba98  1  0.59029855  0.99345127  0.60000000  1
  Ba  Ba99  1  0.59029855  0.99345127  0.80000000  1
  Ba  Ba100  1  0.40970145  0.00654873  0.00000000  1
  Ba  Ba101  1  0.40970145  0.00654873  0.20000000  1
  Ba  Ba102  1  0.40970145  0.00654873  0.40000000  1
  Ba  Ba103  1  0.40970145  0.00654873  0.60000000  1
  Ba  Ba104  1  0.40970145  0.00654873  0.80000000  1
  Ba  Ba105  1  0.40970145  0.50654873  0.00000000  1
  Ba  Ba106  1  0.40970145  0.50654873  0.20000000  1
  Ba  Ba107  1  0.40970145  0.50654873  0.40000000  1
  Ba  Ba108  1  0.40970145  0.50654873  0.60000000  1
  Ba  Ba109  1  0.40970145  0.50654873  0.80000000  1
  Ba  Ba110  1  0.90970145  0.00654873  0.00000000  1
  Ba  Ba111  1  0.90970145  0.00654873  0.20000000  1
  Ba  Ba112  1  0.90970145  0.00654873  0.40000000  1
  Ba  Ba113  1  0.90970145  0.00654873  0.60000000  1
  Ba  Ba114  1  0.90970145  0.00654873  0.80000000  1
  Ba  Ba115  1  0.90970145  0.50654873  0.00000000  1
  Ba  Ba116  1  0.90970145  0.50654873  0.20000000  1
  Ba  Ba117  1  0.90970145  0.50654873  0.40000000  1
  Ba  Ba118  1  0.90970145  0.50654873  0.60000000  1
  Ba  Ba119  1  0.90970145  0.50654873  0.80000000  1
  Ba  Ba120  1  0.34029855  0.25654873  0.00000000  1
  Ba  Ba121  1  0.34029855  0.25654873  0.20000000  1
  Ba  Ba122  1  0.34029855  0.25654873  0.40000000  1
  Ba  Ba123  1  0.34029855  0.25654873  0.60000000  1
  Ba  Ba124  1  0.34029855  0.25654873  0.80000000  1
  Ba  Ba125  1  0.34029855  0.75654873  0.00000000  1
  Ba  Ba126  1  0.34029855  0.75654873  0.20000000  1
  Ba  Ba127  1  0.34029855  0.75654873  0.40000000  1
  Ba  Ba128  1  0.34029855  0.75654873  0.60000000  1
  Ba  Ba129  1  0.34029855  0.75654873  0.80000000  1
  Ba  Ba130  1  0.84029855  0.25654873  0.00000000  1
  Ba  Ba131  1  0.84029855  0.25654873  0.20000000  1
  Ba  Ba132  1  0.84029855  0.25654873  0.40000000  1
  Ba  Ba133  1  0.84029855  0.25654873  0.60000000  1
  Ba  Ba134  1  0.84029855  0.25654873  0.80000000  1
  Ba  Ba135  1  0.84029855  0.75654873  0.00000000  1
  Ba  Ba136  1  0.84029855  0.75654873  0.20000000  1
  Ba  Ba137  1  0.84029855  0.75654873  0.40000000  1
  Ba  Ba138  1  0.84029855  0.75654873  0.60000000  1
  Ba  Ba139  1  0.84029855  0.75654873  0.80000000  1
  Ba  Ba140  1  0.15970145  0.24345127  0.00000000  1
  Ba  Ba141  1  0.15970145  0.24345127  0.20000000  1
  Ba  Ba142  1  0.15970145  0.24345127  0.40000000  1
  Ba  Ba143  1  0.15970145  0.24345127  0.60000000  1
  Ba  Ba144  1  0.15970145  0.24345127  0.80000000  1
  Ba  Ba145  1  0.15970145  0.74345127  0.00000000  1
  Ba  Ba146  1  0.15970145  0.74345127  0.20000000  1
  Ba  Ba147  1  0.15970145  0.74345127  0.40000000  1
  Ba  Ba148  1  0.15970145  0.74345127  0.60000000  1
  Ba  Ba149  1  0.15970145  0.74345127  0.80000000  1
  Ba  Ba150  1  0.65970145  0.24345127  0.00000000  1
  Ba  Ba151  1  0.65970145  0.24345127  0.20000000  1
  Ba  Ba152  1  0.65970145  0.24345127  0.40000000  1
  Ba  Ba153  1  0.65970145  0.24345127  0.60000000  1
  Ba  Ba154  1  0.65970145  0.24345127  0.80000000  1
  Ba  Ba155  1  0.65970145  0.74345127  0.00000000  1
  Ba  Ba156  1  0.65970145  0.74345127  0.20000000  1
  Ba  Ba157  1  0.65970145  0.74345127  0.40000000  1
  Ba  Ba158  1  0.65970145  0.74345127  0.60000000  1
  Ba  Ba159  1  0.65970145  0.74345127  0.80000000  1
  Ba  Ba160  1  0.23689777  0.41368779  0.00000000  1
  Ba  Ba161  1  0.23689777  0.41368779  0.20000000  1
  Ba  Ba162  1  0.23689777  0.41368779  0.40000000  1
  Ba  Ba163  1  0.23689777  0.41368779  0.60000000  1
  Ba  Ba164  1  0.23689777  0.41368779  0.80000000  1
  Ba  Ba165  1  0.23689777  0.91368779  0.00000000  1
  Ba  Ba166  1  0.23689777  0.91368779  0.20000000  1
  Ba  Ba167  1  0.23689777  0.91368779  0.40000000  1
  Ba  Ba168  1  0.23689777  0.91368779  0.60000000  1
  Ba  Ba169  1  0.23689777  0.91368779  0.80000000  1
  Ba  Ba170  1  0.73689777  0.41368779  0.00000000  1
  Ba  Ba171  1  0.73689777  0.41368779  0.20000000  1
  Ba  Ba172  1  0.73689777  0.41368779  0.40000000  1
  Ba  Ba173  1  0.73689777  0.41368779  0.60000000  1
  Ba  Ba174  1  0.73689777  0.41368779  0.80000000  1
  Ba  Ba175  1  0.73689777  0.91368779  0.00000000  1
  Ba  Ba176  1  0.73689777  0.91368779  0.20000000  1
  Ba  Ba177  1  0.73689777  0.91368779  0.40000000  1
  Ba  Ba178  1  0.73689777  0.91368779  0.60000000  1
  Ba  Ba179  1  0.73689777  0.91368779  0.80000000  1
  Ba  Ba180  1  0.26310223  0.08631221  0.00000000  1
  Ba  Ba181  1  0.26310223  0.08631221  0.20000000  1
  Ba  Ba182  1  0.26310223  0.08631221  0.40000000  1
  Ba  Ba183  1  0.26310223  0.08631221  0.60000000  1
  Ba  Ba184  1  0.26310223  0.08631221  0.80000000  1
  Ba  Ba185  1  0.26310223  0.58631221  0.00000000  1
  Ba  Ba186  1  0.26310223  0.58631221  0.20000000  1
  Ba  Ba187  1  0.26310223  0.58631221  0.40000000  1
  Ba  Ba188  1  0.26310223  0.58631221  0.60000000  1
  Ba  Ba189  1  0.26310223  0.58631221  0.80000000  1
  Ba  Ba190  1  0.76310223  0.08631221  0.00000000  1
  Ba  Ba191  1  0.76310223  0.08631221  0.20000000  1
  Ba  Ba192  1  0.76310223  0.08631221  0.40000000  1
  Ba  Ba193  1  0.76310223  0.08631221  0.60000000  1
  Ba  Ba194  1  0.76310223  0.08631221  0.80000000  1
  Ba  Ba195  1  0.76310223  0.58631221  0.00000000  1
  Ba  Ba196  1  0.76310223  0.58631221  0.20000000  1
  Ba  Ba197  1  0.76310223  0.58631221  0.40000000  1
  Ba  Ba198  1  0.76310223  0.58631221  0.60000000  1
  Ba  Ba199  1  0.76310223  0.58631221  0.80000000  1
  Ba  Ba200  1  0.48689777  0.33631221  0.00000000  1
  Ba  Ba201  1  0.48689777  0.33631221  0.20000000  1
  Ba  Ba202  1  0.48689777  0.33631221  0.40000000  1
  Ba  Ba203  1  0.48689777  0.33631221  0.60000000  1
  Ba  Ba204  1  0.48689777  0.33631221  0.80000000  1
  Ba  Ba205  1  0.48689777  0.83631221  0.00000000  1
  Ba  Ba206  1  0.48689777  0.83631221  0.20000000  1
  Ba  Ba207  1  0.48689777  0.83631221  0.40000000  1
  Ba  Ba208  1  0.48689777  0.83631221  0.60000000  1
  Ba  Ba209  1  0.48689777  0.83631221  0.80000000  1
  Ba  Ba210  1  0.98689777  0.33631221  0.00000000  1
  Ba  Ba211  1  0.98689777  0.33631221  0.20000000  1
  Ba  Ba212  1  0.98689777  0.33631221  0.40000000  1
  Ba  Ba213  1  0.98689777  0.33631221  0.60000000  1
  Ba  Ba214  1  0.98689777  0.33631221  0.80000000  1
  Ba  Ba215  1  0.98689777  0.83631221  0.00000000  1
  Ba  Ba216  1  0.98689777  0.83631221  0.20000000  1
  Ba  Ba217  1  0.98689777  0.83631221  0.40000000  1
  Ba  Ba218  1  0.98689777  0.83631221  0.60000000  1
  Ba  Ba219  1  0.98689777  0.83631221  0.80000000  1
  Ba  Ba220  1  0.01310223  0.16368779  0.00000000  1
  Ba  Ba221  1  0.01310223  0.16368779  0.20000000  1
  Ba  Ba222  1  0.01310223  0.16368779  0.40000000  1
  Ba  Ba223  1  0.01310223  0.16368779  0.60000000  1
  Ba  Ba224  1  0.01310223  0.16368779  0.80000000  1
  Ba  Ba225  1  0.01310223  0.66368779  0.00000000  1
  Ba  Ba226  1  0.01310223  0.66368779  0.20000000  1
  Ba  Ba227  1  0.01310223  0.66368779  0.40000000  1
  Ba  Ba228  1  0.01310223  0.66368779  0.60000000  1
  Ba  Ba229  1  0.01310223  0.66368779  0.80000000  1
  Ba  Ba230  1  0.51310223  0.16368779  0.00000000  1
  Ba  Ba231  1  0.51310223  0.16368779  0.20000000  1
  Ba  Ba232  1  0.51310223  0.16368779  0.40000000  1
  Ba  Ba233  1  0.51310223  0.16368779  0.60000000  1
  Ba  Ba234  1  0.51310223  0.16368779  0.80000000  1
  Ba  Ba235  1  0.51310223  0.66368779  0.00000000  1
  Ba  Ba236  1  0.51310223  0.66368779  0.20000000  1
  Ba  Ba237  1  0.51310223  0.66368779  0.40000000  1
  Ba  Ba238  1  0.51310223  0.66368779  0.60000000  1
  Ba  Ba239  1  0.51310223  0.66368779  0.80000000  1
  Sb  Sb240  1  0.49333337  0.44367548  0.10000000  1
  Sb  Sb241  1  0.49333337  0.44367548  0.30000000  1
  Sb  Sb242  1  0.49333337  0.44367548  0.50000000  1
  Sb  Sb243  1  0.49333337  0.44367548  0.70000000  1
  Sb  Sb244  1  0.49333337  0.44367548  0.90000000  1
  Sb  Sb245  1  0.49333337  0.94367548  0.10000000  1
  Sb  Sb246  1  0.49333337  0.94367548  0.30000000  1
  Sb  Sb247  1  0.49333337  0.94367548  0.50000000  1
  Sb  Sb248  1  0.49333337  0.94367548  0.70000000  1
  Sb  Sb249  1  0.49333337  0.94367548  0.90000000  1
  Sb  Sb250  1  0.99333337  0.44367548  0.10000000  1
  Sb  Sb251  1  0.99333337  0.44367548  0.30000000  1
  Sb  Sb252  1  0.99333337  0.44367548  0.50000000  1
  Sb  Sb253  1  0.99333337  0.44367548  0.70000000  1
  Sb  Sb254  1  0.99333337  0.44367548  0.90000000  1
  Sb  Sb255  1  0.99333337  0.94367548  0.10000000  1
  Sb  Sb256  1  0.99333337  0.94367548  0.30000000  1
  Sb  Sb257  1  0.99333337  0.94367548  0.50000000  1
  Sb  Sb258  1  0.99333337  0.94367548  0.70000000  1
  Sb  Sb259  1  0.99333337  0.94367548  0.90000000  1
  Sb  Sb260  1  0.24333337  0.30632452  0.10000000  1
  Sb  Sb261  1  0.24333337  0.30632452  0.30000000  1
  Sb  Sb262  1  0.24333337  0.30632452  0.50000000  1
  Sb  Sb263  1  0.24333337  0.30632452  0.70000000  1
  Sb  Sb264  1  0.24333337  0.30632452  0.90000000  1
  Sb  Sb265  1  0.24333337  0.80632452  0.10000000  1
  Sb  Sb266  1  0.24333337  0.80632452  0.30000000  1
  Sb  Sb267  1  0.24333337  0.80632452  0.50000000  1
  Sb  Sb268  1  0.24333337  0.80632452  0.70000000  1
  Sb  Sb269  1  0.24333337  0.80632452  0.90000000  1
  Sb  Sb270  1  0.74333337  0.30632452  0.10000000  1
  Sb  Sb271  1  0.74333337  0.30632452  0.30000000  1
  Sb  Sb272  1  0.74333337  0.30632452  0.50000000  1
  Sb  Sb273  1  0.74333337  0.30632452  0.70000000  1
  Sb  Sb274  1  0.74333337  0.30632452  0.90000000  1
  Sb  Sb275  1  0.74333337  0.80632452  0.10000000  1
  Sb  Sb276  1  0.74333337  0.80632452  0.30000000  1
  Sb  Sb277  1  0.74333337  0.80632452  0.50000000  1
  Sb  Sb278  1  0.74333337  0.80632452  0.70000000  1
  Sb  Sb279  1  0.74333337  0.80632452  0.90000000  1
  Sb  Sb280  1  0.25666663  0.19367548  0.10000000  1
  Sb  Sb281  1  0.25666663  0.19367548  0.30000000  1
  Sb  Sb282  1  0.25666663  0.19367548  0.50000000  1
  Sb  Sb283  1  0.25666663  0.19367548  0.70000000  1
  Sb  Sb284  1  0.25666663  0.19367548  0.90000000  1
  Sb  Sb285  1  0.25666663  0.69367548  0.10000000  1
  Sb  Sb286  1  0.25666663  0.69367548  0.30000000  1
  Sb  Sb287  1  0.25666663  0.69367548  0.50000000  1
  Sb  Sb288  1  0.25666663  0.69367548  0.70000000  1
  Sb  Sb289  1  0.25666663  0.69367548  0.90000000  1
  Sb  Sb290  1  0.75666663  0.19367548  0.10000000  1
  Sb  Sb291  1  0.75666663  0.19367548  0.30000000  1
  Sb  Sb292  1  0.75666663  0.19367548  0.50000000  1
  Sb  Sb293  1  0.75666663  0.19367548  0.70000000  1
  Sb  Sb294  1  0.75666663  0.19367548  0.90000000  1
  Sb  Sb295  1  0.75666663  0.69367548  0.10000000  1
  Sb  Sb296  1  0.75666663  0.69367548  0.30000000  1
  Sb  Sb297  1  0.75666663  0.69367548  0.50000000  1
  Sb  Sb298  1  0.75666663  0.69367548  0.70000000  1
  Sb  Sb299  1  0.75666663  0.69367548  0.90000000  1
  Sb  Sb300  1  0.00666663  0.05632452  0.10000000  1
  Sb  Sb301  1  0.00666663  0.05632452  0.30000000  1
  Sb  Sb302  1  0.00666663  0.05632452  0.50000000  1
  Sb  Sb303  1  0.00666663  0.05632452  0.70000000  1
  Sb  Sb304  1  0.00666663  0.05632452  0.90000000  1
  Sb  Sb305  1  0.00666663  0.55632452  0.10000000  1
  Sb  Sb306  1  0.00666663  0.55632452  0.30000000  1
  Sb  Sb307  1  0.00666663  0.55632452  0.50000000  1
  Sb  Sb308  1  0.00666663  0.55632452  0.70000000  1
  Sb  Sb309  1  0.00666663  0.55632452  0.90000000  1
  Sb  Sb310  1  0.50666663  0.05632452  0.10000000  1
  Sb  Sb311  1  0.50666663  0.05632452  0.30000000  1
  Sb  Sb312  1  0.50666663  0.05632452  0.50000000  1
  Sb  Sb313  1  0.50666663  0.05632452  0.70000000  1
  Sb  Sb314  1  0.50666663  0.05632452  0.90000000  1
  Sb  Sb315  1  0.50666663  0.55632452  0.10000000  1
  Sb  Sb316  1  0.50666663  0.55632452  0.30000000  1
  Sb  Sb317  1  0.50666663  0.55632452  0.50000000  1
  Sb  Sb318  1  0.50666663  0.55632452  0.70000000  1
  Sb  Sb319  1  0.50666663  0.55632452  0.90000000  1
  Sb  Sb320  1  0.05643264  0.26168780  0.10000000  1
  Sb  Sb321  1  0.05643264  0.26168780  0.30000000  1
  Sb  Sb322  1  0.05643264  0.26168780  0.50000000  1
  Sb  Sb323  1  0.05643264  0.26168780  0.70000000  1
  Sb  Sb324  1  0.05643264  0.26168780  0.90000000  1
  Sb  Sb325  1  0.05643264  0.76168780  0.10000000  1
  Sb  Sb326  1  0.05643264  0.76168780  0.30000000  1
  Sb  Sb327  1  0.05643264  0.76168780  0.50000000  1
  Sb  Sb328  1  0.05643264  0.76168780  0.70000000  1
  Sb  Sb329  1  0.05643264  0.76168780  0.90000000  1
  Sb  Sb330  1  0.55643264  0.26168780  0.10000000  1
  Sb  Sb331  1  0.55643264  0.26168780  0.30000000  1
  Sb  Sb332  1  0.55643264  0.26168780  0.50000000  1
  Sb  Sb333  1  0.55643264  0.26168780  0.70000000  1
  Sb  Sb334  1  0.55643264  0.26168780  0.90000000  1
  Sb  Sb335  1  0.55643264  0.76168780  0.10000000  1
  Sb  Sb336  1  0.55643264  0.76168780  0.30000000  1
  Sb  Sb337  1  0.55643264  0.76168780  0.50000000  1
  Sb  Sb338  1  0.55643264  0.76168780  0.70000000  1
  Sb  Sb339  1  0.55643264  0.76168780  0.90000000  1
  Sb  Sb340  1  0.44356736  0.23831220  0.10000000  1
  Sb  Sb341  1  0.44356736  0.23831220  0.30000000  1
  Sb  Sb342  1  0.44356736  0.23831220  0.50000000  1
  Sb  Sb343  1  0.44356736  0.23831220  0.70000000  1
  Sb  Sb344  1  0.44356736  0.23831220  0.90000000  1
  Sb  Sb345  1  0.44356736  0.73831220  0.10000000  1
  Sb  Sb346  1  0.44356736  0.73831220  0.30000000  1
  Sb  Sb347  1  0.44356736  0.73831220  0.50000000  1
  Sb  Sb348  1  0.44356736  0.73831220  0.70000000  1
  Sb  Sb349  1  0.44356736  0.73831220  0.90000000  1
  Sb  Sb350  1  0.94356736  0.23831220  0.10000000  1
  Sb  Sb351  1  0.94356736  0.23831220  0.30000000  1
  Sb  Sb352  1  0.94356736  0.23831220  0.50000000  1
  Sb  Sb353  1  0.94356736  0.23831220  0.70000000  1
  Sb  Sb354  1  0.94356736  0.23831220  0.90000000  1
  Sb  Sb355  1  0.94356736  0.73831220  0.10000000  1
  Sb  Sb356  1  0.94356736  0.73831220  0.30000000  1
  Sb  Sb357  1  0.94356736  0.73831220  0.50000000  1
  Sb  Sb358  1  0.94356736  0.73831220  0.70000000  1
  Sb  Sb359  1  0.94356736  0.73831220  0.90000000  1
  Sb  Sb360  1  0.30643264  0.48831220  0.10000000  1
  Sb  Sb361  1  0.30643264  0.48831220  0.30000000  1
  Sb  Sb362  1  0.30643264  0.48831220  0.50000000  1
  Sb  Sb363  1  0.30643264  0.48831220  0.70000000  1
  Sb  Sb364  1  0.30643264  0.48831220  0.90000000  1
  Sb  Sb365  1  0.30643264  0.98831220  0.10000000  1
  Sb  Sb366  1  0.30643264  0.98831220  0.30000000  1
  Sb  Sb367  1  0.30643264  0.98831220  0.50000000  1
  Sb  Sb368  1  0.30643264  0.98831220  0.70000000  1
  Sb  Sb369  1  0.30643264  0.98831220  0.90000000  1
  Sb  Sb370  1  0.80643264  0.48831220  0.10000000  1
  Sb  Sb371  1  0.80643264  0.48831220  0.30000000  1
  Sb  Sb372  1  0.80643264  0.48831220  0.50000000  1
  Sb  Sb373  1  0.80643264  0.48831220  0.70000000  1
  Sb  Sb374  1  0.80643264  0.48831220  0.90000000  1
  Sb  Sb375  1  0.80643264  0.98831220  0.10000000  1
  Sb  Sb376  1  0.80643264  0.98831220  0.30000000  1
  Sb  Sb377  1  0.80643264  0.98831220  0.50000000  1
  Sb  Sb378  1  0.80643264  0.98831220  0.70000000  1
  Sb  Sb379  1  0.80643264  0.98831220  0.90000000  1
  Sb  Sb380  1  0.19356736  0.01168780  0.10000000  1
  Sb  Sb381  1  0.19356736  0.01168780  0.30000000  1
  Sb  Sb382  1  0.19356736  0.01168780  0.50000000  1
  Sb  Sb383  1  0.19356736  0.01168780  0.70000000  1
  Sb  Sb384  1  0.19356736  0.01168780  0.90000000  1
  Sb  Sb385  1  0.19356736  0.51168780  0.10000000  1
  Sb  Sb386  1  0.19356736  0.51168780  0.30000000  1
  Sb  Sb387  1  0.19356736  0.51168780  0.50000000  1
  Sb  Sb388  1  0.19356736  0.51168780  0.70000000  1
  Sb  Sb389  1  0.19356736  0.51168780  0.90000000  1
  Sb  Sb390  1  0.69356736  0.01168780  0.10000000  1
  Sb  Sb391  1  0.69356736  0.01168780  0.30000000  1
  Sb  Sb392  1  0.69356736  0.01168780  0.50000000  1
  Sb  Sb393  1  0.69356736  0.01168780  0.70000000  1
  Sb  Sb394  1  0.69356736  0.01168780  0.90000000  1
  Sb  Sb395  1  0.69356736  0.51168780  0.10000000  1
  Sb  Sb396  1  0.69356736  0.51168780  0.30000000  1
  Sb  Sb397  1  0.69356736  0.51168780  0.50000000  1
  Sb  Sb398  1  0.69356736  0.51168780  0.70000000  1
  Sb  Sb399  1  0.69356736  0.51168780  0.90000000  1
  O  O400  1  0.13512643  0.40342993  0.00000000  1
  O  O401  1  0.13512643  0.40342993  0.20000000  1
  O  O402  1  0.13512643  0.40342993  0.40000000  1
  O  O403  1  0.13512643  0.40342993  0.60000000  1
  O  O404  1  0.13512643  0.40342993  0.80000000  1
  O  O405  1  0.13512643  0.90342993  0.00000000  1
  O  O406  1  0.13512643  0.90342993  0.20000000  1
  O  O407  1  0.13512643  0.90342993  0.40000000  1
  O  O408  1  0.13512643  0.90342993  0.60000000  1
  O  O409  1  0.13512643  0.90342993  0.80000000  1
  O  O410  1  0.63512643  0.40342993  0.00000000  1
  O  O411  1  0.63512643  0.40342993  0.20000000  1
  O  O412  1  0.63512643  0.40342993  0.40000000  1
  O  O413  1  0.63512643  0.40342993  0.60000000  1
  O  O414  1  0.63512643  0.40342993  0.80000000  1
  O  O415  1  0.63512643  0.90342993  0.00000000  1
  O  O416  1  0.63512643  0.90342993  0.20000000  1
  O  O417  1  0.63512643  0.90342993  0.40000000  1
  O  O418  1  0.63512643  0.90342993  0.60000000  1
  O  O419  1  0.63512643  0.90342993  0.80000000  1
  O  O420  1  0.36487357  0.09657007  0.00000000  1
  O  O421  1  0.36487357  0.09657007  0.20000000  1
  O  O422  1  0.36487357  0.09657007  0.40000000  1
  O  O423  1  0.36487357  0.09657007  0.60000000  1
  O  O424  1  0.36487357  0.09657007  0.80000000  1
  O  O425  1  0.36487357  0.59657007  0.00000000  1
  O  O426  1  0.36487357  0.59657007  0.20000000  1
  O  O427  1  0.36487357  0.59657007  0.40000000  1
  O  O428  1  0.36487357  0.59657007  0.60000000  1
  O  O429  1  0.36487357  0.59657007  0.80000000  1
  O  O430  1  0.86487357  0.09657007  0.00000000  1
  O  O431  1  0.86487357  0.09657007  0.20000000  1
  O  O432  1  0.86487357  0.09657007  0.40000000  1
  O  O433  1  0.86487357  0.09657007  0.60000000  1
  O  O434  1  0.86487357  0.09657007  0.80000000  1
  O  O435  1  0.86487357  0.59657007  0.00000000  1
  O  O436  1  0.86487357  0.59657007  0.20000000  1
  O  O437  1  0.86487357  0.59657007  0.40000000  1
  O  O438  1  0.86487357  0.59657007  0.60000000  1
  O  O439  1  0.86487357  0.59657007  0.80000000  1
  O  O440  1  0.38512643  0.34657007  0.00000000  1
  O  O441  1  0.38512643  0.34657007  0.20000000  1
  O  O442  1  0.38512643  0.34657007  0.40000000  1
  O  O443  1  0.38512643  0.34657007  0.60000000  1
  O  O444  1  0.38512643  0.34657007  0.80000000  1
  O  O445  1  0.38512643  0.84657007  0.00000000  1
  O  O446  1  0.38512643  0.84657007  0.20000000  1
  O  O447  1  0.38512643  0.84657007  0.40000000  1
  O  O448  1  0.38512643  0.84657007  0.60000000  1
  O  O449  1  0.38512643  0.84657007  0.80000000  1
  O  O450  1  0.88512643  0.34657007  0.00000000  1
  O  O451  1  0.88512643  0.34657007  0.20000000  1
  O  O452  1  0.88512643  0.34657007  0.40000000  1
  O  O453  1  0.88512643  0.34657007  0.60000000  1
  O  O454  1  0.88512643  0.34657007  0.80000000  1
  O  O455  1  0.88512643  0.84657007  0.00000000  1
  O  O456  1  0.88512643  0.84657007  0.20000000  1
  O  O457  1  0.88512643  0.84657007  0.40000000  1
  O  O458  1  0.88512643  0.84657007  0.60000000  1
  O  O459  1  0.88512643  0.84657007  0.80000000  1
  O  O460  1  0.11487357  0.15342993  0.00000000  1
  O  O461  1  0.11487357  0.15342993  0.20000000  1
  O  O462  1  0.11487357  0.15342993  0.40000000  1
  O  O463  1  0.11487357  0.15342993  0.60000000  1
  O  O464  1  0.11487357  0.15342993  0.80000000  1
  O  O465  1  0.11487357  0.65342993  0.00000000  1
  O  O466  1  0.11487357  0.65342993  0.20000000  1
  O  O467  1  0.11487357  0.65342993  0.40000000  1
  O  O468  1  0.11487357  0.65342993  0.60000000  1
  O  O469  1  0.11487357  0.65342993  0.80000000  1
  O  O470  1  0.61487357  0.15342993  0.00000000  1
  O  O471  1  0.61487357  0.15342993  0.20000000  1
  O  O472  1  0.61487357  0.15342993  0.40000000  1
  O  O473  1  0.61487357  0.15342993  0.60000000  1
  O  O474  1  0.61487357  0.15342993  0.80000000  1
  O  O475  1  0.61487357  0.65342993  0.00000000  1
  O  O476  1  0.61487357  0.65342993  0.20000000  1
  O  O477  1  0.61487357  0.65342993  0.40000000  1
  O  O478  1  0.61487357  0.65342993  0.60000000  1
  O  O479  1  0.61487357  0.65342993  0.80000000  1
