# generated using pymatgen
data_SrCrO4
_symmetry_space_group_name_H-M   'P 1'
_cell_length_a   13.39431466
_cell_length_b   14.77152311
_cell_length_c   17.12688087
_cell_angle_alpha   90.00000000
_cell_angle_beta   126.37639897
_cell_angle_gamma   90.00000000
_symmetry_Int_Tables_number   1
_chemical_formula_structural   SrCrO4
_chemical_formula_sum   'Sr32 Cr32 O128'
_cell_volume   2728.31472634
_cell_formula_units_Z   32
loop_
 _symmetry_equiv_pos_site_id
 _symmetry_equiv_pos_as_xyz
  1  'x, y, z'
loop_
 _atom_site_type_symbol
 _atom_site_label
 _atom_site_symmetry_multiplicity
 _atom_site_fract_x
 _atom_site_fract_y
 _atom_site_fract_z
 _atom_site_occupancy
  Sr  Sr0  1  0.33580643  0.17118839  0.38650879  1
  Sr  Sr1  1  0.33580643  0.17118839  0.88650879  1
  Sr  Sr2  1  0.33580643  0.67118839  0.38650879  1
  Sr  Sr3  1  0.33580643  0.67118839  0.88650879  1
  Sr  Sr4  1  0.83580643  0.17118839  0.38650879  1
  Sr  Sr5  1  0.83580643  0.17118839  0.88650879  1
  Sr  Sr6  1  0.83580643  0.67118839  0.38650879  1
  Sr  Sr7  1  0.83580643  0.67118839  0.88650879  1
  Sr  Sr8  1  0.16419357  0.42118839  0.36349121  1
  Sr  Sr9  1  0.16419357  0.42118839  0.86349121  1
  Sr  Sr10  1  0.16419357  0.92118839  0.36349121  1
  Sr  Sr11  1  0.16419357  0.92118839  0.86349121  1
  Sr  Sr12  1  0.66419357  0.42118839  0.36349121  1
  Sr  Sr13  1  0.66419357  0.42118839  0.86349121  1
  Sr  Sr14  1  0.66419357  0.92118839  0.36349121  1
  Sr  Sr15  1  0.66419357  0.92118839  0.86349121  1
  Sr  Sr16  1  0.16419357  0.32881161  0.11349121  1
  Sr  Sr17  1  0.16419357  0.32881161  0.61349121  1
  Sr  Sr18  1  0.16419357  0.82881161  0.11349121  1
  Sr  Sr19  1  0.16419357  0.82881161  0.61349121  1
  Sr  Sr20  1  0.66419357  0.32881161  0.11349121  1
  Sr  Sr21  1  0.66419357  0.32881161  0.61349121  1
  Sr  Sr22  1  0.66419357  0.82881161  0.11349121  1
  Sr  Sr23  1  0.66419357  0.82881161  0.61349121  1
  Sr  Sr24  1  0.33580643  0.07881161  0.13650879  1
  Sr  Sr25  1  0.33580643  0.07881161  0.63650879  1
  Sr  Sr26  1  0.33580643  0.57881161  0.13650879  1
  Sr  Sr27  1  0.33580643  0.57881161  0.63650879  1
  Sr  Sr28  1  0.83580643  0.07881161  0.13650879  1
  Sr  Sr29  1  0.83580643  0.07881161  0.63650879  1
  Sr  Sr30  1  0.83580643  0.57881161  0.13650879  1
  Sr  Sr31  1  0.83580643  0.57881161  0.63650879  1
  Cr  Cr32  1  0.09427154  0.16735240  0.40150665  1
  Cr  Cr33  1  0.09427154  0.16735240  0.90150665  1
  Cr  Cr34  1  0.09427154  0.66735240  0.40150665  1
  Cr  Cr35  1  0.09427154  0.66735240  0.90150665  1
  Cr  Cr36  1  0.59427154  0.16735240  0.40150665  1
  Cr  Cr37  1  0.59427154  0.16735240  0.90150665  1
  Cr  Cr38  1  0.59427154  0.66735240  0.40150665  1
  Cr  Cr39  1  0.59427154  0.66735240  0.90150665  1
  Cr  Cr40  1  0.40572846  0.41735240  0.34849335  1
  Cr  Cr41  1  0.40572846  0.41735240  0.84849335  1
  Cr  Cr42  1  0.40572846  0.91735240  0.34849335  1
  Cr  Cr43  1  0.40572846  0.91735240  0.84849335  1
  Cr  Cr44  1  0.90572846  0.41735240  0.34849335  1
  Cr  Cr45  1  0.90572846  0.41735240  0.84849335  1
  Cr  Cr46  1  0.90572846  0.91735240  0.34849335  1
  Cr  Cr47  1  0.90572846  0.91735240  0.84849335  1
  Cr  Cr48  1  0.40572846  0.33264760  0.09849335  1
  Cr  Cr49  1  0.40572846  0.33264760  0.59849335  1
  Cr  Cr50  1  0.40572846  0.83264760  0.09849335  1
  Cr  Cr51  1  0.40572846  0.83264760  0.59849335  1
  Cr  Cr52  1  0.90572846  0.33264760  0.09849335  1
  Cr  Cr53  1  0.90572846  0.33264760  0.59849335  1
  Cr  Cr54  1  0.90572846  0.83264760  0.09849335  1
  Cr  Cr55  1  0.90572846  0.83264760  0.59849335  1
  Cr  Cr56  1  0.09427154  0.08264760  0.15150665  1
  Cr  Cr57  1  0.09427154  0.08264760  0.65150665  1
  Cr  Cr58  1  0.09427154  0.58264760  0.15150665  1
  Cr  Cr59  1  0.09427154  0.58264760  0.65150665  1
  Cr  Cr60  1  0.59427154  0.08264760  0.15150665  1
  Cr  Cr61  1  0.59427154  0.08264760  0.65150665  1
  Cr  Cr62  1  0.59427154  0.58264760  0.15150665  1
  Cr  Cr63  1  0.59427154  0.58264760  0.65150665  1
  O  O64  1  0.45189460  0.13928460  0.30985758  1
  O  O65  1  0.45189460  0.13928460  0.80985758  1
  O  O66  1  0.45189460  0.63928460  0.30985758  1
  O  O67  1  0.45189460  0.63928460  0.80985758  1
  O  O68  1  0.95189460  0.13928460  0.30985758  1
  O  O69  1  0.95189460  0.13928460  0.80985758  1
  O  O70  1  0.95189460  0.63928460  0.30985758  1
  O  O71  1  0.95189460  0.63928460  0.80985758  1
  O  O72  1  0.04810540  0.38928460  0.44014242  1
  O  O73  1  0.04810540  0.38928460  0.94014242  1
  O  O74  1  0.04810540  0.88928460  0.44014242  1
  O  O75  1  0.04810540  0.88928460  0.94014242  1
  O  O76  1  0.54810540  0.38928460  0.44014242  1
  O  O77  1  0.54810540  0.38928460  0.94014242  1
  O  O78  1  0.54810540  0.88928460  0.44014242  1
  O  O79  1  0.54810540  0.88928460  0.94014242  1
  O  O80  1  0.04810540  0.36071540  0.19014242  1
  O  O81  1  0.04810540  0.36071540  0.69014242  1
  O  O82  1  0.04810540  0.86071540  0.19014242  1
  O  O83  1  0.04810540  0.86071540  0.69014242  1
  O  O84  1  0.54810540  0.36071540  0.19014242  1
  O  O85  1  0.54810540  0.36071540  0.69014242  1
  O  O86  1  0.54810540  0.86071540  0.19014242  1
  O  O87  1  0.54810540  0.86071540  0.69014242  1
  O  O88  1  0.45189460  0.11071540  0.05985758  1
  O  O89  1  0.45189460  0.11071540  0.55985758  1
  O  O90  1  0.45189460  0.61071540  0.05985758  1
  O  O91  1  0.45189460  0.61071540  0.55985758  1
  O  O92  1  0.95189460  0.11071540  0.05985758  1
  O  O93  1  0.95189460  0.11071540  0.55985758  1
  O  O94  1  0.95189460  0.61071540  0.05985758  1
  O  O95  1  0.95189460  0.61071540  0.55985758  1
  O  O96  1  0.15113431  0.24846881  0.37127131  1
  O  O97  1  0.15113431  0.24846881  0.87127131  1
  O  O98  1  0.15113431  0.74846881  0.37127131  1
  O  O99  1  0.15113431  0.74846881  0.87127131  1
  O  O100  1  0.65113431  0.24846881  0.37127131  1
  O  O101  1  0.65113431  0.24846881  0.87127131  1
  O  O102  1  0.65113431  0.74846881  0.37127131  1
  O  O103  1  0.65113431  0.74846881  0.87127131  1
  O  O104  1  0.34886569  0.49846881  0.37872869  1
  O  O105  1  0.34886569  0.49846881  0.87872869  1
  O  O106  1  0.34886569  0.99846881  0.37872869  1
  O  O107  1  0.34886569  0.99846881  0.87872869  1
  O  O108  1  0.84886569  0.49846881  0.37872869  1
  O  O109  1  0.84886569  0.49846881  0.87872869  1
  O  O110  1  0.84886569  0.99846881  0.37872869  1
  O  O111  1  0.84886569  0.99846881  0.87872869  1
  O  O112  1  0.34886569  0.25153119  0.12872869  1
  O  O113  1  0.34886569  0.25153119  0.62872869  1
  O  O114  1  0.34886569  0.75153119  0.12872869  1
  O  O115  1  0.34886569  0.75153119  0.62872869  1
  O  O116  1  0.84886569  0.25153119  0.12872869  1
  O  O117  1  0.84886569  0.25153119  0.62872869  1
  O  O118  1  0.84886569  0.75153119  0.12872869  1
  O  O119  1  0.84886569  0.75153119  0.62872869  1
  O  O120  1  0.15113431  0.00153119  0.12127131  1
  O  O121  1  0.15113431  0.00153119  0.62127131  1
  O  O122  1  0.15113431  0.50153119  0.12127131  1
  O  O123  1  0.15113431  0.50153119  0.62127131  1
  O  O124  1  0.65113431  0.00153119  0.12127131  1
  O  O125  1  0.65113431  0.00153119  0.62127131  1
  O  O126  1  0.65113431  0.50153119  0.12127131  1
  O  O127  1  0.65113431  0.50153119  0.62127131  1
  O  O128  1  0.08406934  0.19969081  0.48883284  1
  O  O129  1  0.08406934  0.19969081  0.98883284  1
  O  O130  1  0.08406934  0.69969081  0.48883284  1
  O  O131  1  0.08406934  0.69969081  0.98883284  1
  O  O132  1  0.58406934  0.19969081  0.48883284  1
  O  O133  1  0.58406934  0.19969081  0.98883284  1
  O  O134  1  0.58406934  0.69969081  0.48883284  1
  O  O135  1  0.58406934  0.69969081  0.98883284  1
  O  O136  1  0.41593066  0.44969081  0.26116716  1
  O  O137  1  0.41593066  0.44969081  0.76116716  1
  O  O138  1  0.41593066  0.94969081  0.26116716  1
  O  O139  1  0.41593066  0.94969081  0.76116716  1
  O  O140  1  0.91593066  0.44969081  0.26116716  1
  O  O141  1  0.91593066  0.44969081  0.76116716  1
  O  O142  1  0.91593066  0.94969081  0.26116716  1
  O  O143  1  0.91593066  0.94969081  0.76116716  1
  O  O144  1  0.41593066  0.30030919  0.01116716  1
  O  O145  1  0.41593066  0.30030919  0.51116716  1
  O  O146  1  0.41593066  0.80030919  0.01116716  1
  O  O147  1  0.41593066  0.80030919  0.51116716  1
  O  O148  1  0.91593066  0.30030919  0.01116716  1
  O  O149  1  0.91593066  0.30030919  0.51116716  1
  O  O150  1  0.91593066  0.80030919  0.01116716  1
  O  O151  1  0.91593066  0.80030919  0.51116716  1
  O  O152  1  0.08406934  0.05030919  0.23883284  1
  O  O153  1  0.08406934  0.05030919  0.73883284  1
  O  O154  1  0.08406934  0.55030919  0.23883284  1
  O  O155  1  0.08406934  0.55030919  0.73883284  1
  O  O156  1  0.58406934  0.05030919  0.23883284  1
  O  O157  1  0.58406934  0.05030919  0.73883284  1
  O  O158  1  0.58406934  0.55030919  0.23883284  1
  O  O159  1  0.58406934  0.55030919  0.73883284  1
  O  O160  1  0.19159124  0.07997518  0.44086366  1
  O  O161  1  0.19159124  0.07997518  0.94086366  1
  O  O162  1  0.19159124  0.57997518  0.44086366  1
  O  O163  1  0.19159124  0.57997518  0.94086366  1
  O  O164  1  0.69159124  0.07997518  0.44086366  1
  O  O165  1  0.69159124  0.07997518  0.94086366  1
  O  O166  1  0.69159124  0.57997518  0.44086366  1
  O  O167  1  0.69159124  0.57997518  0.94086366  1
  O  O168  1  0.30840876  0.32997518  0.30913634  1
  O  O169  1  0.30840876  0.32997518  0.80913634  1
  O  O170  1  0.30840876  0.82997518  0.30913634  1
  O  O171  1  0.30840876  0.82997518  0.80913634  1
  O  O172  1  0.80840876  0.32997518  0.30913634  1
  O  O173  1  0.80840876  0.32997518  0.80913634  1
  O  O174  1  0.80840876  0.82997518  0.30913634  1
  O  O175  1  0.80840876  0.82997518  0.80913634  1
  O  O176  1  0.30840876  0.42002482  0.05913634  1
  O  O177  1  0.30840876  0.42002482  0.55913634  1
  O  O178  1  0.30840876  0.92002482  0.05913634  1
  O  O179  1  0.30840876  0.92002482  0.55913634  1
  O  O180  1  0.80840876  0.42002482  0.05913634  1
  O  O181  1  0.80840876  0.42002482  0.55913634  1
  O  O182  1  0.80840876  0.92002482  0.05913634  1
  O  O183  1  0.80840876  0.92002482  0.55913634  1
  O  O184  1  0.19159124  0.17002482  0.19086366  1
  O  O185  1  0.19159124  0.17002482  0.69086366  1
  O  O186  1  0.19159124  0.67002482  0.19086366  1
  O  O187  1  0.19159124  0.67002482  0.69086366  1
  O  O188  1  0.69159124  0.17002482  0.19086366  1
  O  O189  1  0.69159124  0.17002482  0.69086366  1
  O  O190  1  0.69159124  0.67002482  0.19086366  1
  O  O191  1  0.69159124  0.67002482  0.69086366  1
