# generated using pymatgen
data_CsLiWO4
_symmetry_space_group_name_H-M   'P 1'
_cell_length_a   16.72194337
_cell_length_b   16.72194337
_cell_length_c   16.29807735
_cell_angle_alpha   90.00000000
_cell_angle_beta   90.00000000
_cell_angle_gamma   90.00000000
_symmetry_Int_Tables_number   1
_chemical_formula_structural   CsLiWO4
_chemical_formula_sum   'Cs32 Li32 W32 O128'
_cell_volume   4557.32364059
_cell_formula_units_Z   32
loop_
 _symmetry_equiv_pos_site_id
 _symmetry_equiv_pos_as_xyz
  1  'x, y, z'
loop_
 _atom_site_type_symbol
 _atom_site_label
 _atom_site_symmetry_multiplicity
 _atom_site_fract_x
 _atom_site_fract_y
 _atom_site_fract_z
 _atom_site_occupancy
  Cs  Cs0  1  0.75000000  0.75000000  0.00000000  1
  Cs  Cs1  1  0.75000000  0.75000000  0.50000000  1
  Cs  Cs2  1  0.25000000  0.75000000  0.00000000  1
  Cs  Cs3  1  0.25000000  0.75000000  0.50000000  1
  Cs  Cs4  1  0.50000000  0.50000000  0.00000000  1
  Cs  Cs5  1  0.50000000  0.50000000  0.50000000  1
  Cs  Cs6  1  0.75000000  0.25000000  0.00000000  1
  Cs  Cs7  1  0.75000000  0.25000000  0.50000000  1
  Cs  Cs8  1  -0.00000000  0.50000000  0.00000000  1
  Cs  Cs9  1  -0.00000000  0.50000000  0.50000000  1
  Cs  Cs10  1  0.25000000  0.25000000  0.00000000  1
  Cs  Cs11  1  0.25000000  0.25000000  0.50000000  1
  Cs  Cs12  1  0.50000000  -0.00000000  0.00000000  1
  Cs  Cs13  1  0.50000000  -0.00000000  0.50000000  1
  Cs  Cs14  1  0.00000000  0.00000000  0.00000000  1
  Cs  Cs15  1  0.00000000  0.00000000  0.50000000  1
  Cs  Cs16  1  0.75000000  0.50000000  0.25000000  1
  Cs  Cs17  1  0.75000000  0.50000000  0.75000000  1
  Cs  Cs18  1  0.25000000  0.50000000  0.25000000  1
  Cs  Cs19  1  0.25000000  0.50000000  0.75000000  1
  Cs  Cs20  1  0.50000000  0.25000000  0.25000000  1
  Cs  Cs21  1  0.50000000  0.25000000  0.75000000  1
  Cs  Cs22  1  0.75000000  0.00000000  0.25000000  1
  Cs  Cs23  1  0.75000000  0.00000000  0.75000000  1
  Cs  Cs24  1  -0.00000000  0.25000000  0.25000000  1
  Cs  Cs25  1  -0.00000000  0.25000000  0.75000000  1
  Cs  Cs26  1  0.25000000  -0.00000000  0.25000000  1
  Cs  Cs27  1  0.25000000  -0.00000000  0.75000000  1
  Cs  Cs28  1  0.50000000  -0.25000000  0.25000000  1
  Cs  Cs29  1  0.50000000  -0.25000000  0.75000000  1
  Cs  Cs30  1  0.00000000  -0.25000000  0.25000000  1
  Cs  Cs31  1  0.00000000  -0.25000000  0.75000000  1
  Li  Li32  1  0.87500000  0.62500000  0.12500000  1
  Li  Li33  1  0.87500000  0.62500000  0.62500000  1
  Li  Li34  1  0.37500000  0.62500000  0.12500000  1
  Li  Li35  1  0.37500000  0.62500000  0.62500000  1
  Li  Li36  1  0.62500000  0.37500000  0.12500000  1
  Li  Li37  1  0.62500000  0.37500000  0.62500000  1
  Li  Li38  1  0.87500000  0.12500000  0.12500000  1
  Li  Li39  1  0.87500000  0.12500000  0.62500000  1
  Li  Li40  1  0.12500000  0.37500000  0.12500000  1
  Li  Li41  1  0.12500000  0.37500000  0.62500000  1
  Li  Li42  1  0.37500000  0.12500000  0.12500000  1
  Li  Li43  1  0.37500000  0.12500000  0.62500000  1
  Li  Li44  1  0.62500000  -0.12500000  0.12500000  1
  Li  Li45  1  0.62500000  -0.12500000  0.62500000  1
  Li  Li46  1  0.12500000  -0.12500000  0.12500000  1
  Li  Li47  1  0.12500000  -0.12500000  0.62500000  1
  Li  Li48  1  0.87500000  0.37500000  0.37500000  1
  Li  Li49  1  0.87500000  0.37500000  0.87500000  1
  Li  Li50  1  0.37500000  0.37500000  0.37500000  1
  Li  Li51  1  0.37500000  0.37500000  0.87500000  1
  Li  Li52  1  0.62500000  0.12500000  0.37500000  1
  Li  Li53  1  0.62500000  0.12500000  0.87500000  1
  Li  Li54  1  0.87500000  -0.12500000  0.37500000  1
  Li  Li55  1  0.87500000  -0.12500000  0.87500000  1
  Li  Li56  1  0.12500000  0.12500000  0.37500000  1
  Li  Li57  1  0.12500000  0.12500000  0.87500000  1
  Li  Li58  1  0.37500000  -0.12500000  0.37500000  1
  Li  Li59  1  0.37500000  -0.12500000  0.87500000  1
  Li  Li60  1  0.62500000  -0.37500000  0.37500000  1
  Li  Li61  1  0.62500000  -0.37500000  0.87500000  1
  Li  Li62  1  0.12500000  -0.37500000  0.37500000  1
  Li  Li63  1  0.12500000  -0.37500000  0.87500000  1
  W  W64  1  0.75000000  0.75000000  0.25000000  1
  W  W65  1  0.75000000  0.75000000  0.75000000  1
  W  W66  1  0.25000000  0.75000000  0.25000000  1
  W  W67  1  0.25000000  0.75000000  0.75000000  1
  W  W68  1  0.50000000  0.50000000  0.25000000  1
  W  W69  1  0.50000000  0.50000000  0.75000000  1
  W  W70  1  0.75000000  0.25000000  0.25000000  1
  W  W71  1  0.75000000  0.25000000  0.75000000  1
  W  W72  1  -0.00000000  0.50000000  0.25000000  1
  W  W73  1  -0.00000000  0.50000000  0.75000000  1
  W  W74  1  0.25000000  0.25000000  0.25000000  1
  W  W75  1  0.25000000  0.25000000  0.75000000  1
  W  W76  1  0.50000000  -0.00000000  0.25000000  1
  W  W77  1  0.50000000  -0.00000000  0.75000000  1
  W  W78  1  0.00000000  0.00000000  0.25000000  1
  W  W79  1  0.00000000  0.00000000  0.75000000  1
  W  W80  1  0.75000000  0.50000000  0.50000000  1
  W  W81  1  0.75000000  0.50000000  1.00000000  1
  W  W82  1  0.25000000  0.50000000  0.50000000  1
  W  W83  1  0.25000000  0.50000000  1.00000000  1
  W  W84  1  0.50000000  0.25000000  0.50000000  1
  W  W85  1  0.50000000  0.25000000  1.00000000  1
  W  W86  1  0.75000000  0.00000000  0.50000000  1
  W  W87  1  0.75000000  0.00000000  1.00000000  1
  W  W88  1  -0.00000000  0.25000000  0.50000000  1
  W  W89  1  -0.00000000  0.25000000  1.00000000  1
  W  W90  1  0.25000000  -0.00000000  0.50000000  1
  W  W91  1  0.25000000  -0.00000000  1.00000000  1
  W  W92  1  0.50000000  -0.25000000  0.50000000  1
  W  W93  1  0.50000000  -0.25000000  1.00000000  1
  W  W94  1  0.00000000  -0.25000000  0.50000000  1
  W  W95  1  0.00000000  -0.25000000  1.00000000  1
  O  O96  1  0.78928501  0.67183283  0.18666869  1
  O  O97  1  0.78928501  0.67183283  0.68666869  1
  O  O98  1  0.28928501  0.67183283  0.18666869  1
  O  O99  1  0.28928501  0.67183283  0.68666869  1
  O  O100  1  0.53928501  0.42183283  0.18666869  1
  O  O101  1  0.53928501  0.42183283  0.68666869  1
  O  O102  1  0.78928501  0.17183283  0.18666869  1
  O  O103  1  0.78928501  0.17183283  0.68666869  1
  O  O104  1  0.03928501  0.42183283  0.18666869  1
  O  O105  1  0.03928501  0.42183283  0.68666869  1
  O  O106  1  0.28928501  0.17183283  0.18666869  1
  O  O107  1  0.28928501  0.17183283  0.68666869  1
  O  O108  1  0.53928501  -0.07816717  0.18666869  1
  O  O109  1  0.53928501  -0.07816717  0.68666869  1
  O  O110  1  0.03928501  -0.07816717  0.18666869  1
  O  O111  1  0.03928501  -0.07816717  0.68666869  1
  O  O112  1  0.78928501  0.42183283  0.43666869  1
  O  O113  1  0.78928501  0.42183283  0.93666869  1
  O  O114  1  0.28928501  0.42183283  0.43666869  1
  O  O115  1  0.28928501  0.42183283  0.93666869  1
  O  O116  1  0.53928501  0.17183283  0.43666869  1
  O  O117  1  0.53928501  0.17183283  0.93666869  1
  O  O118  1  0.78928501  -0.07816717  0.43666869  1
  O  O119  1  0.78928501  -0.07816717  0.93666869  1
  O  O120  1  0.03928501  0.17183283  0.43666869  1
  O  O121  1  0.03928501  0.17183283  0.93666869  1
  O  O122  1  0.28928501  -0.07816717  0.43666869  1
  O  O123  1  0.28928501  -0.07816717  0.93666869  1
  O  O124  1  0.53928501  -0.32816717  0.43666869  1
  O  O125  1  0.53928501  -0.32816717  0.93666869  1
  O  O126  1  0.03928501  -0.32816717  0.43666869  1
  O  O127  1  0.03928501  -0.32816717  0.93666869  1
  O  O128  1  0.71071499  0.57816717  -0.06333131  1
  O  O129  1  0.71071499  0.57816717  0.43666869  1
  O  O130  1  0.21071499  0.57816717  -0.06333131  1
  O  O131  1  0.21071499  0.57816717  0.43666869  1
  O  O132  1  0.46071499  0.32816717  -0.06333131  1
  O  O133  1  0.46071499  0.32816717  0.43666869  1
  O  O134  1  0.71071499  0.07816717  -0.06333131  1
  O  O135  1  0.71071499  0.07816717  0.43666869  1
  O  O136  1  -0.03928501  0.32816717  -0.06333131  1
  O  O137  1  -0.03928501  0.32816717  0.43666869  1
  O  O138  1  0.21071499  0.07816717  -0.06333131  1
  O  O139  1  0.21071499  0.07816717  0.43666869  1
  O  O140  1  0.46071499  -0.17183283  -0.06333131  1
  O  O141  1  0.46071499  -0.17183283  0.43666869  1
  O  O142  1  -0.03928501  -0.17183283  -0.06333131  1
  O  O143  1  -0.03928501  -0.17183283  0.43666869  1
  O  O144  1  0.71071499  0.32816717  0.18666869  1
  O  O145  1  0.71071499  0.32816717  0.68666869  1
  O  O146  1  0.21071499  0.32816717  0.18666869  1
  O  O147  1  0.21071499  0.32816717  0.68666869  1
  O  O148  1  0.46071499  0.07816717  0.18666869  1
  O  O149  1  0.46071499  0.07816717  0.68666869  1
  O  O150  1  0.71071499  -0.17183283  0.18666869  1
  O  O151  1  0.71071499  -0.17183283  0.68666869  1
  O  O152  1  -0.03928501  0.07816717  0.18666869  1
  O  O153  1  -0.03928501  0.07816717  0.68666869  1
  O  O154  1  0.21071499  -0.17183283  0.18666869  1
  O  O155  1  0.21071499  -0.17183283  0.68666869  1
  O  O156  1  0.46071499  -0.42183283  0.18666869  1
  O  O157  1  0.46071499  -0.42183283  0.68666869  1
  O  O158  1  -0.03928501  -0.42183283  0.18666869  1
  O  O159  1  -0.03928501  -0.42183283  0.68666869  1
  O  O160  1  0.67183283  0.71071499  0.31333131  1
  O  O161  1  0.67183283  0.71071499  0.81333131  1
  O  O162  1  0.17183283  0.71071499  0.31333131  1
  O  O163  1  0.17183283  0.71071499  0.81333131  1
  O  O164  1  0.42183283  0.46071499  0.31333131  1
  O  O165  1  0.42183283  0.46071499  0.81333131  1
  O  O166  1  0.67183283  0.21071499  0.31333131  1
  O  O167  1  0.67183283  0.21071499  0.81333131  1
  O  O168  1  -0.07816717  0.46071499  0.31333131  1
  O  O169  1  -0.07816717  0.46071499  0.81333131  1
  O  O170  1  0.17183283  0.21071499  0.31333131  1
  O  O171  1  0.17183283  0.21071499  0.81333131  1
  O  O172  1  0.42183283  -0.03928501  0.31333131  1
  O  O173  1  0.42183283  -0.03928501  0.81333131  1
  O  O174  1  -0.07816717  -0.03928501  0.31333131  1
  O  O175  1  -0.07816717  -0.03928501  0.81333131  1
  O  O176  1  0.67183283  0.46071499  0.56333131  1
  O  O177  1  0.67183283  0.46071499  1.06333131  1
  O  O178  1  0.17183283  0.46071499  0.56333131  1
  O  O179  1  0.17183283  0.46071499  1.06333131  1
  O  O180  1  0.42183283  0.21071499  0.56333131  1
  O  O181  1  0.42183283  0.21071499  1.06333131  1
  O  O182  1  0.67183283  -0.03928501  0.56333131  1
  O  O183  1  0.67183283  -0.03928501  1.06333131  1
  O  O184  1  -0.07816717  0.21071499  0.56333131  1
  O  O185  1  -0.07816717  0.21071499  1.06333131  1
  O  O186  1  0.17183283  -0.03928501  0.56333131  1
  O  O187  1  0.17183283  -0.03928501  1.06333131  1
  O  O188  1  0.42183283  -0.28928501  0.56333131  1
  O  O189  1  0.42183283  -0.28928501  1.06333131  1
  O  O190  1  -0.07816717  -0.28928501  0.56333131  1
  O  O191  1  -0.07816717  -0.28928501  1.06333131  1
  O  O192  1  0.82816717  0.53928501  0.06333131  1
  O  O193  1  0.82816717  0.53928501  0.56333131  1
  O  O194  1  0.32816717  0.53928501  0.06333131  1
  O  O195  1  0.32816717  0.53928501  0.56333131  1
  O  O196  1  0.57816717  0.28928501  0.06333131  1
  O  O197  1  0.57816717  0.28928501  0.56333131  1
  O  O198  1  0.82816717  0.03928501  0.06333131  1
  O  O199  1  0.82816717  0.03928501  0.56333131  1
  O  O200  1  0.07816717  0.28928501  0.06333131  1
  O  O201  1  0.07816717  0.28928501  0.56333131  1
  O  O202  1  0.32816717  0.03928501  0.06333131  1
  O  O203  1  0.32816717  0.03928501  0.56333131  1
  O  O204  1  0.57816717  -0.21071499  0.06333131  1
  O  O205  1  0.57816717  -0.21071499  0.56333131  1
  O  O206  1  0.07816717  -0.21071499  0.06333131  1
  O  O207  1  0.07816717  -0.21071499  0.56333131  1
  O  O208  1  0.82816717  0.28928501  0.31333131  1
  O  O209  1  0.82816717  0.28928501  0.81333131  1
  O  O210  1  0.32816717  0.28928501  0.31333131  1
  O  O211  1  0.32816717  0.28928501  0.81333131  1
  O  O212  1  0.57816717  0.03928501  0.31333131  1
  O  O213  1  0.57816717  0.03928501  0.81333131  1
  O  O214  1  0.82816717  -0.21071499  0.31333131  1
  O  O215  1  0.82816717  -0.21071499  0.81333131  1
  O  O216  1  0.07816717  0.03928501  0.31333131  1
  O  O217  1  0.07816717  0.03928501  0.81333131  1
  O  O218  1  0.32816717  -0.21071499  0.31333131  1
  O  O219  1  0.32816717  -0.21071499  0.81333131  1
  O  O220  1  0.57816717  -0.46071499  0.31333131  1
  O  O221  1  0.57816717  -0.46071499  0.81333131  1
  O  O222  1  0.07816717  -0.46071499  0.31333131  1
  O  O223  1  0.07816717  -0.46071499  0.81333131  1
