# generated using pymatgen
data_KTa(GeO3)3
_symmetry_space_group_name_H-M   'P 1'
_cell_length_a   14.07213854
_cell_length_b   14.07213854
_cell_length_c   10.30278301
_cell_angle_alpha   90.00000000
_cell_angle_beta   90.00000000
_cell_angle_gamma   120.00000000
_symmetry_Int_Tables_number   1
_chemical_formula_structural   KTa(GeO3)3
_chemical_formula_sum   'K8 Ta8 Ge24 O72'
_cell_volume   1766.87322239
_cell_formula_units_Z   8
loop_
 _symmetry_equiv_pos_site_id
 _symmetry_equiv_pos_as_xyz
  1  'x, y, z'
loop_
 _atom_site_type_symbol
 _atom_site_label
 _atom_site_symmetry_multiplicity
 _atom_site_fract_x
 _atom_site_fract_y
 _atom_site_fract_z
 _atom_site_occupancy
  K  K0  1  0.33333333  0.16666667  0.00000000  1
  K  K1  1  0.33333333  0.66666667  0.00000000  1
  K  K2  1  0.83333333  0.16666667  0.00000000  1
  K  K3  1  0.83333333  0.66666667  0.00000000  1
  K  K4  1  0.33333333  0.16666667  0.50000000  1
  K  K5  1  0.33333333  0.66666667  0.50000000  1
  K  K6  1  0.83333333  0.16666667  0.50000000  1
  K  K7  1  0.83333333  0.66666667  0.50000000  1
  Ta  Ta8  1  0.16666667  0.33333333  0.00000000  1
  Ta  Ta9  1  0.16666667  0.83333333  0.00000000  1
  Ta  Ta10  1  0.66666667  0.33333333  0.00000000  1
  Ta  Ta11  1  0.66666667  0.83333333  0.00000000  1
  Ta  Ta12  1  0.16666667  0.33333333  0.50000000  1
  Ta  Ta13  1  0.16666667  0.83333333  0.50000000  1
  Ta  Ta14  1  0.66666667  0.33333333  0.50000000  1
  Ta  Ta15  1  0.66666667  0.83333333  0.50000000  1
  Ge  Ge16  1  0.03686865  0.14600870  0.25000000  1
  Ge  Ge17  1  0.03686865  0.64600870  0.25000000  1
  Ge  Ge18  1  0.53686865  0.14600870  0.25000000  1
  Ge  Ge19  1  0.53686865  0.64600870  0.25000000  1
  Ge  Ge20  1  0.10914006  0.46313135  0.25000000  1
  Ge  Ge21  1  0.10914006  0.96313135  0.25000000  1
  Ge  Ge22  1  0.60914006  0.46313135  0.25000000  1
  Ge  Ge23  1  0.60914006  0.96313135  0.25000000  1
  Ge  Ge24  1  0.35399130  0.39085994  0.25000000  1
  Ge  Ge25  1  0.35399130  0.89085994  0.25000000  1
  Ge  Ge26  1  0.85399130  0.39085994  0.25000000  1
  Ge  Ge27  1  0.85399130  0.89085994  0.25000000  1
  Ge  Ge28  1  0.35399130  0.46313135  0.75000000  1
  Ge  Ge29  1  0.35399130  0.96313135  0.75000000  1
  Ge  Ge30  1  0.85399130  0.46313135  0.75000000  1
  Ge  Ge31  1  0.85399130  0.96313135  0.75000000  1
  Ge  Ge32  1  0.10914006  0.14600870  0.75000000  1
  Ge  Ge33  1  0.10914006  0.64600870  0.75000000  1
  Ge  Ge34  1  0.60914006  0.14600870  0.75000000  1
  Ge  Ge35  1  0.60914006  0.64600870  0.75000000  1
  Ge  Ge36  1  0.03686865  0.39085994  0.75000000  1
  Ge  Ge37  1  0.03686865  0.89085994  0.75000000  1
  Ge  Ge38  1  0.53686865  0.39085994  0.75000000  1
  Ge  Ge39  1  0.53686865  0.89085994  0.75000000  1
  O  O40  1  0.13557468  0.10154519  0.25000000  1
  O  O41  1  0.13557468  0.60154519  0.25000000  1
  O  O42  1  0.63557468  0.10154519  0.25000000  1
  O  O43  1  0.63557468  0.60154519  0.25000000  1
  O  O44  1  0.46597051  0.36442532  0.25000000  1
  O  O45  1  0.46597051  0.86442532  0.25000000  1
  O  O46  1  0.96597051  0.36442532  0.25000000  1
  O  O47  1  0.96597051  0.86442532  0.25000000  1
  O  O48  1  0.39845481  0.03402949  0.25000000  1
  O  O49  1  0.39845481  0.53402949  0.25000000  1
  O  O50  1  0.89845481  0.03402949  0.25000000  1
  O  O51  1  0.89845481  0.53402949  0.25000000  1
  O  O52  1  0.39845481  0.36442532  0.75000000  1
  O  O53  1  0.39845481  0.86442532  0.75000000  1
  O  O54  1  0.89845481  0.36442532  0.75000000  1
  O  O55  1  0.89845481  0.86442532  0.75000000  1
  O  O56  1  0.46597051  0.10154519  0.75000000  1
  O  O57  1  0.46597051  0.60154519  0.75000000  1
  O  O58  1  0.96597051  0.10154519  0.75000000  1
  O  O59  1  0.96597051  0.60154519  0.75000000  1
  O  O60  1  0.13557468  0.03402949  0.75000000  1
  O  O61  1  0.13557468  0.53402949  0.75000000  1
  O  O62  1  0.63557468  0.03402949  0.75000000  1
  O  O63  1  0.63557468  0.53402949  0.75000000  1
  O  O64  1  0.04748879  0.22117181  0.10860403  1
  O  O65  1  0.04748879  0.72117181  0.10860403  1
  O  O66  1  0.54748879  0.22117181  0.10860403  1
  O  O67  1  0.54748879  0.72117181  0.10860403  1
  O  O68  1  0.17368301  0.45251121  0.39139597  1
  O  O69  1  0.17368301  0.95251121  0.39139597  1
  O  O70  1  0.67368301  0.45251121  0.39139597  1
  O  O71  1  0.67368301  0.95251121  0.39139597  1
  O  O72  1  0.27882819  0.32631699  0.39139597  1
  O  O73  1  0.27882819  0.82631699  0.39139597  1
  O  O74  1  0.77882819  0.32631699  0.39139597  1
  O  O75  1  0.77882819  0.82631699  0.39139597  1
  O  O76  1  0.27882819  0.32631699  0.10860403  1
  O  O77  1  0.27882819  0.82631699  0.10860403  1
  O  O78  1  0.77882819  0.32631699  0.10860403  1
  O  O79  1  0.77882819  0.82631699  0.10860403  1
  O  O80  1  0.17368301  0.45251121  0.10860403  1
  O  O81  1  0.17368301  0.95251121  0.10860403  1
  O  O82  1  0.67368301  0.45251121  0.10860403  1
  O  O83  1  0.67368301  0.95251121  0.10860403  1
  O  O84  1  0.27882819  0.45251121  0.89139597  1
  O  O85  1  0.27882819  0.95251121  0.89139597  1
  O  O86  1  0.77882819  0.45251121  0.89139597  1
  O  O87  1  0.77882819  0.95251121  0.89139597  1
  O  O88  1  0.17368301  0.22117181  0.89139597  1
  O  O89  1  0.17368301  0.72117181  0.89139597  1
  O  O90  1  0.67368301  0.22117181  0.89139597  1
  O  O91  1  0.67368301  0.72117181  0.89139597  1
  O  O92  1  0.04748879  0.32631699  0.89139597  1
  O  O93  1  0.04748879  0.82631699  0.89139597  1
  O  O94  1  0.54748879  0.32631699  0.89139597  1
  O  O95  1  0.54748879  0.82631699  0.89139597  1
  O  O96  1  0.17368301  0.22117181  0.60860403  1
  O  O97  1  0.17368301  0.72117181  0.60860403  1
  O  O98  1  0.67368301  0.22117181  0.60860403  1
  O  O99  1  0.67368301  0.72117181  0.60860403  1
  O  O100  1  0.04748879  0.32631699  0.60860403  1
  O  O101  1  0.04748879  0.82631699  0.60860403  1
  O  O102  1  0.54748879  0.32631699  0.60860403  1
  O  O103  1  0.54748879  0.82631699  0.60860403  1
  O  O104  1  0.04748879  0.22117181  0.39139597  1
  O  O105  1  0.04748879  0.72117181  0.39139597  1
  O  O106  1  0.54748879  0.22117181  0.39139597  1
  O  O107  1  0.54748879  0.72117181  0.39139597  1
  O  O108  1  0.27882819  0.45251121  0.60860403  1
  O  O109  1  0.27882819  0.95251121  0.60860403  1
  O  O110  1  0.77882819  0.45251121  0.60860403  1
  O  O111  1  0.77882819  0.95251121  0.60860403  1
