# generated using pymatgen
data_KLiZnO2
_symmetry_space_group_name_H-M   'P 1'
_cell_length_a   10.71468286
_cell_length_b   9.93457502
_cell_length_c   8.15991558
_cell_angle_alpha   90.00000000
_cell_angle_beta   119.67588965
_cell_angle_gamma   90.00000000
_symmetry_Int_Tables_number   1
_chemical_formula_structural   KLiZnO2
_chemical_formula_sum   'K12 Li12 Zn12 O24'
_cell_volume   754.66472742
_cell_formula_units_Z   12
loop_
 _symmetry_equiv_pos_site_id
 _symmetry_equiv_pos_as_xyz
  1  'x, y, z'
loop_
 _atom_site_type_symbol
 _atom_site_label
 _atom_site_symmetry_multiplicity
 _atom_site_fract_x
 _atom_site_fract_y
 _atom_site_fract_z
 _atom_site_occupancy
  K  K0  1  0.83510381  -0.00000000  0.37037972  1
  K  K1  1  0.83510381  0.33333333  0.37037972  1
  K  K2  1  0.83510381  0.66666667  0.37037972  1
  K  K3  1  1.33510381  0.16666667  0.37037972  1
  K  K4  1  1.33510381  0.50000000  0.37037972  1
  K  K5  1  1.33510381  0.83333333  0.37037972  1
  K  K6  1  0.16489619  0.00000000  0.62962028  1
  K  K7  1  0.16489619  0.33333333  0.62962028  1
  K  K8  1  0.16489619  0.66666667  0.62962028  1
  K  K9  1  0.66489619  0.16666667  0.62962028  1
  K  K10  1  0.66489619  0.50000000  0.62962028  1
  K  K11  1  0.66489619  0.83333333  0.62962028  1
  Li  Li12  1  0.34154847  0.00000000  0.05536415  1
  Li  Li13  1  0.34154847  0.33333333  0.05536415  1
  Li  Li14  1  0.34154847  0.66666667  0.05536415  1
  Li  Li15  1  0.84154847  0.16666667  0.05536415  1
  Li  Li16  1  0.84154847  0.50000000  0.05536415  1
  Li  Li17  1  0.84154847  0.83333333  0.05536415  1
  Li  Li18  1  0.65845153  -0.00000000  0.94463585  1
  Li  Li19  1  0.65845153  0.33333333  0.94463585  1
  Li  Li20  1  0.65845153  0.66666667  0.94463585  1
  Li  Li21  1  1.15845153  0.16666667  0.94463585  1
  Li  Li22  1  1.15845153  0.50000000  0.94463585  1
  Li  Li23  1  1.15845153  0.83333333  0.94463585  1
  Zn  Zn24  1  0.04134422  0.00000000  0.17853134  1
  Zn  Zn25  1  0.04134422  0.33333333  0.17853134  1
  Zn  Zn26  1  0.04134422  0.66666667  0.17853134  1
  Zn  Zn27  1  0.54134422  0.16666667  0.17853134  1
  Zn  Zn28  1  0.54134422  0.50000000  0.17853134  1
  Zn  Zn29  1  0.54134422  0.83333333  0.17853134  1
  Zn  Zn30  1  0.95865578  -0.00000000  0.82146866  1
  Zn  Zn31  1  0.95865578  0.33333333  0.82146866  1
  Zn  Zn32  1  0.95865578  0.66666667  0.82146866  1
  Zn  Zn33  1  1.45865578  0.16666667  0.82146866  1
  Zn  Zn34  1  1.45865578  0.50000000  0.82146866  1
  Zn  Zn35  1  1.45865578  0.83333333  0.82146866  1
  O  O36  1  0.46193655  0.00000000  0.69916249  1
  O  O37  1  0.46193655  0.33333333  0.69916249  1
  O  O38  1  0.46193655  0.66666667  0.69916249  1
  O  O39  1  0.96193655  0.16666667  0.69916249  1
  O  O40  1  0.96193655  0.50000000  0.69916249  1
  O  O41  1  0.96193655  0.83333333  0.69916249  1
  O  O42  1  0.53806345  0.00000000  0.30083751  1
  O  O43  1  0.53806345  0.33333333  0.30083751  1
  O  O44  1  0.53806345  0.66666667  0.30083751  1
  O  O45  1  1.03806345  0.16666667  0.30083751  1
  O  O46  1  1.03806345  0.50000000  0.30083751  1
  O  O47  1  1.03806345  0.83333333  0.30083751  1
  O  O48  1  0.84071520  0.00000000  0.93919182  1
  O  O49  1  0.84071520  0.33333333  0.93919182  1
  O  O50  1  0.84071520  0.66666667  0.93919182  1
  O  O51  1  1.34071520  0.16666667  0.93919182  1
  O  O52  1  1.34071520  0.50000000  0.93919182  1
  O  O53  1  1.34071520  0.83333333  0.93919182  1
  O  O54  1  0.15928480  0.00000000  0.06080818  1
  O  O55  1  0.15928480  0.33333333  0.06080818  1
  O  O56  1  0.15928480  0.66666667  0.06080818  1
  O  O57  1  0.65928480  0.16666667  0.06080818  1
  O  O58  1  0.65928480  0.50000000  0.06080818  1
  O  O59  1  0.65928480  0.83333333  0.06080818  1
