# generated using pymatgen
data_Sr2ScSbO6
_symmetry_space_group_name_H-M   'P 1'
_cell_length_a   11.36489266
_cell_length_b   11.35751229
_cell_length_c   9.83134609
_cell_angle_alpha   90.00000000
_cell_angle_beta   125.36510405
_cell_angle_gamma   90.00000000
_symmetry_Int_Tables_number   1
_chemical_formula_structural   Sr2ScSbO6
_chemical_formula_sum   'Sr16 Sc8 Sb8 O48'
_cell_volume   1034.84449885
_cell_formula_units_Z   8
loop_
 _symmetry_equiv_pos_site_id
 _symmetry_equiv_pos_as_xyz
  1  'x, y, z'
loop_
 _atom_site_type_symbol
 _atom_site_label
 _atom_site_symmetry_multiplicity
 _atom_site_fract_x
 _atom_site_fract_y
 _atom_site_fract_z
 _atom_site_occupancy
  Sr  Sr0  1  0.37271672  0.26043373  0.25015020  1
  Sr  Sr1  1  0.37271672  0.76043373  0.25015020  1
  Sr  Sr2  1  0.87271672  0.26043373  0.25015020  1
  Sr  Sr3  1  0.87271672  0.76043373  0.25015020  1
  Sr  Sr4  1  0.37271672  0.48956627  0.75015020  1
  Sr  Sr5  1  0.37271672  0.98956627  0.75015020  1
  Sr  Sr6  1  0.87271672  0.48956627  0.75015020  1
  Sr  Sr7  1  0.87271672  0.98956627  0.75015020  1
  Sr  Sr8  1  0.12728328  0.23956627  0.74984980  1
  Sr  Sr9  1  0.12728328  0.73956627  0.74984980  1
  Sr  Sr10  1  0.62728328  0.23956627  0.74984980  1
  Sr  Sr11  1  0.62728328  0.73956627  0.74984980  1
  Sr  Sr12  1  0.12728328  0.01043373  0.24984980  1
  Sr  Sr13  1  0.12728328  0.51043373  0.24984980  1
  Sr  Sr14  1  0.62728328  0.01043373  0.24984980  1
  Sr  Sr15  1  0.62728328  0.51043373  0.24984980  1
  Sc  Sc16  1  0.25000000  0.25000000  0.50000000  1
  Sc  Sc17  1  0.25000000  0.75000000  0.50000000  1
  Sc  Sc18  1  0.75000000  0.25000000  0.50000000  1
  Sc  Sc19  1  0.75000000  0.75000000  0.50000000  1
  Sc  Sc20  1  0.25000000  0.00000000  0.00000000  1
  Sc  Sc21  1  0.25000000  0.50000000  0.00000000  1
  Sc  Sc22  1  0.75000000  0.00000000  0.00000000  1
  Sc  Sc23  1  0.75000000  0.50000000  0.00000000  1
  Sb  Sb24  1  0.00000000  0.00000000  0.50000000  1
  Sb  Sb25  1  0.00000000  0.50000000  0.50000000  1
  Sb  Sb26  1  0.50000000  0.00000000  0.50000000  1
  Sb  Sb27  1  0.50000000  0.50000000  0.50000000  1
  Sb  Sb28  1  0.00000000  0.25000000  0.00000000  1
  Sb  Sb29  1  0.00000000  0.75000000  0.00000000  1
  Sb  Sb30  1  0.50000000  0.25000000  0.00000000  1
  Sb  Sb31  1  0.50000000  0.75000000  0.00000000  1
  O  O32  1  0.34922004  0.39020611  0.46819103  1
  O  O33  1  0.34922004  0.89020611  0.46819103  1
  O  O34  1  0.84922004  0.39020611  0.46819103  1
  O  O35  1  0.84922004  0.89020611  0.46819103  1
  O  O36  1  0.34922004  0.35979389  0.96819103  1
  O  O37  1  0.34922004  0.85979389  0.96819103  1
  O  O38  1  0.84922004  0.35979389  0.96819103  1
  O  O39  1  0.84922004  0.85979389  0.96819103  1
  O  O40  1  0.15077996  0.10979389  0.53180897  1
  O  O41  1  0.15077996  0.60979389  0.53180897  1
  O  O42  1  0.65077996  0.10979389  0.53180897  1
  O  O43  1  0.65077996  0.60979389  0.53180897  1
  O  O44  1  0.15077996  0.14020611  0.03180897  1
  O  O45  1  0.15077996  0.64020611  0.03180897  1
  O  O46  1  0.65077996  0.14020611  0.03180897  1
  O  O47  1  0.65077996  0.64020611  0.03180897  1
  O  O48  1  0.12516653  0.38545283  0.03200313  1
  O  O49  1  0.12516653  0.88545283  0.03200313  1
  O  O50  1  0.62516653  0.38545283  0.03200313  1
  O  O51  1  0.62516653  0.88545283  0.03200313  1
  O  O52  1  0.12516653  0.36454717  0.53200313  1
  O  O53  1  0.12516653  0.86454717  0.53200313  1
  O  O54  1  0.62516653  0.36454717  0.53200313  1
  O  O55  1  0.62516653  0.86454717  0.53200313  1
  O  O56  1  0.37483347  0.11454717  0.96799687  1
  O  O57  1  0.37483347  0.61454717  0.96799687  1
  O  O58  1  0.87483347  0.11454717  0.96799687  1
  O  O59  1  0.87483347  0.61454717  0.96799687  1
  O  O60  1  0.37483347  0.13545283  0.46799687  1
  O  O61  1  0.37483347  0.63545283  0.46799687  1
  O  O62  1  0.87483347  0.13545283  0.46799687  1
  O  O63  1  0.87483347  0.63545283  0.46799687  1
  O  O64  1  0.40800660  0.49526016  0.25542314  1
  O  O65  1  0.40800660  0.99526016  0.25542314  1
  O  O66  1  0.90800660  0.49526016  0.25542314  1
  O  O67  1  0.90800660  0.99526016  0.25542314  1
  O  O68  1  0.40800660  0.25473984  0.75542314  1
  O  O69  1  0.40800660  0.75473984  0.75542314  1
  O  O70  1  0.90800660  0.25473984  0.75542314  1
  O  O71  1  0.90800660  0.75473984  0.75542314  1
  O  O72  1  0.09199340  0.00473984  0.74457686  1
  O  O73  1  0.09199340  0.50473984  0.74457686  1
  O  O74  1  0.59199340  0.00473984  0.74457686  1
  O  O75  1  0.59199340  0.50473984  0.74457686  1
  O  O76  1  0.09199340  0.24526016  0.24457686  1
  O  O77  1  0.09199340  0.74526016  0.24457686  1
  O  O78  1  0.59199340  0.24526016  0.24457686  1
  O  O79  1  0.59199340  0.74526016  0.24457686  1
