# generated using pymatgen
data_K2Zn3O4
_symmetry_space_group_name_H-M   'P 1'
_cell_length_a   14.68519549
_cell_length_b   18.90944652
_cell_length_c   16.86006524
_cell_angle_alpha   90.00000000
_cell_angle_beta   102.16022399
_cell_angle_gamma   90.00000000
_symmetry_Int_Tables_number   1
_chemical_formula_structural   K2Zn3O4
_chemical_formula_sum   'K72 Zn108 O144'
_cell_volume   4576.80357299
_cell_formula_units_Z   36
loop_
 _symmetry_equiv_pos_site_id
 _symmetry_equiv_pos_as_xyz
  1  'x, y, z'
loop_
 _atom_site_type_symbol
 _atom_site_label
 _atom_site_symmetry_multiplicity
 _atom_site_fract_x
 _atom_site_fract_y
 _atom_site_fract_z
 _atom_site_occupancy
  K  K0  1  0.38250938  -0.12418021  0.00248732  1
  K  K1  1  0.38250938  -0.12418021  0.33582065  1
  K  K2  1  0.38250938  -0.12418021  0.66915399  1
  K  K3  1  0.38250938  0.20915313  0.00248732  1
  K  K4  1  0.38250938  0.20915313  0.33582065  1
  K  K5  1  0.38250938  0.20915313  0.66915399  1
  K  K6  1  0.38250938  0.54248646  0.00248732  1
  K  K7  1  0.38250938  0.54248646  0.33582065  1
  K  K8  1  0.38250938  0.54248646  0.66915399  1
  K  K9  1  0.88250938  0.04248646  0.00248732  1
  K  K10  1  0.88250938  0.04248646  0.33582065  1
  K  K11  1  0.88250938  0.04248646  0.66915399  1
  K  K12  1  0.88250938  0.37581979  0.00248732  1
  K  K13  1  0.88250938  0.37581979  0.33582065  1
  K  K14  1  0.88250938  0.37581979  0.66915399  1
  K  K15  1  0.88250938  0.70915313  0.00248732  1
  K  K16  1  0.88250938  0.70915313  0.33582065  1
  K  K17  1  0.88250938  0.70915313  0.66915399  1
  K  K18  1  0.38250938  0.12418021  0.16915399  1
  K  K19  1  0.38250938  0.12418021  0.50248732  1
  K  K20  1  0.38250938  0.12418021  0.83582065  1
  K  K21  1  0.38250938  0.45751354  0.16915399  1
  K  K22  1  0.38250938  0.45751354  0.50248732  1
  K  K23  1  0.38250938  0.45751354  0.83582065  1
  K  K24  1  0.38250938  0.79084687  0.16915399  1
  K  K25  1  0.38250938  0.79084687  0.50248732  1
  K  K26  1  0.38250938  0.79084687  0.83582065  1
  K  K27  1  0.88250938  0.29084687  0.16915399  1
  K  K28  1  0.88250938  0.29084687  0.50248732  1
  K  K29  1  0.88250938  0.29084687  0.83582065  1
  K  K30  1  0.88250938  0.62418021  0.16915399  1
  K  K31  1  0.88250938  0.62418021  0.50248732  1
  K  K32  1  0.88250938  0.62418021  0.83582065  1
  K  K33  1  0.88250938  0.95751354  0.16915399  1
  K  K34  1  0.88250938  0.95751354  0.50248732  1
  K  K35  1  0.88250938  0.95751354  0.83582065  1
  K  K36  1  0.61749062  0.12418021  0.33084601  1
  K  K37  1  0.61749062  0.12418021  0.66417935  1
  K  K38  1  0.61749062  0.12418021  0.99751268  1
  K  K39  1  0.61749062  0.45751354  0.33084601  1
  K  K40  1  0.61749062  0.45751354  0.66417935  1
  K  K41  1  0.61749062  0.45751354  0.99751268  1
  K  K42  1  0.61749062  0.79084687  0.33084601  1
  K  K43  1  0.61749062  0.79084687  0.66417935  1
  K  K44  1  0.61749062  0.79084687  0.99751268  1
  K  K45  1  1.11749062  0.29084687  0.33084601  1
  K  K46  1  1.11749062  0.29084687  0.66417935  1
  K  K47  1  1.11749062  0.29084687  0.99751268  1
  K  K48  1  1.11749062  0.62418021  0.33084601  1
  K  K49  1  1.11749062  0.62418021  0.66417935  1
  K  K50  1  1.11749062  0.62418021  0.99751268  1
  K  K51  1  1.11749062  0.95751354  0.33084601  1
  K  K52  1  1.11749062  0.95751354  0.66417935  1
  K  K53  1  1.11749062  0.95751354  0.99751268  1
  K  K54  1  0.61749062  -0.12418021  0.16417935  1
  K  K55  1  0.61749062  -0.12418021  0.49751268  1
  K  K56  1  0.61749062  -0.12418021  0.83084601  1
  K  K57  1  0.61749062  0.20915313  0.16417935  1
  K  K58  1  0.61749062  0.20915313  0.49751268  1
  K  K59  1  0.61749062  0.20915313  0.83084601  1
  K  K60  1  0.61749062  0.54248646  0.16417935  1
  K  K61  1  0.61749062  0.54248646  0.49751268  1
  K  K62  1  0.61749062  0.54248646  0.83084601  1
  K  K63  1  1.11749062  0.04248646  0.16417935  1
  K  K64  1  1.11749062  0.04248646  0.49751268  1
  K  K65  1  1.11749062  0.04248646  0.83084601  1
  K  K66  1  1.11749062  0.37581979  0.16417935  1
  K  K67  1  1.11749062  0.37581979  0.49751268  1
  K  K68  1  1.11749062  0.37581979  0.83084601  1
  K  K69  1  1.11749062  0.70915313  0.16417935  1
  K  K70  1  1.11749062  0.70915313  0.49751268  1
  K  K71  1  1.11749062  0.70915313  0.83084601  1
  Zn  Zn72  1  0.30655440  0.03931729  0.30409866  1
  Zn  Zn73  1  0.30655440  0.03931729  0.63743200  1
  Zn  Zn74  1  0.30655440  0.03931729  0.97076533  1
  Zn  Zn75  1  0.30655440  0.37265063  0.30409866  1
  Zn  Zn76  1  0.30655440  0.37265063  0.63743200  1
  Zn  Zn77  1  0.30655440  0.37265063  0.97076533  1
  Zn  Zn78  1  0.30655440  0.70598396  0.30409866  1
  Zn  Zn79  1  0.30655440  0.70598396  0.63743200  1
  Zn  Zn80  1  0.30655440  0.70598396  0.97076533  1
  Zn  Zn81  1  0.80655440  0.20598396  0.30409866  1
  Zn  Zn82  1  0.80655440  0.20598396  0.63743200  1
  Zn  Zn83  1  0.80655440  0.20598396  0.97076533  1
  Zn  Zn84  1  0.80655440  0.53931729  0.30409866  1
  Zn  Zn85  1  0.80655440  0.53931729  0.63743200  1
  Zn  Zn86  1  0.80655440  0.53931729  0.97076533  1
  Zn  Zn87  1  0.80655440  0.87265063  0.30409866  1
  Zn  Zn88  1  0.80655440  0.87265063  0.63743200  1
  Zn  Zn89  1  0.80655440  0.87265063  0.97076533  1
  Zn  Zn90  1  0.30655440  -0.03931729  0.13743200  1
  Zn  Zn91  1  0.30655440  -0.03931729  0.47076533  1
  Zn  Zn92  1  0.30655440  -0.03931729  0.80409866  1
  Zn  Zn93  1  0.30655440  0.29401604  0.13743200  1
  Zn  Zn94  1  0.30655440  0.29401604  0.47076533  1
  Zn  Zn95  1  0.30655440  0.29401604  0.80409866  1
  Zn  Zn96  1  0.30655440  0.62734937  0.13743200  1
  Zn  Zn97  1  0.30655440  0.62734937  0.47076533  1
  Zn  Zn98  1  0.30655440  0.62734937  0.80409866  1
  Zn  Zn99  1  0.80655440  0.12734937  0.13743200  1
  Zn  Zn100  1  0.80655440  0.12734937  0.47076533  1
  Zn  Zn101  1  0.80655440  0.12734937  0.80409866  1
  Zn  Zn102  1  0.80655440  0.46068271  0.13743200  1
  Zn  Zn103  1  0.80655440  0.46068271  0.47076533  1
  Zn  Zn104  1  0.80655440  0.46068271  0.80409866  1
  Zn  Zn105  1  0.80655440  0.79401604  0.13743200  1
  Zn  Zn106  1  0.80655440  0.79401604  0.47076533  1
  Zn  Zn107  1  0.80655440  0.79401604  0.80409866  1
  Zn  Zn108  1  0.69344560  -0.03931729  0.02923467  1
  Zn  Zn109  1  0.69344560  -0.03931729  0.36256800  1
  Zn  Zn110  1  0.69344560  -0.03931729  0.69590134  1
  Zn  Zn111  1  0.69344560  0.29401604  0.02923467  1
  Zn  Zn112  1  0.69344560  0.29401604  0.36256800  1
  Zn  Zn113  1  0.69344560  0.29401604  0.69590134  1
  Zn  Zn114  1  0.69344560  0.62734937  0.02923467  1
  Zn  Zn115  1  0.69344560  0.62734937  0.36256800  1
  Zn  Zn116  1  0.69344560  0.62734937  0.69590134  1
  Zn  Zn117  1  1.19344560  0.12734937  0.02923467  1
  Zn  Zn118  1  1.19344560  0.12734937  0.36256800  1
  Zn  Zn119  1  1.19344560  0.12734937  0.69590134  1
  Zn  Zn120  1  1.19344560  0.46068271  0.02923467  1
  Zn  Zn121  1  1.19344560  0.46068271  0.36256800  1
  Zn  Zn122  1  1.19344560  0.46068271  0.69590134  1
  Zn  Zn123  1  1.19344560  0.79401604  0.02923467  1
  Zn  Zn124  1  1.19344560  0.79401604  0.36256800  1
  Zn  Zn125  1  1.19344560  0.79401604  0.69590134  1
  Zn  Zn126  1  0.50000000  -0.00547977  0.25000000  1
  Zn  Zn127  1  0.50000000  -0.00547977  0.58333333  1
  Zn  Zn128  1  0.50000000  -0.00547977  0.91666667  1
  Zn  Zn129  1  0.50000000  0.32785356  0.25000000  1
  Zn  Zn130  1  0.50000000  0.32785356  0.58333333  1
  Zn  Zn131  1  0.50000000  0.32785356  0.91666667  1
  Zn  Zn132  1  0.50000000  0.66118690  0.25000000  1
  Zn  Zn133  1  0.50000000  0.66118690  0.58333333  1
  Zn  Zn134  1  0.50000000  0.66118690  0.91666667  1
  Zn  Zn135  1  1.00000000  0.16118690  0.25000000  1
  Zn  Zn136  1  1.00000000  0.16118690  0.58333333  1
  Zn  Zn137  1  1.00000000  0.16118690  0.91666667  1
  Zn  Zn138  1  1.00000000  0.49452023  0.25000000  1
  Zn  Zn139  1  1.00000000  0.49452023  0.58333333  1
  Zn  Zn140  1  1.00000000  0.49452023  0.91666667  1
  Zn  Zn141  1  1.00000000  0.82785356  0.25000000  1
  Zn  Zn142  1  1.00000000  0.82785356  0.58333333  1
  Zn  Zn143  1  1.00000000  0.82785356  0.91666667  1
  Zn  Zn144  1  0.50000000  0.00547977  0.08333333  1
  Zn  Zn145  1  0.50000000  0.00547977  0.41666667  1
  Zn  Zn146  1  0.50000000  0.00547977  0.75000000  1
  Zn  Zn147  1  0.50000000  0.33881310  0.08333333  1
  Zn  Zn148  1  0.50000000  0.33881310  0.41666667  1
  Zn  Zn149  1  0.50000000  0.33881310  0.75000000  1
  Zn  Zn150  1  0.50000000  0.67214644  0.08333333  1
  Zn  Zn151  1  0.50000000  0.67214644  0.41666667  1
  Zn  Zn152  1  0.50000000  0.67214644  0.75000000  1
  Zn  Zn153  1  1.00000000  0.17214644  0.08333333  1
  Zn  Zn154  1  1.00000000  0.17214644  0.41666667  1
  Zn  Zn155  1  1.00000000  0.17214644  0.75000000  1
  Zn  Zn156  1  1.00000000  0.50547977  0.08333333  1
  Zn  Zn157  1  1.00000000  0.50547977  0.41666667  1
  Zn  Zn158  1  1.00000000  0.50547977  0.75000000  1
  Zn  Zn159  1  1.00000000  0.83881310  0.08333333  1
  Zn  Zn160  1  1.00000000  0.83881310  0.41666667  1
  Zn  Zn161  1  1.00000000  0.83881310  0.75000000  1
  Zn  Zn162  1  0.69344560  0.03931729  0.19590134  1
  Zn  Zn163  1  0.69344560  0.03931729  0.52923467  1
  Zn  Zn164  1  0.69344560  0.03931729  0.86256800  1
  Zn  Zn165  1  0.69344560  0.37265063  0.19590134  1
  Zn  Zn166  1  0.69344560  0.37265063  0.52923467  1
  Zn  Zn167  1  0.69344560  0.37265063  0.86256800  1
  Zn  Zn168  1  0.69344560  0.70598396  0.19590134  1
  Zn  Zn169  1  0.69344560  0.70598396  0.52923467  1
  Zn  Zn170  1  0.69344560  0.70598396  0.86256800  1
  Zn  Zn171  1  1.19344560  0.20598396  0.19590134  1
  Zn  Zn172  1  1.19344560  0.20598396  0.52923467  1
  Zn  Zn173  1  1.19344560  0.20598396  0.86256800  1
  Zn  Zn174  1  1.19344560  0.53931729  0.19590134  1
  Zn  Zn175  1  1.19344560  0.53931729  0.52923467  1
  Zn  Zn176  1  1.19344560  0.53931729  0.86256800  1
  Zn  Zn177  1  1.19344560  0.87265063  0.19590134  1
  Zn  Zn178  1  1.19344560  0.87265063  0.52923467  1
  Zn  Zn179  1  1.19344560  0.87265063  0.86256800  1
  O  O180  1  0.73820535  -0.04022142  0.26208787  1
  O  O181  1  0.73820535  -0.04022142  0.59542120  1
  O  O182  1  0.73820535  -0.04022142  0.92875454  1
  O  O183  1  0.73820535  0.29311192  0.26208787  1
  O  O184  1  0.73820535  0.29311192  0.59542120  1
  O  O185  1  0.73820535  0.29311192  0.92875454  1
  O  O186  1  0.73820535  0.62644525  0.26208787  1
  O  O187  1  0.73820535  0.62644525  0.59542120  1
  O  O188  1  0.73820535  0.62644525  0.92875454  1
  O  O189  1  1.23820535  0.12644525  0.26208787  1
  O  O190  1  1.23820535  0.12644525  0.59542120  1
  O  O191  1  1.23820535  0.12644525  0.92875454  1
  O  O192  1  1.23820535  0.45977858  0.26208787  1
  O  O193  1  1.23820535  0.45977858  0.59542120  1
  O  O194  1  1.23820535  0.45977858  0.92875454  1
  O  O195  1  1.23820535  0.79311192  0.26208787  1
  O  O196  1  1.23820535  0.79311192  0.59542120  1
  O  O197  1  1.23820535  0.79311192  0.92875454  1
  O  O198  1  0.43870879  0.05653089  0.31923648  1
  O  O199  1  0.43870879  0.05653089  0.65256981  1
  O  O200  1  0.43870879  0.05653089  0.98590314  1
  O  O201  1  0.43870879  0.38986422  0.31923648  1
  O  O202  1  0.43870879  0.38986422  0.65256981  1
  O  O203  1  0.43870879  0.38986422  0.98590314  1
  O  O204  1  0.43870879  0.72319755  0.31923648  1
  O  O205  1  0.43870879  0.72319755  0.65256981  1
  O  O206  1  0.43870879  0.72319755  0.98590314  1
  O  O207  1  0.93870879  0.22319755  0.31923648  1
  O  O208  1  0.93870879  0.22319755  0.65256981  1
  O  O209  1  0.93870879  0.22319755  0.98590314  1
  O  O210  1  0.93870879  0.55653089  0.31923648  1
  O  O211  1  0.93870879  0.55653089  0.65256981  1
  O  O212  1  0.93870879  0.55653089  0.98590314  1
  O  O213  1  0.93870879  0.88986422  0.31923648  1
  O  O214  1  0.93870879  0.88986422  0.65256981  1
  O  O215  1  0.93870879  0.88986422  0.98590314  1
  O  O216  1  0.56129121  0.05653089  0.18076352  1
  O  O217  1  0.56129121  0.05653089  0.51409686  1
  O  O218  1  0.56129121  0.05653089  0.84743019  1
  O  O219  1  0.56129121  0.38986422  0.18076352  1
  O  O220  1  0.56129121  0.38986422  0.51409686  1
  O  O221  1  0.56129121  0.38986422  0.84743019  1
  O  O222  1  0.56129121  0.72319755  0.18076352  1
  O  O223  1  0.56129121  0.72319755  0.51409686  1
  O  O224  1  0.56129121  0.72319755  0.84743019  1
  O  O225  1  1.06129121  0.22319755  0.18076352  1
  O  O226  1  1.06129121  0.22319755  0.51409686  1
  O  O227  1  1.06129121  0.22319755  0.84743019  1
  O  O228  1  1.06129121  0.55653089  0.18076352  1
  O  O229  1  1.06129121  0.55653089  0.51409686  1
  O  O230  1  1.06129121  0.55653089  0.84743019  1
  O  O231  1  1.06129121  0.88986422  0.18076352  1
  O  O232  1  1.06129121  0.88986422  0.51409686  1
  O  O233  1  1.06129121  0.88986422  0.84743019  1
  O  O234  1  0.56129121  -0.05653089  0.01409686  1
  O  O235  1  0.56129121  -0.05653089  0.34743019  1
  O  O236  1  0.56129121  -0.05653089  0.68076352  1
  O  O237  1  0.56129121  0.27680245  0.01409686  1
  O  O238  1  0.56129121  0.27680245  0.34743019  1
  O  O239  1  0.56129121  0.27680245  0.68076352  1
  O  O240  1  0.56129121  0.61013578  0.01409686  1
  O  O241  1  0.56129121  0.61013578  0.34743019  1
  O  O242  1  0.56129121  0.61013578  0.68076352  1
  O  O243  1  1.06129121  0.11013578  0.01409686  1
  O  O244  1  1.06129121  0.11013578  0.34743019  1
  O  O245  1  1.06129121  0.11013578  0.68076352  1
  O  O246  1  1.06129121  0.44346911  0.01409686  1
  O  O247  1  1.06129121  0.44346911  0.34743019  1
  O  O248  1  1.06129121  0.44346911  0.68076352  1
  O  O249  1  1.06129121  0.77680245  0.01409686  1
  O  O250  1  1.06129121  0.77680245  0.34743019  1
  O  O251  1  1.06129121  0.77680245  0.68076352  1
  O  O252  1  0.26179465  -0.04022142  0.23791213  1
  O  O253  1  0.26179465  -0.04022142  0.57124546  1
  O  O254  1  0.26179465  -0.04022142  0.90457880  1
  O  O255  1  0.26179465  0.29311192  0.23791213  1
  O  O256  1  0.26179465  0.29311192  0.57124546  1
  O  O257  1  0.26179465  0.29311192  0.90457880  1
  O  O258  1  0.26179465  0.62644525  0.23791213  1
  O  O259  1  0.26179465  0.62644525  0.57124546  1
  O  O260  1  0.26179465  0.62644525  0.90457880  1
  O  O261  1  0.76179465  0.12644525  0.23791213  1
  O  O262  1  0.76179465  0.12644525  0.57124546  1
  O  O263  1  0.76179465  0.12644525  0.90457880  1
  O  O264  1  0.76179465  0.45977858  0.23791213  1
  O  O265  1  0.76179465  0.45977858  0.57124546  1
  O  O266  1  0.76179465  0.45977858  0.90457880  1
  O  O267  1  0.76179465  0.79311192  0.23791213  1
  O  O268  1  0.76179465  0.79311192  0.57124546  1
  O  O269  1  0.76179465  0.79311192  0.90457880  1
  O  O270  1  0.26179465  0.04022142  0.07124546  1
  O  O271  1  0.26179465  0.04022142  0.40457880  1
  O  O272  1  0.26179465  0.04022142  0.73791213  1
  O  O273  1  0.26179465  0.37355475  0.07124546  1
  O  O274  1  0.26179465  0.37355475  0.40457880  1
  O  O275  1  0.26179465  0.37355475  0.73791213  1
  O  O276  1  0.26179465  0.70688808  0.07124546  1
  O  O277  1  0.26179465  0.70688808  0.40457880  1
  O  O278  1  0.26179465  0.70688808  0.73791213  1
  O  O279  1  0.76179465  0.20688808  0.07124546  1
  O  O280  1  0.76179465  0.20688808  0.40457880  1
  O  O281  1  0.76179465  0.20688808  0.73791213  1
  O  O282  1  0.76179465  0.54022142  0.07124546  1
  O  O283  1  0.76179465  0.54022142  0.40457880  1
  O  O284  1  0.76179465  0.54022142  0.73791213  1
  O  O285  1  0.76179465  0.87355475  0.07124546  1
  O  O286  1  0.76179465  0.87355475  0.40457880  1
  O  O287  1  0.76179465  0.87355475  0.73791213  1
  O  O288  1  0.73820535  0.04022142  0.09542120  1
  O  O289  1  0.73820535  0.04022142  0.42875454  1
  O  O290  1  0.73820535  0.04022142  0.76208787  1
  O  O291  1  0.73820535  0.37355475  0.09542120  1
  O  O292  1  0.73820535  0.37355475  0.42875454  1
  O  O293  1  0.73820535  0.37355475  0.76208787  1
  O  O294  1  0.73820535  0.70688808  0.09542120  1
  O  O295  1  0.73820535  0.70688808  0.42875454  1
  O  O296  1  0.73820535  0.70688808  0.76208787  1
  O  O297  1  1.23820535  0.20688808  0.09542120  1
  O  O298  1  1.23820535  0.20688808  0.42875454  1
  O  O299  1  1.23820535  0.20688808  0.76208787  1
  O  O300  1  1.23820535  0.54022142  0.09542120  1
  O  O301  1  1.23820535  0.54022142  0.42875454  1
  O  O302  1  1.23820535  0.54022142  0.76208787  1
  O  O303  1  1.23820535  0.87355475  0.09542120  1
  O  O304  1  1.23820535  0.87355475  0.42875454  1
  O  O305  1  1.23820535  0.87355475  0.76208787  1
  O  O306  1  0.43870879  -0.05653089  0.15256981  1
  O  O307  1  0.43870879  -0.05653089  0.48590314  1
  O  O308  1  0.43870879  -0.05653089  0.81923648  1
  O  O309  1  0.43870879  0.27680245  0.15256981  1
  O  O310  1  0.43870879  0.27680245  0.48590314  1
  O  O311  1  0.43870879  0.27680245  0.81923648  1
  O  O312  1  0.43870879  0.61013578  0.15256981  1
  O  O313  1  0.43870879  0.61013578  0.48590314  1
  O  O314  1  0.43870879  0.61013578  0.81923648  1
  O  O315  1  0.93870879  0.11013578  0.15256981  1
  O  O316  1  0.93870879  0.11013578  0.48590314  1
  O  O317  1  0.93870879  0.11013578  0.81923648  1
  O  O318  1  0.93870879  0.44346911  0.15256981  1
  O  O319  1  0.93870879  0.44346911  0.48590314  1
  O  O320  1  0.93870879  0.44346911  0.81923648  1
  O  O321  1  0.93870879  0.77680245  0.15256981  1
  O  O322  1  0.93870879  0.77680245  0.48590314  1
  O  O323  1  0.93870879  0.77680245  0.81923648  1
