# generated using pymatgen
data_KMgBO3
_symmetry_space_group_name_H-M   'P 1'
_cell_length_a   13.66898683
_cell_length_b   13.66898683
_cell_length_c   13.66898683
_cell_angle_alpha   90.00000000
_cell_angle_beta   90.00000000
_cell_angle_gamma   90.00000000
_symmetry_Int_Tables_number   1
_chemical_formula_structural   KMgBO3
_chemical_formula_sum   'K32 Mg32 B32 O96'
_cell_volume   2553.92991430
_cell_formula_units_Z   32
loop_
 _symmetry_equiv_pos_site_id
 _symmetry_equiv_pos_as_xyz
  1  'x, y, z'
loop_
 _atom_site_type_symbol
 _atom_site_label
 _atom_site_symmetry_multiplicity
 _atom_site_fract_x
 _atom_site_fract_y
 _atom_site_fract_z
 _atom_site_occupancy
  K  K0  1  0.18245635  0.43245635  0.31754365  1
  K  K1  1  0.18245635  0.43245635  0.81754365  1
  K  K2  1  0.18245635  0.93245635  0.31754365  1
  K  K3  1  0.18245635  0.93245635  0.81754365  1
  K  K4  1  0.68245635  0.43245635  0.31754365  1
  K  K5  1  0.68245635  0.43245635  0.81754365  1
  K  K6  1  0.68245635  0.93245635  0.31754365  1
  K  K7  1  0.68245635  0.93245635  0.81754365  1
  K  K8  1  0.43245635  0.31754365  0.18245635  1
  K  K9  1  0.43245635  0.31754365  0.68245635  1
  K  K10  1  0.43245635  0.81754365  0.18245635  1
  K  K11  1  0.43245635  0.81754365  0.68245635  1
  K  K12  1  0.93245635  0.31754365  0.18245635  1
  K  K13  1  0.93245635  0.31754365  0.68245635  1
  K  K14  1  0.93245635  0.81754365  0.18245635  1
  K  K15  1  0.93245635  0.81754365  0.68245635  1
  K  K16  1  0.31754365  0.18245635  0.43245635  1
  K  K17  1  0.31754365  0.18245635  0.93245635  1
  K  K18  1  0.31754365  0.68245635  0.43245635  1
  K  K19  1  0.31754365  0.68245635  0.93245635  1
  K  K20  1  0.81754365  0.18245635  0.43245635  1
  K  K21  1  0.81754365  0.18245635  0.93245635  1
  K  K22  1  0.81754365  0.68245635  0.43245635  1
  K  K23  1  0.81754365  0.68245635  0.93245635  1
  K  K24  1  0.06754365  0.06754365  0.06754365  1
  K  K25  1  0.06754365  0.06754365  0.56754365  1
  K  K26  1  0.06754365  0.56754365  0.06754365  1
  K  K27  1  0.06754365  0.56754365  0.56754365  1
  K  K28  1  0.56754365  0.06754365  0.06754365  1
  K  K29  1  0.56754365  0.06754365  0.56754365  1
  K  K30  1  0.56754365  0.56754365  0.06754365  1
  K  K31  1  0.56754365  0.56754365  0.56754365  1
  Mg  Mg32  1  0.32194007  0.07194007  0.17805993  1
  Mg  Mg33  1  0.32194007  0.07194007  0.67805993  1
  Mg  Mg34  1  0.32194007  0.57194007  0.17805993  1
  Mg  Mg35  1  0.32194007  0.57194007  0.67805993  1
  Mg  Mg36  1  0.82194007  0.07194007  0.17805993  1
  Mg  Mg37  1  0.82194007  0.07194007  0.67805993  1
  Mg  Mg38  1  0.82194007  0.57194007  0.17805993  1
  Mg  Mg39  1  0.82194007  0.57194007  0.67805993  1
  Mg  Mg40  1  0.07194007  0.17805993  0.32194007  1
  Mg  Mg41  1  0.07194007  0.17805993  0.82194007  1
  Mg  Mg42  1  0.07194007  0.67805993  0.32194007  1
  Mg  Mg43  1  0.07194007  0.67805993  0.82194007  1
  Mg  Mg44  1  0.57194007  0.17805993  0.32194007  1
  Mg  Mg45  1  0.57194007  0.17805993  0.82194007  1
  Mg  Mg46  1  0.57194007  0.67805993  0.32194007  1
  Mg  Mg47  1  0.57194007  0.67805993  0.82194007  1
  Mg  Mg48  1  0.17805993  0.32194007  0.07194007  1
  Mg  Mg49  1  0.17805993  0.32194007  0.57194007  1
  Mg  Mg50  1  0.17805993  0.82194007  0.07194007  1
  Mg  Mg51  1  0.17805993  0.82194007  0.57194007  1
  Mg  Mg52  1  0.67805993  0.32194007  0.07194007  1
  Mg  Mg53  1  0.67805993  0.32194007  0.57194007  1
  Mg  Mg54  1  0.67805993  0.82194007  0.07194007  1
  Mg  Mg55  1  0.67805993  0.82194007  0.57194007  1
  Mg  Mg56  1  0.42805993  0.42805993  0.42805993  1
  Mg  Mg57  1  0.42805993  0.42805993  0.92805993  1
  Mg  Mg58  1  0.42805993  0.92805993  0.42805993  1
  Mg  Mg59  1  0.42805993  0.92805993  0.92805993  1
  Mg  Mg60  1  0.92805993  0.42805993  0.42805993  1
  Mg  Mg61  1  0.92805993  0.42805993  0.92805993  1
  Mg  Mg62  1  0.92805993  0.92805993  0.42805993  1
  Mg  Mg63  1  0.92805993  0.92805993  0.92805993  1
  B  B64  1  0.04723240  0.29723240  0.45276760  1
  B  B65  1  0.04723240  0.29723240  0.95276760  1
  B  B66  1  0.04723240  0.79723240  0.45276760  1
  B  B67  1  0.04723240  0.79723240  0.95276760  1
  B  B68  1  0.54723240  0.29723240  0.45276760  1
  B  B69  1  0.54723240  0.29723240  0.95276760  1
  B  B70  1  0.54723240  0.79723240  0.45276760  1
  B  B71  1  0.54723240  0.79723240  0.95276760  1
  B  B72  1  0.29723240  0.45276760  0.04723240  1
  B  B73  1  0.29723240  0.45276760  0.54723240  1
  B  B74  1  0.29723240  0.95276760  0.04723240  1
  B  B75  1  0.29723240  0.95276760  0.54723240  1
  B  B76  1  0.79723240  0.45276760  0.04723240  1
  B  B77  1  0.79723240  0.45276760  0.54723240  1
  B  B78  1  0.79723240  0.95276760  0.04723240  1
  B  B79  1  0.79723240  0.95276760  0.54723240  1
  B  B80  1  0.45276760  0.04723240  0.29723240  1
  B  B81  1  0.45276760  0.04723240  0.79723240  1
  B  B82  1  0.45276760  0.54723240  0.29723240  1
  B  B83  1  0.45276760  0.54723240  0.79723240  1
  B  B84  1  0.95276760  0.04723240  0.29723240  1
  B  B85  1  0.95276760  0.04723240  0.79723240  1
  B  B86  1  0.95276760  0.54723240  0.29723240  1
  B  B87  1  0.95276760  0.54723240  0.79723240  1
  B  B88  1  0.20276760  0.20276760  0.20276760  1
  B  B89  1  0.20276760  0.20276760  0.70276760  1
  B  B90  1  0.20276760  0.70276760  0.20276760  1
  B  B91  1  0.20276760  0.70276760  0.70276760  1
  B  B92  1  0.70276760  0.20276760  0.20276760  1
  B  B93  1  0.70276760  0.20276760  0.70276760  1
  B  B94  1  0.70276760  0.70276760  0.20276760  1
  B  B95  1  0.70276760  0.70276760  0.70276760  1
  O  O96  1  0.48026374  0.29225344  0.37722492  1
  O  O97  1  0.48026374  0.29225344  0.87722492  1
  O  O98  1  0.48026374  0.79225344  0.37722492  1
  O  O99  1  0.48026374  0.79225344  0.87722492  1
  O  O100  1  0.98026374  0.29225344  0.37722492  1
  O  O101  1  0.98026374  0.29225344  0.87722492  1
  O  O102  1  0.98026374  0.79225344  0.37722492  1
  O  O103  1  0.98026374  0.79225344  0.87722492  1
  O  O104  1  0.12277508  0.23026374  0.45774656  1
  O  O105  1  0.12277508  0.23026374  0.95774656  1
  O  O106  1  0.12277508  0.73026374  0.45774656  1
  O  O107  1  0.12277508  0.73026374  0.95774656  1
  O  O108  1  0.62277508  0.23026374  0.45774656  1
  O  O109  1  0.62277508  0.23026374  0.95774656  1
  O  O110  1  0.62277508  0.73026374  0.45774656  1
  O  O111  1  0.62277508  0.73026374  0.95774656  1
  O  O112  1  0.04225344  0.37277508  0.01973626  1
  O  O113  1  0.04225344  0.37277508  0.51973626  1
  O  O114  1  0.04225344  0.87277508  0.01973626  1
  O  O115  1  0.04225344  0.87277508  0.51973626  1
  O  O116  1  0.54225344  0.37277508  0.01973626  1
  O  O117  1  0.54225344  0.37277508  0.51973626  1
  O  O118  1  0.54225344  0.87277508  0.01973626  1
  O  O119  1  0.54225344  0.87277508  0.51973626  1
  O  O120  1  0.23026374  0.45774656  0.12277508  1
  O  O121  1  0.23026374  0.45774656  0.62277508  1
  O  O122  1  0.23026374  0.95774656  0.12277508  1
  O  O123  1  0.23026374  0.95774656  0.62277508  1
  O  O124  1  0.73026374  0.45774656  0.12277508  1
  O  O125  1  0.73026374  0.45774656  0.62277508  1
  O  O126  1  0.73026374  0.95774656  0.12277508  1
  O  O127  1  0.73026374  0.95774656  0.62277508  1
  O  O128  1  0.37277508  0.01973626  0.04225344  1
  O  O129  1  0.37277508  0.01973626  0.54225344  1
  O  O130  1  0.37277508  0.51973626  0.04225344  1
  O  O131  1  0.37277508  0.51973626  0.54225344  1
  O  O132  1  0.87277508  0.01973626  0.04225344  1
  O  O133  1  0.87277508  0.01973626  0.54225344  1
  O  O134  1  0.87277508  0.51973626  0.04225344  1
  O  O135  1  0.87277508  0.51973626  0.54225344  1
  O  O136  1  0.29225344  0.37722492  0.48026374  1
  O  O137  1  0.29225344  0.37722492  0.98026374  1
  O  O138  1  0.29225344  0.87722492  0.48026374  1
  O  O139  1  0.29225344  0.87722492  0.98026374  1
  O  O140  1  0.79225344  0.37722492  0.48026374  1
  O  O141  1  0.79225344  0.37722492  0.98026374  1
  O  O142  1  0.79225344  0.87722492  0.48026374  1
  O  O143  1  0.79225344  0.87722492  0.98026374  1
  O  O144  1  0.01973626  0.04225344  0.37277508  1
  O  O145  1  0.01973626  0.04225344  0.87277508  1
  O  O146  1  0.01973626  0.54225344  0.37277508  1
  O  O147  1  0.01973626  0.54225344  0.87277508  1
  O  O148  1  0.51973626  0.04225344  0.37277508  1
  O  O149  1  0.51973626  0.04225344  0.87277508  1
  O  O150  1  0.51973626  0.54225344  0.37277508  1
  O  O151  1  0.51973626  0.54225344  0.87277508  1
  O  O152  1  0.37722492  0.48026374  0.29225344  1
  O  O153  1  0.37722492  0.48026374  0.79225344  1
  O  O154  1  0.37722492  0.98026374  0.29225344  1
  O  O155  1  0.37722492  0.98026374  0.79225344  1
  O  O156  1  0.87722492  0.48026374  0.29225344  1
  O  O157  1  0.87722492  0.48026374  0.79225344  1
  O  O158  1  0.87722492  0.98026374  0.29225344  1
  O  O159  1  0.87722492  0.98026374  0.79225344  1
  O  O160  1  0.45774656  0.12277508  0.23026374  1
  O  O161  1  0.45774656  0.12277508  0.73026374  1
  O  O162  1  0.45774656  0.62277508  0.23026374  1
  O  O163  1  0.45774656  0.62277508  0.73026374  1
  O  O164  1  0.95774656  0.12277508  0.23026374  1
  O  O165  1  0.95774656  0.12277508  0.73026374  1
  O  O166  1  0.95774656  0.62277508  0.23026374  1
  O  O167  1  0.95774656  0.62277508  0.73026374  1
  O  O168  1  0.26973626  0.20774656  0.12722492  1
  O  O169  1  0.26973626  0.20774656  0.62722492  1
  O  O170  1  0.26973626  0.70774656  0.12722492  1
  O  O171  1  0.26973626  0.70774656  0.62722492  1
  O  O172  1  0.76973626  0.20774656  0.12722492  1
  O  O173  1  0.76973626  0.20774656  0.62722492  1
  O  O174  1  0.76973626  0.70774656  0.12722492  1
  O  O175  1  0.76973626  0.70774656  0.62722492  1
  O  O176  1  0.12722492  0.26973626  0.20774656  1
  O  O177  1  0.12722492  0.26973626  0.70774656  1
  O  O178  1  0.12722492  0.76973626  0.20774656  1
  O  O179  1  0.12722492  0.76973626  0.70774656  1
  O  O180  1  0.62722492  0.26973626  0.20774656  1
  O  O181  1  0.62722492  0.26973626  0.70774656  1
  O  O182  1  0.62722492  0.76973626  0.20774656  1
  O  O183  1  0.62722492  0.76973626  0.70774656  1
  O  O184  1  0.20774656  0.12722492  0.26973626  1
  O  O185  1  0.20774656  0.12722492  0.76973626  1
  O  O186  1  0.20774656  0.62722492  0.26973626  1
  O  O187  1  0.20774656  0.62722492  0.76973626  1
  O  O188  1  0.70774656  0.12722492  0.26973626  1
  O  O189  1  0.70774656  0.12722492  0.76973626  1
  O  O190  1  0.70774656  0.62722492  0.26973626  1
  O  O191  1  0.70774656  0.62722492  0.76973626  1
