# generated using pymatgen
data_Mg2PtO4
_symmetry_space_group_name_H-M   'P 1'
_cell_length_a   17.77582626
_cell_length_b   12.28525745
_cell_length_c   17.02580197
_cell_angle_alpha   90.00000000
_cell_angle_beta   90.00000000
_cell_angle_gamma   90.00000000
_symmetry_Int_Tables_number   1
_chemical_formula_structural   Mg2PtO4
_chemical_formula_sum   'Mg96 Pt48 O192'
_cell_volume   3718.10488177
_cell_formula_units_Z   48
loop_
 _symmetry_equiv_pos_site_id
 _symmetry_equiv_pos_as_xyz
  1  'x, y, z'
loop_
 _atom_site_type_symbol
 _atom_site_label
 _atom_site_symmetry_multiplicity
 _atom_site_fract_x
 _atom_site_fract_y
 _atom_site_fract_z
 _atom_site_occupancy
  Mg  Mg0  1  0.16666667  0.12500000  0.17799012  1
  Mg  Mg1  1  0.16666667  0.12500000  0.67799012  1
  Mg  Mg2  1  0.16666667  0.62500000  0.17799012  1
  Mg  Mg3  1  0.16666667  0.62500000  0.67799012  1
  Mg  Mg4  1  0.50000000  0.12500000  0.17799012  1
  Mg  Mg5  1  0.50000000  0.12500000  0.67799012  1
  Mg  Mg6  1  0.50000000  0.62500000  0.17799012  1
  Mg  Mg7  1  0.50000000  0.62500000  0.67799012  1
  Mg  Mg8  1  0.83333333  0.12500000  0.17799012  1
  Mg  Mg9  1  0.83333333  0.12500000  0.67799012  1
  Mg  Mg10  1  0.83333333  0.62500000  0.17799012  1
  Mg  Mg11  1  0.83333333  0.62500000  0.67799012  1
  Mg  Mg12  1  0.33333333  0.37500000  0.42799012  1
  Mg  Mg13  1  0.33333333  0.37500000  0.92799012  1
  Mg  Mg14  1  0.33333333  0.87500000  0.42799012  1
  Mg  Mg15  1  0.33333333  0.87500000  0.92799012  1
  Mg  Mg16  1  0.66666667  0.37500000  0.42799012  1
  Mg  Mg17  1  0.66666667  0.37500000  0.92799012  1
  Mg  Mg18  1  0.66666667  0.87500000  0.42799012  1
  Mg  Mg19  1  0.66666667  0.87500000  0.92799012  1
  Mg  Mg20  1  1.00000000  0.37500000  0.42799012  1
  Mg  Mg21  1  1.00000000  0.37500000  0.92799012  1
  Mg  Mg22  1  1.00000000  0.87500000  0.42799012  1
  Mg  Mg23  1  1.00000000  0.87500000  0.92799012  1
  Mg  Mg24  1  -0.00000000  0.12500000  0.07200988  1
  Mg  Mg25  1  -0.00000000  0.12500000  0.57200988  1
  Mg  Mg26  1  -0.00000000  0.62500000  0.07200988  1
  Mg  Mg27  1  -0.00000000  0.62500000  0.57200988  1
  Mg  Mg28  1  0.33333333  0.12500000  0.07200988  1
  Mg  Mg29  1  0.33333333  0.12500000  0.57200988  1
  Mg  Mg30  1  0.33333333  0.62500000  0.07200988  1
  Mg  Mg31  1  0.33333333  0.62500000  0.57200988  1
  Mg  Mg32  1  0.66666667  0.12500000  0.07200988  1
  Mg  Mg33  1  0.66666667  0.12500000  0.57200988  1
  Mg  Mg34  1  0.66666667  0.62500000  0.07200988  1
  Mg  Mg35  1  0.66666667  0.62500000  0.57200988  1
  Mg  Mg36  1  0.16666667  0.37500000  0.32200988  1
  Mg  Mg37  1  0.16666667  0.37500000  0.82200988  1
  Mg  Mg38  1  0.16666667  0.87500000  0.32200988  1
  Mg  Mg39  1  0.16666667  0.87500000  0.82200988  1
  Mg  Mg40  1  0.50000000  0.37500000  0.32200988  1
  Mg  Mg41  1  0.50000000  0.37500000  0.82200988  1
  Mg  Mg42  1  0.50000000  0.87500000  0.32200988  1
  Mg  Mg43  1  0.50000000  0.87500000  0.82200988  1
  Mg  Mg44  1  0.83333333  0.37500000  0.32200988  1
  Mg  Mg45  1  0.83333333  0.37500000  0.82200988  1
  Mg  Mg46  1  0.83333333  0.87500000  0.32200988  1
  Mg  Mg47  1  0.83333333  0.87500000  0.82200988  1
  Mg  Mg48  1  0.08333333  0.12500000  -0.12500000  1
  Mg  Mg49  1  0.08333333  0.12500000  0.37500000  1
  Mg  Mg50  1  0.08333333  0.62500000  -0.12500000  1
  Mg  Mg51  1  0.08333333  0.62500000  0.37500000  1
  Mg  Mg52  1  0.41666667  0.12500000  -0.12500000  1
  Mg  Mg53  1  0.41666667  0.12500000  0.37500000  1
  Mg  Mg54  1  0.41666667  0.62500000  -0.12500000  1
  Mg  Mg55  1  0.41666667  0.62500000  0.37500000  1
  Mg  Mg56  1  0.75000000  0.12500000  -0.12500000  1
  Mg  Mg57  1  0.75000000  0.12500000  0.37500000  1
  Mg  Mg58  1  0.75000000  0.62500000  -0.12500000  1
  Mg  Mg59  1  0.75000000  0.62500000  0.37500000  1
  Mg  Mg60  1  0.25000000  0.37500000  0.12500000  1
  Mg  Mg61  1  0.25000000  0.37500000  0.62500000  1
  Mg  Mg62  1  0.25000000  0.87500000  0.12500000  1
  Mg  Mg63  1  0.25000000  0.87500000  0.62500000  1
  Mg  Mg64  1  0.58333333  0.37500000  0.12500000  1
  Mg  Mg65  1  0.58333333  0.37500000  0.62500000  1
  Mg  Mg66  1  0.58333333  0.87500000  0.12500000  1
  Mg  Mg67  1  0.58333333  0.87500000  0.62500000  1
  Mg  Mg68  1  0.91666667  0.37500000  0.12500000  1
  Mg  Mg69  1  0.91666667  0.37500000  0.62500000  1
  Mg  Mg70  1  0.91666667  0.87500000  0.12500000  1
  Mg  Mg71  1  0.91666667  0.87500000  0.62500000  1
  Mg  Mg72  1  0.08333333  -0.12500000  0.12500000  1
  Mg  Mg73  1  0.08333333  -0.12500000  0.62500000  1
  Mg  Mg74  1  0.08333333  0.37500000  0.12500000  1
  Mg  Mg75  1  0.08333333  0.37500000  0.62500000  1
  Mg  Mg76  1  0.41666667  -0.12500000  0.12500000  1
  Mg  Mg77  1  0.41666667  -0.12500000  0.62500000  1
  Mg  Mg78  1  0.41666667  0.37500000  0.12500000  1
  Mg  Mg79  1  0.41666667  0.37500000  0.62500000  1
  Mg  Mg80  1  0.75000000  -0.12500000  0.12500000  1
  Mg  Mg81  1  0.75000000  -0.12500000  0.62500000  1
  Mg  Mg82  1  0.75000000  0.37500000  0.12500000  1
  Mg  Mg83  1  0.75000000  0.37500000  0.62500000  1
  Mg  Mg84  1  0.25000000  0.12500000  0.37500000  1
  Mg  Mg85  1  0.25000000  0.12500000  0.87500000  1
  Mg  Mg86  1  0.25000000  0.62500000  0.37500000  1
  Mg  Mg87  1  0.25000000  0.62500000  0.87500000  1
  Mg  Mg88  1  0.58333333  0.12500000  0.37500000  1
  Mg  Mg89  1  0.58333333  0.12500000  0.87500000  1
  Mg  Mg90  1  0.58333333  0.62500000  0.37500000  1
  Mg  Mg91  1  0.58333333  0.62500000  0.87500000  1
  Mg  Mg92  1  0.91666667  0.12500000  0.37500000  1
  Mg  Mg93  1  0.91666667  0.12500000  0.87500000  1
  Mg  Mg94  1  0.91666667  0.62500000  0.37500000  1
  Mg  Mg95  1  0.91666667  0.62500000  0.87500000  1
  Pt  Pt96  1  0.00000000  0.00000000  0.25000000  1
  Pt  Pt97  1  0.00000000  0.00000000  0.75000000  1
  Pt  Pt98  1  0.00000000  0.50000000  0.25000000  1
  Pt  Pt99  1  0.00000000  0.50000000  0.75000000  1
  Pt  Pt100  1  0.33333333  0.00000000  0.25000000  1
  Pt  Pt101  1  0.33333333  0.00000000  0.75000000  1
  Pt  Pt102  1  0.33333333  0.50000000  0.25000000  1
  Pt  Pt103  1  0.33333333  0.50000000  0.75000000  1
  Pt  Pt104  1  0.66666667  0.00000000  0.25000000  1
  Pt  Pt105  1  0.66666667  0.00000000  0.75000000  1
  Pt  Pt106  1  0.66666667  0.50000000  0.25000000  1
  Pt  Pt107  1  0.66666667  0.50000000  0.75000000  1
  Pt  Pt108  1  0.16666667  0.25000000  0.50000000  1
  Pt  Pt109  1  0.16666667  0.25000000  1.00000000  1
  Pt  Pt110  1  0.16666667  0.75000000  0.50000000  1
  Pt  Pt111  1  0.16666667  0.75000000  1.00000000  1
  Pt  Pt112  1  0.50000000  0.25000000  0.50000000  1
  Pt  Pt113  1  0.50000000  0.25000000  1.00000000  1
  Pt  Pt114  1  0.50000000  0.75000000  0.50000000  1
  Pt  Pt115  1  0.50000000  0.75000000  1.00000000  1
  Pt  Pt116  1  0.83333333  0.25000000  0.50000000  1
  Pt  Pt117  1  0.83333333  0.25000000  1.00000000  1
  Pt  Pt118  1  0.83333333  0.75000000  0.50000000  1
  Pt  Pt119  1  0.83333333  0.75000000  1.00000000  1
  Pt  Pt120  1  0.16666667  0.00000000  0.00000000  1
  Pt  Pt121  1  0.16666667  0.00000000  0.50000000  1
  Pt  Pt122  1  0.16666667  0.50000000  0.00000000  1
  Pt  Pt123  1  0.16666667  0.50000000  0.50000000  1
  Pt  Pt124  1  0.50000000  0.00000000  0.00000000  1
  Pt  Pt125  1  0.50000000  0.00000000  0.50000000  1
  Pt  Pt126  1  0.50000000  0.50000000  0.00000000  1
  Pt  Pt127  1  0.50000000  0.50000000  0.50000000  1
  Pt  Pt128  1  0.83333333  0.00000000  0.00000000  1
  Pt  Pt129  1  0.83333333  0.00000000  0.50000000  1
  Pt  Pt130  1  0.83333333  0.50000000  0.00000000  1
  Pt  Pt131  1  0.83333333  0.50000000  0.50000000  1
  Pt  Pt132  1  0.33333333  0.25000000  0.25000000  1
  Pt  Pt133  1  0.33333333  0.25000000  0.75000000  1
  Pt  Pt134  1  0.33333333  0.75000000  0.25000000  1
  Pt  Pt135  1  0.33333333  0.75000000  0.75000000  1
  Pt  Pt136  1  0.66666667  0.25000000  0.25000000  1
  Pt  Pt137  1  0.66666667  0.25000000  0.75000000  1
  Pt  Pt138  1  0.66666667  0.75000000  0.25000000  1
  Pt  Pt139  1  0.66666667  0.75000000  0.75000000  1
  Pt  Pt140  1  1.00000000  0.25000000  0.25000000  1
  Pt  Pt141  1  1.00000000  0.25000000  0.75000000  1
  Pt  Pt142  1  1.00000000  0.75000000  0.25000000  1
  Pt  Pt143  1  1.00000000  0.75000000  0.75000000  1
  O  O144  1  0.09183304  0.12500000  -0.00074167  1
  O  O145  1  0.09183304  0.12500000  0.49925833  1
  O  O146  1  0.09183304  0.62500000  -0.00074167  1
  O  O147  1  0.09183304  0.62500000  0.49925833  1
  O  O148  1  0.42516637  0.12500000  -0.00074167  1
  O  O149  1  0.42516637  0.12500000  0.49925833  1
  O  O150  1  0.42516637  0.62500000  -0.00074167  1
  O  O151  1  0.42516637  0.62500000  0.49925833  1
  O  O152  1  0.75849970  0.12500000  -0.00074167  1
  O  O153  1  0.75849970  0.12500000  0.49925833  1
  O  O154  1  0.75849970  0.62500000  -0.00074167  1
  O  O155  1  0.75849970  0.62500000  0.49925833  1
  O  O156  1  0.25849970  0.37500000  0.24925833  1
  O  O157  1  0.25849970  0.37500000  0.74925833  1
  O  O158  1  0.25849970  0.87500000  0.24925833  1
  O  O159  1  0.25849970  0.87500000  0.74925833  1
  O  O160  1  0.59183304  0.37500000  0.24925833  1
  O  O161  1  0.59183304  0.37500000  0.74925833  1
  O  O162  1  0.59183304  0.87500000  0.24925833  1
  O  O163  1  0.59183304  0.87500000  0.74925833  1
  O  O164  1  0.92516637  0.37500000  0.24925833  1
  O  O165  1  0.92516637  0.37500000  0.74925833  1
  O  O166  1  0.92516637  0.87500000  0.24925833  1
  O  O167  1  0.92516637  0.87500000  0.74925833  1
  O  O168  1  0.24150030  0.12500000  -0.00074167  1
  O  O169  1  0.24150030  0.12500000  0.49925833  1
  O  O170  1  0.24150030  0.62500000  -0.00074167  1
  O  O171  1  0.24150030  0.62500000  0.49925833  1
  O  O172  1  0.57483363  0.12500000  -0.00074167  1
  O  O173  1  0.57483363  0.12500000  0.49925833  1
  O  O174  1  0.57483363  0.62500000  -0.00074167  1
  O  O175  1  0.57483363  0.62500000  0.49925833  1
  O  O176  1  0.90816696  0.12500000  -0.00074167  1
  O  O177  1  0.90816696  0.12500000  0.49925833  1
  O  O178  1  0.90816696  0.62500000  -0.00074167  1
  O  O179  1  0.90816696  0.62500000  0.49925833  1
  O  O180  1  0.40816696  0.37500000  0.24925833  1
  O  O181  1  0.40816696  0.37500000  0.74925833  1
  O  O182  1  0.40816696  0.87500000  0.24925833  1
  O  O183  1  0.40816696  0.87500000  0.74925833  1
  O  O184  1  0.74150030  0.37500000  0.24925833  1
  O  O185  1  0.74150030  0.37500000  0.74925833  1
  O  O186  1  0.74150030  0.87500000  0.24925833  1
  O  O187  1  0.74150030  0.87500000  0.74925833  1
  O  O188  1  1.07483363  0.37500000  0.24925833  1
  O  O189  1  1.07483363  0.37500000  0.74925833  1
  O  O190  1  1.07483363  0.87500000  0.24925833  1
  O  O191  1  1.07483363  0.87500000  0.74925833  1
  O  O192  1  0.16666667  0.23958079  -0.11890853  1
  O  O193  1  0.16666667  0.23958079  0.38109147  1
  O  O194  1  0.16666667  0.73958079  -0.11890853  1
  O  O195  1  0.16666667  0.73958079  0.38109147  1
  O  O196  1  0.50000000  0.23958079  -0.11890853  1
  O  O197  1  0.50000000  0.23958079  0.38109147  1
  O  O198  1  0.50000000  0.73958079  -0.11890853  1
  O  O199  1  0.50000000  0.73958079  0.38109147  1
  O  O200  1  0.83333333  0.23958079  -0.11890853  1
  O  O201  1  0.83333333  0.23958079  0.38109147  1
  O  O202  1  0.83333333  0.73958079  -0.11890853  1
  O  O203  1  0.83333333  0.73958079  0.38109147  1
  O  O204  1  0.33333333  0.48958079  0.13109147  1
  O  O205  1  0.33333333  0.48958079  0.63109147  1
  O  O206  1  0.33333333  0.98958079  0.13109147  1
  O  O207  1  0.33333333  0.98958079  0.63109147  1
  O  O208  1  0.66666667  0.48958079  0.13109147  1
  O  O209  1  0.66666667  0.48958079  0.63109147  1
  O  O210  1  0.66666667  0.98958079  0.13109147  1
  O  O211  1  0.66666667  0.98958079  0.63109147  1
  O  O212  1  1.00000000  0.48958079  0.13109147  1
  O  O213  1  1.00000000  0.48958079  0.63109147  1
  O  O214  1  1.00000000  0.98958079  0.13109147  1
  O  O215  1  1.00000000  0.98958079  0.63109147  1
  O  O216  1  -0.00000000  0.26041921  0.13109147  1
  O  O217  1  -0.00000000  0.26041921  0.63109147  1
  O  O218  1  -0.00000000  0.76041921  0.13109147  1
  O  O219  1  -0.00000000  0.76041921  0.63109147  1
  O  O220  1  0.33333333  0.26041921  0.13109147  1
  O  O221  1  0.33333333  0.26041921  0.63109147  1
  O  O222  1  0.33333333  0.76041921  0.13109147  1
  O  O223  1  0.33333333  0.76041921  0.63109147  1
  O  O224  1  0.66666667  0.26041921  0.13109147  1
  O  O225  1  0.66666667  0.26041921  0.63109147  1
  O  O226  1  0.66666667  0.76041921  0.13109147  1
  O  O227  1  0.66666667  0.76041921  0.63109147  1
  O  O228  1  0.16666667  0.51041921  0.38109147  1
  O  O229  1  0.16666667  0.51041921  0.88109147  1
  O  O230  1  0.16666667  1.01041921  0.38109147  1
  O  O231  1  0.16666667  1.01041921  0.88109147  1
  O  O232  1  0.50000000  0.51041921  0.38109147  1
  O  O233  1  0.50000000  0.51041921  0.88109147  1
  O  O234  1  0.50000000  1.01041921  0.38109147  1
  O  O235  1  0.50000000  1.01041921  0.88109147  1
  O  O236  1  0.83333333  0.51041921  0.38109147  1
  O  O237  1  0.83333333  0.51041921  0.88109147  1
  O  O238  1  0.83333333  1.01041921  0.38109147  1
  O  O239  1  0.83333333  1.01041921  0.88109147  1
  O  O240  1  0.16666667  -0.01041921  0.11890853  1
  O  O241  1  0.16666667  -0.01041921  0.61890853  1
  O  O242  1  0.16666667  0.48958079  0.11890853  1
  O  O243  1  0.16666667  0.48958079  0.61890853  1
  O  O244  1  0.50000000  -0.01041921  0.11890853  1
  O  O245  1  0.50000000  -0.01041921  0.61890853  1
  O  O246  1  0.50000000  0.48958079  0.11890853  1
  O  O247  1  0.50000000  0.48958079  0.61890853  1
  O  O248  1  0.83333333  -0.01041921  0.11890853  1
  O  O249  1  0.83333333  -0.01041921  0.61890853  1
  O  O250  1  0.83333333  0.48958079  0.11890853  1
  O  O251  1  0.83333333  0.48958079  0.61890853  1
  O  O252  1  0.33333333  0.23958079  0.36890853  1
  O  O253  1  0.33333333  0.23958079  0.86890853  1
  O  O254  1  0.33333333  0.73958079  0.36890853  1
  O  O255  1  0.33333333  0.73958079  0.86890853  1
  O  O256  1  0.66666667  0.23958079  0.36890853  1
  O  O257  1  0.66666667  0.23958079  0.86890853  1
  O  O258  1  0.66666667  0.73958079  0.36890853  1
  O  O259  1  0.66666667  0.73958079  0.86890853  1
  O  O260  1  1.00000000  0.23958079  0.36890853  1
  O  O261  1  1.00000000  0.23958079  0.86890853  1
  O  O262  1  1.00000000  0.73958079  0.36890853  1
  O  O263  1  1.00000000  0.73958079  0.86890853  1
  O  O264  1  -0.07483363  0.12500000  0.25074167  1
  O  O265  1  -0.07483363  0.12500000  0.75074167  1
  O  O266  1  -0.07483363  0.62500000  0.25074167  1
  O  O267  1  -0.07483363  0.62500000  0.75074167  1
  O  O268  1  0.25849970  0.12500000  0.25074167  1
  O  O269  1  0.25849970  0.12500000  0.75074167  1
  O  O270  1  0.25849970  0.62500000  0.25074167  1
  O  O271  1  0.25849970  0.62500000  0.75074167  1
  O  O272  1  0.59183304  0.12500000  0.25074167  1
  O  O273  1  0.59183304  0.12500000  0.75074167  1
  O  O274  1  0.59183304  0.62500000  0.25074167  1
  O  O275  1  0.59183304  0.62500000  0.75074167  1
  O  O276  1  0.09183304  0.37500000  0.50074167  1
  O  O277  1  0.09183304  0.37500000  1.00074167  1
  O  O278  1  0.09183304  0.87500000  0.50074167  1
  O  O279  1  0.09183304  0.87500000  1.00074167  1
  O  O280  1  0.42516637  0.37500000  0.50074167  1
  O  O281  1  0.42516637  0.37500000  1.00074167  1
  O  O282  1  0.42516637  0.87500000  0.50074167  1
  O  O283  1  0.42516637  0.87500000  1.00074167  1
  O  O284  1  0.75849970  0.37500000  0.50074167  1
  O  O285  1  0.75849970  0.37500000  1.00074167  1
  O  O286  1  0.75849970  0.87500000  0.50074167  1
  O  O287  1  0.75849970  0.87500000  1.00074167  1
  O  O288  1  -0.00000000  0.01041921  0.36890853  1
  O  O289  1  -0.00000000  0.01041921  0.86890853  1
  O  O290  1  -0.00000000  0.51041921  0.36890853  1
  O  O291  1  -0.00000000  0.51041921  0.86890853  1
  O  O292  1  0.33333333  0.01041921  0.36890853  1
  O  O293  1  0.33333333  0.01041921  0.86890853  1
  O  O294  1  0.33333333  0.51041921  0.36890853  1
  O  O295  1  0.33333333  0.51041921  0.86890853  1
  O  O296  1  0.66666667  0.01041921  0.36890853  1
  O  O297  1  0.66666667  0.01041921  0.86890853  1
  O  O298  1  0.66666667  0.51041921  0.36890853  1
  O  O299  1  0.66666667  0.51041921  0.86890853  1
  O  O300  1  0.16666667  0.26041921  0.61890853  1
  O  O301  1  0.16666667  0.26041921  1.11890853  1
  O  O302  1  0.16666667  0.76041921  0.61890853  1
  O  O303  1  0.16666667  0.76041921  1.11890853  1
  O  O304  1  0.50000000  0.26041921  0.61890853  1
  O  O305  1  0.50000000  0.26041921  1.11890853  1
  O  O306  1  0.50000000  0.76041921  0.61890853  1
  O  O307  1  0.50000000  0.76041921  1.11890853  1
  O  O308  1  0.83333333  0.26041921  0.61890853  1
  O  O309  1  0.83333333  0.26041921  1.11890853  1
  O  O310  1  0.83333333  0.76041921  0.61890853  1
  O  O311  1  0.83333333  0.76041921  1.11890853  1
  O  O312  1  0.07483363  0.12500000  0.25074167  1
  O  O313  1  0.07483363  0.12500000  0.75074167  1
  O  O314  1  0.07483363  0.62500000  0.25074167  1
  O  O315  1  0.07483363  0.62500000  0.75074167  1
  O  O316  1  0.40816696  0.12500000  0.25074167  1
  O  O317  1  0.40816696  0.12500000  0.75074167  1
  O  O318  1  0.40816696  0.62500000  0.25074167  1
  O  O319  1  0.40816696  0.62500000  0.75074167  1
  O  O320  1  0.74150030  0.12500000  0.25074167  1
  O  O321  1  0.74150030  0.12500000  0.75074167  1
  O  O322  1  0.74150030  0.62500000  0.25074167  1
  O  O323  1  0.74150030  0.62500000  0.75074167  1
  O  O324  1  0.24150030  0.37500000  0.50074167  1
  O  O325  1  0.24150030  0.37500000  1.00074167  1
  O  O326  1  0.24150030  0.87500000  0.50074167  1
  O  O327  1  0.24150030  0.87500000  1.00074167  1
  O  O328  1  0.57483363  0.37500000  0.50074167  1
  O  O329  1  0.57483363  0.37500000  1.00074167  1
  O  O330  1  0.57483363  0.87500000  0.50074167  1
  O  O331  1  0.57483363  0.87500000  1.00074167  1
  O  O332  1  0.90816696  0.37500000  0.50074167  1
  O  O333  1  0.90816696  0.37500000  1.00074167  1
  O  O334  1  0.90816696  0.87500000  0.50074167  1
  O  O335  1  0.90816696  0.87500000  1.00074167  1
