# generated using pymatgen
data_Cd(AsO3)2
_symmetry_space_group_name_H-M   'P 1'
_cell_length_a   14.63949062
_cell_length_b   14.63949062
_cell_length_c   14.66697739
_cell_angle_alpha   90.00000000
_cell_angle_beta   90.00000000
_cell_angle_gamma   120.00000000
_symmetry_Int_Tables_number   1
_chemical_formula_structural   Cd(AsO3)2
_chemical_formula_sum   'Cd27 As54 O162'
_cell_volume   2722.21978376
_cell_formula_units_Z   27
loop_
 _symmetry_equiv_pos_site_id
 _symmetry_equiv_pos_as_xyz
  1  'x, y, z'
loop_
 _atom_site_type_symbol
 _atom_site_label
 _atom_site_symmetry_multiplicity
 _atom_site_fract_x
 _atom_site_fract_y
 _atom_site_fract_z
 _atom_site_occupancy
  Cd  Cd0  1  0.00000000  0.00000000  0.00000000  1
  Cd  Cd1  1  0.00000000  0.00000000  0.33333333  1
  Cd  Cd2  1  0.00000000  0.00000000  0.66666667  1
  Cd  Cd3  1  -0.00000000  0.33333333  0.00000000  1
  Cd  Cd4  1  -0.00000000  0.33333333  0.33333333  1
  Cd  Cd5  1  -0.00000000  0.33333333  0.66666667  1
  Cd  Cd6  1  -0.00000000  0.66666667  0.00000000  1
  Cd  Cd7  1  -0.00000000  0.66666667  0.33333333  1
  Cd  Cd8  1  -0.00000000  0.66666667  0.66666667  1
  Cd  Cd9  1  0.33333333  0.00000000  0.00000000  1
  Cd  Cd10  1  0.33333333  0.00000000  0.33333333  1
  Cd  Cd11  1  0.33333333  0.00000000  0.66666667  1
  Cd  Cd12  1  0.33333333  0.33333333  0.00000000  1
  Cd  Cd13  1  0.33333333  0.33333333  0.33333333  1
  Cd  Cd14  1  0.33333333  0.33333333  0.66666667  1
  Cd  Cd15  1  0.33333333  0.66666667  0.00000000  1
  Cd  Cd16  1  0.33333333  0.66666667  0.33333333  1
  Cd  Cd17  1  0.33333333  0.66666667  0.66666667  1
  Cd  Cd18  1  0.66666667  0.00000000  0.00000000  1
  Cd  Cd19  1  0.66666667  0.00000000  0.33333333  1
  Cd  Cd20  1  0.66666667  0.00000000  0.66666667  1
  Cd  Cd21  1  0.66666667  0.33333333  0.00000000  1
  Cd  Cd22  1  0.66666667  0.33333333  0.33333333  1
  Cd  Cd23  1  0.66666667  0.33333333  0.66666667  1
  Cd  Cd24  1  0.66666667  0.66666667  0.00000000  1
  Cd  Cd25  1  0.66666667  0.66666667  0.33333333  1
  Cd  Cd26  1  0.66666667  0.66666667  0.66666667  1
  As  As27  1  0.22222222  0.11111111  0.16666667  1
  As  As28  1  0.22222222  0.11111111  0.50000000  1
  As  As29  1  0.22222222  0.11111111  0.83333333  1
  As  As30  1  0.22222222  0.44444444  0.16666667  1
  As  As31  1  0.22222222  0.44444444  0.50000000  1
  As  As32  1  0.22222222  0.44444444  0.83333333  1
  As  As33  1  0.22222222  0.77777778  0.16666667  1
  As  As34  1  0.22222222  0.77777778  0.50000000  1
  As  As35  1  0.22222222  0.77777778  0.83333333  1
  As  As36  1  0.55555556  0.11111111  0.16666667  1
  As  As37  1  0.55555556  0.11111111  0.50000000  1
  As  As38  1  0.55555556  0.11111111  0.83333333  1
  As  As39  1  0.55555556  0.44444444  0.16666667  1
  As  As40  1  0.55555556  0.44444444  0.50000000  1
  As  As41  1  0.55555556  0.44444444  0.83333333  1
  As  As42  1  0.55555556  0.77777778  0.16666667  1
  As  As43  1  0.55555556  0.77777778  0.50000000  1
  As  As44  1  0.55555556  0.77777778  0.83333333  1
  As  As45  1  0.88888889  0.11111111  0.16666667  1
  As  As46  1  0.88888889  0.11111111  0.50000000  1
  As  As47  1  0.88888889  0.11111111  0.83333333  1
  As  As48  1  0.88888889  0.44444444  0.16666667  1
  As  As49  1  0.88888889  0.44444444  0.50000000  1
  As  As50  1  0.88888889  0.44444444  0.83333333  1
  As  As51  1  0.88888889  0.77777778  0.16666667  1
  As  As52  1  0.88888889  0.77777778  0.50000000  1
  As  As53  1  0.88888889  0.77777778  0.83333333  1
  As  As54  1  0.11111111  0.22222222  0.16666667  1
  As  As55  1  0.11111111  0.22222222  0.50000000  1
  As  As56  1  0.11111111  0.22222222  0.83333333  1
  As  As57  1  0.11111111  0.55555556  0.16666667  1
  As  As58  1  0.11111111  0.55555556  0.50000000  1
  As  As59  1  0.11111111  0.55555556  0.83333333  1
  As  As60  1  0.11111111  0.88888889  0.16666667  1
  As  As61  1  0.11111111  0.88888889  0.50000000  1
  As  As62  1  0.11111111  0.88888889  0.83333333  1
  As  As63  1  0.44444444  0.22222222  0.16666667  1
  As  As64  1  0.44444444  0.22222222  0.50000000  1
  As  As65  1  0.44444444  0.22222222  0.83333333  1
  As  As66  1  0.44444444  0.55555556  0.16666667  1
  As  As67  1  0.44444444  0.55555556  0.50000000  1
  As  As68  1  0.44444444  0.55555556  0.83333333  1
  As  As69  1  0.44444444  0.88888889  0.16666667  1
  As  As70  1  0.44444444  0.88888889  0.50000000  1
  As  As71  1  0.44444444  0.88888889  0.83333333  1
  As  As72  1  0.77777778  0.22222222  0.16666667  1
  As  As73  1  0.77777778  0.22222222  0.50000000  1
  As  As74  1  0.77777778  0.22222222  0.83333333  1
  As  As75  1  0.77777778  0.55555556  0.16666667  1
  As  As76  1  0.77777778  0.55555556  0.50000000  1
  As  As77  1  0.77777778  0.55555556  0.83333333  1
  As  As78  1  0.77777778  0.88888889  0.16666667  1
  As  As79  1  0.77777778  0.88888889  0.50000000  1
  As  As80  1  0.77777778  0.88888889  0.83333333  1
  O  O81  1  0.20814226  0.20814226  0.23725859  1
  O  O82  1  0.20814226  0.20814226  0.57059193  1
  O  O83  1  0.20814226  0.20814226  0.90392526  1
  O  O84  1  0.20814226  0.54147559  0.23725859  1
  O  O85  1  0.20814226  0.54147559  0.57059193  1
  O  O86  1  0.20814226  0.54147559  0.90392526  1
  O  O87  1  0.20814226  0.87480893  0.23725859  1
  O  O88  1  0.20814226  0.87480893  0.57059193  1
  O  O89  1  0.20814226  0.87480893  0.90392526  1
  O  O90  1  0.54147559  0.20814226  0.23725859  1
  O  O91  1  0.54147559  0.20814226  0.57059193  1
  O  O92  1  0.54147559  0.20814226  0.90392526  1
  O  O93  1  0.54147559  0.54147559  0.23725859  1
  O  O94  1  0.54147559  0.54147559  0.57059193  1
  O  O95  1  0.54147559  0.54147559  0.90392526  1
  O  O96  1  0.54147559  0.87480893  0.23725859  1
  O  O97  1  0.54147559  0.87480893  0.57059193  1
  O  O98  1  0.54147559  0.87480893  0.90392526  1
  O  O99  1  0.87480893  0.20814226  0.23725859  1
  O  O100  1  0.87480893  0.20814226  0.57059193  1
  O  O101  1  0.87480893  0.20814226  0.90392526  1
  O  O102  1  0.87480893  0.54147559  0.23725859  1
  O  O103  1  0.87480893  0.54147559  0.57059193  1
  O  O104  1  0.87480893  0.54147559  0.90392526  1
  O  O105  1  0.87480893  0.87480893  0.23725859  1
  O  O106  1  0.87480893  0.87480893  0.57059193  1
  O  O107  1  0.87480893  0.87480893  0.90392526  1
  O  O108  1  0.12519107  0.00000000  0.23725859  1
  O  O109  1  0.12519107  0.00000000  0.57059193  1
  O  O110  1  0.12519107  0.00000000  0.90392526  1
  O  O111  1  0.12519107  0.33333333  0.23725859  1
  O  O112  1  0.12519107  0.33333333  0.57059193  1
  O  O113  1  0.12519107  0.33333333  0.90392526  1
  O  O114  1  0.12519107  0.66666667  0.23725859  1
  O  O115  1  0.12519107  0.66666667  0.57059193  1
  O  O116  1  0.12519107  0.66666667  0.90392526  1
  O  O117  1  0.45852441  0.00000000  0.23725859  1
  O  O118  1  0.45852441  0.00000000  0.57059193  1
  O  O119  1  0.45852441  0.00000000  0.90392526  1
  O  O120  1  0.45852441  0.33333333  0.23725859  1
  O  O121  1  0.45852441  0.33333333  0.57059193  1
  O  O122  1  0.45852441  0.33333333  0.90392526  1
  O  O123  1  0.45852441  0.66666667  0.23725859  1
  O  O124  1  0.45852441  0.66666667  0.57059193  1
  O  O125  1  0.45852441  0.66666667  0.90392526  1
  O  O126  1  0.79185774  0.00000000  0.23725859  1
  O  O127  1  0.79185774  0.00000000  0.57059193  1
  O  O128  1  0.79185774  0.00000000  0.90392526  1
  O  O129  1  0.79185774  0.33333333  0.23725859  1
  O  O130  1  0.79185774  0.33333333  0.57059193  1
  O  O131  1  0.79185774  0.33333333  0.90392526  1
  O  O132  1  0.79185774  0.66666667  0.23725859  1
  O  O133  1  0.79185774  0.66666667  0.57059193  1
  O  O134  1  0.79185774  0.66666667  0.90392526  1
  O  O135  1  0.00000000  0.12519107  0.23725859  1
  O  O136  1  0.00000000  0.12519107  0.57059193  1
  O  O137  1  0.00000000  0.12519107  0.90392526  1
  O  O138  1  0.00000000  0.45852441  0.23725859  1
  O  O139  1  0.00000000  0.45852441  0.57059193  1
  O  O140  1  0.00000000  0.45852441  0.90392526  1
  O  O141  1  -0.00000000  0.79185774  0.23725859  1
  O  O142  1  -0.00000000  0.79185774  0.57059193  1
  O  O143  1  -0.00000000  0.79185774  0.90392526  1
  O  O144  1  0.33333333  0.12519107  0.23725859  1
  O  O145  1  0.33333333  0.12519107  0.57059193  1
  O  O146  1  0.33333333  0.12519107  0.90392526  1
  O  O147  1  0.33333333  0.45852441  0.23725859  1
  O  O148  1  0.33333333  0.45852441  0.57059193  1
  O  O149  1  0.33333333  0.45852441  0.90392526  1
  O  O150  1  0.33333333  0.79185774  0.23725859  1
  O  O151  1  0.33333333  0.79185774  0.57059193  1
  O  O152  1  0.33333333  0.79185774  0.90392526  1
  O  O153  1  0.66666667  0.12519107  0.23725859  1
  O  O154  1  0.66666667  0.12519107  0.57059193  1
  O  O155  1  0.66666667  0.12519107  0.90392526  1
  O  O156  1  0.66666667  0.45852441  0.23725859  1
  O  O157  1  0.66666667  0.45852441  0.57059193  1
  O  O158  1  0.66666667  0.45852441  0.90392526  1
  O  O159  1  0.66666667  0.79185774  0.23725859  1
  O  O160  1  0.66666667  0.79185774  0.57059193  1
  O  O161  1  0.66666667  0.79185774  0.90392526  1
  O  O162  1  0.20814226  0.00000000  0.09607474  1
  O  O163  1  0.20814226  0.00000000  0.42940807  1
  O  O164  1  0.20814226  0.00000000  0.76274141  1
  O  O165  1  0.20814226  0.33333333  0.09607474  1
  O  O166  1  0.20814226  0.33333333  0.42940807  1
  O  O167  1  0.20814226  0.33333333  0.76274141  1
  O  O168  1  0.20814226  0.66666667  0.09607474  1
  O  O169  1  0.20814226  0.66666667  0.42940807  1
  O  O170  1  0.20814226  0.66666667  0.76274141  1
  O  O171  1  0.54147559  0.00000000  0.09607474  1
  O  O172  1  0.54147559  0.00000000  0.42940807  1
  O  O173  1  0.54147559  0.00000000  0.76274141  1
  O  O174  1  0.54147559  0.33333333  0.09607474  1
  O  O175  1  0.54147559  0.33333333  0.42940807  1
  O  O176  1  0.54147559  0.33333333  0.76274141  1
  O  O177  1  0.54147559  0.66666667  0.09607474  1
  O  O178  1  0.54147559  0.66666667  0.42940807  1
  O  O179  1  0.54147559  0.66666667  0.76274141  1
  O  O180  1  0.87480893  0.00000000  0.09607474  1
  O  O181  1  0.87480893  0.00000000  0.42940807  1
  O  O182  1  0.87480893  0.00000000  0.76274141  1
  O  O183  1  0.87480893  0.33333333  0.09607474  1
  O  O184  1  0.87480893  0.33333333  0.42940807  1
  O  O185  1  0.87480893  0.33333333  0.76274141  1
  O  O186  1  0.87480893  0.66666667  0.09607474  1
  O  O187  1  0.87480893  0.66666667  0.42940807  1
  O  O188  1  0.87480893  0.66666667  0.76274141  1
  O  O189  1  -0.00000000  0.20814226  0.09607474  1
  O  O190  1  -0.00000000  0.20814226  0.42940807  1
  O  O191  1  -0.00000000  0.20814226  0.76274141  1
  O  O192  1  -0.00000000  0.54147559  0.09607474  1
  O  O193  1  -0.00000000  0.54147559  0.42940807  1
  O  O194  1  -0.00000000  0.54147559  0.76274141  1
  O  O195  1  0.00000000  0.87480893  0.09607474  1
  O  O196  1  0.00000000  0.87480893  0.42940807  1
  O  O197  1  0.00000000  0.87480893  0.76274141  1
  O  O198  1  0.33333333  0.20814226  0.09607474  1
  O  O199  1  0.33333333  0.20814226  0.42940807  1
  O  O200  1  0.33333333  0.20814226  0.76274141  1
  O  O201  1  0.33333333  0.54147559  0.09607474  1
  O  O202  1  0.33333333  0.54147559  0.42940807  1
  O  O203  1  0.33333333  0.54147559  0.76274141  1
  O  O204  1  0.33333333  0.87480893  0.09607474  1
  O  O205  1  0.33333333  0.87480893  0.42940807  1
  O  O206  1  0.33333333  0.87480893  0.76274141  1
  O  O207  1  0.66666667  0.20814226  0.09607474  1
  O  O208  1  0.66666667  0.20814226  0.42940807  1
  O  O209  1  0.66666667  0.20814226  0.76274141  1
  O  O210  1  0.66666667  0.54147559  0.09607474  1
  O  O211  1  0.66666667  0.54147559  0.42940807  1
  O  O212  1  0.66666667  0.54147559  0.76274141  1
  O  O213  1  0.66666667  0.87480893  0.09607474  1
  O  O214  1  0.66666667  0.87480893  0.42940807  1
  O  O215  1  0.66666667  0.87480893  0.76274141  1
  O  O216  1  0.12519107  0.12519107  0.09607474  1
  O  O217  1  0.12519107  0.12519107  0.42940807  1
  O  O218  1  0.12519107  0.12519107  0.76274141  1
  O  O219  1  0.12519107  0.45852441  0.09607474  1
  O  O220  1  0.12519107  0.45852441  0.42940807  1
  O  O221  1  0.12519107  0.45852441  0.76274141  1
  O  O222  1  0.12519107  0.79185774  0.09607474  1
  O  O223  1  0.12519107  0.79185774  0.42940807  1
  O  O224  1  0.12519107  0.79185774  0.76274141  1
  O  O225  1  0.45852441  0.12519107  0.09607474  1
  O  O226  1  0.45852441  0.12519107  0.42940807  1
  O  O227  1  0.45852441  0.12519107  0.76274141  1
  O  O228  1  0.45852441  0.45852441  0.09607474  1
  O  O229  1  0.45852441  0.45852441  0.42940807  1
  O  O230  1  0.45852441  0.45852441  0.76274141  1
  O  O231  1  0.45852441  0.79185774  0.09607474  1
  O  O232  1  0.45852441  0.79185774  0.42940807  1
  O  O233  1  0.45852441  0.79185774  0.76274141  1
  O  O234  1  0.79185774  0.12519107  0.09607474  1
  O  O235  1  0.79185774  0.12519107  0.42940807  1
  O  O236  1  0.79185774  0.12519107  0.76274141  1
  O  O237  1  0.79185774  0.45852441  0.09607474  1
  O  O238  1  0.79185774  0.45852441  0.42940807  1
  O  O239  1  0.79185774  0.45852441  0.76274141  1
  O  O240  1  0.79185774  0.79185774  0.09607474  1
  O  O241  1  0.79185774  0.79185774  0.42940807  1
  O  O242  1  0.79185774  0.79185774  0.76274141  1
