# generated using pymatgen
data_SrWO4
_symmetry_space_group_name_H-M   'P 1'
_cell_length_a   10.83285236
_cell_length_b   10.83285236
_cell_length_c   11.85696467
_cell_angle_alpha   90.00000000
_cell_angle_beta   90.00000000
_cell_angle_gamma   90.00000000
_symmetry_Int_Tables_number   1
_chemical_formula_structural   SrWO4
_chemical_formula_sum   'Sr16 W16 O64'
_cell_volume   1391.42298809
_cell_formula_units_Z   16
loop_
 _symmetry_equiv_pos_site_id
 _symmetry_equiv_pos_as_xyz
  1  'x, y, z'
loop_
 _atom_site_type_symbol
 _atom_site_label
 _atom_site_symmetry_multiplicity
 _atom_site_fract_x
 _atom_site_fract_y
 _atom_site_fract_z
 _atom_site_occupancy
  Sr  Sr0  1  0.25000000  0.50000000  0.25000000  1
  Sr  Sr1  1  0.75000000  0.50000000  0.25000000  1
  Sr  Sr2  1  0.25000000  0.00000000  0.25000000  1
  Sr  Sr3  1  0.75000000  0.00000000  0.25000000  1
  Sr  Sr4  1  0.50000000  0.25000000  0.75000000  1
  Sr  Sr5  1  1.00000000  0.25000000  0.75000000  1
  Sr  Sr6  1  0.50000000  -0.25000000  0.75000000  1
  Sr  Sr7  1  1.00000000  -0.25000000  0.75000000  1
  Sr  Sr8  1  0.00000000  0.50000000  0.00000000  1
  Sr  Sr9  1  0.50000000  0.50000000  0.00000000  1
  Sr  Sr10  1  0.00000000  0.00000000  0.00000000  1
  Sr  Sr11  1  0.50000000  0.00000000  0.00000000  1
  Sr  Sr12  1  0.25000000  0.25000000  0.50000000  1
  Sr  Sr13  1  0.75000000  0.25000000  0.50000000  1
  Sr  Sr14  1  0.25000000  -0.25000000  0.50000000  1
  Sr  Sr15  1  0.75000000  -0.25000000  0.50000000  1
  W  W16  1  0.00000000  0.25000000  0.25000000  1
  W  W17  1  0.50000000  0.25000000  0.25000000  1
  W  W18  1  0.00000000  -0.25000000  0.25000000  1
  W  W19  1  0.50000000  -0.25000000  0.25000000  1
  W  W20  1  0.25000000  0.00000000  0.75000000  1
  W  W21  1  0.75000000  0.00000000  0.75000000  1
  W  W22  1  0.25000000  -0.50000000  0.75000000  1
  W  W23  1  0.75000000  -0.50000000  0.75000000  1
  W  W24  1  0.00000000  0.50000000  0.50000000  1
  W  W25  1  0.50000000  0.50000000  0.50000000  1
  W  W26  1  0.00000000  0.00000000  0.50000000  1
  W  W27  1  0.50000000  0.00000000  0.50000000  1
  W  W28  1  0.25000000  0.25000000  1.00000000  1
  W  W29  1  0.75000000  0.25000000  1.00000000  1
  W  W30  1  0.25000000  -0.25000000  1.00000000  1
  W  W31  1  0.75000000  -0.25000000  1.00000000  1
  O  O32  1  0.11799345  0.17774678  0.33384171  1
  O  O33  1  0.61799345  0.17774678  0.33384171  1
  O  O34  1  0.11799345  -0.32225322  0.33384171  1
  O  O35  1  0.61799345  -0.32225322  0.33384171  1
  O  O36  1  0.36799345  -0.07225322  0.83384171  1
  O  O37  1  0.86799345  -0.07225322  0.83384171  1
  O  O38  1  0.36799345  -0.57225322  0.83384171  1
  O  O39  1  0.86799345  -0.57225322  0.83384171  1
  O  O40  1  -0.11799345  0.32225322  0.33384171  1
  O  O41  1  0.38200655  0.32225322  0.33384171  1
  O  O42  1  -0.11799345  -0.17774678  0.33384171  1
  O  O43  1  0.38200655  -0.17774678  0.33384171  1
  O  O44  1  0.13200655  0.07225322  0.83384171  1
  O  O45  1  0.63200655  0.07225322  0.83384171  1
  O  O46  1  0.13200655  -0.42774678  0.83384171  1
  O  O47  1  0.63200655  -0.42774678  0.83384171  1
  O  O48  1  -0.07225322  0.38200655  0.58384171  1
  O  O49  1  0.42774678  0.38200655  0.58384171  1
  O  O50  1  -0.07225322  -0.11799345  0.58384171  1
  O  O51  1  0.42774678  -0.11799345  0.58384171  1
  O  O52  1  0.17774678  0.13200655  1.08384171  1
  O  O53  1  0.67774678  0.13200655  1.08384171  1
  O  O54  1  0.17774678  -0.36799345  1.08384171  1
  O  O55  1  0.67774678  -0.36799345  1.08384171  1
  O  O56  1  0.32225322  0.36799345  0.08384171  1
  O  O57  1  0.82225322  0.36799345  0.08384171  1
  O  O58  1  0.32225322  -0.13200655  0.08384171  1
  O  O59  1  0.82225322  -0.13200655  0.08384171  1
  O  O60  1  0.57225322  0.11799345  0.58384171  1
  O  O61  1  1.07225322  0.11799345  0.58384171  1
  O  O62  1  0.57225322  -0.38200655  0.58384171  1
  O  O63  1  1.07225322  -0.38200655  0.58384171  1
  O  O64  1  0.13200655  0.32225322  -0.08384171  1
  O  O65  1  0.63200655  0.32225322  -0.08384171  1
  O  O66  1  0.13200655  -0.17774678  -0.08384171  1
  O  O67  1  0.63200655  -0.17774678  -0.08384171  1
  O  O68  1  0.38200655  0.07225322  0.41615829  1
  O  O69  1  0.88200655  0.07225322  0.41615829  1
  O  O70  1  0.38200655  -0.42774678  0.41615829  1
  O  O71  1  0.88200655  -0.42774678  0.41615829  1
  O  O72  1  0.11799345  0.42774678  0.41615829  1
  O  O73  1  0.61799345  0.42774678  0.41615829  1
  O  O74  1  0.11799345  -0.07225322  0.41615829  1
  O  O75  1  0.61799345  -0.07225322  0.41615829  1
  O  O76  1  0.36799345  0.17774678  0.91615829  1
  O  O77  1  0.86799345  0.17774678  0.91615829  1
  O  O78  1  0.36799345  -0.32225322  0.91615829  1
  O  O79  1  0.86799345  -0.32225322  0.91615829  1
  O  O80  1  0.07225322  0.36799345  0.16615829  1
  O  O81  1  0.57225322  0.36799345  0.16615829  1
  O  O82  1  0.07225322  -0.13200655  0.16615829  1
  O  O83  1  0.57225322  -0.13200655  0.16615829  1
  O  O84  1  0.32225322  0.11799345  0.66615829  1
  O  O85  1  0.82225322  0.11799345  0.66615829  1
  O  O86  1  0.32225322  -0.38200655  0.66615829  1
  O  O87  1  0.82225322  -0.38200655  0.66615829  1
  O  O88  1  -0.07225322  0.13200655  0.16615829  1
  O  O89  1  0.42774678  0.13200655  0.16615829  1
  O  O90  1  -0.07225322  -0.36799345  0.16615829  1
  O  O91  1  0.42774678  -0.36799345  0.16615829  1
  O  O92  1  0.17774678  -0.11799345  0.66615829  1
  O  O93  1  0.67774678  -0.11799345  0.66615829  1
  O  O94  1  0.17774678  -0.61799345  0.66615829  1
  O  O95  1  0.67774678  -0.61799345  0.66615829  1
