# generated using pymatgen
data_RbBa4Sb3O
_symmetry_space_group_name_H-M   'P 1'
_cell_length_a   17.81750437
_cell_length_b   17.81750437
_cell_length_c   16.44007246
_cell_angle_alpha   90.00000000
_cell_angle_beta   90.00000000
_cell_angle_gamma   90.00000000
_symmetry_Int_Tables_number   1
_chemical_formula_structural   RbBa4Sb3O
_chemical_formula_sum   'Rb16 Ba64 Sb48 O16'
_cell_volume   5219.12231760
_cell_formula_units_Z   16
loop_
 _symmetry_equiv_pos_site_id
 _symmetry_equiv_pos_as_xyz
  1  'x, y, z'
loop_
 _atom_site_type_symbol
 _atom_site_label
 _atom_site_symmetry_multiplicity
 _atom_site_fract_x
 _atom_site_fract_y
 _atom_site_fract_z
 _atom_site_occupancy
  Rb  Rb0  1  0.00000000  0.50000000  0.50000000  1
  Rb  Rb1  1  0.50000000  0.50000000  0.50000000  1
  Rb  Rb2  1  0.00000000  0.00000000  0.50000000  1
  Rb  Rb3  1  0.50000000  0.00000000  0.50000000  1
  Rb  Rb4  1  0.25000000  0.25000000  1.00000000  1
  Rb  Rb5  1  0.75000000  0.25000000  1.00000000  1
  Rb  Rb6  1  0.25000000  -0.25000000  1.00000000  1
  Rb  Rb7  1  0.75000000  -0.25000000  1.00000000  1
  Rb  Rb8  1  0.00000000  0.50000000  0.00000000  1
  Rb  Rb9  1  0.50000000  0.50000000  0.00000000  1
  Rb  Rb10  1  0.00000000  0.00000000  0.00000000  1
  Rb  Rb11  1  0.50000000  0.00000000  0.00000000  1
  Rb  Rb12  1  0.25000000  0.25000000  0.50000000  1
  Rb  Rb13  1  0.75000000  0.25000000  0.50000000  1
  Rb  Rb14  1  0.25000000  -0.25000000  0.50000000  1
  Rb  Rb15  1  0.75000000  -0.25000000  0.50000000  1
  Ba  Ba16  1  0.17082543  0.42082543  -0.15430607  1
  Ba  Ba17  1  0.67082543  0.42082543  -0.15430607  1
  Ba  Ba18  1  0.17082543  -0.07917457  -0.15430607  1
  Ba  Ba19  1  0.67082543  -0.07917457  -0.15430607  1
  Ba  Ba20  1  0.42082543  0.17082543  0.34569393  1
  Ba  Ba21  1  0.92082543  0.17082543  0.34569393  1
  Ba  Ba22  1  0.42082543  -0.32917457  0.34569393  1
  Ba  Ba23  1  0.92082543  -0.32917457  0.34569393  1
  Ba  Ba24  1  0.07917457  0.32917457  0.34569393  1
  Ba  Ba25  1  0.57917457  0.32917457  0.34569393  1
  Ba  Ba26  1  0.07917457  -0.17082543  0.34569393  1
  Ba  Ba27  1  0.57917457  -0.17082543  0.34569393  1
  Ba  Ba28  1  0.32917457  0.07917457  0.84569393  1
  Ba  Ba29  1  0.82917457  0.07917457  0.84569393  1
  Ba  Ba30  1  0.32917457  -0.42082543  0.84569393  1
  Ba  Ba31  1  0.82917457  -0.42082543  0.84569393  1
  Ba  Ba32  1  0.17082543  0.42082543  0.15430607  1
  Ba  Ba33  1  0.67082543  0.42082543  0.15430607  1
  Ba  Ba34  1  0.17082543  -0.07917457  0.15430607  1
  Ba  Ba35  1  0.67082543  -0.07917457  0.15430607  1
  Ba  Ba36  1  0.42082543  0.17082543  0.65430607  1
  Ba  Ba37  1  0.92082543  0.17082543  0.65430607  1
  Ba  Ba38  1  0.42082543  -0.32917457  0.65430607  1
  Ba  Ba39  1  0.92082543  -0.32917457  0.65430607  1
  Ba  Ba40  1  0.07917457  0.17082543  -0.15430607  1
  Ba  Ba41  1  0.57917457  0.17082543  -0.15430607  1
  Ba  Ba42  1  0.07917457  -0.32917457  -0.15430607  1
  Ba  Ba43  1  0.57917457  -0.32917457  -0.15430607  1
  Ba  Ba44  1  0.32917457  -0.07917457  0.34569393  1
  Ba  Ba45  1  0.82917457  -0.07917457  0.34569393  1
  Ba  Ba46  1  0.32917457  -0.57917457  0.34569393  1
  Ba  Ba47  1  0.82917457  -0.57917457  0.34569393  1
  Ba  Ba48  1  0.07917457  0.32917457  0.65430607  1
  Ba  Ba49  1  0.57917457  0.32917457  0.65430607  1
  Ba  Ba50  1  0.07917457  -0.17082543  0.65430607  1
  Ba  Ba51  1  0.57917457  -0.17082543  0.65430607  1
  Ba  Ba52  1  0.32917457  0.07917457  1.15430607  1
  Ba  Ba53  1  0.82917457  0.07917457  1.15430607  1
  Ba  Ba54  1  0.32917457  -0.42082543  1.15430607  1
  Ba  Ba55  1  0.82917457  -0.42082543  1.15430607  1
  Ba  Ba56  1  0.17082543  0.57917457  0.34569393  1
  Ba  Ba57  1  0.67082543  0.57917457  0.34569393  1
  Ba  Ba58  1  0.17082543  0.07917457  0.34569393  1
  Ba  Ba59  1  0.67082543  0.07917457  0.34569393  1
  Ba  Ba60  1  0.42082543  0.32917457  0.84569393  1
  Ba  Ba61  1  0.92082543  0.32917457  0.84569393  1
  Ba  Ba62  1  0.42082543  -0.17082543  0.84569393  1
  Ba  Ba63  1  0.92082543  -0.17082543  0.84569393  1
  Ba  Ba64  1  0.17082543  0.57917457  0.65430607  1
  Ba  Ba65  1  0.67082543  0.57917457  0.65430607  1
  Ba  Ba66  1  0.17082543  0.07917457  0.65430607  1
  Ba  Ba67  1  0.67082543  0.07917457  0.65430607  1
  Ba  Ba68  1  0.42082543  0.32917457  1.15430607  1
  Ba  Ba69  1  0.92082543  0.32917457  1.15430607  1
  Ba  Ba70  1  0.42082543  -0.17082543  1.15430607  1
  Ba  Ba71  1  0.92082543  -0.17082543  1.15430607  1
  Ba  Ba72  1  0.07917457  0.17082543  0.15430607  1
  Ba  Ba73  1  0.57917457  0.17082543  0.15430607  1
  Ba  Ba74  1  0.07917457  -0.32917457  0.15430607  1
  Ba  Ba75  1  0.57917457  -0.32917457  0.15430607  1
  Ba  Ba76  1  0.32917457  -0.07917457  0.65430607  1
  Ba  Ba77  1  0.82917457  -0.07917457  0.65430607  1
  Ba  Ba78  1  0.32917457  -0.57917457  0.65430607  1
  Ba  Ba79  1  0.82917457  -0.57917457  0.65430607  1
  Sb  Sb80  1  0.05707874  0.30707874  0.00000000  1
  Sb  Sb81  1  0.55707874  0.30707874  0.00000000  1
  Sb  Sb82  1  0.05707874  -0.19292126  0.00000000  1
  Sb  Sb83  1  0.55707874  -0.19292126  0.00000000  1
  Sb  Sb84  1  0.30707874  0.05707874  0.50000000  1
  Sb  Sb85  1  0.80707874  0.05707874  0.50000000  1
  Sb  Sb86  1  0.30707874  -0.44292126  0.50000000  1
  Sb  Sb87  1  0.80707874  -0.44292126  0.50000000  1
  Sb  Sb88  1  0.30707874  0.44292126  0.00000000  1
  Sb  Sb89  1  0.80707874  0.44292126  0.00000000  1
  Sb  Sb90  1  0.30707874  -0.05707874  0.00000000  1
  Sb  Sb91  1  0.80707874  -0.05707874  0.00000000  1
  Sb  Sb92  1  0.55707874  0.19292126  0.50000000  1
  Sb  Sb93  1  1.05707874  0.19292126  0.50000000  1
  Sb  Sb94  1  0.55707874  -0.30707874  0.50000000  1
  Sb  Sb95  1  1.05707874  -0.30707874  0.50000000  1
  Sb  Sb96  1  0.19292126  0.44292126  0.50000000  1
  Sb  Sb97  1  0.69292126  0.44292126  0.50000000  1
  Sb  Sb98  1  0.19292126  -0.05707874  0.50000000  1
  Sb  Sb99  1  0.69292126  -0.05707874  0.50000000  1
  Sb  Sb100  1  0.44292126  0.19292126  1.00000000  1
  Sb  Sb101  1  0.94292126  0.19292126  1.00000000  1
  Sb  Sb102  1  0.44292126  -0.30707874  1.00000000  1
  Sb  Sb103  1  0.94292126  -0.30707874  1.00000000  1
  Sb  Sb104  1  -0.05707874  0.30707874  0.50000000  1
  Sb  Sb105  1  0.44292126  0.30707874  0.50000000  1
  Sb  Sb106  1  -0.05707874  -0.19292126  0.50000000  1
  Sb  Sb107  1  0.44292126  -0.19292126  0.50000000  1
  Sb  Sb108  1  0.19292126  0.05707874  1.00000000  1
  Sb  Sb109  1  0.69292126  0.05707874  1.00000000  1
  Sb  Sb110  1  0.19292126  -0.44292126  1.00000000  1
  Sb  Sb111  1  0.69292126  -0.44292126  1.00000000  1
  Sb  Sb112  1  0.00000000  0.50000000  0.75000000  1
  Sb  Sb113  1  0.50000000  0.50000000  0.75000000  1
  Sb  Sb114  1  0.00000000  0.00000000  0.75000000  1
  Sb  Sb115  1  0.50000000  0.00000000  0.75000000  1
  Sb  Sb116  1  0.25000000  0.25000000  1.25000000  1
  Sb  Sb117  1  0.75000000  0.25000000  1.25000000  1
  Sb  Sb118  1  0.25000000  -0.25000000  1.25000000  1
  Sb  Sb119  1  0.75000000  -0.25000000  1.25000000  1
  Sb  Sb120  1  0.00000000  0.50000000  0.25000000  1
  Sb  Sb121  1  0.50000000  0.50000000  0.25000000  1
  Sb  Sb122  1  0.00000000  0.00000000  0.25000000  1
  Sb  Sb123  1  0.50000000  0.00000000  0.25000000  1
  Sb  Sb124  1  0.25000000  0.25000000  0.75000000  1
  Sb  Sb125  1  0.75000000  0.25000000  0.75000000  1
  Sb  Sb126  1  0.25000000  -0.25000000  0.75000000  1
  Sb  Sb127  1  0.75000000  -0.25000000  0.75000000  1
  O  O128  1  0.25000000  0.50000000  0.25000000  1
  O  O129  1  0.75000000  0.50000000  0.25000000  1
  O  O130  1  0.25000000  0.00000000  0.25000000  1
  O  O131  1  0.75000000  0.00000000  0.25000000  1
  O  O132  1  0.50000000  0.25000000  0.75000000  1
  O  O133  1  1.00000000  0.25000000  0.75000000  1
  O  O134  1  0.50000000  -0.25000000  0.75000000  1
  O  O135  1  1.00000000  -0.25000000  0.75000000  1
  O  O136  1  0.00000000  0.25000000  0.25000000  1
  O  O137  1  0.50000000  0.25000000  0.25000000  1
  O  O138  1  0.00000000  -0.25000000  0.25000000  1
  O  O139  1  0.50000000  -0.25000000  0.25000000  1
  O  O140  1  0.25000000  0.00000000  0.75000000  1
  O  O141  1  0.75000000  0.00000000  0.75000000  1
  O  O142  1  0.25000000  -0.50000000  0.75000000  1
  O  O143  1  0.75000000  -0.50000000  0.75000000  1
