# generated using pymatgen
data_Na4PbO4
_symmetry_space_group_name_H-M   'P 1'
_cell_length_a   17.75802272
_cell_length_b   17.78569068
_cell_length_c   17.86038513
_cell_angle_alpha   70.91505274
_cell_angle_beta   82.76623910
_cell_angle_gamma   68.74909840
_symmetry_Int_Tables_number   1
_chemical_formula_structural   Na4PbO4
_chemical_formula_sum   'Na144 Pb36 O144'
_cell_volume   4968.27411400
_cell_formula_units_Z   36
loop_
 _symmetry_equiv_pos_site_id
 _symmetry_equiv_pos_as_xyz
  1  'x, y, z'
loop_
 _atom_site_type_symbol
 _atom_site_label
 _atom_site_symmetry_multiplicity
 _atom_site_fract_x
 _atom_site_fract_y
 _atom_site_fract_z
 _atom_site_occupancy
  Na  Na0  1  0.08306534  0.08392668  0.00228098  1
  Na  Na1  1  0.08306534  0.08392668  0.50228098  1
  Na  Na2  1  0.08306534  0.41726001  0.00228098  1
  Na  Na3  1  0.08306534  0.41726001  0.50228098  1
  Na  Na4  1  0.08306534  0.75059334  0.00228098  1
  Na  Na5  1  0.08306534  0.75059334  0.50228098  1
  Na  Na6  1  0.41639868  0.08392668  0.00228098  1
  Na  Na7  1  0.41639868  0.08392668  0.50228098  1
  Na  Na8  1  0.41639868  0.41726001  0.00228098  1
  Na  Na9  1  0.41639868  0.41726001  0.50228098  1
  Na  Na10  1  0.41639868  0.75059334  0.00228098  1
  Na  Na11  1  0.41639868  0.75059334  0.50228098  1
  Na  Na12  1  0.74973201  0.08392668  0.00228098  1
  Na  Na13  1  0.74973201  0.08392668  0.50228098  1
  Na  Na14  1  0.74973201  0.41726001  0.00228098  1
  Na  Na15  1  0.74973201  0.41726001  0.50228098  1
  Na  Na16  1  0.74973201  0.75059334  0.00228098  1
  Na  Na17  1  0.74973201  0.75059334  0.50228098  1
  Na  Na18  1  0.25026799  0.24940666  0.49771902  1
  Na  Na19  1  0.25026799  0.24940666  0.99771902  1
  Na  Na20  1  0.25026799  0.58273999  0.49771902  1
  Na  Na21  1  0.25026799  0.58273999  0.99771902  1
  Na  Na22  1  0.25026799  0.91607332  0.49771902  1
  Na  Na23  1  0.25026799  0.91607332  0.99771902  1
  Na  Na24  1  0.58360132  0.24940666  0.49771902  1
  Na  Na25  1  0.58360132  0.24940666  0.99771902  1
  Na  Na26  1  0.58360132  0.58273999  0.49771902  1
  Na  Na27  1  0.58360132  0.58273999  0.99771902  1
  Na  Na28  1  0.58360132  0.91607332  0.49771902  1
  Na  Na29  1  0.58360132  0.91607332  0.99771902  1
  Na  Na30  1  0.91693466  0.24940666  0.49771902  1
  Na  Na31  1  0.91693466  0.24940666  0.99771902  1
  Na  Na32  1  0.91693466  0.58273999  0.49771902  1
  Na  Na33  1  0.91693466  0.58273999  0.99771902  1
  Na  Na34  1  0.91693466  0.91607332  0.49771902  1
  Na  Na35  1  0.91693466  0.91607332  0.99771902  1
  Na  Na36  1  0.24828900  0.18871639  0.20514495  1
  Na  Na37  1  0.24828900  0.18871639  0.70514495  1
  Na  Na38  1  0.24828900  0.52204973  0.20514495  1
  Na  Na39  1  0.24828900  0.52204973  0.70514495  1
  Na  Na40  1  0.24828900  0.85538306  0.20514495  1
  Na  Na41  1  0.24828900  0.85538306  0.70514495  1
  Na  Na42  1  0.58162233  0.18871639  0.20514495  1
  Na  Na43  1  0.58162233  0.18871639  0.70514495  1
  Na  Na44  1  0.58162233  0.52204973  0.20514495  1
  Na  Na45  1  0.58162233  0.52204973  0.70514495  1
  Na  Na46  1  0.58162233  0.85538306  0.20514495  1
  Na  Na47  1  0.58162233  0.85538306  0.70514495  1
  Na  Na48  1  0.91495567  0.18871639  0.20514495  1
  Na  Na49  1  0.91495567  0.18871639  0.70514495  1
  Na  Na50  1  0.91495567  0.52204973  0.20514495  1
  Na  Na51  1  0.91495567  0.52204973  0.70514495  1
  Na  Na52  1  0.91495567  0.85538306  0.20514495  1
  Na  Na53  1  0.91495567  0.85538306  0.70514495  1
  Na  Na54  1  0.08504433  0.14461694  0.29485505  1
  Na  Na55  1  0.08504433  0.14461694  0.79485505  1
  Na  Na56  1  0.08504433  0.47795027  0.29485505  1
  Na  Na57  1  0.08504433  0.47795027  0.79485505  1
  Na  Na58  1  0.08504433  0.81128361  0.29485505  1
  Na  Na59  1  0.08504433  0.81128361  0.79485505  1
  Na  Na60  1  0.41837767  0.14461694  0.29485505  1
  Na  Na61  1  0.41837767  0.14461694  0.79485505  1
  Na  Na62  1  0.41837767  0.47795027  0.29485505  1
  Na  Na63  1  0.41837767  0.47795027  0.79485505  1
  Na  Na64  1  0.41837767  0.81128361  0.29485505  1
  Na  Na65  1  0.41837767  0.81128361  0.79485505  1
  Na  Na66  1  0.75171100  0.14461694  0.29485505  1
  Na  Na67  1  0.75171100  0.14461694  0.79485505  1
  Na  Na68  1  0.75171100  0.47795027  0.29485505  1
  Na  Na69  1  0.75171100  0.47795027  0.79485505  1
  Na  Na70  1  0.75171100  0.81128361  0.29485505  1
  Na  Na71  1  0.75171100  0.81128361  0.79485505  1
  Na  Na72  1  0.24528251  0.32703950  0.28444272  1
  Na  Na73  1  0.24528251  0.32703950  0.78444272  1
  Na  Na74  1  0.24528251  0.66037284  0.28444272  1
  Na  Na75  1  0.24528251  0.66037284  0.78444272  1
  Na  Na76  1  0.24528251  0.99370617  0.28444272  1
  Na  Na77  1  0.24528251  0.99370617  0.78444272  1
  Na  Na78  1  0.57861585  0.32703950  0.28444272  1
  Na  Na79  1  0.57861585  0.32703950  0.78444272  1
  Na  Na80  1  0.57861585  0.66037284  0.28444272  1
  Na  Na81  1  0.57861585  0.66037284  0.78444272  1
  Na  Na82  1  0.57861585  0.99370617  0.28444272  1
  Na  Na83  1  0.57861585  0.99370617  0.78444272  1
  Na  Na84  1  0.91194918  0.32703950  0.28444272  1
  Na  Na85  1  0.91194918  0.32703950  0.78444272  1
  Na  Na86  1  0.91194918  0.66037284  0.28444272  1
  Na  Na87  1  0.91194918  0.66037284  0.78444272  1
  Na  Na88  1  0.91194918  0.99370617  0.28444272  1
  Na  Na89  1  0.91194918  0.99370617  0.78444272  1
  Na  Na90  1  0.08805082  0.00629383  0.21555728  1
  Na  Na91  1  0.08805082  0.00629383  0.71555728  1
  Na  Na92  1  0.08805082  0.33962716  0.21555728  1
  Na  Na93  1  0.08805082  0.33962716  0.71555728  1
  Na  Na94  1  0.08805082  0.67296050  0.21555728  1
  Na  Na95  1  0.08805082  0.67296050  0.71555728  1
  Na  Na96  1  0.42138415  0.00629383  0.21555728  1
  Na  Na97  1  0.42138415  0.00629383  0.71555728  1
  Na  Na98  1  0.42138415  0.33962716  0.21555728  1
  Na  Na99  1  0.42138415  0.33962716  0.71555728  1
  Na  Na100  1  0.42138415  0.67296050  0.21555728  1
  Na  Na101  1  0.42138415  0.67296050  0.71555728  1
  Na  Na102  1  0.75471749  0.00629383  0.21555728  1
  Na  Na103  1  0.75471749  0.00629383  0.71555728  1
  Na  Na104  1  0.75471749  0.33962716  0.21555728  1
  Na  Na105  1  0.75471749  0.33962716  0.71555728  1
  Na  Na106  1  0.75471749  0.67296050  0.21555728  1
  Na  Na107  1  0.75471749  0.67296050  0.71555728  1
  Na  Na108  1  0.24042590  0.03749876  0.10377951  1
  Na  Na109  1  0.24042590  0.03749876  0.60377951  1
  Na  Na110  1  0.24042590  0.37083209  0.10377951  1
  Na  Na111  1  0.24042590  0.37083209  0.60377951  1
  Na  Na112  1  0.24042590  0.70416543  0.10377951  1
  Na  Na113  1  0.24042590  0.70416543  0.60377951  1
  Na  Na114  1  0.57375924  0.03749876  0.10377951  1
  Na  Na115  1  0.57375924  0.03749876  0.60377951  1
  Na  Na116  1  0.57375924  0.37083209  0.10377951  1
  Na  Na117  1  0.57375924  0.37083209  0.60377951  1
  Na  Na118  1  0.57375924  0.70416543  0.10377951  1
  Na  Na119  1  0.57375924  0.70416543  0.60377951  1
  Na  Na120  1  0.90709257  0.03749876  0.10377951  1
  Na  Na121  1  0.90709257  0.03749876  0.60377951  1
  Na  Na122  1  0.90709257  0.37083209  0.10377951  1
  Na  Na123  1  0.90709257  0.37083209  0.60377951  1
  Na  Na124  1  0.90709257  0.70416543  0.10377951  1
  Na  Na125  1  0.90709257  0.70416543  0.60377951  1
  Na  Na126  1  0.09290743  0.29583457  0.39622049  1
  Na  Na127  1  0.09290743  0.29583457  0.89622049  1
  Na  Na128  1  0.09290743  0.62916791  0.39622049  1
  Na  Na129  1  0.09290743  0.62916791  0.89622049  1
  Na  Na130  1  0.09290743  0.96250124  0.39622049  1
  Na  Na131  1  0.09290743  0.96250124  0.89622049  1
  Na  Na132  1  0.42624076  0.29583457  0.39622049  1
  Na  Na133  1  0.42624076  0.29583457  0.89622049  1
  Na  Na134  1  0.42624076  0.62916791  0.39622049  1
  Na  Na135  1  0.42624076  0.62916791  0.89622049  1
  Na  Na136  1  0.42624076  0.96250124  0.39622049  1
  Na  Na137  1  0.42624076  0.96250124  0.89622049  1
  Na  Na138  1  0.75957410  0.29583457  0.39622049  1
  Na  Na139  1  0.75957410  0.29583457  0.89622049  1
  Na  Na140  1  0.75957410  0.62916791  0.39622049  1
  Na  Na141  1  0.75957410  0.62916791  0.89622049  1
  Na  Na142  1  0.75957410  0.96250124  0.39622049  1
  Na  Na143  1  0.75957410  0.96250124  0.89622049  1
  Pb  Pb144  1  0.09139369  0.22068813  0.11382421  1
  Pb  Pb145  1  0.09139369  0.22068813  0.61382421  1
  Pb  Pb146  1  0.09139369  0.55402147  0.11382421  1
  Pb  Pb147  1  0.09139369  0.55402147  0.61382421  1
  Pb  Pb148  1  0.09139369  0.88735480  0.11382421  1
  Pb  Pb149  1  0.09139369  0.88735480  0.61382421  1
  Pb  Pb150  1  0.42472702  0.22068813  0.11382421  1
  Pb  Pb151  1  0.42472702  0.22068813  0.61382421  1
  Pb  Pb152  1  0.42472702  0.55402147  0.11382421  1
  Pb  Pb153  1  0.42472702  0.55402147  0.61382421  1
  Pb  Pb154  1  0.42472702  0.88735480  0.11382421  1
  Pb  Pb155  1  0.42472702  0.88735480  0.61382421  1
  Pb  Pb156  1  0.75806035  0.22068813  0.11382421  1
  Pb  Pb157  1  0.75806035  0.22068813  0.61382421  1
  Pb  Pb158  1  0.75806035  0.55402147  0.11382421  1
  Pb  Pb159  1  0.75806035  0.55402147  0.61382421  1
  Pb  Pb160  1  0.75806035  0.88735480  0.11382421  1
  Pb  Pb161  1  0.75806035  0.88735480  0.61382421  1
  Pb  Pb162  1  0.24193965  0.11264520  0.38617579  1
  Pb  Pb163  1  0.24193965  0.11264520  0.88617579  1
  Pb  Pb164  1  0.24193965  0.44597853  0.38617579  1
  Pb  Pb165  1  0.24193965  0.44597853  0.88617579  1
  Pb  Pb166  1  0.24193965  0.77931187  0.38617579  1
  Pb  Pb167  1  0.24193965  0.77931187  0.88617579  1
  Pb  Pb168  1  0.57527298  0.11264520  0.38617579  1
  Pb  Pb169  1  0.57527298  0.11264520  0.88617579  1
  Pb  Pb170  1  0.57527298  0.44597853  0.38617579  1
  Pb  Pb171  1  0.57527298  0.44597853  0.88617579  1
  Pb  Pb172  1  0.57527298  0.77931187  0.38617579  1
  Pb  Pb173  1  0.57527298  0.77931187  0.88617579  1
  Pb  Pb174  1  0.90860631  0.11264520  0.38617579  1
  Pb  Pb175  1  0.90860631  0.11264520  0.88617579  1
  Pb  Pb176  1  0.90860631  0.44597853  0.38617579  1
  Pb  Pb177  1  0.90860631  0.44597853  0.88617579  1
  Pb  Pb178  1  0.90860631  0.77931187  0.38617579  1
  Pb  Pb179  1  0.90860631  0.77931187  0.88617579  1
  O  O180  1  0.16410080  0.29554498  0.09762700  1
  O  O181  1  0.16410080  0.29554498  0.59762700  1
  O  O182  1  0.16410080  0.62887832  0.09762700  1
  O  O183  1  0.16410080  0.62887832  0.59762700  1
  O  O184  1  0.16410080  0.96221165  0.09762700  1
  O  O185  1  0.16410080  0.96221165  0.59762700  1
  O  O186  1  0.49743414  0.29554498  0.09762700  1
  O  O187  1  0.49743414  0.29554498  0.59762700  1
  O  O188  1  0.49743414  0.62887832  0.09762700  1
  O  O189  1  0.49743414  0.62887832  0.59762700  1
  O  O190  1  0.49743414  0.96221165  0.09762700  1
  O  O191  1  0.49743414  0.96221165  0.59762700  1
  O  O192  1  0.83076747  0.29554498  0.09762700  1
  O  O193  1  0.83076747  0.29554498  0.59762700  1
  O  O194  1  0.83076747  0.62887832  0.09762700  1
  O  O195  1  0.83076747  0.62887832  0.59762700  1
  O  O196  1  0.83076747  0.96221165  0.09762700  1
  O  O197  1  0.83076747  0.96221165  0.59762700  1
  O  O198  1  0.16923253  0.03778835  0.40237300  1
  O  O199  1  0.16923253  0.03778835  0.90237300  1
  O  O200  1  0.16923253  0.37112168  0.40237300  1
  O  O201  1  0.16923253  0.37112168  0.90237300  1
  O  O202  1  0.16923253  0.70445502  0.40237300  1
  O  O203  1  0.16923253  0.70445502  0.90237300  1
  O  O204  1  0.50256586  0.03778835  0.40237300  1
  O  O205  1  0.50256586  0.03778835  0.90237300  1
  O  O206  1  0.50256586  0.37112168  0.40237300  1
  O  O207  1  0.50256586  0.37112168  0.90237300  1
  O  O208  1  0.50256586  0.70445502  0.40237300  1
  O  O209  1  0.50256586  0.70445502  0.90237300  1
  O  O210  1  0.83589920  0.03778835  0.40237300  1
  O  O211  1  0.83589920  0.03778835  0.90237300  1
  O  O212  1  0.83589920  0.37112168  0.40237300  1
  O  O213  1  0.83589920  0.37112168  0.90237300  1
  O  O214  1  0.83589920  0.70445502  0.40237300  1
  O  O215  1  0.83589920  0.70445502  0.90237300  1
  O  O216  1  0.17146078  0.22985480  0.31045581  1
  O  O217  1  0.17146078  0.22985480  0.81045581  1
  O  O218  1  0.17146078  0.56318813  0.31045581  1
  O  O219  1  0.17146078  0.56318813  0.81045581  1
  O  O220  1  0.17146078  0.89652147  0.31045581  1
  O  O221  1  0.17146078  0.89652147  0.81045581  1
  O  O222  1  0.50479412  0.22985480  0.31045581  1
  O  O223  1  0.50479412  0.22985480  0.81045581  1
  O  O224  1  0.50479412  0.56318813  0.31045581  1
  O  O225  1  0.50479412  0.56318813  0.81045581  1
  O  O226  1  0.50479412  0.89652147  0.31045581  1
  O  O227  1  0.50479412  0.89652147  0.81045581  1
  O  O228  1  0.83812745  0.22985480  0.31045581  1
  O  O229  1  0.83812745  0.22985480  0.81045581  1
  O  O230  1  0.83812745  0.56318813  0.31045581  1
  O  O231  1  0.83812745  0.56318813  0.81045581  1
  O  O232  1  0.83812745  0.89652147  0.31045581  1
  O  O233  1  0.83812745  0.89652147  0.81045581  1
  O  O234  1  0.16187255  0.10347853  0.18954419  1
  O  O235  1  0.16187255  0.10347853  0.68954419  1
  O  O236  1  0.16187255  0.43681187  0.18954419  1
  O  O237  1  0.16187255  0.43681187  0.68954419  1
  O  O238  1  0.16187255  0.77014520  0.18954419  1
  O  O239  1  0.16187255  0.77014520  0.68954419  1
  O  O240  1  0.49520588  0.10347853  0.18954419  1
  O  O241  1  0.49520588  0.10347853  0.68954419  1
  O  O242  1  0.49520588  0.43681187  0.18954419  1
  O  O243  1  0.49520588  0.43681187  0.68954419  1
  O  O244  1  0.49520588  0.77014520  0.18954419  1
  O  O245  1  0.49520588  0.77014520  0.68954419  1
  O  O246  1  0.82853922  0.10347853  0.18954419  1
  O  O247  1  0.82853922  0.10347853  0.68954419  1
  O  O248  1  0.82853922  0.43681187  0.18954419  1
  O  O249  1  0.82853922  0.43681187  0.68954419  1
  O  O250  1  0.82853922  0.77014520  0.18954419  1
  O  O251  1  0.82853922  0.77014520  0.68954419  1
  O  O252  1  0.00210781  0.26710580  0.19359647  1
  O  O253  1  0.00210781  0.26710580  0.69359647  1
  O  O254  1  0.00210781  0.60043913  0.19359647  1
  O  O255  1  0.00210781  0.60043913  0.69359647  1
  O  O256  1  0.00210781  0.93377246  0.19359647  1
  O  O257  1  0.00210781  0.93377246  0.69359647  1
  O  O258  1  0.33544114  0.26710580  0.19359647  1
  O  O259  1  0.33544114  0.26710580  0.69359647  1
  O  O260  1  0.33544114  0.60043913  0.19359647  1
  O  O261  1  0.33544114  0.60043913  0.69359647  1
  O  O262  1  0.33544114  0.93377246  0.19359647  1
  O  O263  1  0.33544114  0.93377246  0.69359647  1
  O  O264  1  0.66877448  0.26710580  0.19359647  1
  O  O265  1  0.66877448  0.26710580  0.69359647  1
  O  O266  1  0.66877448  0.60043913  0.19359647  1
  O  O267  1  0.66877448  0.60043913  0.69359647  1
  O  O268  1  0.66877448  0.93377246  0.19359647  1
  O  O269  1  0.66877448  0.93377246  0.69359647  1
  O  O270  1  0.33122552  0.06622754  0.30640353  1
  O  O271  1  0.33122552  0.06622754  0.80640353  1
  O  O272  1  0.33122552  0.39956087  0.30640353  1
  O  O273  1  0.33122552  0.39956087  0.80640353  1
  O  O274  1  0.33122552  0.73289420  0.30640353  1
  O  O275  1  0.33122552  0.73289420  0.80640353  1
  O  O276  1  0.66455886  0.06622754  0.30640353  1
  O  O277  1  0.66455886  0.06622754  0.80640353  1
  O  O278  1  0.66455886  0.39956087  0.30640353  1
  O  O279  1  0.66455886  0.39956087  0.80640353  1
  O  O280  1  0.66455886  0.73289420  0.30640353  1
  O  O281  1  0.66455886  0.73289420  0.80640353  1
  O  O282  1  0.99789219  0.06622754  0.30640353  1
  O  O283  1  0.99789219  0.06622754  0.80640353  1
  O  O284  1  0.99789219  0.39956087  0.30640353  1
  O  O285  1  0.99789219  0.39956087  0.80640353  1
  O  O286  1  0.99789219  0.73289420  0.30640353  1
  O  O287  1  0.99789219  0.73289420  0.80640353  1
  O  O288  1  0.05215269  0.21770244  0.01035397  1
  O  O289  1  0.05215269  0.21770244  0.51035397  1
  O  O290  1  0.05215269  0.55103577  0.01035397  1
  O  O291  1  0.05215269  0.55103577  0.51035397  1
  O  O292  1  0.05215269  0.88436911  0.01035397  1
  O  O293  1  0.05215269  0.88436911  0.51035397  1
  O  O294  1  0.38548602  0.21770244  0.01035397  1
  O  O295  1  0.38548602  0.21770244  0.51035397  1
  O  O296  1  0.38548602  0.55103577  0.01035397  1
  O  O297  1  0.38548602  0.55103577  0.51035397  1
  O  O298  1  0.38548602  0.88436911  0.01035397  1
  O  O299  1  0.38548602  0.88436911  0.51035397  1
  O  O300  1  0.71881936  0.21770244  0.01035397  1
  O  O301  1  0.71881936  0.21770244  0.51035397  1
  O  O302  1  0.71881936  0.55103577  0.01035397  1
  O  O303  1  0.71881936  0.55103577  0.51035397  1
  O  O304  1  0.71881936  0.88436911  0.01035397  1
  O  O305  1  0.71881936  0.88436911  0.51035397  1
  O  O306  1  0.28118064  0.11563089  0.48964603  1
  O  O307  1  0.28118064  0.11563089  0.98964603  1
  O  O308  1  0.28118064  0.44896423  0.48964603  1
  O  O309  1  0.28118064  0.44896423  0.98964603  1
  O  O310  1  0.28118064  0.78229756  0.48964603  1
  O  O311  1  0.28118064  0.78229756  0.98964603  1
  O  O312  1  0.61451398  0.11563089  0.48964603  1
  O  O313  1  0.61451398  0.11563089  0.98964603  1
  O  O314  1  0.61451398  0.44896423  0.48964603  1
  O  O315  1  0.61451398  0.44896423  0.98964603  1
  O  O316  1  0.61451398  0.78229756  0.48964603  1
  O  O317  1  0.61451398  0.78229756  0.98964603  1
  O  O318  1  0.94784731  0.11563089  0.48964603  1
  O  O319  1  0.94784731  0.11563089  0.98964603  1
  O  O320  1  0.94784731  0.44896423  0.48964603  1
  O  O321  1  0.94784731  0.44896423  0.98964603  1
  O  O322  1  0.94784731  0.78229756  0.48964603  1
  O  O323  1  0.94784731  0.78229756  0.98964603  1
