# generated using pymatgen
data_BaBeSiO4
_symmetry_space_group_name_H-M   'P 1'
_cell_length_a   17.60063965
_cell_length_b   15.74599628
_cell_length_c   15.05561107
_cell_angle_alpha   90.00000000
_cell_angle_beta   124.34757986
_cell_angle_gamma   90.00000000
_symmetry_Int_Tables_number   1
_chemical_formula_structural   BaBeSiO4
_chemical_formula_sum   'Ba36 Be36 Si36 O144'
_cell_volume   3444.94641415
_cell_formula_units_Z   36
loop_
 _symmetry_equiv_pos_site_id
 _symmetry_equiv_pos_as_xyz
  1  'x, y, z'
loop_
 _atom_site_type_symbol
 _atom_site_label
 _atom_site_symmetry_multiplicity
 _atom_site_fract_x
 _atom_site_fract_y
 _atom_site_fract_z
 _atom_site_occupancy
  Ba  Ba0  1  0.49012768  -0.00000000  0.32223212  1
  Ba  Ba1  1  0.49012768  -0.00000000  0.65556546  1
  Ba  Ba2  1  0.49012768  -0.00000000  0.98889879  1
  Ba  Ba3  1  0.49012768  0.33333333  0.32223212  1
  Ba  Ba4  1  0.49012768  0.33333333  0.65556546  1
  Ba  Ba5  1  0.49012768  0.33333333  0.98889879  1
  Ba  Ba6  1  0.49012768  0.66666667  0.32223212  1
  Ba  Ba7  1  0.49012768  0.66666667  0.65556546  1
  Ba  Ba8  1  0.49012768  0.66666667  0.98889879  1
  Ba  Ba9  1  0.99012768  -0.00000000  0.32223212  1
  Ba  Ba10  1  0.99012768  -0.00000000  0.65556546  1
  Ba  Ba11  1  0.99012768  -0.00000000  0.98889879  1
  Ba  Ba12  1  0.99012768  0.33333333  0.32223212  1
  Ba  Ba13  1  0.99012768  0.33333333  0.65556546  1
  Ba  Ba14  1  0.99012768  0.33333333  0.98889879  1
  Ba  Ba15  1  0.99012768  0.66666667  0.32223212  1
  Ba  Ba16  1  0.99012768  0.66666667  0.65556546  1
  Ba  Ba17  1  0.99012768  0.66666667  0.98889879  1
  Ba  Ba18  1  0.74012768  0.16666667  0.32223212  1
  Ba  Ba19  1  0.74012768  0.16666667  0.65556546  1
  Ba  Ba20  1  0.74012768  0.16666667  0.98889879  1
  Ba  Ba21  1  0.74012768  0.50000000  0.32223212  1
  Ba  Ba22  1  0.74012768  0.50000000  0.65556546  1
  Ba  Ba23  1  0.74012768  0.50000000  0.98889879  1
  Ba  Ba24  1  0.74012768  0.83333333  0.32223212  1
  Ba  Ba25  1  0.74012768  0.83333333  0.65556546  1
  Ba  Ba26  1  0.74012768  0.83333333  0.98889879  1
  Ba  Ba27  1  1.24012768  0.16666667  0.32223212  1
  Ba  Ba28  1  1.24012768  0.16666667  0.65556546  1
  Ba  Ba29  1  1.24012768  0.16666667  0.98889879  1
  Ba  Ba30  1  1.24012768  0.50000000  0.32223212  1
  Ba  Ba31  1  1.24012768  0.50000000  0.65556546  1
  Ba  Ba32  1  1.24012768  0.50000000  0.98889879  1
  Ba  Ba33  1  1.24012768  0.83333333  0.32223212  1
  Ba  Ba34  1  1.24012768  0.83333333  0.65556546  1
  Ba  Ba35  1  1.24012768  0.83333333  0.98889879  1
  Be  Be36  1  0.12649682  -0.00000000  0.24563121  1
  Be  Be37  1  0.12649682  -0.00000000  0.57896455  1
  Be  Be38  1  0.12649682  -0.00000000  0.91229788  1
  Be  Be39  1  0.12649682  0.33333333  0.24563121  1
  Be  Be40  1  0.12649682  0.33333333  0.57896455  1
  Be  Be41  1  0.12649682  0.33333333  0.91229788  1
  Be  Be42  1  0.12649682  0.66666667  0.24563121  1
  Be  Be43  1  0.12649682  0.66666667  0.57896455  1
  Be  Be44  1  0.12649682  0.66666667  0.91229788  1
  Be  Be45  1  0.62649682  -0.00000000  0.24563121  1
  Be  Be46  1  0.62649682  -0.00000000  0.57896455  1
  Be  Be47  1  0.62649682  -0.00000000  0.91229788  1
  Be  Be48  1  0.62649682  0.33333333  0.24563121  1
  Be  Be49  1  0.62649682  0.33333333  0.57896455  1
  Be  Be50  1  0.62649682  0.33333333  0.91229788  1
  Be  Be51  1  0.62649682  0.66666667  0.24563121  1
  Be  Be52  1  0.62649682  0.66666667  0.57896455  1
  Be  Be53  1  0.62649682  0.66666667  0.91229788  1
  Be  Be54  1  0.37649682  0.16666667  0.24563121  1
  Be  Be55  1  0.37649682  0.16666667  0.57896455  1
  Be  Be56  1  0.37649682  0.16666667  0.91229788  1
  Be  Be57  1  0.37649682  0.50000000  0.24563121  1
  Be  Be58  1  0.37649682  0.50000000  0.57896455  1
  Be  Be59  1  0.37649682  0.50000000  0.91229788  1
  Be  Be60  1  0.37649682  0.83333333  0.24563121  1
  Be  Be61  1  0.37649682  0.83333333  0.57896455  1
  Be  Be62  1  0.37649682  0.83333333  0.91229788  1
  Be  Be63  1  0.87649682  0.16666667  0.24563121  1
  Be  Be64  1  0.87649682  0.16666667  0.57896455  1
  Be  Be65  1  0.87649682  0.16666667  0.91229788  1
  Be  Be66  1  0.87649682  0.50000000  0.24563121  1
  Be  Be67  1  0.87649682  0.50000000  0.57896455  1
  Be  Be68  1  0.87649682  0.50000000  0.91229788  1
  Be  Be69  1  0.87649682  0.83333333  0.24563121  1
  Be  Be70  1  0.87649682  0.83333333  0.57896455  1
  Be  Be71  1  0.87649682  0.83333333  0.91229788  1
  Si  Si72  1  0.25072429  -0.00000000  0.16186018  1
  Si  Si73  1  0.25072429  -0.00000000  0.49519351  1
  Si  Si74  1  0.25072429  -0.00000000  0.82852685  1
  Si  Si75  1  0.25072429  0.33333333  0.16186018  1
  Si  Si76  1  0.25072429  0.33333333  0.49519351  1
  Si  Si77  1  0.25072429  0.33333333  0.82852685  1
  Si  Si78  1  0.25072429  0.66666667  0.16186018  1
  Si  Si79  1  0.25072429  0.66666667  0.49519351  1
  Si  Si80  1  0.25072429  0.66666667  0.82852685  1
  Si  Si81  1  0.75072429  -0.00000000  0.16186018  1
  Si  Si82  1  0.75072429  -0.00000000  0.49519351  1
  Si  Si83  1  0.75072429  -0.00000000  0.82852685  1
  Si  Si84  1  0.75072429  0.33333333  0.16186018  1
  Si  Si85  1  0.75072429  0.33333333  0.49519351  1
  Si  Si86  1  0.75072429  0.33333333  0.82852685  1
  Si  Si87  1  0.75072429  0.66666667  0.16186018  1
  Si  Si88  1  0.75072429  0.66666667  0.49519351  1
  Si  Si89  1  0.75072429  0.66666667  0.82852685  1
  Si  Si90  1  0.50072429  0.16666667  0.16186018  1
  Si  Si91  1  0.50072429  0.16666667  0.49519351  1
  Si  Si92  1  0.50072429  0.16666667  0.82852685  1
  Si  Si93  1  0.50072429  0.50000000  0.16186018  1
  Si  Si94  1  0.50072429  0.50000000  0.49519351  1
  Si  Si95  1  0.50072429  0.50000000  0.82852685  1
  Si  Si96  1  0.50072429  0.83333333  0.16186018  1
  Si  Si97  1  0.50072429  0.83333333  0.49519351  1
  Si  Si98  1  0.50072429  0.83333333  0.82852685  1
  Si  Si99  1  1.00072429  0.16666667  0.16186018  1
  Si  Si100  1  1.00072429  0.16666667  0.49519351  1
  Si  Si101  1  1.00072429  0.16666667  0.82852685  1
  Si  Si102  1  1.00072429  0.50000000  0.16186018  1
  Si  Si103  1  1.00072429  0.50000000  0.49519351  1
  Si  Si104  1  1.00072429  0.50000000  0.82852685  1
  Si  Si105  1  1.00072429  0.83333333  0.16186018  1
  Si  Si106  1  1.00072429  0.83333333  0.49519351  1
  Si  Si107  1  1.00072429  0.83333333  0.82852685  1
  O  O108  1  0.31395255  0.08385822  0.18411664  1
  O  O109  1  0.31395255  0.08385822  0.51744997  1
  O  O110  1  0.31395255  0.08385822  0.85078331  1
  O  O111  1  0.31395255  0.41719156  0.18411664  1
  O  O112  1  0.31395255  0.41719156  0.51744997  1
  O  O113  1  0.31395255  0.41719156  0.85078331  1
  O  O114  1  0.31395255  0.75052489  0.18411664  1
  O  O115  1  0.31395255  0.75052489  0.51744997  1
  O  O116  1  0.31395255  0.75052489  0.85078331  1
  O  O117  1  0.81395255  0.08385822  0.18411664  1
  O  O118  1  0.81395255  0.08385822  0.51744997  1
  O  O119  1  0.81395255  0.08385822  0.85078331  1
  O  O120  1  0.81395255  0.41719156  0.18411664  1
  O  O121  1  0.81395255  0.41719156  0.51744997  1
  O  O122  1  0.81395255  0.41719156  0.85078331  1
  O  O123  1  0.81395255  0.75052489  0.18411664  1
  O  O124  1  0.81395255  0.75052489  0.51744997  1
  O  O125  1  0.81395255  0.75052489  0.85078331  1
  O  O126  1  0.56395255  0.25052489  0.18411664  1
  O  O127  1  0.56395255  0.25052489  0.51744997  1
  O  O128  1  0.56395255  0.25052489  0.85078331  1
  O  O129  1  0.56395255  0.58385822  0.18411664  1
  O  O130  1  0.56395255  0.58385822  0.51744997  1
  O  O131  1  0.56395255  0.58385822  0.85078331  1
  O  O132  1  0.56395255  0.91719156  0.18411664  1
  O  O133  1  0.56395255  0.91719156  0.51744997  1
  O  O134  1  0.56395255  0.91719156  0.85078331  1
  O  O135  1  1.06395255  0.25052489  0.18411664  1
  O  O136  1  1.06395255  0.25052489  0.51744997  1
  O  O137  1  1.06395255  0.25052489  0.85078331  1
  O  O138  1  1.06395255  0.58385822  0.18411664  1
  O  O139  1  1.06395255  0.58385822  0.51744997  1
  O  O140  1  1.06395255  0.58385822  0.85078331  1
  O  O141  1  1.06395255  0.91719156  0.18411664  1
  O  O142  1  1.06395255  0.91719156  0.51744997  1
  O  O143  1  1.06395255  0.91719156  0.85078331  1
  O  O144  1  0.16103714  -0.00000000  0.03741385  1
  O  O145  1  0.16103714  -0.00000000  0.37074718  1
  O  O146  1  0.16103714  -0.00000000  0.70408052  1
  O  O147  1  0.16103714  0.33333333  0.03741385  1
  O  O148  1  0.16103714  0.33333333  0.37074718  1
  O  O149  1  0.16103714  0.33333333  0.70408052  1
  O  O150  1  0.16103714  0.66666667  0.03741385  1
  O  O151  1  0.16103714  0.66666667  0.37074718  1
  O  O152  1  0.16103714  0.66666667  0.70408052  1
  O  O153  1  0.66103714  -0.00000000  0.03741385  1
  O  O154  1  0.66103714  -0.00000000  0.37074718  1
  O  O155  1  0.66103714  -0.00000000  0.70408052  1
  O  O156  1  0.66103714  0.33333333  0.03741385  1
  O  O157  1  0.66103714  0.33333333  0.37074718  1
  O  O158  1  0.66103714  0.33333333  0.70408052  1
  O  O159  1  0.66103714  0.66666667  0.03741385  1
  O  O160  1  0.66103714  0.66666667  0.37074718  1
  O  O161  1  0.66103714  0.66666667  0.70408052  1
  O  O162  1  0.41103714  0.16666667  0.03741385  1
  O  O163  1  0.41103714  0.16666667  0.37074718  1
  O  O164  1  0.41103714  0.16666667  0.70408052  1
  O  O165  1  0.41103714  0.50000000  0.03741385  1
  O  O166  1  0.41103714  0.50000000  0.37074718  1
  O  O167  1  0.41103714  0.50000000  0.70408052  1
  O  O168  1  0.41103714  0.83333333  0.03741385  1
  O  O169  1  0.41103714  0.83333333  0.37074718  1
  O  O170  1  0.41103714  0.83333333  0.70408052  1
  O  O171  1  0.91103714  0.16666667  0.03741385  1
  O  O172  1  0.91103714  0.16666667  0.37074718  1
  O  O173  1  0.91103714  0.16666667  0.70408052  1
  O  O174  1  0.91103714  0.50000000  0.03741385  1
  O  O175  1  0.91103714  0.50000000  0.37074718  1
  O  O176  1  0.91103714  0.50000000  0.70408052  1
  O  O177  1  0.91103714  0.83333333  0.03741385  1
  O  O178  1  0.91103714  0.83333333  0.37074718  1
  O  O179  1  0.91103714  0.83333333  0.70408052  1
  O  O180  1  0.31395255  -0.08385822  0.18411664  1
  O  O181  1  0.31395255  -0.08385822  0.51744997  1
  O  O182  1  0.31395255  -0.08385822  0.85078331  1
  O  O183  1  0.31395255  0.24947511  0.18411664  1
  O  O184  1  0.31395255  0.24947511  0.51744997  1
  O  O185  1  0.31395255  0.24947511  0.85078331  1
  O  O186  1  0.31395255  0.58280844  0.18411664  1
  O  O187  1  0.31395255  0.58280844  0.51744997  1
  O  O188  1  0.31395255  0.58280844  0.85078331  1
  O  O189  1  0.81395255  -0.08385822  0.18411664  1
  O  O190  1  0.81395255  -0.08385822  0.51744997  1
  O  O191  1  0.81395255  -0.08385822  0.85078331  1
  O  O192  1  0.81395255  0.24947511  0.18411664  1
  O  O193  1  0.81395255  0.24947511  0.51744997  1
  O  O194  1  0.81395255  0.24947511  0.85078331  1
  O  O195  1  0.81395255  0.58280844  0.18411664  1
  O  O196  1  0.81395255  0.58280844  0.51744997  1
  O  O197  1  0.81395255  0.58280844  0.85078331  1
  O  O198  1  0.56395255  0.08280844  0.18411664  1
  O  O199  1  0.56395255  0.08280844  0.51744997  1
  O  O200  1  0.56395255  0.08280844  0.85078331  1
  O  O201  1  0.56395255  0.41614178  0.18411664  1
  O  O202  1  0.56395255  0.41614178  0.51744997  1
  O  O203  1  0.56395255  0.41614178  0.85078331  1
  O  O204  1  0.56395255  0.74947511  0.18411664  1
  O  O205  1  0.56395255  0.74947511  0.51744997  1
  O  O206  1  0.56395255  0.74947511  0.85078331  1
  O  O207  1  1.06395255  0.08280844  0.18411664  1
  O  O208  1  1.06395255  0.08280844  0.51744997  1
  O  O209  1  1.06395255  0.08280844  0.85078331  1
  O  O210  1  1.06395255  0.41614178  0.18411664  1
  O  O211  1  1.06395255  0.41614178  0.51744997  1
  O  O212  1  1.06395255  0.41614178  0.85078331  1
  O  O213  1  1.06395255  0.74947511  0.18411664  1
  O  O214  1  1.06395255  0.74947511  0.51744997  1
  O  O215  1  1.06395255  0.74947511  0.85078331  1
  O  O216  1  0.21820847  -0.00000000  0.24439536  1
  O  O217  1  0.21820847  -0.00000000  0.57772869  1
  O  O218  1  0.21820847  -0.00000000  0.91106202  1
  O  O219  1  0.21820847  0.33333333  0.24439536  1
  O  O220  1  0.21820847  0.33333333  0.57772869  1
  O  O221  1  0.21820847  0.33333333  0.91106202  1
  O  O222  1  0.21820847  0.66666667  0.24439536  1
  O  O223  1  0.21820847  0.66666667  0.57772869  1
  O  O224  1  0.21820847  0.66666667  0.91106202  1
  O  O225  1  0.71820847  -0.00000000  0.24439536  1
  O  O226  1  0.71820847  -0.00000000  0.57772869  1
  O  O227  1  0.71820847  -0.00000000  0.91106202  1
  O  O228  1  0.71820847  0.33333333  0.24439536  1
  O  O229  1  0.71820847  0.33333333  0.57772869  1
  O  O230  1  0.71820847  0.33333333  0.91106202  1
  O  O231  1  0.71820847  0.66666667  0.24439536  1
  O  O232  1  0.71820847  0.66666667  0.57772869  1
  O  O233  1  0.71820847  0.66666667  0.91106202  1
  O  O234  1  0.46820847  0.16666667  0.24439536  1
  O  O235  1  0.46820847  0.16666667  0.57772869  1
  O  O236  1  0.46820847  0.16666667  0.91106202  1
  O  O237  1  0.46820847  0.50000000  0.24439536  1
  O  O238  1  0.46820847  0.50000000  0.57772869  1
  O  O239  1  0.46820847  0.50000000  0.91106202  1
  O  O240  1  0.46820847  0.83333333  0.24439536  1
  O  O241  1  0.46820847  0.83333333  0.57772869  1
  O  O242  1  0.46820847  0.83333333  0.91106202  1
  O  O243  1  0.96820847  0.16666667  0.24439536  1
  O  O244  1  0.96820847  0.16666667  0.57772869  1
  O  O245  1  0.96820847  0.16666667  0.91106202  1
  O  O246  1  0.96820847  0.50000000  0.24439536  1
  O  O247  1  0.96820847  0.50000000  0.57772869  1
  O  O248  1  0.96820847  0.50000000  0.91106202  1
  O  O249  1  0.96820847  0.83333333  0.24439536  1
  O  O250  1  0.96820847  0.83333333  0.57772869  1
  O  O251  1  0.96820847  0.83333333  0.91106202  1
