# generated using pymatgen
data_RbTa(BO3)2
_symmetry_space_group_name_H-M   'P 1'
_cell_length_a   15.03011701
_cell_length_b   15.62253779
_cell_length_c   19.15110547
_cell_angle_alpha   90.00000000
_cell_angle_beta   90.00000000
_cell_angle_gamma   90.00000000
_symmetry_Int_Tables_number   1
_chemical_formula_structural   RbTa(BO3)2
_chemical_formula_sum   'Rb32 Ta32 B64 O192'
_cell_volume   4496.84370660
_cell_formula_units_Z   32
loop_
 _symmetry_equiv_pos_site_id
 _symmetry_equiv_pos_as_xyz
  1  'x, y, z'
loop_
 _atom_site_type_symbol
 _atom_site_label
 _atom_site_symmetry_multiplicity
 _atom_site_fract_x
 _atom_site_fract_y
 _atom_site_fract_z
 _atom_site_occupancy
  Rb  Rb0  1  0.25000000  0.11492102  0.44487222  1
  Rb  Rb1  1  0.25000000  0.11492102  0.94487222  1
  Rb  Rb2  1  0.25000000  0.36492102  0.44487222  1
  Rb  Rb3  1  0.25000000  0.36492102  0.94487222  1
  Rb  Rb4  1  0.25000000  0.61492102  0.44487222  1
  Rb  Rb5  1  0.25000000  0.61492102  0.94487222  1
  Rb  Rb6  1  0.25000000  0.86492102  0.44487222  1
  Rb  Rb7  1  0.25000000  0.86492102  0.94487222  1
  Rb  Rb8  1  0.75000000  0.11492102  0.44487222  1
  Rb  Rb9  1  0.75000000  0.11492102  0.94487222  1
  Rb  Rb10  1  0.75000000  0.36492102  0.44487222  1
  Rb  Rb11  1  0.75000000  0.36492102  0.94487222  1
  Rb  Rb12  1  0.75000000  0.61492102  0.44487222  1
  Rb  Rb13  1  0.75000000  0.61492102  0.94487222  1
  Rb  Rb14  1  0.75000000  0.86492102  0.44487222  1
  Rb  Rb15  1  0.75000000  0.86492102  0.94487222  1
  Rb  Rb16  1  0.00000000  0.13507898  0.19487222  1
  Rb  Rb17  1  0.00000000  0.13507898  0.69487222  1
  Rb  Rb18  1  0.00000000  0.38507898  0.19487222  1
  Rb  Rb19  1  0.00000000  0.38507898  0.69487222  1
  Rb  Rb20  1  0.00000000  0.63507898  0.19487222  1
  Rb  Rb21  1  0.00000000  0.63507898  0.69487222  1
  Rb  Rb22  1  0.00000000  0.88507898  0.19487222  1
  Rb  Rb23  1  0.00000000  0.88507898  0.69487222  1
  Rb  Rb24  1  0.50000000  0.13507898  0.19487222  1
  Rb  Rb25  1  0.50000000  0.13507898  0.69487222  1
  Rb  Rb26  1  0.50000000  0.38507898  0.19487222  1
  Rb  Rb27  1  0.50000000  0.38507898  0.69487222  1
  Rb  Rb28  1  0.50000000  0.63507898  0.19487222  1
  Rb  Rb29  1  0.50000000  0.63507898  0.69487222  1
  Rb  Rb30  1  0.50000000  0.88507898  0.19487222  1
  Rb  Rb31  1  0.50000000  0.88507898  0.69487222  1
  Ta  Ta32  1  0.25000000  0.03578501  0.24894823  1
  Ta  Ta33  1  0.25000000  0.03578501  0.74894823  1
  Ta  Ta34  1  0.25000000  0.28578501  0.24894823  1
  Ta  Ta35  1  0.25000000  0.28578501  0.74894823  1
  Ta  Ta36  1  0.25000000  0.53578501  0.24894823  1
  Ta  Ta37  1  0.25000000  0.53578501  0.74894823  1
  Ta  Ta38  1  0.25000000  0.78578501  0.24894823  1
  Ta  Ta39  1  0.25000000  0.78578501  0.74894823  1
  Ta  Ta40  1  0.75000000  0.03578501  0.24894823  1
  Ta  Ta41  1  0.75000000  0.03578501  0.74894823  1
  Ta  Ta42  1  0.75000000  0.28578501  0.24894823  1
  Ta  Ta43  1  0.75000000  0.28578501  0.74894823  1
  Ta  Ta44  1  0.75000000  0.53578501  0.24894823  1
  Ta  Ta45  1  0.75000000  0.53578501  0.74894823  1
  Ta  Ta46  1  0.75000000  0.78578501  0.24894823  1
  Ta  Ta47  1  0.75000000  0.78578501  0.74894823  1
  Ta  Ta48  1  0.00000000  0.21421499  0.49894823  1
  Ta  Ta49  1  0.00000000  0.21421499  0.99894823  1
  Ta  Ta50  1  0.00000000  0.46421499  0.49894823  1
  Ta  Ta51  1  0.00000000  0.46421499  0.99894823  1
  Ta  Ta52  1  0.00000000  0.71421499  0.49894823  1
  Ta  Ta53  1  0.00000000  0.71421499  0.99894823  1
  Ta  Ta54  1  0.00000000  0.96421499  0.49894823  1
  Ta  Ta55  1  0.00000000  0.96421499  0.99894823  1
  Ta  Ta56  1  0.50000000  0.21421499  0.49894823  1
  Ta  Ta57  1  0.50000000  0.21421499  0.99894823  1
  Ta  Ta58  1  0.50000000  0.46421499  0.49894823  1
  Ta  Ta59  1  0.50000000  0.46421499  0.99894823  1
  Ta  Ta60  1  0.50000000  0.71421499  0.49894823  1
  Ta  Ta61  1  0.50000000  0.71421499  0.99894823  1
  Ta  Ta62  1  0.50000000  0.96421499  0.49894823  1
  Ta  Ta63  1  0.50000000  0.96421499  0.99894823  1
  B  B64  1  0.41755231  0.00356042  0.35499610  1
  B  B65  1  0.41755231  0.00356042  0.85499610  1
  B  B66  1  0.41755231  0.25356042  0.35499610  1
  B  B67  1  0.41755231  0.25356042  0.85499610  1
  B  B68  1  0.41755231  0.50356042  0.35499610  1
  B  B69  1  0.41755231  0.50356042  0.85499610  1
  B  B70  1  0.41755231  0.75356042  0.35499610  1
  B  B71  1  0.41755231  0.75356042  0.85499610  1
  B  B72  1  0.91755231  0.00356042  0.35499610  1
  B  B73  1  0.91755231  0.00356042  0.85499610  1
  B  B74  1  0.91755231  0.25356042  0.35499610  1
  B  B75  1  0.91755231  0.25356042  0.85499610  1
  B  B76  1  0.91755231  0.50356042  0.35499610  1
  B  B77  1  0.91755231  0.50356042  0.85499610  1
  B  B78  1  0.91755231  0.75356042  0.35499610  1
  B  B79  1  0.91755231  0.75356042  0.85499610  1
  B  B80  1  0.33244769  0.24643958  0.10499610  1
  B  B81  1  0.33244769  0.24643958  0.60499610  1
  B  B82  1  0.33244769  0.49643958  0.10499610  1
  B  B83  1  0.33244769  0.49643958  0.60499610  1
  B  B84  1  0.33244769  0.74643958  0.10499610  1
  B  B85  1  0.33244769  0.74643958  0.60499610  1
  B  B86  1  0.33244769  0.99643958  0.10499610  1
  B  B87  1  0.33244769  0.99643958  0.60499610  1
  B  B88  1  0.83244769  0.24643958  0.10499610  1
  B  B89  1  0.83244769  0.24643958  0.60499610  1
  B  B90  1  0.83244769  0.49643958  0.10499610  1
  B  B91  1  0.83244769  0.49643958  0.60499610  1
  B  B92  1  0.83244769  0.74643958  0.10499610  1
  B  B93  1  0.83244769  0.74643958  0.60499610  1
  B  B94  1  0.83244769  0.99643958  0.10499610  1
  B  B95  1  0.83244769  0.99643958  0.60499610  1
  B  B96  1  0.16755231  0.24643958  0.10499610  1
  B  B97  1  0.16755231  0.24643958  0.60499610  1
  B  B98  1  0.16755231  0.49643958  0.10499610  1
  B  B99  1  0.16755231  0.49643958  0.60499610  1
  B  B100  1  0.16755231  0.74643958  0.10499610  1
  B  B101  1  0.16755231  0.74643958  0.60499610  1
  B  B102  1  0.16755231  0.99643958  0.10499610  1
  B  B103  1  0.16755231  0.99643958  0.60499610  1
  B  B104  1  0.66755231  0.24643958  0.10499610  1
  B  B105  1  0.66755231  0.24643958  0.60499610  1
  B  B106  1  0.66755231  0.49643958  0.10499610  1
  B  B107  1  0.66755231  0.49643958  0.60499610  1
  B  B108  1  0.66755231  0.74643958  0.10499610  1
  B  B109  1  0.66755231  0.74643958  0.60499610  1
  B  B110  1  0.66755231  0.99643958  0.10499610  1
  B  B111  1  0.66755231  0.99643958  0.60499610  1
  B  B112  1  0.08244769  0.00356042  0.35499610  1
  B  B113  1  0.08244769  0.00356042  0.85499610  1
  B  B114  1  0.08244769  0.25356042  0.35499610  1
  B  B115  1  0.08244769  0.25356042  0.85499610  1
  B  B116  1  0.08244769  0.50356042  0.35499610  1
  B  B117  1  0.08244769  0.50356042  0.85499610  1
  B  B118  1  0.08244769  0.75356042  0.35499610  1
  B  B119  1  0.08244769  0.75356042  0.85499610  1
  B  B120  1  0.58244769  0.00356042  0.35499610  1
  B  B121  1  0.58244769  0.00356042  0.85499610  1
  B  B122  1  0.58244769  0.25356042  0.35499610  1
  B  B123  1  0.58244769  0.25356042  0.85499610  1
  B  B124  1  0.58244769  0.50356042  0.35499610  1
  B  B125  1  0.58244769  0.50356042  0.85499610  1
  B  B126  1  0.58244769  0.75356042  0.35499610  1
  B  B127  1  0.58244769  0.75356042  0.85499610  1
  O  O128  1  0.34038353  0.02598053  0.17146311  1
  O  O129  1  0.34038353  0.02598053  0.67146311  1
  O  O130  1  0.34038353  0.27598053  0.17146311  1
  O  O131  1  0.34038353  0.27598053  0.67146311  1
  O  O132  1  0.34038353  0.52598053  0.17146311  1
  O  O133  1  0.34038353  0.52598053  0.67146311  1
  O  O134  1  0.34038353  0.77598053  0.17146311  1
  O  O135  1  0.34038353  0.77598053  0.67146311  1
  O  O136  1  0.84038353  0.02598053  0.17146311  1
  O  O137  1  0.84038353  0.02598053  0.67146311  1
  O  O138  1  0.84038353  0.27598053  0.17146311  1
  O  O139  1  0.84038353  0.27598053  0.67146311  1
  O  O140  1  0.84038353  0.52598053  0.17146311  1
  O  O141  1  0.84038353  0.52598053  0.67146311  1
  O  O142  1  0.84038353  0.77598053  0.17146311  1
  O  O143  1  0.84038353  0.77598053  0.67146311  1
  O  O144  1  0.40961647  0.22401947  0.42146311  1
  O  O145  1  0.40961647  0.22401947  0.92146311  1
  O  O146  1  0.40961647  0.47401947  0.42146311  1
  O  O147  1  0.40961647  0.47401947  0.92146311  1
  O  O148  1  0.40961647  0.72401947  0.42146311  1
  O  O149  1  0.40961647  0.72401947  0.92146311  1
  O  O150  1  0.40961647  0.97401947  0.42146311  1
  O  O151  1  0.40961647  0.97401947  0.92146311  1
  O  O152  1  0.90961647  0.22401947  0.42146311  1
  O  O153  1  0.90961647  0.22401947  0.92146311  1
  O  O154  1  0.90961647  0.47401947  0.42146311  1
  O  O155  1  0.90961647  0.47401947  0.92146311  1
  O  O156  1  0.90961647  0.72401947  0.42146311  1
  O  O157  1  0.90961647  0.72401947  0.92146311  1
  O  O158  1  0.90961647  0.97401947  0.42146311  1
  O  O159  1  0.90961647  0.97401947  0.92146311  1
  O  O160  1  0.09038353  0.22401947  0.42146311  1
  O  O161  1  0.09038353  0.22401947  0.92146311  1
  O  O162  1  0.09038353  0.47401947  0.42146311  1
  O  O163  1  0.09038353  0.47401947  0.92146311  1
  O  O164  1  0.09038353  0.72401947  0.42146311  1
  O  O165  1  0.09038353  0.72401947  0.92146311  1
  O  O166  1  0.09038353  0.97401947  0.42146311  1
  O  O167  1  0.09038353  0.97401947  0.92146311  1
  O  O168  1  0.59038353  0.22401947  0.42146311  1
  O  O169  1  0.59038353  0.22401947  0.92146311  1
  O  O170  1  0.59038353  0.47401947  0.42146311  1
  O  O171  1  0.59038353  0.47401947  0.92146311  1
  O  O172  1  0.59038353  0.72401947  0.42146311  1
  O  O173  1  0.59038353  0.72401947  0.92146311  1
  O  O174  1  0.59038353  0.97401947  0.42146311  1
  O  O175  1  0.59038353  0.97401947  0.92146311  1
  O  O176  1  0.15961647  0.02598053  0.17146311  1
  O  O177  1  0.15961647  0.02598053  0.67146311  1
  O  O178  1  0.15961647  0.27598053  0.17146311  1
  O  O179  1  0.15961647  0.27598053  0.67146311  1
  O  O180  1  0.15961647  0.52598053  0.17146311  1
  O  O181  1  0.15961647  0.52598053  0.67146311  1
  O  O182  1  0.15961647  0.77598053  0.17146311  1
  O  O183  1  0.15961647  0.77598053  0.67146311  1
  O  O184  1  0.65961647  0.02598053  0.17146311  1
  O  O185  1  0.65961647  0.02598053  0.67146311  1
  O  O186  1  0.65961647  0.27598053  0.17146311  1
  O  O187  1  0.65961647  0.27598053  0.67146311  1
  O  O188  1  0.65961647  0.52598053  0.17146311  1
  O  O189  1  0.65961647  0.52598053  0.67146311  1
  O  O190  1  0.65961647  0.77598053  0.17146311  1
  O  O191  1  0.65961647  0.77598053  0.67146311  1
  O  O192  1  0.25000000  0.23970363  0.07096351  1
  O  O193  1  0.25000000  0.23970363  0.57096351  1
  O  O194  1  0.25000000  0.48970363  0.07096351  1
  O  O195  1  0.25000000  0.48970363  0.57096351  1
  O  O196  1  0.25000000  0.73970363  0.07096351  1
  O  O197  1  0.25000000  0.73970363  0.57096351  1
  O  O198  1  0.25000000  0.98970363  0.07096351  1
  O  O199  1  0.25000000  0.98970363  0.57096351  1
  O  O200  1  0.75000000  0.23970363  0.07096351  1
  O  O201  1  0.75000000  0.23970363  0.57096351  1
  O  O202  1  0.75000000  0.48970363  0.07096351  1
  O  O203  1  0.75000000  0.48970363  0.57096351  1
  O  O204  1  0.75000000  0.73970363  0.07096351  1
  O  O205  1  0.75000000  0.73970363  0.57096351  1
  O  O206  1  0.75000000  0.98970363  0.07096351  1
  O  O207  1  0.75000000  0.98970363  0.57096351  1
  O  O208  1  0.00000000  0.01029637  0.32096351  1
  O  O209  1  0.00000000  0.01029637  0.82096351  1
  O  O210  1  0.00000000  0.26029637  0.32096351  1
  O  O211  1  0.00000000  0.26029637  0.82096351  1
  O  O212  1  0.00000000  0.51029637  0.32096351  1
  O  O213  1  0.00000000  0.51029637  0.82096351  1
  O  O214  1  0.00000000  0.76029637  0.32096351  1
  O  O215  1  0.00000000  0.76029637  0.82096351  1
  O  O216  1  0.50000000  0.01029637  0.32096351  1
  O  O217  1  0.50000000  0.01029637  0.82096351  1
  O  O218  1  0.50000000  0.26029637  0.32096351  1
  O  O219  1  0.50000000  0.26029637  0.82096351  1
  O  O220  1  0.50000000  0.51029637  0.32096351  1
  O  O221  1  0.50000000  0.51029637  0.82096351  1
  O  O222  1  0.50000000  0.76029637  0.32096351  1
  O  O223  1  0.50000000  0.76029637  0.82096351  1
  O  O224  1  0.25000000  0.15510867  0.24904240  1
  O  O225  1  0.25000000  0.15510867  0.74904240  1
  O  O226  1  0.25000000  0.40510867  0.24904240  1
  O  O227  1  0.25000000  0.40510867  0.74904240  1
  O  O228  1  0.25000000  0.65510867  0.24904240  1
  O  O229  1  0.25000000  0.65510867  0.74904240  1
  O  O230  1  0.25000000  0.90510867  0.24904240  1
  O  O231  1  0.25000000  0.90510867  0.74904240  1
  O  O232  1  0.75000000  0.15510867  0.24904240  1
  O  O233  1  0.75000000  0.15510867  0.74904240  1
  O  O234  1  0.75000000  0.40510867  0.24904240  1
  O  O235  1  0.75000000  0.40510867  0.74904240  1
  O  O236  1  0.75000000  0.65510867  0.24904240  1
  O  O237  1  0.75000000  0.65510867  0.74904240  1
  O  O238  1  0.75000000  0.90510867  0.24904240  1
  O  O239  1  0.75000000  0.90510867  0.74904240  1
  O  O240  1  0.00000000  0.09489133  0.49904240  1
  O  O241  1  0.00000000  0.09489133  0.99904240  1
  O  O242  1  0.00000000  0.34489133  0.49904240  1
  O  O243  1  0.00000000  0.34489133  0.99904240  1
  O  O244  1  0.00000000  0.59489133  0.49904240  1
  O  O245  1  0.00000000  0.59489133  0.99904240  1
  O  O246  1  0.00000000  0.84489133  0.49904240  1
  O  O247  1  0.00000000  0.84489133  0.99904240  1
  O  O248  1  0.50000000  0.09489133  0.49904240  1
  O  O249  1  0.50000000  0.09489133  0.99904240  1
  O  O250  1  0.50000000  0.34489133  0.49904240  1
  O  O251  1  0.50000000  0.34489133  0.99904240  1
  O  O252  1  0.50000000  0.59489133  0.49904240  1
  O  O253  1  0.50000000  0.59489133  0.99904240  1
  O  O254  1  0.50000000  0.84489133  0.49904240  1
  O  O255  1  0.50000000  0.84489133  0.99904240  1
  O  O256  1  0.34515405  0.02988449  0.31847235  1
  O  O257  1  0.34515405  0.02988449  0.81847235  1
  O  O258  1  0.34515405  0.27988449  0.31847235  1
  O  O259  1  0.34515405  0.27988449  0.81847235  1
  O  O260  1  0.34515405  0.52988449  0.31847235  1
  O  O261  1  0.34515405  0.52988449  0.81847235  1
  O  O262  1  0.34515405  0.77988449  0.31847235  1
  O  O263  1  0.34515405  0.77988449  0.81847235  1
  O  O264  1  0.84515405  0.02988449  0.31847235  1
  O  O265  1  0.84515405  0.02988449  0.81847235  1
  O  O266  1  0.84515405  0.27988449  0.31847235  1
  O  O267  1  0.84515405  0.27988449  0.81847235  1
  O  O268  1  0.84515405  0.52988449  0.31847235  1
  O  O269  1  0.84515405  0.52988449  0.81847235  1
  O  O270  1  0.84515405  0.77988449  0.31847235  1
  O  O271  1  0.84515405  0.77988449  0.81847235  1
  O  O272  1  0.40484595  0.22011551  0.06847235  1
  O  O273  1  0.40484595  0.22011551  0.56847235  1
  O  O274  1  0.40484595  0.47011551  0.06847235  1
  O  O275  1  0.40484595  0.47011551  0.56847235  1
  O  O276  1  0.40484595  0.72011551  0.06847235  1
  O  O277  1  0.40484595  0.72011551  0.56847235  1
  O  O278  1  0.40484595  0.97011551  0.06847235  1
  O  O279  1  0.40484595  0.97011551  0.56847235  1
  O  O280  1  0.90484595  0.22011551  0.06847235  1
  O  O281  1  0.90484595  0.22011551  0.56847235  1
  O  O282  1  0.90484595  0.47011551  0.06847235  1
  O  O283  1  0.90484595  0.47011551  0.56847235  1
  O  O284  1  0.90484595  0.72011551  0.06847235  1
  O  O285  1  0.90484595  0.72011551  0.56847235  1
  O  O286  1  0.90484595  0.97011551  0.06847235  1
  O  O287  1  0.90484595  0.97011551  0.56847235  1
  O  O288  1  0.09515405  0.22011551  0.06847235  1
  O  O289  1  0.09515405  0.22011551  0.56847235  1
  O  O290  1  0.09515405  0.47011551  0.06847235  1
  O  O291  1  0.09515405  0.47011551  0.56847235  1
  O  O292  1  0.09515405  0.72011551  0.06847235  1
  O  O293  1  0.09515405  0.72011551  0.56847235  1
  O  O294  1  0.09515405  0.97011551  0.06847235  1
  O  O295  1  0.09515405  0.97011551  0.56847235  1
  O  O296  1  0.59515405  0.22011551  0.06847235  1
  O  O297  1  0.59515405  0.22011551  0.56847235  1
  O  O298  1  0.59515405  0.47011551  0.06847235  1
  O  O299  1  0.59515405  0.47011551  0.56847235  1
  O  O300  1  0.59515405  0.72011551  0.06847235  1
  O  O301  1  0.59515405  0.72011551  0.56847235  1
  O  O302  1  0.59515405  0.97011551  0.06847235  1
  O  O303  1  0.59515405  0.97011551  0.56847235  1
  O  O304  1  0.15484595  0.02988449  0.31847235  1
  O  O305  1  0.15484595  0.02988449  0.81847235  1
  O  O306  1  0.15484595  0.27988449  0.31847235  1
  O  O307  1  0.15484595  0.27988449  0.81847235  1
  O  O308  1  0.15484595  0.52988449  0.31847235  1
  O  O309  1  0.15484595  0.52988449  0.81847235  1
  O  O310  1  0.15484595  0.77988449  0.31847235  1
  O  O311  1  0.15484595  0.77988449  0.81847235  1
  O  O312  1  0.65484595  0.02988449  0.31847235  1
  O  O313  1  0.65484595  0.02988449  0.81847235  1
  O  O314  1  0.65484595  0.27988449  0.31847235  1
  O  O315  1  0.65484595  0.27988449  0.81847235  1
  O  O316  1  0.65484595  0.52988449  0.31847235  1
  O  O317  1  0.65484595  0.52988449  0.81847235  1
  O  O318  1  0.65484595  0.77988449  0.31847235  1
  O  O319  1  0.65484595  0.77988449  0.81847235  1
