# generated using pymatgen
data_CaMgSiO4
_symmetry_space_group_name_H-M   'P 1'
_cell_length_a   11.06445674
_cell_length_b   12.69422199
_cell_length_c   14.46266463
_cell_angle_alpha   90.00000000
_cell_angle_beta   90.00000000
_cell_angle_gamma   90.00000000
_symmetry_Int_Tables_number   1
_chemical_formula_structural   CaMgSiO4
_chemical_formula_sum   'Ca24 Mg24 Si24 O96'
_cell_volume   2031.34878790
_cell_formula_units_Z   24
loop_
 _symmetry_equiv_pos_site_id
 _symmetry_equiv_pos_as_xyz
  1  'x, y, z'
loop_
 _atom_site_type_symbol
 _atom_site_label
 _atom_site_symmetry_multiplicity
 _atom_site_fract_x
 _atom_site_fract_y
 _atom_site_fract_z
 _atom_site_occupancy
  Ca  Ca0  1  0.72381573  0.37500000  0.00663517  1
  Ca  Ca1  1  0.72381573  0.37500000  0.33996851  1
  Ca  Ca2  1  0.72381573  0.37500000  0.67330184  1
  Ca  Ca3  1  0.72381573  0.87500000  0.00663517  1
  Ca  Ca4  1  0.72381573  0.87500000  0.33996851  1
  Ca  Ca5  1  0.72381573  0.87500000  0.67330184  1
  Ca  Ca6  1  0.27618427  0.12500000  0.32669816  1
  Ca  Ca7  1  0.27618427  0.12500000  0.66003149  1
  Ca  Ca8  1  0.27618427  0.12500000  0.99336483  1
  Ca  Ca9  1  0.27618427  0.62500000  0.32669816  1
  Ca  Ca10  1  0.27618427  0.62500000  0.66003149  1
  Ca  Ca11  1  0.27618427  0.62500000  0.99336483  1
  Ca  Ca12  1  0.22381573  0.37500000  0.16003149  1
  Ca  Ca13  1  0.22381573  0.37500000  0.49336483  1
  Ca  Ca14  1  0.22381573  0.37500000  0.82669816  1
  Ca  Ca15  1  0.22381573  0.87500000  0.16003149  1
  Ca  Ca16  1  0.22381573  0.87500000  0.49336483  1
  Ca  Ca17  1  0.22381573  0.87500000  0.82669816  1
  Ca  Ca18  1  0.77618427  0.12500000  0.17330184  1
  Ca  Ca19  1  0.77618427  0.12500000  0.50663517  1
  Ca  Ca20  1  0.77618427  0.12500000  0.83996851  1
  Ca  Ca21  1  0.77618427  0.62500000  0.17330184  1
  Ca  Ca22  1  0.77618427  0.62500000  0.50663517  1
  Ca  Ca23  1  0.77618427  0.62500000  0.83996851  1
  Mg  Mg24  1  0.00000000  0.00000000  0.00000000  1
  Mg  Mg25  1  0.00000000  0.00000000  0.33333333  1
  Mg  Mg26  1  0.00000000  0.00000000  0.66666667  1
  Mg  Mg27  1  0.00000000  0.50000000  0.00000000  1
  Mg  Mg28  1  0.00000000  0.50000000  0.33333333  1
  Mg  Mg29  1  0.00000000  0.50000000  0.66666667  1
  Mg  Mg30  1  0.00000000  0.25000000  0.00000000  1
  Mg  Mg31  1  0.00000000  0.25000000  0.33333333  1
  Mg  Mg32  1  0.00000000  0.25000000  0.66666667  1
  Mg  Mg33  1  0.00000000  0.75000000  0.00000000  1
  Mg  Mg34  1  0.00000000  0.75000000  0.33333333  1
  Mg  Mg35  1  0.00000000  0.75000000  0.66666667  1
  Mg  Mg36  1  0.50000000  0.00000000  0.16666667  1
  Mg  Mg37  1  0.50000000  0.00000000  0.50000000  1
  Mg  Mg38  1  0.50000000  0.00000000  0.83333333  1
  Mg  Mg39  1  0.50000000  0.50000000  0.16666667  1
  Mg  Mg40  1  0.50000000  0.50000000  0.50000000  1
  Mg  Mg41  1  0.50000000  0.50000000  0.83333333  1
  Mg  Mg42  1  0.50000000  0.25000000  0.16666667  1
  Mg  Mg43  1  0.50000000  0.25000000  0.50000000  1
  Mg  Mg44  1  0.50000000  0.25000000  0.83333333  1
  Mg  Mg45  1  0.50000000  0.75000000  0.16666667  1
  Mg  Mg46  1  0.50000000  0.75000000  0.50000000  1
  Mg  Mg47  1  0.50000000  0.75000000  0.83333333  1
  Si  Si48  1  0.58092217  0.12500000  0.02901192  1
  Si  Si49  1  0.58092217  0.12500000  0.36234525  1
  Si  Si50  1  0.58092217  0.12500000  0.69567858  1
  Si  Si51  1  0.58092217  0.62500000  0.02901192  1
  Si  Si52  1  0.58092217  0.62500000  0.36234525  1
  Si  Si53  1  0.58092217  0.62500000  0.69567858  1
  Si  Si54  1  0.08092217  0.12500000  0.13765475  1
  Si  Si55  1  0.08092217  0.12500000  0.47098808  1
  Si  Si56  1  0.08092217  0.12500000  0.80432142  1
  Si  Si57  1  0.08092217  0.62500000  0.13765475  1
  Si  Si58  1  0.08092217  0.62500000  0.47098808  1
  Si  Si59  1  0.08092217  0.62500000  0.80432142  1
  Si  Si60  1  0.41907783  0.37500000  0.30432142  1
  Si  Si61  1  0.41907783  0.37500000  0.63765475  1
  Si  Si62  1  0.41907783  0.37500000  0.97098808  1
  Si  Si63  1  0.41907783  0.87500000  0.30432142  1
  Si  Si64  1  0.41907783  0.87500000  0.63765475  1
  Si  Si65  1  0.41907783  0.87500000  0.97098808  1
  Si  Si66  1  0.91907783  0.37500000  0.19567858  1
  Si  Si67  1  0.91907783  0.37500000  0.52901192  1
  Si  Si68  1  0.91907783  0.37500000  0.86234525  1
  Si  Si69  1  0.91907783  0.87500000  0.19567858  1
  Si  Si70  1  0.91907783  0.87500000  0.52901192  1
  Si  Si71  1  0.91907783  0.87500000  0.86234525  1
  O  O72  1  0.64779571  0.22844464  0.07572698  1
  O  O73  1  0.64779571  0.22844464  0.40906031  1
  O  O74  1  0.64779571  0.22844464  0.74239365  1
  O  O75  1  0.64779571  0.72844464  0.07572698  1
  O  O76  1  0.64779571  0.72844464  0.40906031  1
  O  O77  1  0.64779571  0.72844464  0.74239365  1
  O  O78  1  0.85220429  0.27155536  0.24239365  1
  O  O79  1  0.85220429  0.27155536  0.57572698  1
  O  O80  1  0.85220429  0.27155536  0.90906031  1
  O  O81  1  0.85220429  0.77155536  0.24239365  1
  O  O82  1  0.85220429  0.77155536  0.57572698  1
  O  O83  1  0.85220429  0.77155536  0.90906031  1
  O  O84  1  0.35220429  0.47844464  0.25760635  1
  O  O85  1  0.35220429  0.47844464  0.59093969  1
  O  O86  1  0.35220429  0.47844464  0.92427302  1
  O  O87  1  0.35220429  0.97844464  0.25760635  1
  O  O88  1  0.35220429  0.97844464  0.59093969  1
  O  O89  1  0.35220429  0.97844464  0.92427302  1
  O  O90  1  0.14779571  0.02155536  0.09093969  1
  O  O91  1  0.14779571  0.02155536  0.42427302  1
  O  O92  1  0.14779571  0.02155536  0.75760635  1
  O  O93  1  0.14779571  0.52155536  0.09093969  1
  O  O94  1  0.14779571  0.52155536  0.42427302  1
  O  O95  1  0.14779571  0.52155536  0.75760635  1
  O  O96  1  0.35220429  0.27155536  0.25760635  1
  O  O97  1  0.35220429  0.27155536  0.59093969  1
  O  O98  1  0.35220429  0.27155536  0.92427302  1
  O  O99  1  0.35220429  0.77155536  0.25760635  1
  O  O100  1  0.35220429  0.77155536  0.59093969  1
  O  O101  1  0.35220429  0.77155536  0.92427302  1
  O  O102  1  0.14779571  0.22844464  0.09093969  1
  O  O103  1  0.14779571  0.22844464  0.42427302  1
  O  O104  1  0.14779571  0.22844464  0.75760635  1
  O  O105  1  0.14779571  0.72844464  0.09093969  1
  O  O106  1  0.14779571  0.72844464  0.42427302  1
  O  O107  1  0.14779571  0.72844464  0.75760635  1
  O  O108  1  0.64779571  0.02155536  0.07572698  1
  O  O109  1  0.64779571  0.02155536  0.40906031  1
  O  O110  1  0.64779571  0.02155536  0.74239365  1
  O  O111  1  0.64779571  0.52155536  0.07572698  1
  O  O112  1  0.64779571  0.52155536  0.40906031  1
  O  O113  1  0.64779571  0.52155536  0.74239365  1
  O  O114  1  0.85220429  0.47844464  0.24239365  1
  O  O115  1  0.85220429  0.47844464  0.57572698  1
  O  O116  1  0.85220429  0.47844464  0.90906031  1
  O  O117  1  0.85220429  0.97844464  0.24239365  1
  O  O118  1  0.85220429  0.97844464  0.57572698  1
  O  O119  1  0.85220429  0.97844464  0.90906031  1
  O  O120  1  0.05266692  0.37500000  0.24896588  1
  O  O121  1  0.05266692  0.37500000  0.58229921  1
  O  O122  1  0.05266692  0.37500000  0.91563254  1
  O  O123  1  0.05266692  0.87500000  0.24896588  1
  O  O124  1  0.05266692  0.87500000  0.58229921  1
  O  O125  1  0.05266692  0.87500000  0.91563254  1
  O  O126  1  0.44733308  0.12500000  0.08229921  1
  O  O127  1  0.44733308  0.12500000  0.41563254  1
  O  O128  1  0.44733308  0.12500000  0.74896588  1
  O  O129  1  0.44733308  0.62500000  0.08229921  1
  O  O130  1  0.44733308  0.62500000  0.41563254  1
  O  O131  1  0.44733308  0.62500000  0.74896588  1
  O  O132  1  0.94733308  0.12500000  0.08436746  1
  O  O133  1  0.94733308  0.12500000  0.41770079  1
  O  O134  1  0.94733308  0.12500000  0.75103412  1
  O  O135  1  0.94733308  0.62500000  0.08436746  1
  O  O136  1  0.94733308  0.62500000  0.41770079  1
  O  O137  1  0.94733308  0.62500000  0.75103412  1
  O  O138  1  0.55266692  0.37500000  0.25103412  1
  O  O139  1  0.55266692  0.37500000  0.58436746  1
  O  O140  1  0.55266692  0.37500000  0.91770079  1
  O  O141  1  0.55266692  0.87500000  0.25103412  1
  O  O142  1  0.55266692  0.87500000  0.58436746  1
  O  O143  1  0.55266692  0.87500000  0.91770079  1
  O  O144  1  0.92252997  0.37500000  0.08304982  1
  O  O145  1  0.92252997  0.37500000  0.41638315  1
  O  O146  1  0.92252997  0.37500000  0.74971649  1
  O  O147  1  0.92252997  0.87500000  0.08304982  1
  O  O148  1  0.92252997  0.87500000  0.41638315  1
  O  O149  1  0.92252997  0.87500000  0.74971649  1
  O  O150  1  0.57747003  0.12500000  0.24971649  1
  O  O151  1  0.57747003  0.12500000  0.58304982  1
  O  O152  1  0.57747003  0.12500000  0.91638315  1
  O  O153  1  0.57747003  0.62500000  0.24971649  1
  O  O154  1  0.57747003  0.62500000  0.58304982  1
  O  O155  1  0.57747003  0.62500000  0.91638315  1
  O  O156  1  0.07747003  0.12500000  0.25028351  1
  O  O157  1  0.07747003  0.12500000  0.58361685  1
  O  O158  1  0.07747003  0.12500000  0.91695018  1
  O  O159  1  0.07747003  0.62500000  0.25028351  1
  O  O160  1  0.07747003  0.62500000  0.58361685  1
  O  O161  1  0.07747003  0.62500000  0.91695018  1
  O  O162  1  0.42252997  0.37500000  0.08361685  1
  O  O163  1  0.42252997  0.37500000  0.41695018  1
  O  O164  1  0.42252997  0.37500000  0.75028351  1
  O  O165  1  0.42252997  0.87500000  0.08361685  1
  O  O166  1  0.42252997  0.87500000  0.41695018  1
  O  O167  1  0.42252997  0.87500000  0.75028351  1
