# generated using pymatgen
data_Rb4SnO3
_symmetry_space_group_name_H-M   'P 1'
_cell_length_a   19.88928022
_cell_length_b   19.29305338
_cell_length_c   20.74691732
_cell_angle_alpha   90.00000000
_cell_angle_beta   113.63288619
_cell_angle_gamma   90.00000000
_symmetry_Int_Tables_number   1
_chemical_formula_structural   Rb4SnO3
_chemical_formula_sum   'Rb144 Sn36 O108'
_cell_volume   7293.43364203
_cell_formula_units_Z   36
loop_
 _symmetry_equiv_pos_site_id
 _symmetry_equiv_pos_as_xyz
  1  'x, y, z'
loop_
 _atom_site_type_symbol
 _atom_site_label
 _atom_site_symmetry_multiplicity
 _atom_site_fract_x
 _atom_site_fract_y
 _atom_site_fract_z
 _atom_site_occupancy
  Rb  Rb0  1  0.18624965  -0.15681511  0.06433316  1
  Rb  Rb1  1  0.18624965  -0.15681511  0.39766649  1
  Rb  Rb2  1  0.18624965  -0.15681511  0.73099982  1
  Rb  Rb3  1  0.51958299  -0.15681511  0.06433316  1
  Rb  Rb4  1  0.51958299  -0.15681511  0.39766649  1
  Rb  Rb5  1  0.51958299  -0.15681511  0.73099982  1
  Rb  Rb6  1  0.85291632  -0.15681511  0.06433316  1
  Rb  Rb7  1  0.85291632  -0.15681511  0.39766649  1
  Rb  Rb8  1  0.85291632  -0.15681511  0.73099982  1
  Rb  Rb9  1  0.35291632  0.34318489  0.06433316  1
  Rb  Rb10  1  0.35291632  0.34318489  0.39766649  1
  Rb  Rb11  1  0.35291632  0.34318489  0.73099982  1
  Rb  Rb12  1  0.68624965  0.34318489  0.06433316  1
  Rb  Rb13  1  0.68624965  0.34318489  0.39766649  1
  Rb  Rb14  1  0.68624965  0.34318489  0.73099982  1
  Rb  Rb15  1  1.01958299  0.34318489  0.06433316  1
  Rb  Rb16  1  1.01958299  0.34318489  0.39766649  1
  Rb  Rb17  1  1.01958299  0.34318489  0.73099982  1
  Rb  Rb18  1  0.17184279  0.02881714  0.09200436  1
  Rb  Rb19  1  0.17184279  0.02881714  0.42533769  1
  Rb  Rb20  1  0.17184279  0.02881714  0.75867103  1
  Rb  Rb21  1  0.50517612  0.02881714  0.09200436  1
  Rb  Rb22  1  0.50517612  0.02881714  0.42533769  1
  Rb  Rb23  1  0.50517612  0.02881714  0.75867103  1
  Rb  Rb24  1  0.83850945  0.02881714  0.09200436  1
  Rb  Rb25  1  0.83850945  0.02881714  0.42533769  1
  Rb  Rb26  1  0.83850945  0.02881714  0.75867103  1
  Rb  Rb27  1  0.33850945  0.52881714  0.09200436  1
  Rb  Rb28  1  0.33850945  0.52881714  0.42533769  1
  Rb  Rb29  1  0.33850945  0.52881714  0.75867103  1
  Rb  Rb30  1  0.67184279  0.52881714  0.09200436  1
  Rb  Rb31  1  0.67184279  0.52881714  0.42533769  1
  Rb  Rb32  1  0.67184279  0.52881714  0.75867103  1
  Rb  Rb33  1  1.00517612  0.52881714  0.09200436  1
  Rb  Rb34  1  1.00517612  0.52881714  0.42533769  1
  Rb  Rb35  1  1.00517612  0.52881714  0.75867103  1
  Rb  Rb36  1  0.17097397  0.45142237  0.08425375  1
  Rb  Rb37  1  0.17097397  0.45142237  0.41758708  1
  Rb  Rb38  1  0.17097397  0.45142237  0.75092042  1
  Rb  Rb39  1  0.50430731  0.45142237  0.08425375  1
  Rb  Rb40  1  0.50430731  0.45142237  0.41758708  1
  Rb  Rb41  1  0.50430731  0.45142237  0.75092042  1
  Rb  Rb42  1  0.83764064  0.45142237  0.08425375  1
  Rb  Rb43  1  0.83764064  0.45142237  0.41758708  1
  Rb  Rb44  1  0.83764064  0.45142237  0.75092042  1
  Rb  Rb45  1  0.33764064  0.95142237  0.08425375  1
  Rb  Rb46  1  0.33764064  0.95142237  0.41758708  1
  Rb  Rb47  1  0.33764064  0.95142237  0.75092042  1
  Rb  Rb48  1  0.67097397  0.95142237  0.08425375  1
  Rb  Rb49  1  0.67097397  0.95142237  0.41758708  1
  Rb  Rb50  1  0.67097397  0.95142237  0.75092042  1
  Rb  Rb51  1  1.00430731  0.95142237  0.08425375  1
  Rb  Rb52  1  1.00430731  0.95142237  0.41758708  1
  Rb  Rb53  1  1.00430731  0.95142237  0.75092042  1
  Rb  Rb54  1  0.15093104  0.21680660  0.04619523  1
  Rb  Rb55  1  0.15093104  0.21680660  0.37952857  1
  Rb  Rb56  1  0.15093104  0.21680660  0.71286190  1
  Rb  Rb57  1  0.48426437  0.21680660  0.04619523  1
  Rb  Rb58  1  0.48426437  0.21680660  0.37952857  1
  Rb  Rb59  1  0.48426437  0.21680660  0.71286190  1
  Rb  Rb60  1  0.81759771  0.21680660  0.04619523  1
  Rb  Rb61  1  0.81759771  0.21680660  0.37952857  1
  Rb  Rb62  1  0.81759771  0.21680660  0.71286190  1
  Rb  Rb63  1  0.31759771  0.71680660  0.04619523  1
  Rb  Rb64  1  0.31759771  0.71680660  0.37952857  1
  Rb  Rb65  1  0.31759771  0.71680660  0.71286190  1
  Rb  Rb66  1  0.65093104  0.71680660  0.04619523  1
  Rb  Rb67  1  0.65093104  0.71680660  0.37952857  1
  Rb  Rb68  1  0.65093104  0.71680660  0.71286190  1
  Rb  Rb69  1  0.98426437  0.71680660  0.04619523  1
  Rb  Rb70  1  0.98426437  0.71680660  0.37952857  1
  Rb  Rb71  1  0.98426437  0.71680660  0.71286190  1
  Rb  Rb72  1  0.18624965  0.15681511  0.23099982  1
  Rb  Rb73  1  0.18624965  0.15681511  0.56433316  1
  Rb  Rb74  1  0.18624965  0.15681511  0.89766649  1
  Rb  Rb75  1  0.51958299  0.15681511  0.23099982  1
  Rb  Rb76  1  0.51958299  0.15681511  0.56433316  1
  Rb  Rb77  1  0.51958299  0.15681511  0.89766649  1
  Rb  Rb78  1  0.85291632  0.15681511  0.23099982  1
  Rb  Rb79  1  0.85291632  0.15681511  0.56433316  1
  Rb  Rb80  1  0.85291632  0.15681511  0.89766649  1
  Rb  Rb81  1  0.35291632  0.65681511  0.23099982  1
  Rb  Rb82  1  0.35291632  0.65681511  0.56433316  1
  Rb  Rb83  1  0.35291632  0.65681511  0.89766649  1
  Rb  Rb84  1  0.68624965  0.65681511  0.23099982  1
  Rb  Rb85  1  0.68624965  0.65681511  0.56433316  1
  Rb  Rb86  1  0.68624965  0.65681511  0.89766649  1
  Rb  Rb87  1  1.01958299  0.65681511  0.23099982  1
  Rb  Rb88  1  1.01958299  0.65681511  0.56433316  1
  Rb  Rb89  1  1.01958299  0.65681511  0.89766649  1
  Rb  Rb90  1  0.17184279  -0.02881714  0.25867103  1
  Rb  Rb91  1  0.17184279  -0.02881714  0.59200436  1
  Rb  Rb92  1  0.17184279  -0.02881714  0.92533769  1
  Rb  Rb93  1  0.50517612  -0.02881714  0.25867103  1
  Rb  Rb94  1  0.50517612  -0.02881714  0.59200436  1
  Rb  Rb95  1  0.50517612  -0.02881714  0.92533769  1
  Rb  Rb96  1  0.83850945  -0.02881714  0.25867103  1
  Rb  Rb97  1  0.83850945  -0.02881714  0.59200436  1
  Rb  Rb98  1  0.83850945  -0.02881714  0.92533769  1
  Rb  Rb99  1  0.33850945  0.47118286  0.25867103  1
  Rb  Rb100  1  0.33850945  0.47118286  0.59200436  1
  Rb  Rb101  1  0.33850945  0.47118286  0.92533769  1
  Rb  Rb102  1  0.67184279  0.47118286  0.25867103  1
  Rb  Rb103  1  0.67184279  0.47118286  0.59200436  1
  Rb  Rb104  1  0.67184279  0.47118286  0.92533769  1
  Rb  Rb105  1  1.00517612  0.47118286  0.25867103  1
  Rb  Rb106  1  1.00517612  0.47118286  0.59200436  1
  Rb  Rb107  1  1.00517612  0.47118286  0.92533769  1
  Rb  Rb108  1  0.17097397  -0.45142237  0.25092042  1
  Rb  Rb109  1  0.17097397  -0.45142237  0.58425375  1
  Rb  Rb110  1  0.17097397  -0.45142237  0.91758708  1
  Rb  Rb111  1  0.50430731  -0.45142237  0.25092042  1
  Rb  Rb112  1  0.50430731  -0.45142237  0.58425375  1
  Rb  Rb113  1  0.50430731  -0.45142237  0.91758708  1
  Rb  Rb114  1  0.83764064  -0.45142237  0.25092042  1
  Rb  Rb115  1  0.83764064  -0.45142237  0.58425375  1
  Rb  Rb116  1  0.83764064  -0.45142237  0.91758708  1
  Rb  Rb117  1  0.33764064  0.04857763  0.25092042  1
  Rb  Rb118  1  0.33764064  0.04857763  0.58425375  1
  Rb  Rb119  1  0.33764064  0.04857763  0.91758708  1
  Rb  Rb120  1  0.67097397  0.04857763  0.25092042  1
  Rb  Rb121  1  0.67097397  0.04857763  0.58425375  1
  Rb  Rb122  1  0.67097397  0.04857763  0.91758708  1
  Rb  Rb123  1  1.00430731  0.04857763  0.25092042  1
  Rb  Rb124  1  1.00430731  0.04857763  0.58425375  1
  Rb  Rb125  1  1.00430731  0.04857763  0.91758708  1
  Rb  Rb126  1  0.15093104  -0.21680660  0.21286190  1
  Rb  Rb127  1  0.15093104  -0.21680660  0.54619523  1
  Rb  Rb128  1  0.15093104  -0.21680660  0.87952857  1
  Rb  Rb129  1  0.48426437  -0.21680660  0.21286190  1
  Rb  Rb130  1  0.48426437  -0.21680660  0.54619523  1
  Rb  Rb131  1  0.48426437  -0.21680660  0.87952857  1
  Rb  Rb132  1  0.81759771  -0.21680660  0.21286190  1
  Rb  Rb133  1  0.81759771  -0.21680660  0.54619523  1
  Rb  Rb134  1  0.81759771  -0.21680660  0.87952857  1
  Rb  Rb135  1  0.31759771  0.28319340  0.21286190  1
  Rb  Rb136  1  0.31759771  0.28319340  0.54619523  1
  Rb  Rb137  1  0.31759771  0.28319340  0.87952857  1
  Rb  Rb138  1  0.65093104  0.28319340  0.21286190  1
  Rb  Rb139  1  0.65093104  0.28319340  0.54619523  1
  Rb  Rb140  1  0.65093104  0.28319340  0.87952857  1
  Rb  Rb141  1  0.98426437  0.28319340  0.21286190  1
  Rb  Rb142  1  0.98426437  0.28319340  0.54619523  1
  Rb  Rb143  1  0.98426437  0.28319340  0.87952857  1
  Sn  Sn144  1  0.16034099  -0.36262250  0.09160049  1
  Sn  Sn145  1  0.16034099  -0.36262250  0.42493382  1
  Sn  Sn146  1  0.16034099  -0.36262250  0.75826715  1
  Sn  Sn147  1  0.49367433  -0.36262250  0.09160049  1
  Sn  Sn148  1  0.49367433  -0.36262250  0.42493382  1
  Sn  Sn149  1  0.49367433  -0.36262250  0.75826715  1
  Sn  Sn150  1  0.82700766  -0.36262250  0.09160049  1
  Sn  Sn151  1  0.82700766  -0.36262250  0.42493382  1
  Sn  Sn152  1  0.82700766  -0.36262250  0.75826715  1
  Sn  Sn153  1  0.32700766  0.13737750  0.09160049  1
  Sn  Sn154  1  0.32700766  0.13737750  0.42493382  1
  Sn  Sn155  1  0.32700766  0.13737750  0.75826715  1
  Sn  Sn156  1  0.66034099  0.13737750  0.09160049  1
  Sn  Sn157  1  0.66034099  0.13737750  0.42493382  1
  Sn  Sn158  1  0.66034099  0.13737750  0.75826715  1
  Sn  Sn159  1  0.99367433  0.13737750  0.09160049  1
  Sn  Sn160  1  0.99367433  0.13737750  0.42493382  1
  Sn  Sn161  1  0.99367433  0.13737750  0.75826715  1
  Sn  Sn162  1  0.16034099  0.36262250  0.25826715  1
  Sn  Sn163  1  0.16034099  0.36262250  0.59160049  1
  Sn  Sn164  1  0.16034099  0.36262250  0.92493382  1
  Sn  Sn165  1  0.49367433  0.36262250  0.25826715  1
  Sn  Sn166  1  0.49367433  0.36262250  0.59160049  1
  Sn  Sn167  1  0.49367433  0.36262250  0.92493382  1
  Sn  Sn168  1  0.82700766  0.36262250  0.25826715  1
  Sn  Sn169  1  0.82700766  0.36262250  0.59160049  1
  Sn  Sn170  1  0.82700766  0.36262250  0.92493382  1
  Sn  Sn171  1  0.32700766  0.86262250  0.25826715  1
  Sn  Sn172  1  0.32700766  0.86262250  0.59160049  1
  Sn  Sn173  1  0.32700766  0.86262250  0.92493382  1
  Sn  Sn174  1  0.66034099  0.86262250  0.25826715  1
  Sn  Sn175  1  0.66034099  0.86262250  0.59160049  1
  Sn  Sn176  1  0.66034099  0.86262250  0.92493382  1
  Sn  Sn177  1  0.99367433  0.86262250  0.25826715  1
  Sn  Sn178  1  0.99367433  0.86262250  0.59160049  1
  Sn  Sn179  1  0.99367433  0.86262250  0.92493382  1
  O  O180  1  0.25423154  0.07322434  0.01696539  1
  O  O181  1  0.25423154  0.07322434  0.35029873  1
  O  O182  1  0.25423154  0.07322434  0.68363206  1
  O  O183  1  0.58756488  0.07322434  0.01696539  1
  O  O184  1  0.58756488  0.07322434  0.35029873  1
  O  O185  1  0.58756488  0.07322434  0.68363206  1
  O  O186  1  0.92089821  0.07322434  0.01696539  1
  O  O187  1  0.92089821  0.07322434  0.35029873  1
  O  O188  1  0.92089821  0.07322434  0.68363206  1
  O  O189  1  0.42089821  0.57322434  0.01696539  1
  O  O190  1  0.42089821  0.57322434  0.35029873  1
  O  O191  1  0.42089821  0.57322434  0.68363206  1
  O  O192  1  0.75423154  0.57322434  0.01696539  1
  O  O193  1  0.75423154  0.57322434  0.35029873  1
  O  O194  1  0.75423154  0.57322434  0.68363206  1
  O  O195  1  1.08756488  0.57322434  0.01696539  1
  O  O196  1  1.08756488  0.57322434  0.35029873  1
  O  O197  1  1.08756488  0.57322434  0.68363206  1
  O  O198  1  0.26762560  0.15650404  0.15201453  1
  O  O199  1  0.26762560  0.15650404  0.48534786  1
  O  O200  1  0.26762560  0.15650404  0.81868120  1
  O  O201  1  0.60095893  0.15650404  0.15201453  1
  O  O202  1  0.60095893  0.15650404  0.48534786  1
  O  O203  1  0.60095893  0.15650404  0.81868120  1
  O  O204  1  0.93429227  0.15650404  0.15201453  1
  O  O205  1  0.93429227  0.15650404  0.48534786  1
  O  O206  1  0.93429227  0.15650404  0.81868120  1
  O  O207  1  0.43429227  0.65650404  0.15201453  1
  O  O208  1  0.43429227  0.65650404  0.48534786  1
  O  O209  1  0.43429227  0.65650404  0.81868120  1
  O  O210  1  0.76762560  0.65650404  0.15201453  1
  O  O211  1  0.76762560  0.65650404  0.48534786  1
  O  O212  1  0.76762560  0.65650404  0.81868120  1
  O  O213  1  1.10095893  0.65650404  0.15201453  1
  O  O214  1  1.10095893  0.65650404  0.48534786  1
  O  O215  1  1.10095893  0.65650404  0.81868120  1
  O  O216  1  0.25423154  -0.07322434  0.18363206  1
  O  O217  1  0.25423154  -0.07322434  0.51696539  1
  O  O218  1  0.25423154  -0.07322434  0.85029873  1
  O  O219  1  0.58756488  -0.07322434  0.18363206  1
  O  O220  1  0.58756488  -0.07322434  0.51696539  1
  O  O221  1  0.58756488  -0.07322434  0.85029873  1
  O  O222  1  0.92089821  -0.07322434  0.18363206  1
  O  O223  1  0.92089821  -0.07322434  0.51696539  1
  O  O224  1  0.92089821  -0.07322434  0.85029873  1
  O  O225  1  0.42089821  0.42677566  0.18363206  1
  O  O226  1  0.42089821  0.42677566  0.51696539  1
  O  O227  1  0.42089821  0.42677566  0.85029873  1
  O  O228  1  0.75423154  0.42677566  0.18363206  1
  O  O229  1  0.75423154  0.42677566  0.51696539  1
  O  O230  1  0.75423154  0.42677566  0.85029873  1
  O  O231  1  1.08756488  0.42677566  0.18363206  1
  O  O232  1  1.08756488  0.42677566  0.51696539  1
  O  O233  1  1.08756488  0.42677566  0.85029873  1
  O  O234  1  0.26762560  -0.15650404  0.31868120  1
  O  O235  1  0.26762560  -0.15650404  0.65201453  1
  O  O236  1  0.26762560  -0.15650404  0.98534786  1
  O  O237  1  0.60095893  -0.15650404  0.31868120  1
  O  O238  1  0.60095893  -0.15650404  0.65201453  1
  O  O239  1  0.60095893  -0.15650404  0.98534786  1
  O  O240  1  0.93429227  -0.15650404  0.31868120  1
  O  O241  1  0.93429227  -0.15650404  0.65201453  1
  O  O242  1  0.93429227  -0.15650404  0.98534786  1
  O  O243  1  0.43429227  0.34349596  0.31868120  1
  O  O244  1  0.43429227  0.34349596  0.65201453  1
  O  O245  1  0.43429227  0.34349596  0.98534786  1
  O  O246  1  0.76762560  0.34349596  0.31868120  1
  O  O247  1  0.76762560  0.34349596  0.65201453  1
  O  O248  1  0.76762560  0.34349596  0.98534786  1
  O  O249  1  1.10095893  0.34349596  0.31868120  1
  O  O250  1  1.10095893  0.34349596  0.65201453  1
  O  O251  1  1.10095893  0.34349596  0.98534786  1
  O  O252  1  0.07307558  0.07080204  0.15507109  1
  O  O253  1  0.07307558  0.07080204  0.48840442  1
  O  O254  1  0.07307558  0.07080204  0.82173776  1
  O  O255  1  0.40640891  0.07080204  0.15507109  1
  O  O256  1  0.40640891  0.07080204  0.48840442  1
  O  O257  1  0.40640891  0.07080204  0.82173776  1
  O  O258  1  0.73974224  0.07080204  0.15507109  1
  O  O259  1  0.73974224  0.07080204  0.48840442  1
  O  O260  1  0.73974224  0.07080204  0.82173776  1
  O  O261  1  0.23974224  0.57080204  0.15507109  1
  O  O262  1  0.23974224  0.57080204  0.48840442  1
  O  O263  1  0.23974224  0.57080204  0.82173776  1
  O  O264  1  0.57307558  0.57080204  0.15507109  1
  O  O265  1  0.57307558  0.57080204  0.48840442  1
  O  O266  1  0.57307558  0.57080204  0.82173776  1
  O  O267  1  0.90640891  0.57080204  0.15507109  1
  O  O268  1  0.90640891  0.57080204  0.48840442  1
  O  O269  1  0.90640891  0.57080204  0.82173776  1
  O  O270  1  0.07307558  -0.07080204  0.32173776  1
  O  O271  1  0.07307558  -0.07080204  0.65507109  1
  O  O272  1  0.07307558  -0.07080204  0.98840442  1
  O  O273  1  0.40640891  -0.07080204  0.32173776  1
  O  O274  1  0.40640891  -0.07080204  0.65507109  1
  O  O275  1  0.40640891  -0.07080204  0.98840442  1
  O  O276  1  0.73974224  -0.07080204  0.32173776  1
  O  O277  1  0.73974224  -0.07080204  0.65507109  1
  O  O278  1  0.73974224  -0.07080204  0.98840442  1
  O  O279  1  0.23974224  0.42919796  0.32173776  1
  O  O280  1  0.23974224  0.42919796  0.65507109  1
  O  O281  1  0.23974224  0.42919796  0.98840442  1
  O  O282  1  0.57307558  0.42919796  0.32173776  1
  O  O283  1  0.57307558  0.42919796  0.65507109  1
  O  O284  1  0.57307558  0.42919796  0.98840442  1
  O  O285  1  0.90640891  0.42919796  0.32173776  1
  O  O286  1  0.90640891  0.42919796  0.65507109  1
  O  O287  1  0.90640891  0.42919796  0.98840442  1
