# generated using pymatgen
data_CsLa(WO4)2
_symmetry_space_group_name_H-M   'P 1'
_cell_length_a   21.81237015
_cell_length_b   21.81138837
_cell_length_c   15.28737735
_cell_angle_alpha   90.00000000
_cell_angle_beta   130.12897651
_cell_angle_gamma   90.00000000
_symmetry_Int_Tables_number   1
_chemical_formula_structural   CsLa(WO4)2
_chemical_formula_sum   'Cs32 La32 W64 O256'
_cell_volume   5560.97470798
_cell_formula_units_Z   32
loop_
 _symmetry_equiv_pos_site_id
 _symmetry_equiv_pos_as_xyz
  1  'x, y, z'
loop_
 _atom_site_type_symbol
 _atom_site_label
 _atom_site_symmetry_multiplicity
 _atom_site_fract_x
 _atom_site_fract_y
 _atom_site_fract_z
 _atom_site_occupancy
  Cs  Cs0  1  0.25000000  -0.15131990  0.37500000  1
  Cs  Cs1  1  0.25000000  -0.15131990  0.87500000  1
  Cs  Cs2  1  0.25000000  0.34868010  0.37500000  1
  Cs  Cs3  1  0.25000000  0.34868010  0.87500000  1
  Cs  Cs4  1  0.75000000  -0.15131990  0.37500000  1
  Cs  Cs5  1  0.75000000  -0.15131990  0.87500000  1
  Cs  Cs6  1  0.75000000  0.34868010  0.37500000  1
  Cs  Cs7  1  0.75000000  0.34868010  0.87500000  1
  Cs  Cs8  1  0.50000000  0.09868010  0.37500000  1
  Cs  Cs9  1  0.50000000  0.09868010  0.87500000  1
  Cs  Cs10  1  0.50000000  0.59868010  0.37500000  1
  Cs  Cs11  1  0.50000000  0.59868010  0.87500000  1
  Cs  Cs12  1  1.00000000  0.09868010  0.37500000  1
  Cs  Cs13  1  1.00000000  0.09868010  0.87500000  1
  Cs  Cs14  1  1.00000000  0.59868010  0.37500000  1
  Cs  Cs15  1  1.00000000  0.59868010  0.87500000  1
  Cs  Cs16  1  0.25000000  0.15131990  0.12500000  1
  Cs  Cs17  1  0.25000000  0.15131990  0.62500000  1
  Cs  Cs18  1  0.25000000  0.65131990  0.12500000  1
  Cs  Cs19  1  0.25000000  0.65131990  0.62500000  1
  Cs  Cs20  1  0.75000000  0.15131990  0.12500000  1
  Cs  Cs21  1  0.75000000  0.15131990  0.62500000  1
  Cs  Cs22  1  0.75000000  0.65131990  0.12500000  1
  Cs  Cs23  1  0.75000000  0.65131990  0.62500000  1
  Cs  Cs24  1  0.50000000  0.40131990  0.12500000  1
  Cs  Cs25  1  0.50000000  0.40131990  0.62500000  1
  Cs  Cs26  1  0.50000000  0.90131990  0.12500000  1
  Cs  Cs27  1  0.50000000  0.90131990  0.62500000  1
  Cs  Cs28  1  1.00000000  0.40131990  0.12500000  1
  Cs  Cs29  1  1.00000000  0.40131990  0.62500000  1
  Cs  Cs30  1  1.00000000  0.90131990  0.12500000  1
  Cs  Cs31  1  1.00000000  0.90131990  0.62500000  1
  La  La32  1  0.25000000  0.13651416  0.37500000  1
  La  La33  1  0.25000000  0.13651416  0.87500000  1
  La  La34  1  0.25000000  0.63651416  0.37500000  1
  La  La35  1  0.25000000  0.63651416  0.87500000  1
  La  La36  1  0.75000000  0.13651416  0.37500000  1
  La  La37  1  0.75000000  0.13651416  0.87500000  1
  La  La38  1  0.75000000  0.63651416  0.37500000  1
  La  La39  1  0.75000000  0.63651416  0.87500000  1
  La  La40  1  0.50000000  0.38651416  0.37500000  1
  La  La41  1  0.50000000  0.38651416  0.87500000  1
  La  La42  1  0.50000000  0.88651416  0.37500000  1
  La  La43  1  0.50000000  0.88651416  0.87500000  1
  La  La44  1  1.00000000  0.38651416  0.37500000  1
  La  La45  1  1.00000000  0.38651416  0.87500000  1
  La  La46  1  1.00000000  0.88651416  0.37500000  1
  La  La47  1  1.00000000  0.88651416  0.87500000  1
  La  La48  1  0.25000000  -0.13651416  0.12500000  1
  La  La49  1  0.25000000  -0.13651416  0.62500000  1
  La  La50  1  0.25000000  0.36348584  0.12500000  1
  La  La51  1  0.25000000  0.36348584  0.62500000  1
  La  La52  1  0.75000000  -0.13651416  0.12500000  1
  La  La53  1  0.75000000  -0.13651416  0.62500000  1
  La  La54  1  0.75000000  0.36348584  0.12500000  1
  La  La55  1  0.75000000  0.36348584  0.62500000  1
  La  La56  1  0.50000000  0.11348584  0.12500000  1
  La  La57  1  0.50000000  0.11348584  0.62500000  1
  La  La58  1  0.50000000  0.61348584  0.12500000  1
  La  La59  1  0.50000000  0.61348584  0.62500000  1
  La  La60  1  1.00000000  0.11348584  0.12500000  1
  La  La61  1  1.00000000  0.11348584  0.62500000  1
  La  La62  1  1.00000000  0.61348584  0.12500000  1
  La  La63  1  1.00000000  0.61348584  0.62500000  1
  W  W64  1  0.34484822  0.00188096  0.36288102  1
  W  W65  1  0.34484822  0.00188096  0.86288102  1
  W  W66  1  0.34484822  0.50188096  0.36288102  1
  W  W67  1  0.34484822  0.50188096  0.86288102  1
  W  W68  1  0.84484822  0.00188096  0.36288102  1
  W  W69  1  0.84484822  0.00188096  0.86288102  1
  W  W70  1  0.84484822  0.50188096  0.36288102  1
  W  W71  1  0.84484822  0.50188096  0.86288102  1
  W  W72  1  0.59484822  0.25188096  0.36288102  1
  W  W73  1  0.59484822  0.25188096  0.86288102  1
  W  W74  1  0.59484822  0.75188096  0.36288102  1
  W  W75  1  0.59484822  0.75188096  0.86288102  1
  W  W76  1  1.09484822  0.25188096  0.36288102  1
  W  W77  1  1.09484822  0.25188096  0.86288102  1
  W  W78  1  1.09484822  0.75188096  0.36288102  1
  W  W79  1  1.09484822  0.75188096  0.86288102  1
  W  W80  1  0.15515178  -0.00188096  0.13711898  1
  W  W81  1  0.15515178  -0.00188096  0.63711898  1
  W  W82  1  0.15515178  0.49811904  0.13711898  1
  W  W83  1  0.15515178  0.49811904  0.63711898  1
  W  W84  1  0.65515178  -0.00188096  0.13711898  1
  W  W85  1  0.65515178  -0.00188096  0.63711898  1
  W  W86  1  0.65515178  0.49811904  0.13711898  1
  W  W87  1  0.65515178  0.49811904  0.63711898  1
  W  W88  1  0.40515178  0.24811904  0.13711898  1
  W  W89  1  0.40515178  0.24811904  0.63711898  1
  W  W90  1  0.40515178  0.74811904  0.13711898  1
  W  W91  1  0.40515178  0.74811904  0.63711898  1
  W  W92  1  0.90515178  0.24811904  0.13711898  1
  W  W93  1  0.90515178  0.24811904  0.63711898  1
  W  W94  1  0.90515178  0.74811904  0.13711898  1
  W  W95  1  0.90515178  0.74811904  0.63711898  1
  W  W96  1  0.15515178  0.00188096  0.38711898  1
  W  W97  1  0.15515178  0.00188096  0.88711898  1
  W  W98  1  0.15515178  0.50188096  0.38711898  1
  W  W99  1  0.15515178  0.50188096  0.88711898  1
  W  W100  1  0.65515178  0.00188096  0.38711898  1
  W  W101  1  0.65515178  0.00188096  0.88711898  1
  W  W102  1  0.65515178  0.50188096  0.38711898  1
  W  W103  1  0.65515178  0.50188096  0.88711898  1
  W  W104  1  0.40515178  0.25188096  0.38711898  1
  W  W105  1  0.40515178  0.25188096  0.88711898  1
  W  W106  1  0.40515178  0.75188096  0.38711898  1
  W  W107  1  0.40515178  0.75188096  0.88711898  1
  W  W108  1  0.90515178  0.25188096  0.38711898  1
  W  W109  1  0.90515178  0.25188096  0.88711898  1
  W  W110  1  0.90515178  0.75188096  0.38711898  1
  W  W111  1  0.90515178  0.75188096  0.88711898  1
  W  W112  1  0.34484822  -0.00188096  0.11288102  1
  W  W113  1  0.34484822  -0.00188096  0.61288102  1
  W  W114  1  0.34484822  0.49811904  0.11288102  1
  W  W115  1  0.34484822  0.49811904  0.61288102  1
  W  W116  1  0.84484822  -0.00188096  0.11288102  1
  W  W117  1  0.84484822  -0.00188096  0.61288102  1
  W  W118  1  0.84484822  0.49811904  0.11288102  1
  W  W119  1  0.84484822  0.49811904  0.61288102  1
  W  W120  1  0.59484822  0.24811904  0.11288102  1
  W  W121  1  0.59484822  0.24811904  0.61288102  1
  W  W122  1  0.59484822  0.74811904  0.11288102  1
  W  W123  1  0.59484822  0.74811904  0.61288102  1
  W  W124  1  1.09484822  0.24811904  0.11288102  1
  W  W125  1  1.09484822  0.24811904  0.61288102  1
  W  W126  1  1.09484822  0.74811904  0.11288102  1
  W  W127  1  1.09484822  0.74811904  0.61288102  1
  O  O128  1  0.34206534  -0.03155174  0.46773655  1
  O  O129  1  0.34206534  -0.03155174  0.96773655  1
  O  O130  1  0.34206534  0.46844826  0.46773655  1
  O  O131  1  0.34206534  0.46844826  0.96773655  1
  O  O132  1  0.84206534  -0.03155174  0.46773655  1
  O  O133  1  0.84206534  -0.03155174  0.96773655  1
  O  O134  1  0.84206534  0.46844826  0.46773655  1
  O  O135  1  0.84206534  0.46844826  0.96773655  1
  O  O136  1  0.59206534  0.21844826  0.46773655  1
  O  O137  1  0.59206534  0.21844826  0.96773655  1
  O  O138  1  0.59206534  0.71844826  0.46773655  1
  O  O139  1  0.59206534  0.71844826  0.96773655  1
  O  O140  1  1.09206534  0.21844826  0.46773655  1
  O  O141  1  1.09206534  0.21844826  0.96773655  1
  O  O142  1  1.09206534  0.71844826  0.46773655  1
  O  O143  1  1.09206534  0.71844826  0.96773655  1
  O  O144  1  0.15793466  0.03155174  0.03226345  1
  O  O145  1  0.15793466  0.03155174  0.53226345  1
  O  O146  1  0.15793466  0.53155174  0.03226345  1
  O  O147  1  0.15793466  0.53155174  0.53226345  1
  O  O148  1  0.65793466  0.03155174  0.03226345  1
  O  O149  1  0.65793466  0.03155174  0.53226345  1
  O  O150  1  0.65793466  0.53155174  0.03226345  1
  O  O151  1  0.65793466  0.53155174  0.53226345  1
  O  O152  1  0.40793466  0.28155174  0.03226345  1
  O  O153  1  0.40793466  0.28155174  0.53226345  1
  O  O154  1  0.40793466  0.78155174  0.03226345  1
  O  O155  1  0.40793466  0.78155174  0.53226345  1
  O  O156  1  0.90793466  0.28155174  0.03226345  1
  O  O157  1  0.90793466  0.28155174  0.53226345  1
  O  O158  1  0.90793466  0.78155174  0.03226345  1
  O  O159  1  0.90793466  0.78155174  0.53226345  1
  O  O160  1  0.15793466  -0.03155174  0.28226345  1
  O  O161  1  0.15793466  -0.03155174  0.78226345  1
  O  O162  1  0.15793466  0.46844826  0.28226345  1
  O  O163  1  0.15793466  0.46844826  0.78226345  1
  O  O164  1  0.65793466  -0.03155174  0.28226345  1
  O  O165  1  0.65793466  -0.03155174  0.78226345  1
  O  O166  1  0.65793466  0.46844826  0.28226345  1
  O  O167  1  0.65793466  0.46844826  0.78226345  1
  O  O168  1  0.40793466  0.21844826  0.28226345  1
  O  O169  1  0.40793466  0.21844826  0.78226345  1
  O  O170  1  0.40793466  0.71844826  0.28226345  1
  O  O171  1  0.40793466  0.71844826  0.78226345  1
  O  O172  1  0.90793466  0.21844826  0.28226345  1
  O  O173  1  0.90793466  0.21844826  0.78226345  1
  O  O174  1  0.90793466  0.71844826  0.28226345  1
  O  O175  1  0.90793466  0.71844826  0.78226345  1
  O  O176  1  0.34206534  0.03155174  0.21773655  1
  O  O177  1  0.34206534  0.03155174  0.71773655  1
  O  O178  1  0.34206534  0.53155174  0.21773655  1
  O  O179  1  0.34206534  0.53155174  0.71773655  1
  O  O180  1  0.84206534  0.03155174  0.21773655  1
  O  O181  1  0.84206534  0.03155174  0.71773655  1
  O  O182  1  0.84206534  0.53155174  0.21773655  1
  O  O183  1  0.84206534  0.53155174  0.71773655  1
  O  O184  1  0.59206534  0.28155174  0.21773655  1
  O  O185  1  0.59206534  0.28155174  0.71773655  1
  O  O186  1  0.59206534  0.78155174  0.21773655  1
  O  O187  1  0.59206534  0.78155174  0.71773655  1
  O  O188  1  1.09206534  0.28155174  0.21773655  1
  O  O189  1  1.09206534  0.28155174  0.71773655  1
  O  O190  1  1.09206534  0.78155174  0.21773655  1
  O  O191  1  1.09206534  0.78155174  0.71773655  1
  O  O192  1  0.11603725  0.07800548  0.32033032  1
  O  O193  1  0.11603725  0.07800548  0.82033032  1
  O  O194  1  0.11603725  0.57800548  0.32033032  1
  O  O195  1  0.11603725  0.57800548  0.82033032  1
  O  O196  1  0.61603725  0.07800548  0.32033032  1
  O  O197  1  0.61603725  0.07800548  0.82033032  1
  O  O198  1  0.61603725  0.57800548  0.32033032  1
  O  O199  1  0.61603725  0.57800548  0.82033032  1
  O  O200  1  0.36603725  0.32800548  0.32033032  1
  O  O201  1  0.36603725  0.32800548  0.82033032  1
  O  O202  1  0.36603725  0.82800548  0.32033032  1
  O  O203  1  0.36603725  0.82800548  0.82033032  1
  O  O204  1  0.86603725  0.32800548  0.32033032  1
  O  O205  1  0.86603725  0.32800548  0.82033032  1
  O  O206  1  0.86603725  0.82800548  0.32033032  1
  O  O207  1  0.86603725  0.82800548  0.82033032  1
  O  O208  1  0.38396275  -0.07800548  0.17966968  1
  O  O209  1  0.38396275  -0.07800548  0.67966968  1
  O  O210  1  0.38396275  0.42199452  0.17966968  1
  O  O211  1  0.38396275  0.42199452  0.67966968  1
  O  O212  1  0.88396275  -0.07800548  0.17966968  1
  O  O213  1  0.88396275  -0.07800548  0.67966968  1
  O  O214  1  0.88396275  0.42199452  0.17966968  1
  O  O215  1  0.88396275  0.42199452  0.67966968  1
  O  O216  1  0.63396275  0.17199452  0.17966968  1
  O  O217  1  0.63396275  0.17199452  0.67966968  1
  O  O218  1  0.63396275  0.67199452  0.17966968  1
  O  O219  1  0.63396275  0.67199452  0.67966968  1
  O  O220  1  1.13396275  0.17199452  0.17966968  1
  O  O221  1  1.13396275  0.17199452  0.67966968  1
  O  O222  1  1.13396275  0.67199452  0.17966968  1
  O  O223  1  1.13396275  0.67199452  0.67966968  1
  O  O224  1  0.38396275  0.07800548  0.42966968  1
  O  O225  1  0.38396275  0.07800548  0.92966968  1
  O  O226  1  0.38396275  0.57800548  0.42966968  1
  O  O227  1  0.38396275  0.57800548  0.92966968  1
  O  O228  1  0.88396275  0.07800548  0.42966968  1
  O  O229  1  0.88396275  0.07800548  0.92966968  1
  O  O230  1  0.88396275  0.57800548  0.42966968  1
  O  O231  1  0.88396275  0.57800548  0.92966968  1
  O  O232  1  0.63396275  0.32800548  0.42966968  1
  O  O233  1  0.63396275  0.32800548  0.92966968  1
  O  O234  1  0.63396275  0.82800548  0.42966968  1
  O  O235  1  0.63396275  0.82800548  0.92966968  1
  O  O236  1  1.13396275  0.32800548  0.42966968  1
  O  O237  1  1.13396275  0.32800548  0.92966968  1
  O  O238  1  1.13396275  0.82800548  0.42966968  1
  O  O239  1  1.13396275  0.82800548  0.92966968  1
  O  O240  1  0.11603725  -0.07800548  0.07033032  1
  O  O241  1  0.11603725  -0.07800548  0.57033032  1
  O  O242  1  0.11603725  0.42199452  0.07033032  1
  O  O243  1  0.11603725  0.42199452  0.57033032  1
  O  O244  1  0.61603725  -0.07800548  0.07033032  1
  O  O245  1  0.61603725  -0.07800548  0.57033032  1
  O  O246  1  0.61603725  0.42199452  0.07033032  1
  O  O247  1  0.61603725  0.42199452  0.57033032  1
  O  O248  1  0.36603725  0.17199452  0.07033032  1
  O  O249  1  0.36603725  0.17199452  0.57033032  1
  O  O250  1  0.36603725  0.67199452  0.07033032  1
  O  O251  1  0.36603725  0.67199452  0.57033032  1
  O  O252  1  0.86603725  0.17199452  0.07033032  1
  O  O253  1  0.86603725  0.17199452  0.57033032  1
  O  O254  1  0.86603725  0.67199452  0.07033032  1
  O  O255  1  0.86603725  0.67199452  0.57033032  1
  O  O256  1  0.23850120  0.05223958  0.26258793  1
  O  O257  1  0.23850120  0.05223958  0.76258793  1
  O  O258  1  0.23850120  0.55223958  0.26258793  1
  O  O259  1  0.23850120  0.55223958  0.76258793  1
  O  O260  1  0.73850120  0.05223958  0.26258793  1
  O  O261  1  0.73850120  0.05223958  0.76258793  1
  O  O262  1  0.73850120  0.55223958  0.26258793  1
  O  O263  1  0.73850120  0.55223958  0.76258793  1
  O  O264  1  0.48850120  0.30223958  0.26258793  1
  O  O265  1  0.48850120  0.30223958  0.76258793  1
  O  O266  1  0.48850120  0.80223958  0.26258793  1
  O  O267  1  0.48850120  0.80223958  0.76258793  1
  O  O268  1  0.98850120  0.30223958  0.26258793  1
  O  O269  1  0.98850120  0.30223958  0.76258793  1
  O  O270  1  0.98850120  0.80223958  0.26258793  1
  O  O271  1  0.98850120  0.80223958  0.76258793  1
  O  O272  1  0.26149880  -0.05223958  0.23741207  1
  O  O273  1  0.26149880  -0.05223958  0.73741207  1
  O  O274  1  0.26149880  0.44776042  0.23741207  1
  O  O275  1  0.26149880  0.44776042  0.73741207  1
  O  O276  1  0.76149880  -0.05223958  0.23741207  1
  O  O277  1  0.76149880  -0.05223958  0.73741207  1
  O  O278  1  0.76149880  0.44776042  0.23741207  1
  O  O279  1  0.76149880  0.44776042  0.73741207  1
  O  O280  1  0.51149880  0.19776042  0.23741207  1
  O  O281  1  0.51149880  0.19776042  0.73741207  1
  O  O282  1  0.51149880  0.69776042  0.23741207  1
  O  O283  1  0.51149880  0.69776042  0.73741207  1
  O  O284  1  1.01149880  0.19776042  0.23741207  1
  O  O285  1  1.01149880  0.19776042  0.73741207  1
  O  O286  1  1.01149880  0.69776042  0.23741207  1
  O  O287  1  1.01149880  0.69776042  0.73741207  1
  O  O288  1  0.26149880  0.05223958  0.48741207  1
  O  O289  1  0.26149880  0.05223958  0.98741207  1
  O  O290  1  0.26149880  0.55223958  0.48741207  1
  O  O291  1  0.26149880  0.55223958  0.98741207  1
  O  O292  1  0.76149880  0.05223958  0.48741207  1
  O  O293  1  0.76149880  0.05223958  0.98741207  1
  O  O294  1  0.76149880  0.55223958  0.48741207  1
  O  O295  1  0.76149880  0.55223958  0.98741207  1
  O  O296  1  0.51149880  0.30223958  0.48741207  1
  O  O297  1  0.51149880  0.30223958  0.98741207  1
  O  O298  1  0.51149880  0.80223958  0.48741207  1
  O  O299  1  0.51149880  0.80223958  0.98741207  1
  O  O300  1  1.01149880  0.30223958  0.48741207  1
  O  O301  1  1.01149880  0.30223958  0.98741207  1
  O  O302  1  1.01149880  0.80223958  0.48741207  1
  O  O303  1  1.01149880  0.80223958  0.98741207  1
  O  O304  1  0.23850120  -0.05223958  0.01258793  1
  O  O305  1  0.23850120  -0.05223958  0.51258793  1
  O  O306  1  0.23850120  0.44776042  0.01258793  1
  O  O307  1  0.23850120  0.44776042  0.51258793  1
  O  O308  1  0.73850120  -0.05223958  0.01258793  1
  O  O309  1  0.73850120  -0.05223958  0.51258793  1
  O  O310  1  0.73850120  0.44776042  0.01258793  1
  O  O311  1  0.73850120  0.44776042  0.51258793  1
  O  O312  1  0.48850120  0.19776042  0.01258793  1
  O  O313  1  0.48850120  0.19776042  0.51258793  1
  O  O314  1  0.48850120  0.69776042  0.01258793  1
  O  O315  1  0.48850120  0.69776042  0.51258793  1
  O  O316  1  0.98850120  0.19776042  0.01258793  1
  O  O317  1  0.98850120  0.19776042  0.51258793  1
  O  O318  1  0.98850120  0.69776042  0.01258793  1
  O  O319  1  0.98850120  0.69776042  0.51258793  1
  O  O320  1  0.43156281  -0.03776955  0.40060008  1
  O  O321  1  0.43156281  -0.03776955  0.90060008  1
  O  O322  1  0.43156281  0.46223045  0.40060008  1
  O  O323  1  0.43156281  0.46223045  0.90060008  1
  O  O324  1  0.93156281  -0.03776955  0.40060008  1
  O  O325  1  0.93156281  -0.03776955  0.90060008  1
  O  O326  1  0.93156281  0.46223045  0.40060008  1
  O  O327  1  0.93156281  0.46223045  0.90060008  1
  O  O328  1  0.68156281  0.21223045  0.40060008  1
  O  O329  1  0.68156281  0.21223045  0.90060008  1
  O  O330  1  0.68156281  0.71223045  0.40060008  1
  O  O331  1  0.68156281  0.71223045  0.90060008  1
  O  O332  1  1.18156281  0.21223045  0.40060008  1
  O  O333  1  1.18156281  0.21223045  0.90060008  1
  O  O334  1  1.18156281  0.71223045  0.40060008  1
  O  O335  1  1.18156281  0.71223045  0.90060008  1
  O  O336  1  0.06843719  0.03776955  0.09939992  1
  O  O337  1  0.06843719  0.03776955  0.59939992  1
  O  O338  1  0.06843719  0.53776955  0.09939992  1
  O  O339  1  0.06843719  0.53776955  0.59939992  1
  O  O340  1  0.56843719  0.03776955  0.09939992  1
  O  O341  1  0.56843719  0.03776955  0.59939992  1
  O  O342  1  0.56843719  0.53776955  0.09939992  1
  O  O343  1  0.56843719  0.53776955  0.59939992  1
  O  O344  1  0.31843719  0.28776955  0.09939992  1
  O  O345  1  0.31843719  0.28776955  0.59939992  1
  O  O346  1  0.31843719  0.78776955  0.09939992  1
  O  O347  1  0.31843719  0.78776955  0.59939992  1
  O  O348  1  0.81843719  0.28776955  0.09939992  1
  O  O349  1  0.81843719  0.28776955  0.59939992  1
  O  O350  1  0.81843719  0.78776955  0.09939992  1
  O  O351  1  0.81843719  0.78776955  0.59939992  1
  O  O352  1  0.06843719  -0.03776955  0.34939992  1
  O  O353  1  0.06843719  -0.03776955  0.84939992  1
  O  O354  1  0.06843719  0.46223045  0.34939992  1
  O  O355  1  0.06843719  0.46223045  0.84939992  1
  O  O356  1  0.56843719  -0.03776955  0.34939992  1
  O  O357  1  0.56843719  -0.03776955  0.84939992  1
  O  O358  1  0.56843719  0.46223045  0.34939992  1
  O  O359  1  0.56843719  0.46223045  0.84939992  1
  O  O360  1  0.31843719  0.21223045  0.34939992  1
  O  O361  1  0.31843719  0.21223045  0.84939992  1
  O  O362  1  0.31843719  0.71223045  0.34939992  1
  O  O363  1  0.31843719  0.71223045  0.84939992  1
  O  O364  1  0.81843719  0.21223045  0.34939992  1
  O  O365  1  0.81843719  0.21223045  0.84939992  1
  O  O366  1  0.81843719  0.71223045  0.34939992  1
  O  O367  1  0.81843719  0.71223045  0.84939992  1
  O  O368  1  0.43156281  0.03776955  0.15060008  1
  O  O369  1  0.43156281  0.03776955  0.65060008  1
  O  O370  1  0.43156281  0.53776955  0.15060008  1
  O  O371  1  0.43156281  0.53776955  0.65060008  1
  O  O372  1  0.93156281  0.03776955  0.15060008  1
  O  O373  1  0.93156281  0.03776955  0.65060008  1
  O  O374  1  0.93156281  0.53776955  0.15060008  1
  O  O375  1  0.93156281  0.53776955  0.65060008  1
  O  O376  1  0.68156281  0.28776955  0.15060008  1
  O  O377  1  0.68156281  0.28776955  0.65060008  1
  O  O378  1  0.68156281  0.78776955  0.15060008  1
  O  O379  1  0.68156281  0.78776955  0.65060008  1
  O  O380  1  1.18156281  0.28776955  0.15060008  1
  O  O381  1  1.18156281  0.28776955  0.65060008  1
  O  O382  1  1.18156281  0.78776955  0.15060008  1
  O  O383  1  1.18156281  0.78776955  0.65060008  1
