# generated using pymatgen
data_Ca2ScSbO6
_symmetry_space_group_name_H-M   'P 1'
_cell_length_a   16.40960642
_cell_length_b   16.89922723
_cell_length_c   19.10614124
_cell_angle_alpha   90.00000000
_cell_angle_beta   124.94781940
_cell_angle_gamma   90.00000000
_symmetry_Int_Tables_number   1
_chemical_formula_structural   Ca2ScSbO6
_chemical_formula_sum   'Ca72 Sc36 Sb36 O216'
_cell_volume   4342.89363495
_cell_formula_units_Z   36
loop_
 _symmetry_equiv_pos_site_id
 _symmetry_equiv_pos_as_xyz
  1  'x, y, z'
loop_
 _atom_site_type_symbol
 _atom_site_label
 _atom_site_symmetry_multiplicity
 _atom_site_fract_x
 _atom_site_fract_y
 _atom_site_fract_z
 _atom_site_occupancy
  Ca  Ca0  1  0.25440439  0.18386511  0.12489234  1
  Ca  Ca1  1  0.25440439  0.18386511  0.62489234  1
  Ca  Ca2  1  0.25440439  0.51719844  0.12489234  1
  Ca  Ca3  1  0.25440439  0.51719844  0.62489234  1
  Ca  Ca4  1  0.25440439  0.85053177  0.12489234  1
  Ca  Ca5  1  0.25440439  0.85053177  0.62489234  1
  Ca  Ca6  1  0.58773773  0.18386511  0.12489234  1
  Ca  Ca7  1  0.58773773  0.18386511  0.62489234  1
  Ca  Ca8  1  0.58773773  0.51719844  0.12489234  1
  Ca  Ca9  1  0.58773773  0.51719844  0.62489234  1
  Ca  Ca10  1  0.58773773  0.85053177  0.12489234  1
  Ca  Ca11  1  0.58773773  0.85053177  0.62489234  1
  Ca  Ca12  1  0.92107106  0.18386511  0.12489234  1
  Ca  Ca13  1  0.92107106  0.18386511  0.62489234  1
  Ca  Ca14  1  0.92107106  0.51719844  0.12489234  1
  Ca  Ca15  1  0.92107106  0.51719844  0.62489234  1
  Ca  Ca16  1  0.92107106  0.85053177  0.12489234  1
  Ca  Ca17  1  0.92107106  0.85053177  0.62489234  1
  Ca  Ca18  1  0.25440439  0.31613489  0.37489234  1
  Ca  Ca19  1  0.25440439  0.31613489  0.87489234  1
  Ca  Ca20  1  0.25440439  0.64946823  0.37489234  1
  Ca  Ca21  1  0.25440439  0.64946823  0.87489234  1
  Ca  Ca22  1  0.25440439  0.98280156  0.37489234  1
  Ca  Ca23  1  0.25440439  0.98280156  0.87489234  1
  Ca  Ca24  1  0.58773773  0.31613489  0.37489234  1
  Ca  Ca25  1  0.58773773  0.31613489  0.87489234  1
  Ca  Ca26  1  0.58773773  0.64946823  0.37489234  1
  Ca  Ca27  1  0.58773773  0.64946823  0.87489234  1
  Ca  Ca28  1  0.58773773  0.98280156  0.37489234  1
  Ca  Ca29  1  0.58773773  0.98280156  0.87489234  1
  Ca  Ca30  1  0.92107106  0.31613489  0.37489234  1
  Ca  Ca31  1  0.92107106  0.31613489  0.87489234  1
  Ca  Ca32  1  0.92107106  0.64946823  0.37489234  1
  Ca  Ca33  1  0.92107106  0.64946823  0.87489234  1
  Ca  Ca34  1  0.92107106  0.98280156  0.37489234  1
  Ca  Ca35  1  0.92107106  0.98280156  0.87489234  1
  Ca  Ca36  1  0.07892894  0.14946823  0.37510766  1
  Ca  Ca37  1  0.07892894  0.14946823  0.87510766  1
  Ca  Ca38  1  0.07892894  0.48280156  0.37510766  1
  Ca  Ca39  1  0.07892894  0.48280156  0.87510766  1
  Ca  Ca40  1  0.07892894  0.81613489  0.37510766  1
  Ca  Ca41  1  0.07892894  0.81613489  0.87510766  1
  Ca  Ca42  1  0.41226227  0.14946823  0.37510766  1
  Ca  Ca43  1  0.41226227  0.14946823  0.87510766  1
  Ca  Ca44  1  0.41226227  0.48280156  0.37510766  1
  Ca  Ca45  1  0.41226227  0.48280156  0.87510766  1
  Ca  Ca46  1  0.41226227  0.81613489  0.37510766  1
  Ca  Ca47  1  0.41226227  0.81613489  0.87510766  1
  Ca  Ca48  1  0.74559561  0.14946823  0.37510766  1
  Ca  Ca49  1  0.74559561  0.14946823  0.87510766  1
  Ca  Ca50  1  0.74559561  0.48280156  0.37510766  1
  Ca  Ca51  1  0.74559561  0.48280156  0.87510766  1
  Ca  Ca52  1  0.74559561  0.81613489  0.37510766  1
  Ca  Ca53  1  0.74559561  0.81613489  0.87510766  1
  Ca  Ca54  1  0.07892894  0.01719844  0.12510766  1
  Ca  Ca55  1  0.07892894  0.01719844  0.62510766  1
  Ca  Ca56  1  0.07892894  0.35053177  0.12510766  1
  Ca  Ca57  1  0.07892894  0.35053177  0.62510766  1
  Ca  Ca58  1  0.07892894  0.68386511  0.12510766  1
  Ca  Ca59  1  0.07892894  0.68386511  0.62510766  1
  Ca  Ca60  1  0.41226227  0.01719844  0.12510766  1
  Ca  Ca61  1  0.41226227  0.01719844  0.62510766  1
  Ca  Ca62  1  0.41226227  0.35053177  0.12510766  1
  Ca  Ca63  1  0.41226227  0.35053177  0.62510766  1
  Ca  Ca64  1  0.41226227  0.68386511  0.12510766  1
  Ca  Ca65  1  0.41226227  0.68386511  0.62510766  1
  Ca  Ca66  1  0.74559561  0.01719844  0.12510766  1
  Ca  Ca67  1  0.74559561  0.01719844  0.62510766  1
  Ca  Ca68  1  0.74559561  0.35053177  0.12510766  1
  Ca  Ca69  1  0.74559561  0.35053177  0.62510766  1
  Ca  Ca70  1  0.74559561  0.68386511  0.12510766  1
  Ca  Ca71  1  0.74559561  0.68386511  0.62510766  1
  Sc  Sc72  1  0.16666667  0.16666667  0.25000000  1
  Sc  Sc73  1  0.16666667  0.16666667  0.75000000  1
  Sc  Sc74  1  0.16666667  0.50000000  0.25000000  1
  Sc  Sc75  1  0.16666667  0.50000000  0.75000000  1
  Sc  Sc76  1  0.16666667  0.83333333  0.25000000  1
  Sc  Sc77  1  0.16666667  0.83333333  0.75000000  1
  Sc  Sc78  1  0.50000000  0.16666667  0.25000000  1
  Sc  Sc79  1  0.50000000  0.16666667  0.75000000  1
  Sc  Sc80  1  0.50000000  0.50000000  0.25000000  1
  Sc  Sc81  1  0.50000000  0.50000000  0.75000000  1
  Sc  Sc82  1  0.50000000  0.83333333  0.25000000  1
  Sc  Sc83  1  0.50000000  0.83333333  0.75000000  1
  Sc  Sc84  1  0.83333333  0.16666667  0.25000000  1
  Sc  Sc85  1  0.83333333  0.16666667  0.75000000  1
  Sc  Sc86  1  0.83333333  0.50000000  0.25000000  1
  Sc  Sc87  1  0.83333333  0.50000000  0.75000000  1
  Sc  Sc88  1  0.83333333  0.83333333  0.25000000  1
  Sc  Sc89  1  0.83333333  0.83333333  0.75000000  1
  Sc  Sc90  1  0.16666667  0.00000000  -0.00000000  1
  Sc  Sc91  1  0.16666667  0.00000000  0.50000000  1
  Sc  Sc92  1  0.16666667  0.33333333  -0.00000000  1
  Sc  Sc93  1  0.16666667  0.33333333  0.50000000  1
  Sc  Sc94  1  0.16666667  0.66666667  -0.00000000  1
  Sc  Sc95  1  0.16666667  0.66666667  0.50000000  1
  Sc  Sc96  1  0.50000000  0.00000000  -0.00000000  1
  Sc  Sc97  1  0.50000000  0.00000000  0.50000000  1
  Sc  Sc98  1  0.50000000  0.33333333  -0.00000000  1
  Sc  Sc99  1  0.50000000  0.33333333  0.50000000  1
  Sc  Sc100  1  0.50000000  0.66666667  -0.00000000  1
  Sc  Sc101  1  0.50000000  0.66666667  0.50000000  1
  Sc  Sc102  1  0.83333333  0.00000000  -0.00000000  1
  Sc  Sc103  1  0.83333333  0.00000000  0.50000000  1
  Sc  Sc104  1  0.83333333  0.33333333  -0.00000000  1
  Sc  Sc105  1  0.83333333  0.33333333  0.50000000  1
  Sc  Sc106  1  0.83333333  0.66666667  -0.00000000  1
  Sc  Sc107  1  0.83333333  0.66666667  0.50000000  1
  Sb  Sb108  1  -0.00000000  0.00000000  0.25000000  1
  Sb  Sb109  1  -0.00000000  0.00000000  0.75000000  1
  Sb  Sb110  1  -0.00000000  0.33333333  0.25000000  1
  Sb  Sb111  1  -0.00000000  0.33333333  0.75000000  1
  Sb  Sb112  1  -0.00000000  0.66666667  0.25000000  1
  Sb  Sb113  1  -0.00000000  0.66666667  0.75000000  1
  Sb  Sb114  1  0.33333333  0.00000000  0.25000000  1
  Sb  Sb115  1  0.33333333  0.00000000  0.75000000  1
  Sb  Sb116  1  0.33333333  0.33333333  0.25000000  1
  Sb  Sb117  1  0.33333333  0.33333333  0.75000000  1
  Sb  Sb118  1  0.33333333  0.66666667  0.25000000  1
  Sb  Sb119  1  0.33333333  0.66666667  0.75000000  1
  Sb  Sb120  1  0.66666667  0.00000000  0.25000000  1
  Sb  Sb121  1  0.66666667  0.00000000  0.75000000  1
  Sb  Sb122  1  0.66666667  0.33333333  0.25000000  1
  Sb  Sb123  1  0.66666667  0.33333333  0.75000000  1
  Sb  Sb124  1  0.66666667  0.66666667  0.25000000  1
  Sb  Sb125  1  0.66666667  0.66666667  0.75000000  1
  Sb  Sb126  1  0.00000000  0.16666667  0.00000000  1
  Sb  Sb127  1  -0.00000000  0.16666667  0.50000000  1
  Sb  Sb128  1  0.00000000  0.50000000  0.00000000  1
  Sb  Sb129  1  -0.00000000  0.50000000  0.50000000  1
  Sb  Sb130  1  0.00000000  0.83333333  0.00000000  1
  Sb  Sb131  1  -0.00000000  0.83333333  0.50000000  1
  Sb  Sb132  1  0.33333333  0.16666667  0.00000000  1
  Sb  Sb133  1  0.33333333  0.16666667  0.50000000  1
  Sb  Sb134  1  0.33333333  0.50000000  0.00000000  1
  Sb  Sb135  1  0.33333333  0.50000000  0.50000000  1
  Sb  Sb136  1  0.33333333  0.83333333  0.00000000  1
  Sb  Sb137  1  0.33333333  0.83333333  0.50000000  1
  Sb  Sb138  1  0.66666667  0.16666667  0.00000000  1
  Sb  Sb139  1  0.66666667  0.16666667  0.50000000  1
  Sb  Sb140  1  0.66666667  0.50000000  0.00000000  1
  Sb  Sb141  1  0.66666667  0.50000000  0.50000000  1
  Sb  Sb142  1  0.66666667  0.83333333  0.00000000  1
  Sb  Sb143  1  0.66666667  0.83333333  0.50000000  1
  O  O144  1  0.08085730  0.26738161  0.22457875  1
  O  O145  1  0.08085730  0.26738161  0.72457875  1
  O  O146  1  0.08085730  0.60071495  0.22457875  1
  O  O147  1  0.08085730  0.60071495  0.72457875  1
  O  O148  1  0.08085730  0.93404828  0.22457875  1
  O  O149  1  0.08085730  0.93404828  0.72457875  1
  O  O150  1  0.41419063  0.26738161  0.22457875  1
  O  O151  1  0.41419063  0.26738161  0.72457875  1
  O  O152  1  0.41419063  0.60071495  0.22457875  1
  O  O153  1  0.41419063  0.60071495  0.72457875  1
  O  O154  1  0.41419063  0.93404828  0.22457875  1
  O  O155  1  0.41419063  0.93404828  0.72457875  1
  O  O156  1  0.74752397  0.26738161  0.22457875  1
  O  O157  1  0.74752397  0.26738161  0.72457875  1
  O  O158  1  0.74752397  0.60071495  0.22457875  1
  O  O159  1  0.74752397  0.60071495  0.72457875  1
  O  O160  1  0.74752397  0.93404828  0.22457875  1
  O  O161  1  0.74752397  0.93404828  0.72457875  1
  O  O162  1  0.08085730  0.23261839  0.47457875  1
  O  O163  1  0.08085730  0.23261839  0.97457875  1
  O  O164  1  0.08085730  0.56595172  0.47457875  1
  O  O165  1  0.08085730  0.56595172  0.97457875  1
  O  O166  1  0.08085730  0.89928505  0.47457875  1
  O  O167  1  0.08085730  0.89928505  0.97457875  1
  O  O168  1  0.41419063  0.23261839  0.47457875  1
  O  O169  1  0.41419063  0.23261839  0.97457875  1
  O  O170  1  0.41419063  0.56595172  0.47457875  1
  O  O171  1  0.41419063  0.56595172  0.97457875  1
  O  O172  1  0.41419063  0.89928505  0.47457875  1
  O  O173  1  0.41419063  0.89928505  0.97457875  1
  O  O174  1  0.74752397  0.23261839  0.47457875  1
  O  O175  1  0.74752397  0.23261839  0.97457875  1
  O  O176  1  0.74752397  0.56595172  0.47457875  1
  O  O177  1  0.74752397  0.56595172  0.97457875  1
  O  O178  1  0.74752397  0.89928505  0.47457875  1
  O  O179  1  0.74752397  0.89928505  0.97457875  1
  O  O180  1  0.25247603  0.06595172  0.27542125  1
  O  O181  1  0.25247603  0.06595172  0.77542125  1
  O  O182  1  0.25247603  0.39928505  0.27542125  1
  O  O183  1  0.25247603  0.39928505  0.77542125  1
  O  O184  1  0.25247603  0.73261839  0.27542125  1
  O  O185  1  0.25247603  0.73261839  0.77542125  1
  O  O186  1  0.58580937  0.06595172  0.27542125  1
  O  O187  1  0.58580937  0.06595172  0.77542125  1
  O  O188  1  0.58580937  0.39928505  0.27542125  1
  O  O189  1  0.58580937  0.39928505  0.77542125  1
  O  O190  1  0.58580937  0.73261839  0.27542125  1
  O  O191  1  0.58580937  0.73261839  0.77542125  1
  O  O192  1  0.91914270  0.06595172  0.27542125  1
  O  O193  1  0.91914270  0.06595172  0.77542125  1
  O  O194  1  0.91914270  0.39928505  0.27542125  1
  O  O195  1  0.91914270  0.39928505  0.77542125  1
  O  O196  1  0.91914270  0.73261839  0.27542125  1
  O  O197  1  0.91914270  0.73261839  0.77542125  1
  O  O198  1  0.25247603  0.10071495  0.02542125  1
  O  O199  1  0.25247603  0.10071495  0.52542125  1
  O  O200  1  0.25247603  0.43404828  0.02542125  1
  O  O201  1  0.25247603  0.43404828  0.52542125  1
  O  O202  1  0.25247603  0.76738161  0.02542125  1
  O  O203  1  0.25247603  0.76738161  0.52542125  1
  O  O204  1  0.58580937  0.10071495  0.02542125  1
  O  O205  1  0.58580937  0.10071495  0.52542125  1
  O  O206  1  0.58580937  0.43404828  0.02542125  1
  O  O207  1  0.58580937  0.43404828  0.52542125  1
  O  O208  1  0.58580937  0.76738161  0.02542125  1
  O  O209  1  0.58580937  0.76738161  0.52542125  1
  O  O210  1  0.91914270  0.10071495  0.02542125  1
  O  O211  1  0.91914270  0.10071495  0.52542125  1
  O  O212  1  0.91914270  0.43404828  0.02542125  1
  O  O213  1  0.91914270  0.43404828  0.52542125  1
  O  O214  1  0.91914270  0.76738161  0.02542125  1
  O  O215  1  0.91914270  0.76738161  0.52542125  1
  O  O216  1  0.28642257  0.26378087  0.02663832  1
  O  O217  1  0.28642257  0.26378087  0.52663832  1
  O  O218  1  0.28642257  0.59711421  0.02663832  1
  O  O219  1  0.28642257  0.59711421  0.52663832  1
  O  O220  1  0.28642257  0.93044754  0.02663832  1
  O  O221  1  0.28642257  0.93044754  0.52663832  1
  O  O222  1  0.61975591  0.26378087  0.02663832  1
  O  O223  1  0.61975591  0.26378087  0.52663832  1
  O  O224  1  0.61975591  0.59711421  0.02663832  1
  O  O225  1  0.61975591  0.59711421  0.52663832  1
  O  O226  1  0.61975591  0.93044754  0.02663832  1
  O  O227  1  0.61975591  0.93044754  0.52663832  1
  O  O228  1  0.95308924  0.26378087  0.02663832  1
  O  O229  1  0.95308924  0.26378087  0.52663832  1
  O  O230  1  0.95308924  0.59711421  0.02663832  1
  O  O231  1  0.95308924  0.59711421  0.52663832  1
  O  O232  1  0.95308924  0.93044754  0.02663832  1
  O  O233  1  0.95308924  0.93044754  0.52663832  1
  O  O234  1  0.28642257  0.23621913  0.27663832  1
  O  O235  1  0.28642257  0.23621913  0.77663832  1
  O  O236  1  0.28642257  0.56955246  0.27663832  1
  O  O237  1  0.28642257  0.56955246  0.77663832  1
  O  O238  1  0.28642257  0.90288579  0.27663832  1
  O  O239  1  0.28642257  0.90288579  0.77663832  1
  O  O240  1  0.61975591  0.23621913  0.27663832  1
  O  O241  1  0.61975591  0.23621913  0.77663832  1
  O  O242  1  0.61975591  0.56955246  0.27663832  1
  O  O243  1  0.61975591  0.56955246  0.77663832  1
  O  O244  1  0.61975591  0.90288579  0.27663832  1
  O  O245  1  0.61975591  0.90288579  0.77663832  1
  O  O246  1  0.95308924  0.23621913  0.27663832  1
  O  O247  1  0.95308924  0.23621913  0.77663832  1
  O  O248  1  0.95308924  0.56955246  0.27663832  1
  O  O249  1  0.95308924  0.56955246  0.77663832  1
  O  O250  1  0.95308924  0.90288579  0.27663832  1
  O  O251  1  0.95308924  0.90288579  0.77663832  1
  O  O252  1  0.04691076  0.06955246  0.47336168  1
  O  O253  1  0.04691076  0.06955246  0.97336168  1
  O  O254  1  0.04691076  0.40288579  0.47336168  1
  O  O255  1  0.04691076  0.40288579  0.97336168  1
  O  O256  1  0.04691076  0.73621913  0.47336168  1
  O  O257  1  0.04691076  0.73621913  0.97336168  1
  O  O258  1  0.38024409  0.06955246  0.47336168  1
  O  O259  1  0.38024409  0.06955246  0.97336168  1
  O  O260  1  0.38024409  0.40288579  0.47336168  1
  O  O261  1  0.38024409  0.40288579  0.97336168  1
  O  O262  1  0.38024409  0.73621913  0.47336168  1
  O  O263  1  0.38024409  0.73621913  0.97336168  1
  O  O264  1  0.71357743  0.06955246  0.47336168  1
  O  O265  1  0.71357743  0.06955246  0.97336168  1
  O  O266  1  0.71357743  0.40288579  0.47336168  1
  O  O267  1  0.71357743  0.40288579  0.97336168  1
  O  O268  1  0.71357743  0.73621913  0.47336168  1
  O  O269  1  0.71357743  0.73621913  0.97336168  1
  O  O270  1  0.04691076  0.09711421  0.22336168  1
  O  O271  1  0.04691076  0.09711421  0.72336168  1
  O  O272  1  0.04691076  0.43044754  0.22336168  1
  O  O273  1  0.04691076  0.43044754  0.72336168  1
  O  O274  1  0.04691076  0.76378087  0.22336168  1
  O  O275  1  0.04691076  0.76378087  0.72336168  1
  O  O276  1  0.38024409  0.09711421  0.22336168  1
  O  O277  1  0.38024409  0.09711421  0.72336168  1
  O  O278  1  0.38024409  0.43044754  0.22336168  1
  O  O279  1  0.38024409  0.43044754  0.72336168  1
  O  O280  1  0.38024409  0.76378087  0.22336168  1
  O  O281  1  0.38024409  0.76378087  0.72336168  1
  O  O282  1  0.71357743  0.09711421  0.22336168  1
  O  O283  1  0.71357743  0.09711421  0.72336168  1
  O  O284  1  0.71357743  0.43044754  0.22336168  1
  O  O285  1  0.71357743  0.43044754  0.72336168  1
  O  O286  1  0.71357743  0.76378087  0.22336168  1
  O  O287  1  0.71357743  0.76378087  0.72336168  1
  O  O288  1  0.21898948  0.32174733  0.12800869  1
  O  O289  1  0.21898948  0.32174733  0.62800869  1
  O  O290  1  0.21898948  0.65508067  0.12800869  1
  O  O291  1  0.21898948  0.65508067  0.62800869  1
  O  O292  1  0.21898948  0.98841400  0.12800869  1
  O  O293  1  0.21898948  0.98841400  0.62800869  1
  O  O294  1  0.55232282  0.32174733  0.12800869  1
  O  O295  1  0.55232282  0.32174733  0.62800869  1
  O  O296  1  0.55232282  0.65508067  0.12800869  1
  O  O297  1  0.55232282  0.65508067  0.62800869  1
  O  O298  1  0.55232282  0.98841400  0.12800869  1
  O  O299  1  0.55232282  0.98841400  0.62800869  1
  O  O300  1  0.88565615  0.32174733  0.12800869  1
  O  O301  1  0.88565615  0.32174733  0.62800869  1
  O  O302  1  0.88565615  0.65508067  0.12800869  1
  O  O303  1  0.88565615  0.65508067  0.62800869  1
  O  O304  1  0.88565615  0.98841400  0.12800869  1
  O  O305  1  0.88565615  0.98841400  0.62800869  1
  O  O306  1  0.21898948  0.17825267  0.37800869  1
  O  O307  1  0.21898948  0.17825267  0.87800869  1
  O  O308  1  0.21898948  0.51158600  0.37800869  1
  O  O309  1  0.21898948  0.51158600  0.87800869  1
  O  O310  1  0.21898948  0.84491933  0.37800869  1
  O  O311  1  0.21898948  0.84491933  0.87800869  1
  O  O312  1  0.55232282  0.17825267  0.37800869  1
  O  O313  1  0.55232282  0.17825267  0.87800869  1
  O  O314  1  0.55232282  0.51158600  0.37800869  1
  O  O315  1  0.55232282  0.51158600  0.87800869  1
  O  O316  1  0.55232282  0.84491933  0.37800869  1
  O  O317  1  0.55232282  0.84491933  0.87800869  1
  O  O318  1  0.88565615  0.17825267  0.37800869  1
  O  O319  1  0.88565615  0.17825267  0.87800869  1
  O  O320  1  0.88565615  0.51158600  0.37800869  1
  O  O321  1  0.88565615  0.51158600  0.87800869  1
  O  O322  1  0.88565615  0.84491933  0.37800869  1
  O  O323  1  0.88565615  0.84491933  0.87800869  1
  O  O324  1  0.11434385  0.01158600  0.37199131  1
  O  O325  1  0.11434385  0.01158600  0.87199131  1
  O  O326  1  0.11434385  0.34491933  0.37199131  1
  O  O327  1  0.11434385  0.34491933  0.87199131  1
  O  O328  1  0.11434385  0.67825267  0.37199131  1
  O  O329  1  0.11434385  0.67825267  0.87199131  1
  O  O330  1  0.44767718  0.01158600  0.37199131  1
  O  O331  1  0.44767718  0.01158600  0.87199131  1
  O  O332  1  0.44767718  0.34491933  0.37199131  1
  O  O333  1  0.44767718  0.34491933  0.87199131  1
  O  O334  1  0.44767718  0.67825267  0.37199131  1
  O  O335  1  0.44767718  0.67825267  0.87199131  1
  O  O336  1  0.78101052  0.01158600  0.37199131  1
  O  O337  1  0.78101052  0.01158600  0.87199131  1
  O  O338  1  0.78101052  0.34491933  0.37199131  1
  O  O339  1  0.78101052  0.34491933  0.87199131  1
  O  O340  1  0.78101052  0.67825267  0.37199131  1
  O  O341  1  0.78101052  0.67825267  0.87199131  1
  O  O342  1  0.11434385  0.15508067  0.12199131  1
  O  O343  1  0.11434385  0.15508067  0.62199131  1
  O  O344  1  0.11434385  0.48841400  0.12199131  1
  O  O345  1  0.11434385  0.48841400  0.62199131  1
  O  O346  1  0.11434385  0.82174733  0.12199131  1
  O  O347  1  0.11434385  0.82174733  0.62199131  1
  O  O348  1  0.44767718  0.15508067  0.12199131  1
  O  O349  1  0.44767718  0.15508067  0.62199131  1
  O  O350  1  0.44767718  0.48841400  0.12199131  1
  O  O351  1  0.44767718  0.48841400  0.62199131  1
  O  O352  1  0.44767718  0.82174733  0.12199131  1
  O  O353  1  0.44767718  0.82174733  0.62199131  1
  O  O354  1  0.78101052  0.15508067  0.12199131  1
  O  O355  1  0.78101052  0.15508067  0.62199131  1
  O  O356  1  0.78101052  0.48841400  0.12199131  1
  O  O357  1  0.78101052  0.48841400  0.62199131  1
  O  O358  1  0.78101052  0.82174733  0.12199131  1
  O  O359  1  0.78101052  0.82174733  0.62199131  1
