# generated using pymatgen
data_In6Ga2PtO8
_symmetry_space_group_name_H-M   'P 1'
_cell_length_a   10.04880968
_cell_length_b   10.04880968
_cell_length_c   10.04880968
_cell_angle_alpha   90.00000000
_cell_angle_beta   90.00000000
_cell_angle_gamma   90.00000000
_symmetry_Int_Tables_number   1
_chemical_formula_structural   In6Ga2PtO8
_chemical_formula_sum   'In24 Ga8 Pt4 O32'
_cell_volume   1014.71449184
_cell_formula_units_Z   4
loop_
 _symmetry_equiv_pos_site_id
 _symmetry_equiv_pos_as_xyz
  1  'x, y, z'
loop_
 _atom_site_type_symbol
 _atom_site_label
 _atom_site_symmetry_multiplicity
 _atom_site_fract_x
 _atom_site_fract_y
 _atom_site_fract_z
 _atom_site_occupancy
  In  In0  1  0.50000000  0.50000000  0.74761993  1
  In  In1  1  1.00000000  1.00000000  0.74761993  1
  In  In2  1  1.00000000  0.50000000  1.24761993  1
  In  In3  1  0.50000000  1.00000000  1.24761993  1
  In  In4  1  0.50000000  0.74761993  0.50000000  1
  In  In5  1  1.00000000  1.24761993  0.50000000  1
  In  In6  1  1.00000000  0.74761993  1.00000000  1
  In  In7  1  0.50000000  1.24761993  1.00000000  1
  In  In8  1  0.50000000  0.25238007  0.50000000  1
  In  In9  1  1.00000000  0.75238007  0.50000000  1
  In  In10  1  1.00000000  0.25238007  1.00000000  1
  In  In11  1  0.50000000  0.75238007  1.00000000  1
  In  In12  1  0.25238007  0.50000000  0.50000000  1
  In  In13  1  0.75238007  1.00000000  0.50000000  1
  In  In14  1  0.75238007  0.50000000  1.00000000  1
  In  In15  1  0.25238007  1.00000000  1.00000000  1
  In  In16  1  0.74761993  0.50000000  0.50000000  1
  In  In17  1  1.24761993  1.00000000  0.50000000  1
  In  In18  1  1.24761993  0.50000000  1.00000000  1
  In  In19  1  0.74761993  1.00000000  1.00000000  1
  In  In20  1  0.50000000  0.50000000  0.25238007  1
  In  In21  1  1.00000000  1.00000000  0.25238007  1
  In  In22  1  1.00000000  0.50000000  0.75238007  1
  In  In23  1  0.50000000  1.00000000  0.75238007  1
  Ga  Ga24  1  0.25000000  0.25000000  0.25000000  1
  Ga  Ga25  1  0.75000000  0.75000000  0.25000000  1
  Ga  Ga26  1  0.75000000  0.25000000  0.75000000  1
  Ga  Ga27  1  0.25000000  0.75000000  0.75000000  1
  Ga  Ga28  1  0.75000000  0.75000000  0.75000000  1
  Ga  Ga29  1  1.25000000  1.25000000  0.75000000  1
  Ga  Ga30  1  1.25000000  0.75000000  1.25000000  1
  Ga  Ga31  1  0.75000000  1.25000000  1.25000000  1
  Pt  Pt32  1  0.00000000  0.00000000  0.00000000  1
  Pt  Pt33  1  0.50000000  0.50000000  0.00000000  1
  Pt  Pt34  1  0.50000000  0.00000000  0.50000000  1
  Pt  Pt35  1  0.00000000  0.50000000  0.50000000  1
  O  O36  1  0.64137148  0.35862852  0.64137148  1
  O  O37  1  1.14137148  0.85862852  0.64137148  1
  O  O38  1  1.14137148  0.35862852  1.14137148  1
  O  O39  1  0.64137148  0.85862852  1.14137148  1
  O  O40  1  0.35862852  0.35862852  0.64137148  1
  O  O41  1  0.85862852  0.85862852  0.64137148  1
  O  O42  1  0.85862852  0.35862852  1.14137148  1
  O  O43  1  0.35862852  0.85862852  1.14137148  1
  O  O44  1  0.64137148  0.64137148  0.64137148  1
  O  O45  1  1.14137148  1.14137148  0.64137148  1
  O  O46  1  1.14137148  0.64137148  1.14137148  1
  O  O47  1  0.64137148  1.14137148  1.14137148  1
  O  O48  1  0.64137148  0.35862852  0.35862852  1
  O  O49  1  1.14137148  0.85862852  0.35862852  1
  O  O50  1  1.14137148  0.35862852  0.85862852  1
  O  O51  1  0.64137148  0.85862852  0.85862852  1
  O  O52  1  0.35862852  0.35862852  0.35862852  1
  O  O53  1  0.85862852  0.85862852  0.35862852  1
  O  O54  1  0.85862852  0.35862852  0.85862852  1
  O  O55  1  0.35862852  0.85862852  0.85862852  1
  O  O56  1  0.35862852  0.64137148  0.64137148  1
  O  O57  1  0.85862852  1.14137148  0.64137148  1
  O  O58  1  0.85862852  0.64137148  1.14137148  1
  O  O59  1  0.35862852  1.14137148  1.14137148  1
  O  O60  1  0.64137148  0.64137148  0.35862852  1
  O  O61  1  1.14137148  1.14137148  0.35862852  1
  O  O62  1  1.14137148  0.64137148  0.85862852  1
  O  O63  1  0.64137148  1.14137148  0.85862852  1
  O  O64  1  0.35862852  0.64137148  0.35862852  1
  O  O65  1  0.85862852  1.14137148  0.35862852  1
  O  O66  1  0.85862852  0.64137148  0.85862852  1
  O  O67  1  0.35862852  1.14137148  0.85862852  1
