# generated using pymatgen
data_La(SbO3)3
_symmetry_space_group_name_H-M   'P 1'
_cell_length_a   13.13337932
_cell_length_b   8.89426876
_cell_length_c   11.80363298
_cell_angle_alpha   90.00000000
_cell_angle_beta   90.00000000
_cell_angle_gamma   90.00000000
_symmetry_Int_Tables_number   1
_chemical_formula_structural   La(SbO3)3
_chemical_formula_sum   'La8 Sb24 O72'
_cell_volume   1378.80367883
_cell_formula_units_Z   8
loop_
 _symmetry_equiv_pos_site_id
 _symmetry_equiv_pos_as_xyz
  1  'x, y, z'
loop_
 _atom_site_type_symbol
 _atom_site_label
 _atom_site_symmetry_multiplicity
 _atom_site_fract_x
 _atom_site_fract_y
 _atom_site_fract_z
 _atom_site_occupancy
  La  La0  1  0.25000000  -0.25622539  0.75000000  1
  La  La1  1  0.75000000  -0.25622539  0.75000000  1
  La  La2  1  0.50000000  0.24377461  0.75000000  1
  La  La3  1  1.00000000  0.24377461  0.75000000  1
  La  La4  1  0.25000000  0.25622539  0.25000000  1
  La  La5  1  0.75000000  0.25622539  0.25000000  1
  La  La6  1  0.50000000  0.75622539  0.25000000  1
  La  La7  1  1.00000000  0.75622539  0.25000000  1
  Sb  Sb8  1  0.25000000  0.37739645  0.90833709  1
  Sb  Sb9  1  0.75000000  0.37739645  0.90833709  1
  Sb  Sb10  1  0.50000000  0.87739645  0.90833709  1
  Sb  Sb11  1  1.00000000  0.87739645  0.90833709  1
  Sb  Sb12  1  0.25000000  -0.37739645  0.40833709  1
  Sb  Sb13  1  0.75000000  -0.37739645  0.40833709  1
  Sb  Sb14  1  0.50000000  0.12260355  0.40833709  1
  Sb  Sb15  1  1.00000000  0.12260355  0.40833709  1
  Sb  Sb16  1  0.25000000  -0.37739645  0.09166291  1
  Sb  Sb17  1  0.75000000  -0.37739645  0.09166291  1
  Sb  Sb18  1  0.50000000  0.12260355  0.09166291  1
  Sb  Sb19  1  1.00000000  0.12260355  0.09166291  1
  Sb  Sb20  1  0.25000000  0.37739645  0.59166291  1
  Sb  Sb21  1  0.75000000  0.37739645  0.59166291  1
  Sb  Sb22  1  0.50000000  0.87739645  0.59166291  1
  Sb  Sb23  1  1.00000000  0.87739645  0.59166291  1
  Sb  Sb24  1  0.25000000  0.00000000  0.00000000  1
  Sb  Sb25  1  0.75000000  0.00000000  0.00000000  1
  Sb  Sb26  1  0.50000000  0.50000000  0.00000000  1
  Sb  Sb27  1  1.00000000  0.50000000  0.00000000  1
  Sb  Sb28  1  0.25000000  0.00000000  0.50000000  1
  Sb  Sb29  1  0.75000000  0.00000000  0.50000000  1
  Sb  Sb30  1  0.50000000  0.50000000  0.50000000  1
  Sb  Sb31  1  1.00000000  0.50000000  0.50000000  1
  O  O32  1  0.25000000  -0.44489008  0.25000000  1
  O  O33  1  0.75000000  -0.44489008  0.25000000  1
  O  O34  1  0.50000000  0.05510992  0.25000000  1
  O  O35  1  1.00000000  0.05510992  0.25000000  1
  O  O36  1  0.25000000  0.44489008  0.75000000  1
  O  O37  1  0.75000000  0.44489008  0.75000000  1
  O  O38  1  0.50000000  0.94489008  0.75000000  1
  O  O39  1  1.00000000  0.94489008  0.75000000  1
  O  O40  1  0.25000000  0.39579506  0.07498457  1
  O  O41  1  0.75000000  0.39579506  0.07498457  1
  O  O42  1  0.50000000  0.89579506  0.07498457  1
  O  O43  1  1.00000000  0.89579506  0.07498457  1
  O  O44  1  0.25000000  -0.39579506  0.57498457  1
  O  O45  1  0.75000000  -0.39579506  0.57498457  1
  O  O46  1  0.50000000  0.10420494  0.57498457  1
  O  O47  1  1.00000000  0.10420494  0.57498457  1
  O  O48  1  0.25000000  -0.39579506  0.92501543  1
  O  O49  1  0.75000000  -0.39579506  0.92501543  1
  O  O50  1  0.50000000  0.10420494  0.92501543  1
  O  O51  1  1.00000000  0.10420494  0.92501543  1
  O  O52  1  0.25000000  0.39579506  0.42501543  1
  O  O53  1  0.75000000  0.39579506  0.42501543  1
  O  O54  1  0.50000000  0.89579506  0.42501543  1
  O  O55  1  1.00000000  0.89579506  0.42501543  1
  O  O56  1  0.25000000  0.16185606  0.88164564  1
  O  O57  1  0.75000000  0.16185606  0.88164564  1
  O  O58  1  0.50000000  0.66185606  0.88164564  1
  O  O59  1  1.00000000  0.66185606  0.88164564  1
  O  O60  1  0.25000000  -0.16185606  0.38164564  1
  O  O61  1  0.75000000  -0.16185606  0.38164564  1
  O  O62  1  0.50000000  0.33814394  0.38164564  1
  O  O63  1  1.00000000  0.33814394  0.38164564  1
  O  O64  1  0.15274319  -0.11476577  0.59936417  1
  O  O65  1  0.65274319  -0.11476577  0.59936417  1
  O  O66  1  0.40274319  0.38523423  0.59936417  1
  O  O67  1  0.90274319  0.38523423  0.59936417  1
  O  O68  1  0.34725681  0.11476577  0.09936417  1
  O  O69  1  0.84725681  0.11476577  0.09936417  1
  O  O70  1  0.59725681  0.61476577  0.09936417  1
  O  O71  1  1.09725681  0.61476577  0.09936417  1
  O  O72  1  0.15274319  0.11476577  0.40063583  1
  O  O73  1  0.65274319  0.11476577  0.40063583  1
  O  O74  1  0.40274319  0.61476577  0.40063583  1
  O  O75  1  0.90274319  0.61476577  0.40063583  1
  O  O76  1  0.34725681  -0.11476577  0.90063583  1
  O  O77  1  0.84725681  -0.11476577  0.90063583  1
  O  O78  1  0.59725681  0.38523423  0.90063583  1
  O  O79  1  1.09725681  0.38523423  0.90063583  1
  O  O80  1  0.34725681  0.11476577  0.40063583  1
  O  O81  1  0.84725681  0.11476577  0.40063583  1
  O  O82  1  0.59725681  0.61476577  0.40063583  1
  O  O83  1  1.09725681  0.61476577  0.40063583  1
  O  O84  1  0.15274319  -0.11476577  0.90063583  1
  O  O85  1  0.65274319  -0.11476577  0.90063583  1
  O  O86  1  0.40274319  0.38523423  0.90063583  1
  O  O87  1  0.90274319  0.38523423  0.90063583  1
  O  O88  1  0.34725681  -0.11476577  0.59936417  1
  O  O89  1  0.84725681  -0.11476577  0.59936417  1
  O  O90  1  0.59725681  0.38523423  0.59936417  1
  O  O91  1  1.09725681  0.38523423  0.59936417  1
  O  O92  1  0.15274319  0.11476577  0.09936417  1
  O  O93  1  0.65274319  0.11476577  0.09936417  1
  O  O94  1  0.40274319  0.61476577  0.09936417  1
  O  O95  1  0.90274319  0.61476577  0.09936417  1
  O  O96  1  0.25000000  0.16185606  0.61835436  1
  O  O97  1  0.75000000  0.16185606  0.61835436  1
  O  O98  1  0.50000000  0.66185606  0.61835436  1
  O  O99  1  1.00000000  0.66185606  0.61835436  1
  O  O100  1  0.25000000  -0.16185606  0.11835436  1
  O  O101  1  0.75000000  -0.16185606  0.11835436  1
  O  O102  1  0.50000000  0.33814394  0.11835436  1
  O  O103  1  1.00000000  0.33814394  0.11835436  1
