# generated using pymatgen
data_CaGa4O7
_symmetry_space_group_name_H-M   'P 1'
_cell_length_a   13.10193224
_cell_length_b   9.12650779
_cell_length_c   11.23011072
_cell_angle_alpha   90.00000000
_cell_angle_beta   104.77216704
_cell_angle_gamma   90.00000000
_symmetry_Int_Tables_number   1
_chemical_formula_structural   CaGa4O7
_chemical_formula_sum   'Ca8 Ga32 O56'
_cell_volume   1298.45484068
_cell_formula_units_Z   8
loop_
 _symmetry_equiv_pos_site_id
 _symmetry_equiv_pos_as_xyz
  1  'x, y, z'
loop_
 _atom_site_type_symbol
 _atom_site_label
 _atom_site_symmetry_multiplicity
 _atom_site_fract_x
 _atom_site_fract_y
 _atom_site_fract_z
 _atom_site_occupancy
  Ca  Ca0  1  0.50000000  0.20734353  0.37500000  1
  Ca  Ca1  1  0.50000000  0.20734353  0.87500000  1
  Ca  Ca2  1  1.00000000  0.70734353  0.37500000  1
  Ca  Ca3  1  1.00000000  0.70734353  0.87500000  1
  Ca  Ca4  1  0.50000000  -0.20734353  0.12500000  1
  Ca  Ca5  1  0.50000000  -0.20734353  0.62500000  1
  Ca  Ca6  1  1.00000000  0.29265647  0.12500000  1
  Ca  Ca7  1  1.00000000  0.29265647  0.62500000  1
  Ga  Ga8  1  0.65934308  -0.08513298  0.40761061  1
  Ga  Ga9  1  0.65934308  -0.08513298  0.90761061  1
  Ga  Ga10  1  1.15934308  0.41486702  0.40761061  1
  Ga  Ga11  1  1.15934308  0.41486702  0.90761061  1
  Ga  Ga12  1  0.34065692  -0.08513298  0.34238939  1
  Ga  Ga13  1  0.34065692  -0.08513298  0.84238939  1
  Ga  Ga14  1  0.84065692  0.41486702  0.34238939  1
  Ga  Ga15  1  0.84065692  0.41486702  0.84238939  1
  Ga  Ga16  1  0.12074073  0.06395704  0.37077087  1
  Ga  Ga17  1  0.12074073  0.06395704  0.87077087  1
  Ga  Ga18  1  0.62074073  0.56395704  0.37077087  1
  Ga  Ga19  1  0.62074073  0.56395704  0.87077087  1
  Ga  Ga20  1  0.87925927  0.06395704  0.37922913  1
  Ga  Ga21  1  0.87925927  0.06395704  0.87922913  1
  Ga  Ga22  1  1.37925927  0.56395704  0.37922913  1
  Ga  Ga23  1  1.37925927  0.56395704  0.87922913  1
  Ga  Ga24  1  0.87925927  -0.06395704  0.12922913  1
  Ga  Ga25  1  0.87925927  -0.06395704  0.62922913  1
  Ga  Ga26  1  1.37925927  0.43604296  0.12922913  1
  Ga  Ga27  1  1.37925927  0.43604296  0.62922913  1
  Ga  Ga28  1  0.12074073  -0.06395704  0.12077087  1
  Ga  Ga29  1  0.12074073  -0.06395704  0.62077087  1
  Ga  Ga30  1  0.62074073  0.43604296  0.12077087  1
  Ga  Ga31  1  0.62074073  0.43604296  0.62077087  1
  Ga  Ga32  1  0.65934308  0.08513298  0.15761061  1
  Ga  Ga33  1  0.65934308  0.08513298  0.65761061  1
  Ga  Ga34  1  1.15934308  0.58513298  0.15761061  1
  Ga  Ga35  1  1.15934308  0.58513298  0.65761061  1
  Ga  Ga36  1  0.34065692  0.08513298  0.09238939  1
  Ga  Ga37  1  0.34065692  0.08513298  0.59238939  1
  Ga  Ga38  1  0.84065692  0.58513298  0.09238939  1
  Ga  Ga39  1  0.84065692  0.58513298  0.59238939  1
  O  O40  1  0.50000000  -0.46267201  0.12500000  1
  O  O41  1  0.50000000  -0.46267201  0.62500000  1
  O  O42  1  1.00000000  0.03732799  0.12500000  1
  O  O43  1  1.00000000  0.03732799  0.62500000  1
  O  O44  1  0.50000000  0.46267201  0.37500000  1
  O  O45  1  0.50000000  0.46267201  0.87500000  1
  O  O46  1  1.00000000  0.96267201  0.37500000  1
  O  O47  1  1.00000000  0.96267201  0.87500000  1
  O  O48  1  0.61255139  -0.24890114  0.31656679  1
  O  O49  1  0.61255139  -0.24890114  0.81656679  1
  O  O50  1  1.11255139  0.25109886  0.31656679  1
  O  O51  1  1.11255139  0.25109886  0.81656679  1
  O  O52  1  0.38744861  -0.24890114  0.43343321  1
  O  O53  1  0.38744861  -0.24890114  0.93343321  1
  O  O54  1  0.88744861  0.25109886  0.43343321  1
  O  O55  1  0.88744861  0.25109886  0.93343321  1
  O  O56  1  0.38744861  0.24890114  0.18343321  1
  O  O57  1  0.38744861  0.24890114  0.68343321  1
  O  O58  1  0.88744861  0.74890114  0.18343321  1
  O  O59  1  0.88744861  0.74890114  0.68343321  1
  O  O60  1  0.61255139  0.24890114  0.06656679  1
  O  O61  1  0.61255139  0.24890114  0.56656679  1
  O  O62  1  1.11255139  0.74890114  0.06656679  1
  O  O63  1  1.11255139  0.74890114  0.56656679  1
  O  O64  1  0.38654449  0.06745544  0.45160563  1
  O  O65  1  0.38654449  0.06745544  0.95160563  1
  O  O66  1  0.88654449  0.56745544  0.45160563  1
  O  O67  1  0.88654449  0.56745544  0.95160563  1
  O  O68  1  0.61345551  0.06745544  0.29839437  1
  O  O69  1  0.61345551  0.06745544  0.79839437  1
  O  O70  1  1.11345551  0.56745544  0.29839437  1
  O  O71  1  1.11345551  0.56745544  0.79839437  1
  O  O72  1  0.61345551  -0.06745544  0.04839437  1
  O  O73  1  0.61345551  -0.06745544  0.54839437  1
  O  O74  1  1.11345551  0.43254456  0.04839437  1
  O  O75  1  1.11345551  0.43254456  0.54839437  1
  O  O76  1  0.38654449  -0.06745544  0.20160563  1
  O  O77  1  0.38654449  -0.06745544  0.70160563  1
  O  O78  1  0.88654449  0.43254456  0.20160563  1
  O  O79  1  0.88654449  0.43254456  0.70160563  1
  O  O80  1  0.19289558  -0.06235198  0.28905506  1
  O  O81  1  0.19289558  -0.06235198  0.78905506  1
  O  O82  1  0.69289558  0.43764802  0.28905506  1
  O  O83  1  0.69289558  0.43764802  0.78905506  1
  O  O84  1  0.80710442  -0.06235198  0.46094494  1
  O  O85  1  0.80710442  -0.06235198  0.96094494  1
  O  O86  1  1.30710442  0.43764802  0.46094494  1
  O  O87  1  1.30710442  0.43764802  0.96094494  1
  O  O88  1  0.80710442  0.06235198  0.21094494  1
  O  O89  1  0.80710442  0.06235198  0.71094494  1
  O  O90  1  1.30710442  0.56235198  0.21094494  1
  O  O91  1  1.30710442  0.56235198  0.71094494  1
  O  O92  1  0.19289558  0.06235198  0.03905506  1
  O  O93  1  0.19289558  0.06235198  0.53905506  1
  O  O94  1  0.69289558  0.56235198  0.03905506  1
  O  O95  1  0.69289558  0.56235198  0.53905506  1
