# generated using pymatgen
data_KPd2O3
_symmetry_space_group_name_H-M   'P 1'
_cell_length_a   18.36607911
_cell_length_b   18.36607911
_cell_length_c   18.41561605
_cell_angle_alpha   90.00000000
_cell_angle_beta   90.00000000
_cell_angle_gamma   120.00000000
_symmetry_Int_Tables_number   1
_chemical_formula_structural   KPd2O3
_chemical_formula_sum   'K54 Pd108 O162'
_cell_volume   5379.59751937
_cell_formula_units_Z   54
loop_
 _symmetry_equiv_pos_site_id
 _symmetry_equiv_pos_as_xyz
  1  'x, y, z'
loop_
 _atom_site_type_symbol
 _atom_site_label
 _atom_site_symmetry_multiplicity
 _atom_site_fract_x
 _atom_site_fract_y
 _atom_site_fract_z
 _atom_site_occupancy
  K  K0  1  -0.00000000  -0.00000000  0.17020699  1
  K  K1  1  0.00000000  0.33333333  0.17020699  1
  K  K2  1  0.00000000  0.66666667  0.17020699  1
  K  K3  1  0.33333333  -0.00000000  0.17020699  1
  K  K4  1  0.33333333  0.33333333  0.17020699  1
  K  K5  1  0.33333333  0.66666667  0.17020699  1
  K  K6  1  0.66666667  -0.00000000  0.17020699  1
  K  K7  1  0.66666667  0.33333333  0.17020699  1
  K  K8  1  0.66666667  0.66666667  0.17020699  1
  K  K9  1  0.22222222  0.11111111  0.50354032  1
  K  K10  1  0.22222222  0.44444444  0.50354032  1
  K  K11  1  0.22222222  0.77777778  0.50354032  1
  K  K12  1  0.55555556  0.11111111  0.50354032  1
  K  K13  1  0.55555556  0.44444444  0.50354032  1
  K  K14  1  0.55555556  0.77777778  0.50354032  1
  K  K15  1  0.88888889  0.11111111  0.50354032  1
  K  K16  1  0.88888889  0.44444444  0.50354032  1
  K  K17  1  0.88888889  0.77777778  0.50354032  1
  K  K18  1  0.11111111  0.22222222  0.83687365  1
  K  K19  1  0.11111111  0.55555556  0.83687365  1
  K  K20  1  0.11111111  0.88888889  0.83687365  1
  K  K21  1  0.44444444  0.22222222  0.83687365  1
  K  K22  1  0.44444444  0.55555556  0.83687365  1
  K  K23  1  0.44444444  0.88888889  0.83687365  1
  K  K24  1  0.77777778  0.22222222  0.83687365  1
  K  K25  1  0.77777778  0.55555556  0.83687365  1
  K  K26  1  0.77777778  0.88888889  0.83687365  1
  K  K27  1  -0.00000000  -0.00000000  0.82979301  1
  K  K28  1  -0.00000000  0.33333333  0.82979301  1
  K  K29  1  0.00000000  0.66666667  0.82979301  1
  K  K30  1  0.33333333  -0.00000000  0.82979301  1
  K  K31  1  0.33333333  0.33333333  0.82979301  1
  K  K32  1  0.33333333  0.66666667  0.82979301  1
  K  K33  1  0.66666667  -0.00000000  0.82979301  1
  K  K34  1  0.66666667  0.33333333  0.82979301  1
  K  K35  1  0.66666667  0.66666667  0.82979301  1
  K  K36  1  0.22222222  0.11111111  1.16312635  1
  K  K37  1  0.22222222  0.44444444  1.16312635  1
  K  K38  1  0.22222222  0.77777778  1.16312635  1
  K  K39  1  0.55555556  0.11111111  1.16312635  1
  K  K40  1  0.55555556  0.44444444  1.16312635  1
  K  K41  1  0.55555556  0.77777778  1.16312635  1
  K  K42  1  0.88888889  0.11111111  1.16312635  1
  K  K43  1  0.88888889  0.44444444  1.16312635  1
  K  K44  1  0.88888889  0.77777778  1.16312635  1
  K  K45  1  0.11111111  0.22222222  1.49645968  1
  K  K46  1  0.11111111  0.55555556  1.49645968  1
  K  K47  1  0.11111111  0.88888889  1.49645968  1
  K  K48  1  0.44444444  0.22222222  1.49645968  1
  K  K49  1  0.44444444  0.55555556  1.49645968  1
  K  K50  1  0.44444444  0.88888889  1.49645968  1
  K  K51  1  0.77777778  0.22222222  1.49645968  1
  K  K52  1  0.77777778  0.55555556  1.49645968  1
  K  K53  1  0.77777778  0.88888889  1.49645968  1
  Pd  Pd54  1  0.05555556  -0.05555556  0.33333333  1
  Pd  Pd55  1  0.05555556  0.27777778  0.33333333  1
  Pd  Pd56  1  0.05555556  0.61111111  0.33333333  1
  Pd  Pd57  1  0.38888889  -0.05555556  0.33333333  1
  Pd  Pd58  1  0.38888889  0.27777778  0.33333333  1
  Pd  Pd59  1  0.38888889  0.61111111  0.33333333  1
  Pd  Pd60  1  0.72222222  -0.05555556  0.33333333  1
  Pd  Pd61  1  0.72222222  0.27777778  0.33333333  1
  Pd  Pd62  1  0.72222222  0.61111111  0.33333333  1
  Pd  Pd63  1  0.27777778  0.05555556  0.66666667  1
  Pd  Pd64  1  0.27777778  0.38888889  0.66666667  1
  Pd  Pd65  1  0.27777778  0.72222222  0.66666667  1
  Pd  Pd66  1  0.61111111  0.05555556  0.66666667  1
  Pd  Pd67  1  0.61111111  0.38888889  0.66666667  1
  Pd  Pd68  1  0.61111111  0.72222222  0.66666667  1
  Pd  Pd69  1  0.94444444  0.05555556  0.66666667  1
  Pd  Pd70  1  0.94444444  0.38888889  0.66666667  1
  Pd  Pd71  1  0.94444444  0.72222222  0.66666667  1
  Pd  Pd72  1  0.16666667  0.16666667  1.00000000  1
  Pd  Pd73  1  0.16666667  0.50000000  1.00000000  1
  Pd  Pd74  1  0.16666667  0.83333333  1.00000000  1
  Pd  Pd75  1  0.50000000  0.16666667  1.00000000  1
  Pd  Pd76  1  0.50000000  0.50000000  1.00000000  1
  Pd  Pd77  1  0.50000000  0.83333333  1.00000000  1
  Pd  Pd78  1  0.83333333  0.16666667  1.00000000  1
  Pd  Pd79  1  0.83333333  0.50000000  1.00000000  1
  Pd  Pd80  1  0.83333333  0.83333333  1.00000000  1
  Pd  Pd81  1  -0.11111111  -0.05555556  0.33333333  1
  Pd  Pd82  1  -0.11111111  0.27777778  0.33333333  1
  Pd  Pd83  1  -0.11111111  0.61111111  0.33333333  1
  Pd  Pd84  1  0.22222222  -0.05555556  0.33333333  1
  Pd  Pd85  1  0.22222222  0.27777778  0.33333333  1
  Pd  Pd86  1  0.22222222  0.61111111  0.33333333  1
  Pd  Pd87  1  0.55555556  -0.05555556  0.33333333  1
  Pd  Pd88  1  0.55555556  0.27777778  0.33333333  1
  Pd  Pd89  1  0.55555556  0.61111111  0.33333333  1
  Pd  Pd90  1  0.11111111  0.05555556  0.66666667  1
  Pd  Pd91  1  0.11111111  0.38888889  0.66666667  1
  Pd  Pd92  1  0.11111111  0.72222222  0.66666667  1
  Pd  Pd93  1  0.44444444  0.05555556  0.66666667  1
  Pd  Pd94  1  0.44444444  0.38888889  0.66666667  1
  Pd  Pd95  1  0.44444444  0.72222222  0.66666667  1
  Pd  Pd96  1  0.77777778  0.05555556  0.66666667  1
  Pd  Pd97  1  0.77777778  0.38888889  0.66666667  1
  Pd  Pd98  1  0.77777778  0.72222222  0.66666667  1
  Pd  Pd99  1  -0.00000000  0.16666667  1.00000000  1
  Pd  Pd100  1  0.00000000  0.50000000  1.00000000  1
  Pd  Pd101  1  -0.00000000  0.83333333  1.00000000  1
  Pd  Pd102  1  0.33333333  0.16666667  1.00000000  1
  Pd  Pd103  1  0.33333333  0.50000000  1.00000000  1
  Pd  Pd104  1  0.33333333  0.83333333  1.00000000  1
  Pd  Pd105  1  0.66666667  0.16666667  1.00000000  1
  Pd  Pd106  1  0.66666667  0.50000000  1.00000000  1
  Pd  Pd107  1  0.66666667  0.83333333  1.00000000  1
  Pd  Pd108  1  0.05555556  0.11111111  0.33333333  1
  Pd  Pd109  1  0.05555556  0.44444444  0.33333333  1
  Pd  Pd110  1  0.05555556  0.77777778  0.33333333  1
  Pd  Pd111  1  0.38888889  0.11111111  0.33333333  1
  Pd  Pd112  1  0.38888889  0.44444444  0.33333333  1
  Pd  Pd113  1  0.38888889  0.77777778  0.33333333  1
  Pd  Pd114  1  0.72222222  0.11111111  0.33333333  1
  Pd  Pd115  1  0.72222222  0.44444444  0.33333333  1
  Pd  Pd116  1  0.72222222  0.77777778  0.33333333  1
  Pd  Pd117  1  0.27777778  0.22222222  0.66666667  1
  Pd  Pd118  1  0.27777778  0.55555556  0.66666667  1
  Pd  Pd119  1  0.27777778  0.88888889  0.66666667  1
  Pd  Pd120  1  0.61111111  0.22222222  0.66666667  1
  Pd  Pd121  1  0.61111111  0.55555556  0.66666667  1
  Pd  Pd122  1  0.61111111  0.88888889  0.66666667  1
  Pd  Pd123  1  0.94444444  0.22222222  0.66666667  1
  Pd  Pd124  1  0.94444444  0.55555556  0.66666667  1
  Pd  Pd125  1  0.94444444  0.88888889  0.66666667  1
  Pd  Pd126  1  0.16666667  0.33333333  1.00000000  1
  Pd  Pd127  1  0.16666667  0.66666667  1.00000000  1
  Pd  Pd128  1  0.16666667  1.00000000  1.00000000  1
  Pd  Pd129  1  0.50000000  0.33333333  1.00000000  1
  Pd  Pd130  1  0.50000000  0.66666667  1.00000000  1
  Pd  Pd131  1  0.50000000  1.00000000  1.00000000  1
  Pd  Pd132  1  0.83333333  0.33333333  1.00000000  1
  Pd  Pd133  1  0.83333333  0.66666667  1.00000000  1
  Pd  Pd134  1  0.83333333  1.00000000  1.00000000  1
  Pd  Pd135  1  -0.00000000  -0.00000000  -0.00000000  1
  Pd  Pd136  1  0.00000000  0.33333333  -0.00000000  1
  Pd  Pd137  1  0.00000000  0.66666667  -0.00000000  1
  Pd  Pd138  1  0.33333333  -0.00000000  -0.00000000  1
  Pd  Pd139  1  0.33333333  0.33333333  -0.00000000  1
  Pd  Pd140  1  0.33333333  0.66666667  -0.00000000  1
  Pd  Pd141  1  0.66666667  -0.00000000  -0.00000000  1
  Pd  Pd142  1  0.66666667  0.33333333  -0.00000000  1
  Pd  Pd143  1  0.66666667  0.66666667  -0.00000000  1
  Pd  Pd144  1  0.22222222  0.11111111  0.33333333  1
  Pd  Pd145  1  0.22222222  0.44444444  0.33333333  1
  Pd  Pd146  1  0.22222222  0.77777778  0.33333333  1
  Pd  Pd147  1  0.55555556  0.11111111  0.33333333  1
  Pd  Pd148  1  0.55555556  0.44444444  0.33333333  1
  Pd  Pd149  1  0.55555556  0.77777778  0.33333333  1
  Pd  Pd150  1  0.88888889  0.11111111  0.33333333  1
  Pd  Pd151  1  0.88888889  0.44444444  0.33333333  1
  Pd  Pd152  1  0.88888889  0.77777778  0.33333333  1
  Pd  Pd153  1  0.11111111  0.22222222  0.66666667  1
  Pd  Pd154  1  0.11111111  0.55555556  0.66666667  1
  Pd  Pd155  1  0.11111111  0.88888889  0.66666667  1
  Pd  Pd156  1  0.44444444  0.22222222  0.66666667  1
  Pd  Pd157  1  0.44444444  0.55555556  0.66666667  1
  Pd  Pd158  1  0.44444444  0.88888889  0.66666667  1
  Pd  Pd159  1  0.77777778  0.22222222  0.66666667  1
  Pd  Pd160  1  0.77777778  0.55555556  0.66666667  1
  Pd  Pd161  1  0.77777778  0.88888889  0.66666667  1
  O  O162  1  0.11063130  0.05531565  0.27978025  1
  O  O163  1  0.11063130  0.38864898  0.27978025  1
  O  O164  1  0.11063130  0.72198232  0.27978025  1
  O  O165  1  0.44396464  0.05531565  0.27978025  1
  O  O166  1  0.44396464  0.38864898  0.27978025  1
  O  O167  1  0.44396464  0.72198232  0.27978025  1
  O  O168  1  0.77729797  0.05531565  0.27978025  1
  O  O169  1  0.77729797  0.38864898  0.27978025  1
  O  O170  1  0.77729797  0.72198232  0.27978025  1
  O  O171  1  0.33285353  0.16642676  0.61311359  1
  O  O172  1  0.33285353  0.49976010  0.61311359  1
  O  O173  1  0.33285353  0.83309343  0.61311359  1
  O  O174  1  0.66618686  0.16642676  0.61311359  1
  O  O175  1  0.66618686  0.49976010  0.61311359  1
  O  O176  1  0.66618686  0.83309343  0.61311359  1
  O  O177  1  0.99952019  0.16642676  0.61311359  1
  O  O178  1  0.99952019  0.49976010  0.61311359  1
  O  O179  1  0.99952019  0.83309343  0.61311359  1
  O  O180  1  0.22174241  0.27753787  0.94644692  1
  O  O181  1  0.22174241  0.61087121  0.94644692  1
  O  O182  1  0.22174241  0.94420454  0.94644692  1
  O  O183  1  0.55507575  0.27753787  0.94644692  1
  O  O184  1  0.55507575  0.61087121  0.94644692  1
  O  O185  1  0.55507575  0.94420454  0.94644692  1
  O  O186  1  0.88840908  0.27753787  0.94644692  1
  O  O187  1  0.88840908  0.61087121  0.94644692  1
  O  O188  1  0.88840908  0.94420454  0.94644692  1
  O  O189  1  -0.05531565  -0.11063130  0.27978025  1
  O  O190  1  -0.05531565  0.22270203  0.27978025  1
  O  O191  1  -0.05531565  0.55603536  0.27978025  1
  O  O192  1  0.27801768  -0.11063130  0.27978025  1
  O  O193  1  0.27801768  0.22270203  0.27978025  1
  O  O194  1  0.27801768  0.55603536  0.27978025  1
  O  O195  1  0.61135102  -0.11063130  0.27978025  1
  O  O196  1  0.61135102  0.22270203  0.27978025  1
  O  O197  1  0.61135102  0.55603536  0.27978025  1
  O  O198  1  0.16690657  0.00047981  0.61311359  1
  O  O199  1  0.16690657  0.33381314  0.61311359  1
  O  O200  1  0.16690657  0.66714647  0.61311359  1
  O  O201  1  0.50023990  0.00047981  0.61311359  1
  O  O202  1  0.50023990  0.33381314  0.61311359  1
  O  O203  1  0.50023990  0.66714647  0.61311359  1
  O  O204  1  0.83357324  0.00047981  0.61311359  1
  O  O205  1  0.83357324  0.33381314  0.61311359  1
  O  O206  1  0.83357324  0.66714647  0.61311359  1
  O  O207  1  0.05579546  0.11159092  0.94644692  1
  O  O208  1  0.05579546  0.44492425  0.94644692  1
  O  O209  1  0.05579546  0.77825759  0.94644692  1
  O  O210  1  0.38912879  0.11159092  0.94644692  1
  O  O211  1  0.38912879  0.44492425  0.94644692  1
  O  O212  1  0.38912879  0.77825759  0.94644692  1
  O  O213  1  0.72246213  0.11159092  0.94644692  1
  O  O214  1  0.72246213  0.44492425  0.94644692  1
  O  O215  1  0.72246213  0.77825759  0.94644692  1
  O  O216  1  -0.05531565  0.05531565  0.27978025  1
  O  O217  1  -0.05531565  0.38864898  0.27978025  1
  O  O218  1  -0.05531565  0.72198232  0.27978025  1
  O  O219  1  0.27801768  0.05531565  0.27978025  1
  O  O220  1  0.27801768  0.38864898  0.27978025  1
  O  O221  1  0.27801768  0.72198232  0.27978025  1
  O  O222  1  0.61135102  0.05531565  0.27978025  1
  O  O223  1  0.61135102  0.38864898  0.27978025  1
  O  O224  1  0.61135102  0.72198232  0.27978025  1
  O  O225  1  0.16690657  0.16642676  0.61311359  1
  O  O226  1  0.16690657  0.49976010  0.61311359  1
  O  O227  1  0.16690657  0.83309343  0.61311359  1
  O  O228  1  0.50023990  0.16642676  0.61311359  1
  O  O229  1  0.50023990  0.49976010  0.61311359  1
  O  O230  1  0.50023990  0.83309343  0.61311359  1
  O  O231  1  0.83357324  0.16642676  0.61311359  1
  O  O232  1  0.83357324  0.49976010  0.61311359  1
  O  O233  1  0.83357324  0.83309343  0.61311359  1
  O  O234  1  0.05579546  0.27753787  0.94644692  1
  O  O235  1  0.05579546  0.61087121  0.94644692  1
  O  O236  1  0.05579546  0.94420454  0.94644692  1
  O  O237  1  0.38912879  0.27753787  0.94644692  1
  O  O238  1  0.38912879  0.61087121  0.94644692  1
  O  O239  1  0.38912879  0.94420454  0.94644692  1
  O  O240  1  0.72246213  0.27753787  0.94644692  1
  O  O241  1  0.72246213  0.61087121  0.94644692  1
  O  O242  1  0.72246213  0.94420454  0.94644692  1
  O  O243  1  -0.11063130  -0.05531565  0.72021975  1
  O  O244  1  -0.11063130  0.27801768  0.72021975  1
  O  O245  1  -0.11063130  0.61135102  0.72021975  1
  O  O246  1  0.22270203  -0.05531565  0.72021975  1
  O  O247  1  0.22270203  0.27801768  0.72021975  1
  O  O248  1  0.22270203  0.61135102  0.72021975  1
  O  O249  1  0.55603536  -0.05531565  0.72021975  1
  O  O250  1  0.55603536  0.27801768  0.72021975  1
  O  O251  1  0.55603536  0.61135102  0.72021975  1
  O  O252  1  0.11159092  0.05579546  1.05355308  1
  O  O253  1  0.11159092  0.38912879  1.05355308  1
  O  O254  1  0.11159092  0.72246213  1.05355308  1
  O  O255  1  0.44492425  0.05579546  1.05355308  1
  O  O256  1  0.44492425  0.38912879  1.05355308  1
  O  O257  1  0.44492425  0.72246213  1.05355308  1
  O  O258  1  0.77825759  0.05579546  1.05355308  1
  O  O259  1  0.77825759  0.38912879  1.05355308  1
  O  O260  1  0.77825759  0.72246213  1.05355308  1
  O  O261  1  0.00047981  0.16690657  1.38688641  1
  O  O262  1  0.00047981  0.50023990  1.38688641  1
  O  O263  1  0.00047981  0.83357324  1.38688641  1
  O  O264  1  0.33381314  0.16690657  1.38688641  1
  O  O265  1  0.33381314  0.50023990  1.38688641  1
  O  O266  1  0.33381314  0.83357324  1.38688641  1
  O  O267  1  0.66714647  0.16690657  1.38688641  1
  O  O268  1  0.66714647  0.50023990  1.38688641  1
  O  O269  1  0.66714647  0.83357324  1.38688641  1
  O  O270  1  0.05531565  0.11063130  0.72021975  1
  O  O271  1  0.05531565  0.44396464  0.72021975  1
  O  O272  1  0.05531565  0.77729797  0.72021975  1
  O  O273  1  0.38864898  0.11063130  0.72021975  1
  O  O274  1  0.38864898  0.44396464  0.72021975  1
  O  O275  1  0.38864898  0.77729797  0.72021975  1
  O  O276  1  0.72198232  0.11063130  0.72021975  1
  O  O277  1  0.72198232  0.44396464  0.72021975  1
  O  O278  1  0.72198232  0.77729797  0.72021975  1
  O  O279  1  0.27753787  0.22174241  1.05355308  1
  O  O280  1  0.27753787  0.55507575  1.05355308  1
  O  O281  1  0.27753787  0.88840908  1.05355308  1
  O  O282  1  0.61087121  0.22174241  1.05355308  1
  O  O283  1  0.61087121  0.55507575  1.05355308  1
  O  O284  1  0.61087121  0.88840908  1.05355308  1
  O  O285  1  0.94420454  0.22174241  1.05355308  1
  O  O286  1  0.94420454  0.55507575  1.05355308  1
  O  O287  1  0.94420454  0.88840908  1.05355308  1
  O  O288  1  0.16642676  0.33285353  1.38688641  1
  O  O289  1  0.16642676  0.66618686  1.38688641  1
  O  O290  1  0.16642676  0.99952019  1.38688641  1
  O  O291  1  0.49976010  0.33285353  1.38688641  1
  O  O292  1  0.49976010  0.66618686  1.38688641  1
  O  O293  1  0.49976010  0.99952019  1.38688641  1
  O  O294  1  0.83309343  0.33285353  1.38688641  1
  O  O295  1  0.83309343  0.66618686  1.38688641  1
  O  O296  1  0.83309343  0.99952019  1.38688641  1
  O  O297  1  0.05531565  -0.05531565  0.72021975  1
  O  O298  1  0.05531565  0.27801768  0.72021975  1
  O  O299  1  0.05531565  0.61135102  0.72021975  1
  O  O300  1  0.38864898  -0.05531565  0.72021975  1
  O  O301  1  0.38864898  0.27801768  0.72021975  1
  O  O302  1  0.38864898  0.61135102  0.72021975  1
  O  O303  1  0.72198232  -0.05531565  0.72021975  1
  O  O304  1  0.72198232  0.27801768  0.72021975  1
  O  O305  1  0.72198232  0.61135102  0.72021975  1
  O  O306  1  0.27753787  0.05579546  1.05355308  1
  O  O307  1  0.27753787  0.38912879  1.05355308  1
  O  O308  1  0.27753787  0.72246213  1.05355308  1
  O  O309  1  0.61087121  0.05579546  1.05355308  1
  O  O310  1  0.61087121  0.38912879  1.05355308  1
  O  O311  1  0.61087121  0.72246213  1.05355308  1
  O  O312  1  0.94420454  0.05579546  1.05355308  1
  O  O313  1  0.94420454  0.38912879  1.05355308  1
  O  O314  1  0.94420454  0.72246213  1.05355308  1
  O  O315  1  0.16642676  0.16690657  1.38688641  1
  O  O316  1  0.16642676  0.50023990  1.38688641  1
  O  O317  1  0.16642676  0.83357324  1.38688641  1
  O  O318  1  0.49976010  0.16690657  1.38688641  1
  O  O319  1  0.49976010  0.50023990  1.38688641  1
  O  O320  1  0.49976010  0.83357324  1.38688641  1
  O  O321  1  0.83309343  0.16690657  1.38688641  1
  O  O322  1  0.83309343  0.50023990  1.38688641  1
  O  O323  1  0.83309343  0.83357324  1.38688641  1
