# generated using pymatgen
data_ScNbO4
_symmetry_space_group_name_H-M   'P 1'
_cell_length_a   9.63389365
_cell_length_b   11.37066058
_cell_length_c   10.17378104
_cell_angle_alpha   90.00000000
_cell_angle_beta   90.76320834
_cell_angle_gamma   90.00000000
_symmetry_Int_Tables_number   1
_chemical_formula_structural   ScNbO4
_chemical_formula_sum   'Sc16 Nb16 O64'
_cell_volume   1114.37509871
_cell_formula_units_Z   16
loop_
 _symmetry_equiv_pos_site_id
 _symmetry_equiv_pos_as_xyz
  1  'x, y, z'
loop_
 _atom_site_type_symbol
 _atom_site_label
 _atom_site_symmetry_multiplicity
 _atom_site_fract_x
 _atom_site_fract_y
 _atom_site_fract_z
 _atom_site_occupancy
  Sc  Sc0  1  0.25000000  0.33978522  0.12500000  1
  Sc  Sc1  1  0.25000000  0.33978522  0.62500000  1
  Sc  Sc2  1  0.25000000  0.83978522  0.12500000  1
  Sc  Sc3  1  0.25000000  0.83978522  0.62500000  1
  Sc  Sc4  1  0.75000000  0.33978522  0.12500000  1
  Sc  Sc5  1  0.75000000  0.33978522  0.62500000  1
  Sc  Sc6  1  0.75000000  0.83978522  0.12500000  1
  Sc  Sc7  1  0.75000000  0.83978522  0.62500000  1
  Sc  Sc8  1  0.25000000  0.16021478  0.37500000  1
  Sc  Sc9  1  0.25000000  0.16021478  0.87500000  1
  Sc  Sc10  1  0.25000000  0.66021478  0.37500000  1
  Sc  Sc11  1  0.25000000  0.66021478  0.87500000  1
  Sc  Sc12  1  0.75000000  0.16021478  0.37500000  1
  Sc  Sc13  1  0.75000000  0.16021478  0.87500000  1
  Sc  Sc14  1  0.75000000  0.66021478  0.37500000  1
  Sc  Sc15  1  0.75000000  0.66021478  0.87500000  1
  Nb  Nb16  1  0.00000000  0.40753178  0.37500000  1
  Nb  Nb17  1  0.00000000  0.40753178  0.87500000  1
  Nb  Nb18  1  0.00000000  0.90753178  0.37500000  1
  Nb  Nb19  1  0.00000000  0.90753178  0.87500000  1
  Nb  Nb20  1  0.50000000  0.40753178  0.37500000  1
  Nb  Nb21  1  0.50000000  0.40753178  0.87500000  1
  Nb  Nb22  1  0.50000000  0.90753178  0.37500000  1
  Nb  Nb23  1  0.50000000  0.90753178  0.87500000  1
  Nb  Nb24  1  0.00000000  0.09246822  0.12500000  1
  Nb  Nb25  1  -0.00000000  0.09246822  0.62500000  1
  Nb  Nb26  1  0.00000000  0.59246822  0.12500000  1
  Nb  Nb27  1  -0.00000000  0.59246822  0.62500000  1
  Nb  Nb28  1  0.50000000  0.09246822  0.12500000  1
  Nb  Nb29  1  0.50000000  0.09246822  0.62500000  1
  Nb  Nb30  1  0.50000000  0.59246822  0.12500000  1
  Nb  Nb31  1  0.50000000  0.59246822  0.62500000  1
  O  O32  1  0.10996915  0.44673836  0.21705553  1
  O  O33  1  0.10996915  0.44673836  0.71705553  1
  O  O34  1  0.10996915  0.94673836  0.21705553  1
  O  O35  1  0.10996915  0.94673836  0.71705553  1
  O  O36  1  0.60996915  0.44673836  0.21705553  1
  O  O37  1  0.60996915  0.44673836  0.71705553  1
  O  O38  1  0.60996915  0.94673836  0.21705553  1
  O  O39  1  0.60996915  0.94673836  0.71705553  1
  O  O40  1  0.39003085  0.44673836  0.03294447  1
  O  O41  1  0.39003085  0.44673836  0.53294447  1
  O  O42  1  0.39003085  0.94673836  0.03294447  1
  O  O43  1  0.39003085  0.94673836  0.53294447  1
  O  O44  1  0.89003085  0.44673836  0.03294447  1
  O  O45  1  0.89003085  0.44673836  0.53294447  1
  O  O46  1  0.89003085  0.94673836  0.03294447  1
  O  O47  1  0.89003085  0.94673836  0.53294447  1
  O  O48  1  0.10996915  0.05326164  0.46705553  1
  O  O49  1  0.10996915  0.05326164  0.96705553  1
  O  O50  1  0.10996915  0.55326164  0.46705553  1
  O  O51  1  0.10996915  0.55326164  0.96705553  1
  O  O52  1  0.60996915  0.05326164  0.46705553  1
  O  O53  1  0.60996915  0.05326164  0.96705553  1
  O  O54  1  0.60996915  0.55326164  0.46705553  1
  O  O55  1  0.60996915  0.55326164  0.96705553  1
  O  O56  1  0.36660850  0.19417356  0.04510984  1
  O  O57  1  0.36660850  0.19417356  0.54510984  1
  O  O58  1  0.36660850  0.69417356  0.04510984  1
  O  O59  1  0.36660850  0.69417356  0.54510984  1
  O  O60  1  0.86660850  0.19417356  0.04510984  1
  O  O61  1  0.86660850  0.19417356  0.54510984  1
  O  O62  1  0.86660850  0.69417356  0.04510984  1
  O  O63  1  0.86660850  0.69417356  0.54510984  1
  O  O64  1  0.13339150  0.30582644  0.45489016  1
  O  O65  1  0.13339150  0.30582644  0.95489016  1
  O  O66  1  0.13339150  0.80582644  0.45489016  1
  O  O67  1  0.13339150  0.80582644  0.95489016  1
  O  O68  1  0.63339150  0.30582644  0.45489016  1
  O  O69  1  0.63339150  0.30582644  0.95489016  1
  O  O70  1  0.63339150  0.80582644  0.45489016  1
  O  O71  1  0.63339150  0.80582644  0.95489016  1
  O  O72  1  0.39003085  0.05326164  0.28294447  1
  O  O73  1  0.39003085  0.05326164  0.78294447  1
  O  O74  1  0.39003085  0.55326164  0.28294447  1
  O  O75  1  0.39003085  0.55326164  0.78294447  1
  O  O76  1  0.89003085  0.05326164  0.28294447  1
  O  O77  1  0.89003085  0.05326164  0.78294447  1
  O  O78  1  0.89003085  0.55326164  0.28294447  1
  O  O79  1  0.89003085  0.55326164  0.78294447  1
  O  O80  1  0.36660850  0.30582644  0.29510984  1
  O  O81  1  0.36660850  0.30582644  0.79510984  1
  O  O82  1  0.36660850  0.80582644  0.29510984  1
  O  O83  1  0.36660850  0.80582644  0.79510984  1
  O  O84  1  0.86660850  0.30582644  0.29510984  1
  O  O85  1  0.86660850  0.30582644  0.79510984  1
  O  O86  1  0.86660850  0.80582644  0.29510984  1
  O  O87  1  0.86660850  0.80582644  0.79510984  1
  O  O88  1  0.13339150  0.19417356  0.20489016  1
  O  O89  1  0.13339150  0.19417356  0.70489016  1
  O  O90  1  0.13339150  0.69417356  0.20489016  1
  O  O91  1  0.13339150  0.69417356  0.70489016  1
  O  O92  1  0.63339150  0.19417356  0.20489016  1
  O  O93  1  0.63339150  0.19417356  0.70489016  1
  O  O94  1  0.63339150  0.69417356  0.20489016  1
  O  O95  1  0.63339150  0.69417356  0.70489016  1
