# generated using pymatgen
data_Na2SnO3
_symmetry_space_group_name_H-M   'P 1'
_cell_length_a   11.04960571
_cell_length_b   9.57839532
_cell_length_c   10.96910255
_cell_angle_alpha   90.00000000
_cell_angle_beta   99.84652346
_cell_angle_gamma   90.00000000
_symmetry_Int_Tables_number   1
_chemical_formula_structural   Na2SnO3
_chemical_formula_sum   'Na32 Sn16 O48'
_cell_volume   1143.84088301
_cell_formula_units_Z   16
loop_
 _symmetry_equiv_pos_site_id
 _symmetry_equiv_pos_as_xyz
  1  'x, y, z'
loop_
 _atom_site_type_symbol
 _atom_site_label
 _atom_site_symmetry_multiplicity
 _atom_site_fract_x
 _atom_site_fract_y
 _atom_site_fract_z
 _atom_site_occupancy
  Na  Na0  1  0.11906099  -0.07917941  0.49984657  1
  Na  Na1  1  0.61906099  -0.07917941  0.49984657  1
  Na  Na2  1  0.36906099  0.42082059  0.49984657  1
  Na  Na3  1  0.86906099  0.42082059  0.49984657  1
  Na  Na4  1  0.12500000  -0.25000000  0.00000000  1
  Na  Na5  1  0.62500000  -0.25000000  0.00000000  1
  Na  Na6  1  0.37500000  0.25000000  0.00000000  1
  Na  Na7  1  0.87500000  0.25000000  0.00000000  1
  Na  Na8  1  0.25000000  -0.41477301  0.25000000  1
  Na  Na9  1  0.75000000  -0.41477301  0.25000000  1
  Na  Na10  1  0.50000000  0.08522699  0.25000000  1
  Na  Na11  1  1.00000000  0.08522699  0.25000000  1
  Na  Na12  1  0.12500000  0.25000000  0.50000000  1
  Na  Na13  1  0.62500000  0.25000000  0.50000000  1
  Na  Na14  1  0.37500000  0.75000000  0.50000000  1
  Na  Na15  1  0.87500000  0.75000000  0.50000000  1
  Na  Na16  1  0.11906099  0.07917941  0.99984657  1
  Na  Na17  1  0.61906099  0.07917941  0.99984657  1
  Na  Na18  1  0.36906099  0.57917941  0.99984657  1
  Na  Na19  1  0.86906099  0.57917941  0.99984657  1
  Na  Na20  1  0.38093901  -0.07917941  0.00015343  1
  Na  Na21  1  0.88093901  -0.07917941  0.00015343  1
  Na  Na22  1  0.63093901  0.42082059  0.00015343  1
  Na  Na23  1  1.13093901  0.42082059  0.00015343  1
  Na  Na24  1  0.25000000  0.41477301  0.75000000  1
  Na  Na25  1  0.75000000  0.41477301  0.75000000  1
  Na  Na26  1  0.50000000  0.91477301  0.75000000  1
  Na  Na27  1  1.00000000  0.91477301  0.75000000  1
  Na  Na28  1  0.38093901  0.07917941  0.50015343  1
  Na  Na29  1  0.88093901  0.07917941  0.50015343  1
  Na  Na30  1  0.63093901  0.57917941  0.50015343  1
  Na  Na31  1  1.13093901  0.57917941  0.50015343  1
  Sn  Sn32  1  0.25000000  -0.08157031  0.25000000  1
  Sn  Sn33  1  0.75000000  -0.08157031  0.25000000  1
  Sn  Sn34  1  0.50000000  0.41842969  0.25000000  1
  Sn  Sn35  1  1.00000000  0.41842969  0.25000000  1
  Sn  Sn36  1  0.25000000  -0.25107268  0.75000000  1
  Sn  Sn37  1  0.75000000  -0.25107268  0.75000000  1
  Sn  Sn38  1  0.50000000  0.24892732  0.75000000  1
  Sn  Sn39  1  1.00000000  0.24892732  0.75000000  1
  Sn  Sn40  1  0.25000000  0.25107268  0.25000000  1
  Sn  Sn41  1  0.75000000  0.25107268  0.25000000  1
  Sn  Sn42  1  0.50000000  0.75107268  0.25000000  1
  Sn  Sn43  1  1.00000000  0.75107268  0.25000000  1
  Sn  Sn44  1  0.25000000  0.08157031  0.75000000  1
  Sn  Sn45  1  0.75000000  0.08157031  0.75000000  1
  Sn  Sn46  1  0.50000000  0.58157031  0.75000000  1
  Sn  Sn47  1  1.00000000  0.58157031  0.75000000  1
  O  O48  1  0.07271596  -0.09797904  0.14129344  1
  O  O49  1  0.57271596  -0.09797904  0.14129344  1
  O  O50  1  0.32271596  0.40202096  0.14129344  1
  O  O51  1  0.82271596  0.40202096  0.14129344  1
  O  O52  1  0.17647751  -0.23158426  0.35723572  1
  O  O53  1  0.67647751  -0.23158426  0.35723572  1
  O  O54  1  0.42647751  0.26841574  0.35723572  1
  O  O55  1  0.92647751  0.26841574  0.35723572  1
  O  O56  1  0.32352249  -0.23158426  0.14276428  1
  O  O57  1  0.82352249  -0.23158426  0.14276428  1
  O  O58  1  0.57352249  0.26841574  0.14276428  1
  O  O59  1  1.07352249  0.26841574  0.14276428  1
  O  O60  1  0.20132741  -0.08466963  0.85771903  1
  O  O61  1  0.70132741  -0.08466963  0.85771903  1
  O  O62  1  0.45132741  0.41533037  0.85771903  1
  O  O63  1  0.95132741  0.41533037  0.85771903  1
  O  O64  1  0.07271596  0.09797904  0.64129344  1
  O  O65  1  0.57271596  0.09797904  0.64129344  1
  O  O66  1  0.32271596  0.59797904  0.64129344  1
  O  O67  1  0.82271596  0.59797904  0.64129344  1
  O  O68  1  0.29867259  -0.08466963  0.64228097  1
  O  O69  1  0.79867259  -0.08466963  0.64228097  1
  O  O70  1  0.54867259  0.41533037  0.64228097  1
  O  O71  1  1.04867259  0.41533037  0.64228097  1
  O  O72  1  0.20132741  0.08466963  0.35771903  1
  O  O73  1  0.70132741  0.08466963  0.35771903  1
  O  O74  1  0.45132741  0.58466963  0.35771903  1
  O  O75  1  0.95132741  0.58466963  0.35771903  1
  O  O76  1  0.42728404  -0.09797904  0.35870656  1
  O  O77  1  0.92728404  -0.09797904  0.35870656  1
  O  O78  1  0.67728404  0.40202096  0.35870656  1
  O  O79  1  1.17728404  0.40202096  0.35870656  1
  O  O80  1  0.29867259  0.08466963  0.14228097  1
  O  O81  1  0.79867259  0.08466963  0.14228097  1
  O  O82  1  0.54867259  0.58466963  0.14228097  1
  O  O83  1  1.04867259  0.58466963  0.14228097  1
  O  O84  1  0.17647751  0.23158426  0.85723572  1
  O  O85  1  0.67647751  0.23158426  0.85723572  1
  O  O86  1  0.42647751  0.73158426  0.85723572  1
  O  O87  1  0.92647751  0.73158426  0.85723572  1
  O  O88  1  0.32352249  0.23158426  0.64276428  1
  O  O89  1  0.82352249  0.23158426  0.64276428  1
  O  O90  1  0.57352249  0.73158426  0.64276428  1
  O  O91  1  1.07352249  0.73158426  0.64276428  1
  O  O92  1  0.42728404  0.09797904  0.85870656  1
  O  O93  1  0.92728404  0.09797904  0.85870656  1
  O  O94  1  0.67728404  0.59797904  0.85870656  1
  O  O95  1  1.17728404  0.59797904  0.85870656  1
