# generated using pymatgen
data_RbNaCd3O4
_symmetry_space_group_name_H-M   'P 1'
_cell_length_a   12.80906267
_cell_length_b   14.65915909
_cell_length_c   18.13003283
_cell_angle_alpha   90.00000000
_cell_angle_beta   134.31721281
_cell_angle_gamma   90.00000000
_symmetry_Int_Tables_number   1
_chemical_formula_structural   RbNaCd3O4
_chemical_formula_sum   'Rb16 Na16 Cd48 O64'
_cell_volume   2435.70253271
_cell_formula_units_Z   16
loop_
 _symmetry_equiv_pos_site_id
 _symmetry_equiv_pos_as_xyz
  1  'x, y, z'
loop_
 _atom_site_type_symbol
 _atom_site_label
 _atom_site_symmetry_multiplicity
 _atom_site_fract_x
 _atom_site_fract_y
 _atom_site_fract_z
 _atom_site_occupancy
  Rb  Rb0  1  0.00470451  -0.00000000  0.00369203  1
  Rb  Rb1  1  0.00470451  -0.00000000  0.50369203  1
  Rb  Rb2  1  0.00470451  0.25000000  0.00369203  1
  Rb  Rb3  1  0.00470451  0.25000000  0.50369203  1
  Rb  Rb4  1  0.00470451  0.50000000  0.00369203  1
  Rb  Rb5  1  0.00470451  0.50000000  0.50369203  1
  Rb  Rb6  1  0.00470451  0.75000000  0.00369203  1
  Rb  Rb7  1  0.00470451  0.75000000  0.50369203  1
  Rb  Rb8  1  0.50470451  0.12500000  0.00369203  1
  Rb  Rb9  1  0.50470451  0.12500000  0.50369203  1
  Rb  Rb10  1  0.50470451  0.37500000  0.00369203  1
  Rb  Rb11  1  0.50470451  0.37500000  0.50369203  1
  Rb  Rb12  1  0.50470451  0.62500000  0.00369203  1
  Rb  Rb13  1  0.50470451  0.62500000  0.50369203  1
  Rb  Rb14  1  0.50470451  0.87500000  0.00369203  1
  Rb  Rb15  1  0.50470451  0.87500000  0.50369203  1
  Na  Na16  1  0.81993349  -0.00000000  0.09393747  1
  Na  Na17  1  0.81993349  -0.00000000  0.59393747  1
  Na  Na18  1  0.81993349  0.25000000  0.09393747  1
  Na  Na19  1  0.81993349  0.25000000  0.59393747  1
  Na  Na20  1  0.81993349  0.50000000  0.09393747  1
  Na  Na21  1  0.81993349  0.50000000  0.59393747  1
  Na  Na22  1  0.81993349  0.75000000  0.09393747  1
  Na  Na23  1  0.81993349  0.75000000  0.59393747  1
  Na  Na24  1  1.31993349  0.12500000  0.09393747  1
  Na  Na25  1  1.31993349  0.12500000  0.59393747  1
  Na  Na26  1  1.31993349  0.37500000  0.09393747  1
  Na  Na27  1  1.31993349  0.37500000  0.59393747  1
  Na  Na28  1  1.31993349  0.62500000  0.09393747  1
  Na  Na29  1  1.31993349  0.62500000  0.59393747  1
  Na  Na30  1  1.31993349  0.87500000  0.09393747  1
  Na  Na31  1  1.31993349  0.87500000  0.59393747  1
  Cd  Cd32  1  0.19114347  -0.00000000  0.41450006  1
  Cd  Cd33  1  0.19114347  -0.00000000  0.91450006  1
  Cd  Cd34  1  0.19114347  0.25000000  0.41450006  1
  Cd  Cd35  1  0.19114347  0.25000000  0.91450006  1
  Cd  Cd36  1  0.19114347  0.50000000  0.41450006  1
  Cd  Cd37  1  0.19114347  0.50000000  0.91450006  1
  Cd  Cd38  1  0.19114347  0.75000000  0.41450006  1
  Cd  Cd39  1  0.19114347  0.75000000  0.91450006  1
  Cd  Cd40  1  0.69114347  0.12500000  0.41450006  1
  Cd  Cd41  1  0.69114347  0.12500000  0.91450006  1
  Cd  Cd42  1  0.69114347  0.37500000  0.41450006  1
  Cd  Cd43  1  0.69114347  0.37500000  0.91450006  1
  Cd  Cd44  1  0.69114347  0.62500000  0.41450006  1
  Cd  Cd45  1  0.69114347  0.62500000  0.91450006  1
  Cd  Cd46  1  0.69114347  0.87500000  0.41450006  1
  Cd  Cd47  1  0.69114347  0.87500000  0.91450006  1
  Cd  Cd48  1  0.62074425  -0.00000000  0.21913972  1
  Cd  Cd49  1  0.62074425  -0.00000000  0.71913972  1
  Cd  Cd50  1  0.62074425  0.25000000  0.21913972  1
  Cd  Cd51  1  0.62074425  0.25000000  0.71913972  1
  Cd  Cd52  1  0.62074425  0.50000000  0.21913972  1
  Cd  Cd53  1  0.62074425  0.50000000  0.71913972  1
  Cd  Cd54  1  0.62074425  0.75000000  0.21913972  1
  Cd  Cd55  1  0.62074425  0.75000000  0.71913972  1
  Cd  Cd56  1  1.12074425  0.12500000  0.21913972  1
  Cd  Cd57  1  1.12074425  0.12500000  0.71913972  1
  Cd  Cd58  1  1.12074425  0.37500000  0.21913972  1
  Cd  Cd59  1  1.12074425  0.37500000  0.71913972  1
  Cd  Cd60  1  1.12074425  0.62500000  0.21913972  1
  Cd  Cd61  1  1.12074425  0.62500000  0.71913972  1
  Cd  Cd62  1  1.12074425  0.87500000  0.21913972  1
  Cd  Cd63  1  1.12074425  0.87500000  0.71913972  1
  Cd  Cd64  1  0.37048009  -0.00000000  0.27428788  1
  Cd  Cd65  1  0.37048009  -0.00000000  0.77428788  1
  Cd  Cd66  1  0.37048009  0.25000000  0.27428788  1
  Cd  Cd67  1  0.37048009  0.25000000  0.77428788  1
  Cd  Cd68  1  0.37048009  0.50000000  0.27428788  1
  Cd  Cd69  1  0.37048009  0.50000000  0.77428788  1
  Cd  Cd70  1  0.37048009  0.75000000  0.27428788  1
  Cd  Cd71  1  0.37048009  0.75000000  0.77428788  1
  Cd  Cd72  1  0.87048009  0.12500000  0.27428788  1
  Cd  Cd73  1  0.87048009  0.12500000  0.77428788  1
  Cd  Cd74  1  0.87048009  0.37500000  0.27428788  1
  Cd  Cd75  1  0.87048009  0.37500000  0.77428788  1
  Cd  Cd76  1  0.87048009  0.62500000  0.27428788  1
  Cd  Cd77  1  0.87048009  0.62500000  0.77428788  1
  Cd  Cd78  1  0.87048009  0.87500000  0.27428788  1
  Cd  Cd79  1  0.87048009  0.87500000  0.77428788  1
  O  O80  1  0.76209011  -0.00000000  0.18472941  1
  O  O81  1  0.76209011  -0.00000000  0.68472941  1
  O  O82  1  0.76209011  0.25000000  0.18472941  1
  O  O83  1  0.76209011  0.25000000  0.68472941  1
  O  O84  1  0.76209011  0.50000000  0.18472941  1
  O  O85  1  0.76209011  0.50000000  0.68472941  1
  O  O86  1  0.76209011  0.75000000  0.18472941  1
  O  O87  1  0.76209011  0.75000000  0.68472941  1
  O  O88  1  1.26209011  0.12500000  0.18472941  1
  O  O89  1  1.26209011  0.12500000  0.68472941  1
  O  O90  1  1.26209011  0.37500000  0.18472941  1
  O  O91  1  1.26209011  0.37500000  0.68472941  1
  O  O92  1  1.26209011  0.62500000  0.18472941  1
  O  O93  1  1.26209011  0.62500000  0.68472941  1
  O  O94  1  1.26209011  0.87500000  0.18472941  1
  O  O95  1  1.26209011  0.87500000  0.68472941  1
  O  O96  1  0.23197181  -0.00000000  0.31624027  1
  O  O97  1  0.23197181  -0.00000000  0.81624027  1
  O  O98  1  0.23197181  0.25000000  0.31624027  1
  O  O99  1  0.23197181  0.25000000  0.81624027  1
  O  O100  1  0.23197181  0.50000000  0.31624027  1
  O  O101  1  0.23197181  0.50000000  0.81624027  1
  O  O102  1  0.23197181  0.75000000  0.31624027  1
  O  O103  1  0.23197181  0.75000000  0.81624027  1
  O  O104  1  0.73197181  0.12500000  0.31624027  1
  O  O105  1  0.73197181  0.12500000  0.81624027  1
  O  O106  1  0.73197181  0.37500000  0.31624027  1
  O  O107  1  0.73197181  0.37500000  0.81624027  1
  O  O108  1  0.73197181  0.62500000  0.31624027  1
  O  O109  1  0.73197181  0.62500000  0.81624027  1
  O  O110  1  0.73197181  0.87500000  0.31624027  1
  O  O111  1  0.73197181  0.87500000  0.81624027  1
  O  O112  1  0.40199503  -0.00000000  0.07604119  1
  O  O113  1  0.40199503  -0.00000000  0.57604119  1
  O  O114  1  0.40199503  0.25000000  0.07604119  1
  O  O115  1  0.40199503  0.25000000  0.57604119  1
  O  O116  1  0.40199503  0.50000000  0.07604119  1
  O  O117  1  0.40199503  0.50000000  0.57604119  1
  O  O118  1  0.40199503  0.75000000  0.07604119  1
  O  O119  1  0.40199503  0.75000000  0.57604119  1
  O  O120  1  0.90199503  0.12500000  0.07604119  1
  O  O121  1  0.90199503  0.12500000  0.57604119  1
  O  O122  1  0.90199503  0.37500000  0.07604119  1
  O  O123  1  0.90199503  0.37500000  0.57604119  1
  O  O124  1  0.90199503  0.62500000  0.07604119  1
  O  O125  1  0.90199503  0.62500000  0.57604119  1
  O  O126  1  0.90199503  0.87500000  0.07604119  1
  O  O127  1  0.90199503  0.87500000  0.57604119  1
  O  O128  1  0.59693824  -0.00000000  0.41743347  1
  O  O129  1  0.59693824  -0.00000000  0.91743347  1
  O  O130  1  0.59693824  0.25000000  0.41743347  1
  O  O131  1  0.59693824  0.25000000  0.91743347  1
  O  O132  1  0.59693824  0.50000000  0.41743347  1
  O  O133  1  0.59693824  0.50000000  0.91743347  1
  O  O134  1  0.59693824  0.75000000  0.41743347  1
  O  O135  1  0.59693824  0.75000000  0.91743347  1
  O  O136  1  1.09693824  0.12500000  0.41743347  1
  O  O137  1  1.09693824  0.12500000  0.91743347  1
  O  O138  1  1.09693824  0.37500000  0.41743347  1
  O  O139  1  1.09693824  0.37500000  0.91743347  1
  O  O140  1  1.09693824  0.62500000  0.41743347  1
  O  O141  1  1.09693824  0.62500000  0.91743347  1
  O  O142  1  1.09693824  0.87500000  0.41743347  1
  O  O143  1  1.09693824  0.87500000  0.91743347  1
