# generated using pymatgen
data_Cs2Li2TiO4
_symmetry_space_group_name_H-M   'P 1'
_cell_length_a   17.37261169
_cell_length_b   17.66995350
_cell_length_c   18.54544711
_cell_angle_alpha   83.33603785
_cell_angle_beta   73.86782113
_cell_angle_gamma   86.31132866
_symmetry_Int_Tables_number   1
_chemical_formula_structural   Cs2Li2TiO4
_chemical_formula_sum   'Cs72 Li72 Ti36 O144'
_cell_volume   5428.76470970
_cell_formula_units_Z   36
loop_
 _symmetry_equiv_pos_site_id
 _symmetry_equiv_pos_as_xyz
  1  'x, y, z'
loop_
 _atom_site_type_symbol
 _atom_site_label
 _atom_site_symmetry_multiplicity
 _atom_site_fract_x
 _atom_site_fract_y
 _atom_site_fract_z
 _atom_site_occupancy
  Cs  Cs0  1  0.15629686  0.28404649  0.35969165  1
  Cs  Cs1  1  0.15629686  0.28404649  0.85969165  1
  Cs  Cs2  1  0.15629686  0.61737982  0.35969165  1
  Cs  Cs3  1  0.15629686  0.61737982  0.85969165  1
  Cs  Cs4  1  0.15629686  0.95071316  0.35969165  1
  Cs  Cs5  1  0.15629686  0.95071316  0.85969165  1
  Cs  Cs6  1  0.48963020  0.28404649  0.35969165  1
  Cs  Cs7  1  0.48963020  0.28404649  0.85969165  1
  Cs  Cs8  1  0.48963020  0.61737982  0.35969165  1
  Cs  Cs9  1  0.48963020  0.61737982  0.85969165  1
  Cs  Cs10  1  0.48963020  0.95071316  0.35969165  1
  Cs  Cs11  1  0.48963020  0.95071316  0.85969165  1
  Cs  Cs12  1  0.82296353  0.28404649  0.35969165  1
  Cs  Cs13  1  0.82296353  0.28404649  0.85969165  1
  Cs  Cs14  1  0.82296353  0.61737982  0.35969165  1
  Cs  Cs15  1  0.82296353  0.61737982  0.85969165  1
  Cs  Cs16  1  0.82296353  0.95071316  0.35969165  1
  Cs  Cs17  1  0.82296353  0.95071316  0.85969165  1
  Cs  Cs18  1  0.17703647  0.04928684  0.14030835  1
  Cs  Cs19  1  0.17703647  0.04928684  0.64030835  1
  Cs  Cs20  1  0.17703647  0.38262018  0.14030835  1
  Cs  Cs21  1  0.17703647  0.38262018  0.64030835  1
  Cs  Cs22  1  0.17703647  0.71595351  0.14030835  1
  Cs  Cs23  1  0.17703647  0.71595351  0.64030835  1
  Cs  Cs24  1  0.51036980  0.04928684  0.14030835  1
  Cs  Cs25  1  0.51036980  0.04928684  0.64030835  1
  Cs  Cs26  1  0.51036980  0.38262018  0.14030835  1
  Cs  Cs27  1  0.51036980  0.38262018  0.64030835  1
  Cs  Cs28  1  0.51036980  0.71595351  0.14030835  1
  Cs  Cs29  1  0.51036980  0.71595351  0.64030835  1
  Cs  Cs30  1  0.84370314  0.04928684  0.14030835  1
  Cs  Cs31  1  0.84370314  0.04928684  0.64030835  1
  Cs  Cs32  1  0.84370314  0.38262018  0.14030835  1
  Cs  Cs33  1  0.84370314  0.38262018  0.64030835  1
  Cs  Cs34  1  0.84370314  0.71595351  0.14030835  1
  Cs  Cs35  1  0.84370314  0.71595351  0.64030835  1
  Cs  Cs36  1  0.26088328  0.24142229  0.00791032  1
  Cs  Cs37  1  0.26088328  0.24142229  0.50791032  1
  Cs  Cs38  1  0.26088328  0.57475563  0.00791032  1
  Cs  Cs39  1  0.26088328  0.57475563  0.50791032  1
  Cs  Cs40  1  0.26088328  0.90808896  0.00791032  1
  Cs  Cs41  1  0.26088328  0.90808896  0.50791032  1
  Cs  Cs42  1  0.59421661  0.24142229  0.00791032  1
  Cs  Cs43  1  0.59421661  0.24142229  0.50791032  1
  Cs  Cs44  1  0.59421661  0.57475563  0.00791032  1
  Cs  Cs45  1  0.59421661  0.57475563  0.50791032  1
  Cs  Cs46  1  0.59421661  0.90808896  0.00791032  1
  Cs  Cs47  1  0.59421661  0.90808896  0.50791032  1
  Cs  Cs48  1  0.92754994  0.24142229  0.00791032  1
  Cs  Cs49  1  0.92754994  0.24142229  0.50791032  1
  Cs  Cs50  1  0.92754994  0.57475563  0.00791032  1
  Cs  Cs51  1  0.92754994  0.57475563  0.50791032  1
  Cs  Cs52  1  0.92754994  0.90808896  0.00791032  1
  Cs  Cs53  1  0.92754994  0.90808896  0.50791032  1
  Cs  Cs54  1  0.07245006  0.09191104  0.49208968  1
  Cs  Cs55  1  0.07245006  0.09191104  0.99208968  1
  Cs  Cs56  1  0.07245006  0.42524437  0.49208968  1
  Cs  Cs57  1  0.07245006  0.42524437  0.99208968  1
  Cs  Cs58  1  0.07245006  0.75857771  0.49208968  1
  Cs  Cs59  1  0.07245006  0.75857771  0.99208968  1
  Cs  Cs60  1  0.40578339  0.09191104  0.49208968  1
  Cs  Cs61  1  0.40578339  0.09191104  0.99208968  1
  Cs  Cs62  1  0.40578339  0.42524437  0.49208968  1
  Cs  Cs63  1  0.40578339  0.42524437  0.99208968  1
  Cs  Cs64  1  0.40578339  0.75857771  0.49208968  1
  Cs  Cs65  1  0.40578339  0.75857771  0.99208968  1
  Cs  Cs66  1  0.73911672  0.09191104  0.49208968  1
  Cs  Cs67  1  0.73911672  0.09191104  0.99208968  1
  Cs  Cs68  1  0.73911672  0.42524437  0.49208968  1
  Cs  Cs69  1  0.73911672  0.42524437  0.99208968  1
  Cs  Cs70  1  0.73911672  0.75857771  0.49208968  1
  Cs  Cs71  1  0.73911672  0.75857771  0.99208968  1
  Li  Li72  1  0.30885481  0.06044769  0.22062014  1
  Li  Li73  1  0.30885481  0.06044769  0.72062014  1
  Li  Li74  1  0.30885481  0.39378103  0.22062014  1
  Li  Li75  1  0.30885481  0.39378103  0.72062014  1
  Li  Li76  1  0.30885481  0.72711436  0.22062014  1
  Li  Li77  1  0.30885481  0.72711436  0.72062014  1
  Li  Li78  1  0.64218814  0.06044769  0.22062014  1
  Li  Li79  1  0.64218814  0.06044769  0.72062014  1
  Li  Li80  1  0.64218814  0.39378103  0.22062014  1
  Li  Li81  1  0.64218814  0.39378103  0.72062014  1
  Li  Li82  1  0.64218814  0.72711436  0.22062014  1
  Li  Li83  1  0.64218814  0.72711436  0.72062014  1
  Li  Li84  1  0.97552148  0.06044769  0.22062014  1
  Li  Li85  1  0.97552148  0.06044769  0.72062014  1
  Li  Li86  1  0.97552148  0.39378103  0.22062014  1
  Li  Li87  1  0.97552148  0.39378103  0.72062014  1
  Li  Li88  1  0.97552148  0.72711436  0.22062014  1
  Li  Li89  1  0.97552148  0.72711436  0.72062014  1
  Li  Li90  1  0.02447852  0.27288564  0.27937986  1
  Li  Li91  1  0.02447852  0.27288564  0.77937986  1
  Li  Li92  1  0.02447852  0.60621897  0.27937986  1
  Li  Li93  1  0.02447852  0.60621897  0.77937986  1
  Li  Li94  1  0.02447852  0.93955231  0.27937986  1
  Li  Li95  1  0.02447852  0.93955231  0.77937986  1
  Li  Li96  1  0.35781186  0.27288564  0.27937986  1
  Li  Li97  1  0.35781186  0.27288564  0.77937986  1
  Li  Li98  1  0.35781186  0.60621897  0.27937986  1
  Li  Li99  1  0.35781186  0.60621897  0.77937986  1
  Li  Li100  1  0.35781186  0.93955231  0.27937986  1
  Li  Li101  1  0.35781186  0.93955231  0.77937986  1
  Li  Li102  1  0.69114519  0.27288564  0.27937986  1
  Li  Li103  1  0.69114519  0.27288564  0.77937986  1
  Li  Li104  1  0.69114519  0.60621897  0.27937986  1
  Li  Li105  1  0.69114519  0.60621897  0.77937986  1
  Li  Li106  1  0.69114519  0.93955231  0.27937986  1
  Li  Li107  1  0.69114519  0.93955231  0.77937986  1
  Li  Li108  1  0.23112405  0.19555362  0.21177501  1
  Li  Li109  1  0.23112405  0.19555362  0.71177501  1
  Li  Li110  1  0.23112405  0.52888695  0.21177501  1
  Li  Li111  1  0.23112405  0.52888695  0.71177501  1
  Li  Li112  1  0.23112405  0.86222029  0.21177501  1
  Li  Li113  1  0.23112405  0.86222029  0.71177501  1
  Li  Li114  1  0.56445738  0.19555362  0.21177501  1
  Li  Li115  1  0.56445738  0.19555362  0.71177501  1
  Li  Li116  1  0.56445738  0.52888695  0.21177501  1
  Li  Li117  1  0.56445738  0.52888695  0.71177501  1
  Li  Li118  1  0.56445738  0.86222029  0.21177501  1
  Li  Li119  1  0.56445738  0.86222029  0.71177501  1
  Li  Li120  1  0.89779071  0.19555362  0.21177501  1
  Li  Li121  1  0.89779071  0.19555362  0.71177501  1
  Li  Li122  1  0.89779071  0.52888695  0.21177501  1
  Li  Li123  1  0.89779071  0.52888695  0.71177501  1
  Li  Li124  1  0.89779071  0.86222029  0.21177501  1
  Li  Li125  1  0.89779071  0.86222029  0.71177501  1
  Li  Li126  1  0.10220929  0.13777971  0.28822499  1
  Li  Li127  1  0.10220929  0.13777971  0.78822499  1
  Li  Li128  1  0.10220929  0.47111305  0.28822499  1
  Li  Li129  1  0.10220929  0.47111305  0.78822499  1
  Li  Li130  1  0.10220929  0.80444638  0.28822499  1
  Li  Li131  1  0.10220929  0.80444638  0.78822499  1
  Li  Li132  1  0.43554262  0.13777971  0.28822499  1
  Li  Li133  1  0.43554262  0.13777971  0.78822499  1
  Li  Li134  1  0.43554262  0.47111305  0.28822499  1
  Li  Li135  1  0.43554262  0.47111305  0.78822499  1
  Li  Li136  1  0.43554262  0.80444638  0.28822499  1
  Li  Li137  1  0.43554262  0.80444638  0.78822499  1
  Li  Li138  1  0.76887595  0.13777971  0.28822499  1
  Li  Li139  1  0.76887595  0.13777971  0.78822499  1
  Li  Li140  1  0.76887595  0.47111305  0.28822499  1
  Li  Li141  1  0.76887595  0.47111305  0.78822499  1
  Li  Li142  1  0.76887595  0.80444638  0.28822499  1
  Li  Li143  1  0.76887595  0.80444638  0.78822499  1
  Ti  Ti144  1  0.04672500  0.22768956  0.14309537  1
  Ti  Ti145  1  0.04672500  0.22768956  0.64309537  1
  Ti  Ti146  1  0.04672500  0.56102289  0.14309537  1
  Ti  Ti147  1  0.04672500  0.56102289  0.64309537  1
  Ti  Ti148  1  0.04672500  0.89435623  0.14309537  1
  Ti  Ti149  1  0.04672500  0.89435623  0.64309537  1
  Ti  Ti150  1  0.38005834  0.22768956  0.14309537  1
  Ti  Ti151  1  0.38005834  0.22768956  0.64309537  1
  Ti  Ti152  1  0.38005834  0.56102289  0.14309537  1
  Ti  Ti153  1  0.38005834  0.56102289  0.64309537  1
  Ti  Ti154  1  0.38005834  0.89435623  0.14309537  1
  Ti  Ti155  1  0.38005834  0.89435623  0.64309537  1
  Ti  Ti156  1  0.71339167  0.22768956  0.14309537  1
  Ti  Ti157  1  0.71339167  0.22768956  0.64309537  1
  Ti  Ti158  1  0.71339167  0.56102289  0.14309537  1
  Ti  Ti159  1  0.71339167  0.56102289  0.64309537  1
  Ti  Ti160  1  0.71339167  0.89435623  0.14309537  1
  Ti  Ti161  1  0.71339167  0.89435623  0.64309537  1
  Ti  Ti162  1  0.28660833  0.10564377  0.35690463  1
  Ti  Ti163  1  0.28660833  0.10564377  0.85690463  1
  Ti  Ti164  1  0.28660833  0.43897711  0.35690463  1
  Ti  Ti165  1  0.28660833  0.43897711  0.85690463  1
  Ti  Ti166  1  0.28660833  0.77231044  0.35690463  1
  Ti  Ti167  1  0.28660833  0.77231044  0.85690463  1
  Ti  Ti168  1  0.61994166  0.10564377  0.35690463  1
  Ti  Ti169  1  0.61994166  0.10564377  0.85690463  1
  Ti  Ti170  1  0.61994166  0.43897711  0.35690463  1
  Ti  Ti171  1  0.61994166  0.43897711  0.85690463  1
  Ti  Ti172  1  0.61994166  0.77231044  0.35690463  1
  Ti  Ti173  1  0.61994166  0.77231044  0.85690463  1
  Ti  Ti174  1  0.95327500  0.10564377  0.35690463  1
  Ti  Ti175  1  0.95327500  0.10564377  0.85690463  1
  Ti  Ti176  1  0.95327500  0.43897711  0.35690463  1
  Ti  Ti177  1  0.95327500  0.43897711  0.85690463  1
  Ti  Ti178  1  0.95327500  0.77231044  0.35690463  1
  Ti  Ti179  1  0.95327500  0.77231044  0.85690463  1
  O  O180  1  0.00828008  0.19128079  0.35658255  1
  O  O181  1  0.00828008  0.19128079  0.85658255  1
  O  O182  1  0.00828008  0.52461412  0.35658255  1
  O  O183  1  0.00828008  0.52461412  0.85658255  1
  O  O184  1  0.00828008  0.85794746  0.35658255  1
  O  O185  1  0.00828008  0.85794746  0.85658255  1
  O  O186  1  0.34161342  0.19128079  0.35658255  1
  O  O187  1  0.34161342  0.19128079  0.85658255  1
  O  O188  1  0.34161342  0.52461412  0.35658255  1
  O  O189  1  0.34161342  0.52461412  0.85658255  1
  O  O190  1  0.34161342  0.85794746  0.35658255  1
  O  O191  1  0.34161342  0.85794746  0.85658255  1
  O  O192  1  0.67494675  0.19128079  0.35658255  1
  O  O193  1  0.67494675  0.19128079  0.85658255  1
  O  O194  1  0.67494675  0.52461412  0.35658255  1
  O  O195  1  0.67494675  0.52461412  0.85658255  1
  O  O196  1  0.67494675  0.85794746  0.35658255  1
  O  O197  1  0.67494675  0.85794746  0.85658255  1
  O  O198  1  0.32505325  0.14205254  0.14341745  1
  O  O199  1  0.32505325  0.14205254  0.64341745  1
  O  O200  1  0.32505325  0.47538588  0.14341745  1
  O  O201  1  0.32505325  0.47538588  0.64341745  1
  O  O202  1  0.32505325  0.80871921  0.14341745  1
  O  O203  1  0.32505325  0.80871921  0.64341745  1
  O  O204  1  0.65838658  0.14205254  0.14341745  1
  O  O205  1  0.65838658  0.14205254  0.64341745  1
  O  O206  1  0.65838658  0.47538588  0.14341745  1
  O  O207  1  0.65838658  0.47538588  0.64341745  1
  O  O208  1  0.65838658  0.80871921  0.14341745  1
  O  O209  1  0.65838658  0.80871921  0.64341745  1
  O  O210  1  0.99171992  0.14205254  0.14341745  1
  O  O211  1  0.99171992  0.14205254  0.64341745  1
  O  O212  1  0.99171992  0.47538588  0.14341745  1
  O  O213  1  0.99171992  0.47538588  0.64341745  1
  O  O214  1  0.99171992  0.80871921  0.14341745  1
  O  O215  1  0.99171992  0.80871921  0.64341745  1
  O  O216  1  0.29971397  0.28839232  0.20085916  1
  O  O217  1  0.29971397  0.28839232  0.70085916  1
  O  O218  1  0.29971397  0.62172566  0.20085916  1
  O  O219  1  0.29971397  0.62172566  0.70085916  1
  O  O220  1  0.29971397  0.95505899  0.20085916  1
  O  O221  1  0.29971397  0.95505899  0.70085916  1
  O  O222  1  0.63304730  0.28839232  0.20085916  1
  O  O223  1  0.63304730  0.28839232  0.70085916  1
  O  O224  1  0.63304730  0.62172566  0.20085916  1
  O  O225  1  0.63304730  0.62172566  0.70085916  1
  O  O226  1  0.63304730  0.95505899  0.20085916  1
  O  O227  1  0.63304730  0.95505899  0.70085916  1
  O  O228  1  0.96638064  0.28839232  0.20085916  1
  O  O229  1  0.96638064  0.28839232  0.70085916  1
  O  O230  1  0.96638064  0.62172566  0.20085916  1
  O  O231  1  0.96638064  0.62172566  0.70085916  1
  O  O232  1  0.96638064  0.95505899  0.20085916  1
  O  O233  1  0.96638064  0.95505899  0.70085916  1
  O  O234  1  0.03361936  0.04494101  0.29914084  1
  O  O235  1  0.03361936  0.04494101  0.79914084  1
  O  O236  1  0.03361936  0.37827434  0.29914084  1
  O  O237  1  0.03361936  0.37827434  0.79914084  1
  O  O238  1  0.03361936  0.71160768  0.29914084  1
  O  O239  1  0.03361936  0.71160768  0.79914084  1
  O  O240  1  0.36695270  0.04494101  0.29914084  1
  O  O241  1  0.36695270  0.04494101  0.79914084  1
  O  O242  1  0.36695270  0.37827434  0.29914084  1
  O  O243  1  0.36695270  0.37827434  0.79914084  1
  O  O244  1  0.36695270  0.71160768  0.29914084  1
  O  O245  1  0.36695270  0.71160768  0.79914084  1
  O  O246  1  0.70028603  0.04494101  0.29914084  1
  O  O247  1  0.70028603  0.04494101  0.79914084  1
  O  O248  1  0.70028603  0.37827434  0.29914084  1
  O  O249  1  0.70028603  0.37827434  0.79914084  1
  O  O250  1  0.70028603  0.71160768  0.29914084  1
  O  O251  1  0.70028603  0.71160768  0.79914084  1
  O  O252  1  0.08790978  0.26606914  0.04590481  1
  O  O253  1  0.08790978  0.26606914  0.54590481  1
  O  O254  1  0.08790978  0.59940248  0.04590481  1
  O  O255  1  0.08790978  0.59940248  0.54590481  1
  O  O256  1  0.08790978  0.93273581  0.04590481  1
  O  O257  1  0.08790978  0.93273581  0.54590481  1
  O  O258  1  0.42124311  0.26606914  0.04590481  1
  O  O259  1  0.42124311  0.26606914  0.54590481  1
  O  O260  1  0.42124311  0.59940248  0.04590481  1
  O  O261  1  0.42124311  0.59940248  0.54590481  1
  O  O262  1  0.42124311  0.93273581  0.04590481  1
  O  O263  1  0.42124311  0.93273581  0.54590481  1
  O  O264  1  0.75457644  0.26606914  0.04590481  1
  O  O265  1  0.75457644  0.26606914  0.54590481  1
  O  O266  1  0.75457644  0.59940248  0.04590481  1
  O  O267  1  0.75457644  0.59940248  0.54590481  1
  O  O268  1  0.75457644  0.93273581  0.04590481  1
  O  O269  1  0.75457644  0.93273581  0.54590481  1
  O  O270  1  0.24542356  0.06726419  0.45409519  1
  O  O271  1  0.24542356  0.06726419  0.95409519  1
  O  O272  1  0.24542356  0.40059752  0.45409519  1
  O  O273  1  0.24542356  0.40059752  0.95409519  1
  O  O274  1  0.24542356  0.73393086  0.45409519  1
  O  O275  1  0.24542356  0.73393086  0.95409519  1
  O  O276  1  0.57875689  0.06726419  0.45409519  1
  O  O277  1  0.57875689  0.06726419  0.95409519  1
  O  O278  1  0.57875689  0.40059752  0.45409519  1
  O  O279  1  0.57875689  0.40059752  0.95409519  1
  O  O280  1  0.57875689  0.73393086  0.45409519  1
  O  O281  1  0.57875689  0.73393086  0.95409519  1
  O  O282  1  0.91209022  0.06726419  0.45409519  1
  O  O283  1  0.91209022  0.06726419  0.95409519  1
  O  O284  1  0.91209022  0.40059752  0.45409519  1
  O  O285  1  0.91209022  0.40059752  0.95409519  1
  O  O286  1  0.91209022  0.73393086  0.45409519  1
  O  O287  1  0.91209022  0.73393086  0.95409519  1
  O  O288  1  0.12358188  0.21324230  0.19697878  1
  O  O289  1  0.12358188  0.21324230  0.69697878  1
  O  O290  1  0.12358188  0.54657564  0.19697878  1
  O  O291  1  0.12358188  0.54657564  0.69697878  1
  O  O292  1  0.12358188  0.87990897  0.19697878  1
  O  O293  1  0.12358188  0.87990897  0.69697878  1
  O  O294  1  0.45691522  0.21324230  0.19697878  1
  O  O295  1  0.45691522  0.21324230  0.69697878  1
  O  O296  1  0.45691522  0.54657564  0.19697878  1
  O  O297  1  0.45691522  0.54657564  0.69697878  1
  O  O298  1  0.45691522  0.87990897  0.19697878  1
  O  O299  1  0.45691522  0.87990897  0.69697878  1
  O  O300  1  0.79024855  0.21324230  0.19697878  1
  O  O301  1  0.79024855  0.21324230  0.69697878  1
  O  O302  1  0.79024855  0.54657564  0.19697878  1
  O  O303  1  0.79024855  0.54657564  0.69697878  1
  O  O304  1  0.79024855  0.87990897  0.19697878  1
  O  O305  1  0.79024855  0.87990897  0.69697878  1
  O  O306  1  0.20975145  0.12009103  0.30302122  1
  O  O307  1  0.20975145  0.12009103  0.80302122  1
  O  O308  1  0.20975145  0.45342436  0.30302122  1
  O  O309  1  0.20975145  0.45342436  0.80302122  1
  O  O310  1  0.20975145  0.78675770  0.30302122  1
  O  O311  1  0.20975145  0.78675770  0.80302122  1
  O  O312  1  0.54308478  0.12009103  0.30302122  1
  O  O313  1  0.54308478  0.12009103  0.80302122  1
  O  O314  1  0.54308478  0.45342436  0.30302122  1
  O  O315  1  0.54308478  0.45342436  0.80302122  1
  O  O316  1  0.54308478  0.78675770  0.30302122  1
  O  O317  1  0.54308478  0.78675770  0.80302122  1
  O  O318  1  0.87641812  0.12009103  0.30302122  1
  O  O319  1  0.87641812  0.12009103  0.80302122  1
  O  O320  1  0.87641812  0.45342436  0.30302122  1
  O  O321  1  0.87641812  0.45342436  0.80302122  1
  O  O322  1  0.87641812  0.78675770  0.30302122  1
  O  O323  1  0.87641812  0.78675770  0.80302122  1
