# generated using pymatgen
data_K2HgO2
_symmetry_space_group_name_H-M   'P 1'
_cell_length_a   15.71523209
_cell_length_b   15.71523209
_cell_length_c   14.02022409
_cell_angle_alpha   90.00000000
_cell_angle_beta   90.00000000
_cell_angle_gamma   90.00000000
_symmetry_Int_Tables_number   1
_chemical_formula_structural   K2HgO2
_chemical_formula_sum   'K64 Hg32 O64'
_cell_volume   3462.55398806
_cell_formula_units_Z   32
loop_
 _symmetry_equiv_pos_site_id
 _symmetry_equiv_pos_as_xyz
  1  'x, y, z'
loop_
 _atom_site_type_symbol
 _atom_site_label
 _atom_site_symmetry_multiplicity
 _atom_site_fract_x
 _atom_site_fract_y
 _atom_site_fract_z
 _atom_site_occupancy
  K  K0  1  0.75000000  0.75000000  0.66875051  1
  K  K1  1  0.75000000  0.50000000  0.66875051  1
  K  K2  1  0.75000000  0.25000000  0.66875051  1
  K  K3  1  0.75000000  -0.00000000  0.66875051  1
  K  K4  1  0.50000000  0.75000000  0.66875051  1
  K  K5  1  0.50000000  0.50000000  0.66875051  1
  K  K6  1  0.50000000  0.25000000  0.66875051  1
  K  K7  1  0.50000000  -0.00000000  0.66875051  1
  K  K8  1  0.25000000  0.75000000  0.66875051  1
  K  K9  1  0.25000000  0.50000000  0.66875051  1
  K  K10  1  0.25000000  0.25000000  0.66875051  1
  K  K11  1  0.25000000  -0.00000000  0.66875051  1
  K  K12  1  0.00000000  0.75000000  0.66875051  1
  K  K13  1  0.00000000  0.50000000  0.66875051  1
  K  K14  1  0.00000000  0.25000000  0.66875051  1
  K  K15  1  0.00000000  -0.00000000  0.66875051  1
  K  K16  1  0.62500000  0.62500000  1.16875051  1
  K  K17  1  0.62500000  0.37500000  1.16875051  1
  K  K18  1  0.62500000  0.12500000  1.16875051  1
  K  K19  1  0.62500000  -0.12500000  1.16875051  1
  K  K20  1  0.37500000  0.62500000  1.16875051  1
  K  K21  1  0.37500000  0.37500000  1.16875051  1
  K  K22  1  0.37500000  0.12500000  1.16875051  1
  K  K23  1  0.37500000  -0.12500000  1.16875051  1
  K  K24  1  0.12500000  0.62500000  1.16875051  1
  K  K25  1  0.12500000  0.37500000  1.16875051  1
  K  K26  1  0.12500000  0.12500000  1.16875051  1
  K  K27  1  0.12500000  -0.12500000  1.16875051  1
  K  K28  1  -0.12500000  0.62500000  1.16875051  1
  K  K29  1  -0.12500000  0.37500000  1.16875051  1
  K  K30  1  -0.12500000  0.12500000  1.16875051  1
  K  K31  1  -0.12500000  -0.12500000  1.16875051  1
  K  K32  1  0.75000000  0.75000000  0.33124949  1
  K  K33  1  0.75000000  0.50000000  0.33124949  1
  K  K34  1  0.75000000  0.25000000  0.33124949  1
  K  K35  1  0.75000000  0.00000000  0.33124949  1
  K  K36  1  0.50000000  0.75000000  0.33124949  1
  K  K37  1  0.50000000  0.50000000  0.33124949  1
  K  K38  1  0.50000000  0.25000000  0.33124949  1
  K  K39  1  0.50000000  0.00000000  0.33124949  1
  K  K40  1  0.25000000  0.75000000  0.33124949  1
  K  K41  1  0.25000000  0.50000000  0.33124949  1
  K  K42  1  0.25000000  0.25000000  0.33124949  1
  K  K43  1  0.25000000  0.00000000  0.33124949  1
  K  K44  1  -0.00000000  0.75000000  0.33124949  1
  K  K45  1  -0.00000000  0.50000000  0.33124949  1
  K  K46  1  -0.00000000  0.25000000  0.33124949  1
  K  K47  1  -0.00000000  0.00000000  0.33124949  1
  K  K48  1  0.62500000  0.62500000  0.83124949  1
  K  K49  1  0.62500000  0.37500000  0.83124949  1
  K  K50  1  0.62500000  0.12500000  0.83124949  1
  K  K51  1  0.62500000  -0.12500000  0.83124949  1
  K  K52  1  0.37500000  0.62500000  0.83124949  1
  K  K53  1  0.37500000  0.37500000  0.83124949  1
  K  K54  1  0.37500000  0.12500000  0.83124949  1
  K  K55  1  0.37500000  -0.12500000  0.83124949  1
  K  K56  1  0.12500000  0.62500000  0.83124949  1
  K  K57  1  0.12500000  0.37500000  0.83124949  1
  K  K58  1  0.12500000  0.12500000  0.83124949  1
  K  K59  1  0.12500000  -0.12500000  0.83124949  1
  K  K60  1  -0.12500000  0.62500000  0.83124949  1
  K  K61  1  -0.12500000  0.37500000  0.83124949  1
  K  K62  1  -0.12500000  0.12500000  0.83124949  1
  K  K63  1  -0.12500000  -0.12500000  0.83124949  1
  Hg  Hg64  1  0.75000000  0.75000000  0.00000000  1
  Hg  Hg65  1  0.75000000  0.50000000  0.00000000  1
  Hg  Hg66  1  0.75000000  0.25000000  0.00000000  1
  Hg  Hg67  1  0.75000000  0.00000000  0.00000000  1
  Hg  Hg68  1  0.50000000  0.75000000  0.00000000  1
  Hg  Hg69  1  0.50000000  0.50000000  0.00000000  1
  Hg  Hg70  1  0.50000000  0.25000000  0.00000000  1
  Hg  Hg71  1  0.50000000  0.00000000  0.00000000  1
  Hg  Hg72  1  0.25000000  0.75000000  0.00000000  1
  Hg  Hg73  1  0.25000000  0.50000000  0.00000000  1
  Hg  Hg74  1  0.25000000  0.25000000  0.00000000  1
  Hg  Hg75  1  0.25000000  0.00000000  0.00000000  1
  Hg  Hg76  1  0.00000000  0.75000000  0.00000000  1
  Hg  Hg77  1  0.00000000  0.50000000  0.00000000  1
  Hg  Hg78  1  0.00000000  0.25000000  0.00000000  1
  Hg  Hg79  1  0.00000000  0.00000000  0.00000000  1
  Hg  Hg80  1  0.62500000  0.62500000  0.50000000  1
  Hg  Hg81  1  0.62500000  0.37500000  0.50000000  1
  Hg  Hg82  1  0.62500000  0.12500000  0.50000000  1
  Hg  Hg83  1  0.62500000  -0.12500000  0.50000000  1
  Hg  Hg84  1  0.37500000  0.62500000  0.50000000  1
  Hg  Hg85  1  0.37500000  0.37500000  0.50000000  1
  Hg  Hg86  1  0.37500000  0.12500000  0.50000000  1
  Hg  Hg87  1  0.37500000  -0.12500000  0.50000000  1
  Hg  Hg88  1  0.12500000  0.62500000  0.50000000  1
  Hg  Hg89  1  0.12500000  0.37500000  0.50000000  1
  Hg  Hg90  1  0.12500000  0.12500000  0.50000000  1
  Hg  Hg91  1  0.12500000  -0.12500000  0.50000000  1
  Hg  Hg92  1  -0.12500000  0.62500000  0.50000000  1
  Hg  Hg93  1  -0.12500000  0.37500000  0.50000000  1
  Hg  Hg94  1  -0.12500000  0.12500000  0.50000000  1
  Hg  Hg95  1  -0.12500000  -0.12500000  0.50000000  1
  O  O96  1  0.75000000  0.75000000  0.85876133  1
  O  O97  1  0.75000000  0.50000000  0.85876133  1
  O  O98  1  0.75000000  0.25000000  0.85876133  1
  O  O99  1  0.75000000  0.00000000  0.85876133  1
  O  O100  1  0.50000000  0.75000000  0.85876133  1
  O  O101  1  0.50000000  0.50000000  0.85876133  1
  O  O102  1  0.50000000  0.25000000  0.85876133  1
  O  O103  1  0.50000000  0.00000000  0.85876133  1
  O  O104  1  0.25000000  0.75000000  0.85876133  1
  O  O105  1  0.25000000  0.50000000  0.85876133  1
  O  O106  1  0.25000000  0.25000000  0.85876133  1
  O  O107  1  0.25000000  0.00000000  0.85876133  1
  O  O108  1  -0.00000000  0.75000000  0.85876133  1
  O  O109  1  -0.00000000  0.50000000  0.85876133  1
  O  O110  1  -0.00000000  0.25000000  0.85876133  1
  O  O111  1  -0.00000000  0.00000000  0.85876133  1
  O  O112  1  0.62500000  0.62500000  1.35876133  1
  O  O113  1  0.62500000  0.37500000  1.35876133  1
  O  O114  1  0.62500000  0.12500000  1.35876133  1
  O  O115  1  0.62500000  -0.12500000  1.35876133  1
  O  O116  1  0.37500000  0.62500000  1.35876133  1
  O  O117  1  0.37500000  0.37500000  1.35876133  1
  O  O118  1  0.37500000  0.12500000  1.35876133  1
  O  O119  1  0.37500000  -0.12500000  1.35876133  1
  O  O120  1  0.12500000  0.62500000  1.35876133  1
  O  O121  1  0.12500000  0.37500000  1.35876133  1
  O  O122  1  0.12500000  0.12500000  1.35876133  1
  O  O123  1  0.12500000  -0.12500000  1.35876133  1
  O  O124  1  -0.12500000  0.62500000  1.35876133  1
  O  O125  1  -0.12500000  0.37500000  1.35876133  1
  O  O126  1  -0.12500000  0.12500000  1.35876133  1
  O  O127  1  -0.12500000  -0.12500000  1.35876133  1
  O  O128  1  0.75000000  0.75000000  0.14123867  1
  O  O129  1  0.75000000  0.50000000  0.14123867  1
  O  O130  1  0.75000000  0.25000000  0.14123867  1
  O  O131  1  0.75000000  0.00000000  0.14123867  1
  O  O132  1  0.50000000  0.75000000  0.14123867  1
  O  O133  1  0.50000000  0.50000000  0.14123867  1
  O  O134  1  0.50000000  0.25000000  0.14123867  1
  O  O135  1  0.50000000  0.00000000  0.14123867  1
  O  O136  1  0.25000000  0.75000000  0.14123867  1
  O  O137  1  0.25000000  0.50000000  0.14123867  1
  O  O138  1  0.25000000  0.25000000  0.14123867  1
  O  O139  1  0.25000000  0.00000000  0.14123867  1
  O  O140  1  -0.00000000  0.75000000  0.14123867  1
  O  O141  1  -0.00000000  0.50000000  0.14123867  1
  O  O142  1  -0.00000000  0.25000000  0.14123867  1
  O  O143  1  -0.00000000  0.00000000  0.14123867  1
  O  O144  1  0.62500000  0.62500000  0.64123867  1
  O  O145  1  0.62500000  0.37500000  0.64123867  1
  O  O146  1  0.62500000  0.12500000  0.64123867  1
  O  O147  1  0.62500000  -0.12500000  0.64123867  1
  O  O148  1  0.37500000  0.62500000  0.64123867  1
  O  O149  1  0.37500000  0.37500000  0.64123867  1
  O  O150  1  0.37500000  0.12500000  0.64123867  1
  O  O151  1  0.37500000  -0.12500000  0.64123867  1
  O  O152  1  0.12500000  0.62500000  0.64123867  1
  O  O153  1  0.12500000  0.37500000  0.64123867  1
  O  O154  1  0.12500000  0.12500000  0.64123867  1
  O  O155  1  0.12500000  -0.12500000  0.64123867  1
  O  O156  1  -0.12500000  0.62500000  0.64123867  1
  O  O157  1  -0.12500000  0.37500000  0.64123867  1
  O  O158  1  -0.12500000  0.12500000  0.64123867  1
  O  O159  1  -0.12500000  -0.12500000  0.64123867  1
