# generated using pymatgen
data_Ba(SbO3)2
_symmetry_space_group_name_H-M   'P 1'
_cell_length_a   16.01886330
_cell_length_b   16.01886330
_cell_length_c   17.37000263
_cell_angle_alpha   90.00000000
_cell_angle_beta   90.00000000
_cell_angle_gamma   120.00000000
_symmetry_Int_Tables_number   1
_chemical_formula_structural   Ba(SbO3)2
_chemical_formula_sum   'Ba27 Sb54 O162'
_cell_volume   3860.05867648
_cell_formula_units_Z   27
loop_
 _symmetry_equiv_pos_site_id
 _symmetry_equiv_pos_as_xyz
  1  'x, y, z'
loop_
 _atom_site_type_symbol
 _atom_site_label
 _atom_site_symmetry_multiplicity
 _atom_site_fract_x
 _atom_site_fract_y
 _atom_site_fract_z
 _atom_site_occupancy
  Ba  Ba0  1  0.00000000  0.00000000  0.00000000  1
  Ba  Ba1  1  0.00000000  0.00000000  0.33333333  1
  Ba  Ba2  1  0.00000000  0.00000000  0.66666667  1
  Ba  Ba3  1  -0.00000000  0.33333333  0.00000000  1
  Ba  Ba4  1  -0.00000000  0.33333333  0.33333333  1
  Ba  Ba5  1  -0.00000000  0.33333333  0.66666667  1
  Ba  Ba6  1  -0.00000000  0.66666667  0.00000000  1
  Ba  Ba7  1  -0.00000000  0.66666667  0.33333333  1
  Ba  Ba8  1  -0.00000000  0.66666667  0.66666667  1
  Ba  Ba9  1  0.33333333  0.00000000  0.00000000  1
  Ba  Ba10  1  0.33333333  0.00000000  0.33333333  1
  Ba  Ba11  1  0.33333333  0.00000000  0.66666667  1
  Ba  Ba12  1  0.33333333  0.33333333  0.00000000  1
  Ba  Ba13  1  0.33333333  0.33333333  0.33333333  1
  Ba  Ba14  1  0.33333333  0.33333333  0.66666667  1
  Ba  Ba15  1  0.33333333  0.66666667  0.00000000  1
  Ba  Ba16  1  0.33333333  0.66666667  0.33333333  1
  Ba  Ba17  1  0.33333333  0.66666667  0.66666667  1
  Ba  Ba18  1  0.66666667  0.00000000  0.00000000  1
  Ba  Ba19  1  0.66666667  0.00000000  0.33333333  1
  Ba  Ba20  1  0.66666667  0.00000000  0.66666667  1
  Ba  Ba21  1  0.66666667  0.33333333  0.00000000  1
  Ba  Ba22  1  0.66666667  0.33333333  0.33333333  1
  Ba  Ba23  1  0.66666667  0.33333333  0.66666667  1
  Ba  Ba24  1  0.66666667  0.66666667  0.00000000  1
  Ba  Ba25  1  0.66666667  0.66666667  0.33333333  1
  Ba  Ba26  1  0.66666667  0.66666667  0.66666667  1
  Sb  Sb27  1  0.22222222  0.11111111  0.16666667  1
  Sb  Sb28  1  0.22222222  0.11111111  0.50000000  1
  Sb  Sb29  1  0.22222222  0.11111111  0.83333333  1
  Sb  Sb30  1  0.22222222  0.44444444  0.16666667  1
  Sb  Sb31  1  0.22222222  0.44444444  0.50000000  1
  Sb  Sb32  1  0.22222222  0.44444444  0.83333333  1
  Sb  Sb33  1  0.22222222  0.77777778  0.16666667  1
  Sb  Sb34  1  0.22222222  0.77777778  0.50000000  1
  Sb  Sb35  1  0.22222222  0.77777778  0.83333333  1
  Sb  Sb36  1  0.55555556  0.11111111  0.16666667  1
  Sb  Sb37  1  0.55555556  0.11111111  0.50000000  1
  Sb  Sb38  1  0.55555556  0.11111111  0.83333333  1
  Sb  Sb39  1  0.55555556  0.44444444  0.16666667  1
  Sb  Sb40  1  0.55555556  0.44444444  0.50000000  1
  Sb  Sb41  1  0.55555556  0.44444444  0.83333333  1
  Sb  Sb42  1  0.55555556  0.77777778  0.16666667  1
  Sb  Sb43  1  0.55555556  0.77777778  0.50000000  1
  Sb  Sb44  1  0.55555556  0.77777778  0.83333333  1
  Sb  Sb45  1  0.88888889  0.11111111  0.16666667  1
  Sb  Sb46  1  0.88888889  0.11111111  0.50000000  1
  Sb  Sb47  1  0.88888889  0.11111111  0.83333333  1
  Sb  Sb48  1  0.88888889  0.44444444  0.16666667  1
  Sb  Sb49  1  0.88888889  0.44444444  0.50000000  1
  Sb  Sb50  1  0.88888889  0.44444444  0.83333333  1
  Sb  Sb51  1  0.88888889  0.77777778  0.16666667  1
  Sb  Sb52  1  0.88888889  0.77777778  0.50000000  1
  Sb  Sb53  1  0.88888889  0.77777778  0.83333333  1
  Sb  Sb54  1  0.11111111  0.22222222  0.16666667  1
  Sb  Sb55  1  0.11111111  0.22222222  0.50000000  1
  Sb  Sb56  1  0.11111111  0.22222222  0.83333333  1
  Sb  Sb57  1  0.11111111  0.55555556  0.16666667  1
  Sb  Sb58  1  0.11111111  0.55555556  0.50000000  1
  Sb  Sb59  1  0.11111111  0.55555556  0.83333333  1
  Sb  Sb60  1  0.11111111  0.88888889  0.16666667  1
  Sb  Sb61  1  0.11111111  0.88888889  0.50000000  1
  Sb  Sb62  1  0.11111111  0.88888889  0.83333333  1
  Sb  Sb63  1  0.44444444  0.22222222  0.16666667  1
  Sb  Sb64  1  0.44444444  0.22222222  0.50000000  1
  Sb  Sb65  1  0.44444444  0.22222222  0.83333333  1
  Sb  Sb66  1  0.44444444  0.55555556  0.16666667  1
  Sb  Sb67  1  0.44444444  0.55555556  0.50000000  1
  Sb  Sb68  1  0.44444444  0.55555556  0.83333333  1
  Sb  Sb69  1  0.44444444  0.88888889  0.16666667  1
  Sb  Sb70  1  0.44444444  0.88888889  0.50000000  1
  Sb  Sb71  1  0.44444444  0.88888889  0.83333333  1
  Sb  Sb72  1  0.77777778  0.22222222  0.16666667  1
  Sb  Sb73  1  0.77777778  0.22222222  0.50000000  1
  Sb  Sb74  1  0.77777778  0.22222222  0.83333333  1
  Sb  Sb75  1  0.77777778  0.55555556  0.16666667  1
  Sb  Sb76  1  0.77777778  0.55555556  0.50000000  1
  Sb  Sb77  1  0.77777778  0.55555556  0.83333333  1
  Sb  Sb78  1  0.77777778  0.88888889  0.16666667  1
  Sb  Sb79  1  0.77777778  0.88888889  0.50000000  1
  Sb  Sb80  1  0.77777778  0.88888889  0.83333333  1
  O  O81  1  0.12835709  0.12835709  0.23192875  1
  O  O82  1  0.12835709  0.12835709  0.56526209  1
  O  O83  1  0.12835709  0.12835709  0.89859542  1
  O  O84  1  0.12835709  0.46169043  0.23192875  1
  O  O85  1  0.12835709  0.46169043  0.56526209  1
  O  O86  1  0.12835709  0.46169043  0.89859542  1
  O  O87  1  0.12835709  0.79502376  0.23192875  1
  O  O88  1  0.12835709  0.79502376  0.56526209  1
  O  O89  1  0.12835709  0.79502376  0.89859542  1
  O  O90  1  0.46169043  0.12835709  0.23192875  1
  O  O91  1  0.46169043  0.12835709  0.56526209  1
  O  O92  1  0.46169043  0.12835709  0.89859542  1
  O  O93  1  0.46169043  0.46169043  0.23192875  1
  O  O94  1  0.46169043  0.46169043  0.56526209  1
  O  O95  1  0.46169043  0.46169043  0.89859542  1
  O  O96  1  0.46169043  0.79502376  0.23192875  1
  O  O97  1  0.46169043  0.79502376  0.56526209  1
  O  O98  1  0.46169043  0.79502376  0.89859542  1
  O  O99  1  0.79502376  0.12835709  0.23192875  1
  O  O100  1  0.79502376  0.12835709  0.56526209  1
  O  O101  1  0.79502376  0.12835709  0.89859542  1
  O  O102  1  0.79502376  0.46169043  0.23192875  1
  O  O103  1  0.79502376  0.46169043  0.56526209  1
  O  O104  1  0.79502376  0.46169043  0.89859542  1
  O  O105  1  0.79502376  0.79502376  0.23192875  1
  O  O106  1  0.79502376  0.79502376  0.56526209  1
  O  O107  1  0.79502376  0.79502376  0.89859542  1
  O  O108  1  0.20497624  0.00000000  0.23192875  1
  O  O109  1  0.20497624  0.00000000  0.56526209  1
  O  O110  1  0.20497624  0.00000000  0.89859542  1
  O  O111  1  0.20497624  0.33333333  0.23192875  1
  O  O112  1  0.20497624  0.33333333  0.56526209  1
  O  O113  1  0.20497624  0.33333333  0.89859542  1
  O  O114  1  0.20497624  0.66666667  0.23192875  1
  O  O115  1  0.20497624  0.66666667  0.56526209  1
  O  O116  1  0.20497624  0.66666667  0.89859542  1
  O  O117  1  0.53830957  0.00000000  0.23192875  1
  O  O118  1  0.53830957  0.00000000  0.56526209  1
  O  O119  1  0.53830957  0.00000000  0.89859542  1
  O  O120  1  0.53830957  0.33333333  0.23192875  1
  O  O121  1  0.53830957  0.33333333  0.56526209  1
  O  O122  1  0.53830957  0.33333333  0.89859542  1
  O  O123  1  0.53830957  0.66666667  0.23192875  1
  O  O124  1  0.53830957  0.66666667  0.56526209  1
  O  O125  1  0.53830957  0.66666667  0.89859542  1
  O  O126  1  0.87164291  0.00000000  0.23192875  1
  O  O127  1  0.87164291  0.00000000  0.56526209  1
  O  O128  1  0.87164291  0.00000000  0.89859542  1
  O  O129  1  0.87164291  0.33333333  0.23192875  1
  O  O130  1  0.87164291  0.33333333  0.56526209  1
  O  O131  1  0.87164291  0.33333333  0.89859542  1
  O  O132  1  0.87164291  0.66666667  0.23192875  1
  O  O133  1  0.87164291  0.66666667  0.56526209  1
  O  O134  1  0.87164291  0.66666667  0.89859542  1
  O  O135  1  -0.00000000  0.20497624  0.23192875  1
  O  O136  1  -0.00000000  0.20497624  0.56526209  1
  O  O137  1  -0.00000000  0.20497624  0.89859542  1
  O  O138  1  -0.00000000  0.53830957  0.23192875  1
  O  O139  1  -0.00000000  0.53830957  0.56526209  1
  O  O140  1  -0.00000000  0.53830957  0.89859542  1
  O  O141  1  0.00000000  0.87164291  0.23192875  1
  O  O142  1  0.00000000  0.87164291  0.56526209  1
  O  O143  1  0.00000000  0.87164291  0.89859542  1
  O  O144  1  0.33333333  0.20497624  0.23192875  1
  O  O145  1  0.33333333  0.20497624  0.56526209  1
  O  O146  1  0.33333333  0.20497624  0.89859542  1
  O  O147  1  0.33333333  0.53830957  0.23192875  1
  O  O148  1  0.33333333  0.53830957  0.56526209  1
  O  O149  1  0.33333333  0.53830957  0.89859542  1
  O  O150  1  0.33333333  0.87164291  0.23192875  1
  O  O151  1  0.33333333  0.87164291  0.56526209  1
  O  O152  1  0.33333333  0.87164291  0.89859542  1
  O  O153  1  0.66666667  0.20497624  0.23192875  1
  O  O154  1  0.66666667  0.20497624  0.56526209  1
  O  O155  1  0.66666667  0.20497624  0.89859542  1
  O  O156  1  0.66666667  0.53830957  0.23192875  1
  O  O157  1  0.66666667  0.53830957  0.56526209  1
  O  O158  1  0.66666667  0.53830957  0.89859542  1
  O  O159  1  0.66666667  0.87164291  0.23192875  1
  O  O160  1  0.66666667  0.87164291  0.56526209  1
  O  O161  1  0.66666667  0.87164291  0.89859542  1
  O  O162  1  0.12835709  0.00000000  0.10140458  1
  O  O163  1  0.12835709  0.00000000  0.43473791  1
  O  O164  1  0.12835709  0.00000000  0.76807125  1
  O  O165  1  0.12835709  0.33333333  0.10140458  1
  O  O166  1  0.12835709  0.33333333  0.43473791  1
  O  O167  1  0.12835709  0.33333333  0.76807125  1
  O  O168  1  0.12835709  0.66666667  0.10140458  1
  O  O169  1  0.12835709  0.66666667  0.43473791  1
  O  O170  1  0.12835709  0.66666667  0.76807125  1
  O  O171  1  0.46169043  0.00000000  0.10140458  1
  O  O172  1  0.46169043  0.00000000  0.43473791  1
  O  O173  1  0.46169043  0.00000000  0.76807125  1
  O  O174  1  0.46169043  0.33333333  0.10140458  1
  O  O175  1  0.46169043  0.33333333  0.43473791  1
  O  O176  1  0.46169043  0.33333333  0.76807125  1
  O  O177  1  0.46169043  0.66666667  0.10140458  1
  O  O178  1  0.46169043  0.66666667  0.43473791  1
  O  O179  1  0.46169043  0.66666667  0.76807125  1
  O  O180  1  0.79502376  0.00000000  0.10140458  1
  O  O181  1  0.79502376  0.00000000  0.43473791  1
  O  O182  1  0.79502376  0.00000000  0.76807125  1
  O  O183  1  0.79502376  0.33333333  0.10140458  1
  O  O184  1  0.79502376  0.33333333  0.43473791  1
  O  O185  1  0.79502376  0.33333333  0.76807125  1
  O  O186  1  0.79502376  0.66666667  0.10140458  1
  O  O187  1  0.79502376  0.66666667  0.43473791  1
  O  O188  1  0.79502376  0.66666667  0.76807125  1
  O  O189  1  -0.00000000  0.12835709  0.10140458  1
  O  O190  1  -0.00000000  0.12835709  0.43473791  1
  O  O191  1  -0.00000000  0.12835709  0.76807125  1
  O  O192  1  -0.00000000  0.46169043  0.10140458  1
  O  O193  1  -0.00000000  0.46169043  0.43473791  1
  O  O194  1  -0.00000000  0.46169043  0.76807125  1
  O  O195  1  -0.00000000  0.79502376  0.10140458  1
  O  O196  1  -0.00000000  0.79502376  0.43473791  1
  O  O197  1  -0.00000000  0.79502376  0.76807125  1
  O  O198  1  0.33333333  0.12835709  0.10140458  1
  O  O199  1  0.33333333  0.12835709  0.43473791  1
  O  O200  1  0.33333333  0.12835709  0.76807125  1
  O  O201  1  0.33333333  0.46169043  0.10140458  1
  O  O202  1  0.33333333  0.46169043  0.43473791  1
  O  O203  1  0.33333333  0.46169043  0.76807125  1
  O  O204  1  0.33333333  0.79502376  0.10140458  1
  O  O205  1  0.33333333  0.79502376  0.43473791  1
  O  O206  1  0.33333333  0.79502376  0.76807125  1
  O  O207  1  0.66666667  0.12835709  0.10140458  1
  O  O208  1  0.66666667  0.12835709  0.43473791  1
  O  O209  1  0.66666667  0.12835709  0.76807125  1
  O  O210  1  0.66666667  0.46169043  0.10140458  1
  O  O211  1  0.66666667  0.46169043  0.43473791  1
  O  O212  1  0.66666667  0.46169043  0.76807125  1
  O  O213  1  0.66666667  0.79502376  0.10140458  1
  O  O214  1  0.66666667  0.79502376  0.43473791  1
  O  O215  1  0.66666667  0.79502376  0.76807125  1
  O  O216  1  0.20497624  0.20497624  0.10140458  1
  O  O217  1  0.20497624  0.20497624  0.43473791  1
  O  O218  1  0.20497624  0.20497624  0.76807125  1
  O  O219  1  0.20497624  0.53830957  0.10140458  1
  O  O220  1  0.20497624  0.53830957  0.43473791  1
  O  O221  1  0.20497624  0.53830957  0.76807125  1
  O  O222  1  0.20497624  0.87164291  0.10140458  1
  O  O223  1  0.20497624  0.87164291  0.43473791  1
  O  O224  1  0.20497624  0.87164291  0.76807125  1
  O  O225  1  0.53830957  0.20497624  0.10140458  1
  O  O226  1  0.53830957  0.20497624  0.43473791  1
  O  O227  1  0.53830957  0.20497624  0.76807125  1
  O  O228  1  0.53830957  0.53830957  0.10140458  1
  O  O229  1  0.53830957  0.53830957  0.43473791  1
  O  O230  1  0.53830957  0.53830957  0.76807125  1
  O  O231  1  0.53830957  0.87164291  0.10140458  1
  O  O232  1  0.53830957  0.87164291  0.43473791  1
  O  O233  1  0.53830957  0.87164291  0.76807125  1
  O  O234  1  0.87164291  0.20497624  0.10140458  1
  O  O235  1  0.87164291  0.20497624  0.43473791  1
  O  O236  1  0.87164291  0.20497624  0.76807125  1
  O  O237  1  0.87164291  0.53830957  0.10140458  1
  O  O238  1  0.87164291  0.53830957  0.43473791  1
  O  O239  1  0.87164291  0.53830957  0.76807125  1
  O  O240  1  0.87164291  0.87164291  0.10140458  1
  O  O241  1  0.87164291  0.87164291  0.43473791  1
  O  O242  1  0.87164291  0.87164291  0.76807125  1
