# generated using pymatgen
data_Mg4Ta2O9
_symmetry_space_group_name_H-M   'P 1'
_cell_length_a   15.47619090
_cell_length_b   15.47619090
_cell_length_c   14.00893323
_cell_angle_alpha   90.00000000
_cell_angle_beta   90.00000000
_cell_angle_gamma   120.00000000
_symmetry_Int_Tables_number   1
_chemical_formula_structural   Mg4Ta2O9
_chemical_formula_sum   'Mg72 Ta36 O162'
_cell_volume   2905.78751358
_cell_formula_units_Z   18
loop_
 _symmetry_equiv_pos_site_id
 _symmetry_equiv_pos_as_xyz
  1  'x, y, z'
loop_
 _atom_site_type_symbol
 _atom_site_label
 _atom_site_symmetry_multiplicity
 _atom_site_fract_x
 _atom_site_fract_y
 _atom_site_fract_z
 _atom_site_occupancy
  Mg  Mg0  1  0.11111111  0.22222222  0.01668889  1
  Mg  Mg1  1  0.11111111  0.55555556  0.01668889  1
  Mg  Mg2  1  0.11111111  0.88888889  0.01668889  1
  Mg  Mg3  1  0.44444444  0.22222222  0.01668889  1
  Mg  Mg4  1  0.44444444  0.55555556  0.01668889  1
  Mg  Mg5  1  0.44444444  0.88888889  0.01668889  1
  Mg  Mg6  1  0.77777778  0.22222222  0.01668889  1
  Mg  Mg7  1  0.77777778  0.55555556  0.01668889  1
  Mg  Mg8  1  0.77777778  0.88888889  0.01668889  1
  Mg  Mg9  1  0.22222222  0.11111111  0.48331111  1
  Mg  Mg10  1  0.22222222  0.44444444  0.48331111  1
  Mg  Mg11  1  0.22222222  0.77777778  0.48331111  1
  Mg  Mg12  1  0.55555556  0.11111111  0.48331111  1
  Mg  Mg13  1  0.55555556  0.44444444  0.48331111  1
  Mg  Mg14  1  0.55555556  0.77777778  0.48331111  1
  Mg  Mg15  1  0.88888889  0.11111111  0.48331111  1
  Mg  Mg16  1  0.88888889  0.44444444  0.48331111  1
  Mg  Mg17  1  0.88888889  0.77777778  0.48331111  1
  Mg  Mg18  1  0.22222222  0.11111111  0.98331111  1
  Mg  Mg19  1  0.22222222  0.44444444  0.98331111  1
  Mg  Mg20  1  0.22222222  0.77777778  0.98331111  1
  Mg  Mg21  1  0.55555556  0.11111111  0.98331111  1
  Mg  Mg22  1  0.55555556  0.44444444  0.98331111  1
  Mg  Mg23  1  0.55555556  0.77777778  0.98331111  1
  Mg  Mg24  1  0.88888889  0.11111111  0.98331111  1
  Mg  Mg25  1  0.88888889  0.44444444  0.98331111  1
  Mg  Mg26  1  0.88888889  0.77777778  0.98331111  1
  Mg  Mg27  1  0.11111111  0.22222222  0.51668889  1
  Mg  Mg28  1  0.11111111  0.55555556  0.51668889  1
  Mg  Mg29  1  0.11111111  0.88888889  0.51668889  1
  Mg  Mg30  1  0.44444444  0.22222222  0.51668889  1
  Mg  Mg31  1  0.44444444  0.55555556  0.51668889  1
  Mg  Mg32  1  0.44444444  0.88888889  0.51668889  1
  Mg  Mg33  1  0.77777778  0.22222222  0.51668889  1
  Mg  Mg34  1  0.77777778  0.55555556  0.51668889  1
  Mg  Mg35  1  0.77777778  0.88888889  0.51668889  1
  Mg  Mg36  1  0.11111111  0.22222222  0.80960666  1
  Mg  Mg37  1  0.11111111  0.55555556  0.80960666  1
  Mg  Mg38  1  0.11111111  0.88888889  0.80960666  1
  Mg  Mg39  1  0.44444444  0.22222222  0.80960666  1
  Mg  Mg40  1  0.44444444  0.55555556  0.80960666  1
  Mg  Mg41  1  0.44444444  0.88888889  0.80960666  1
  Mg  Mg42  1  0.77777778  0.22222222  0.80960666  1
  Mg  Mg43  1  0.77777778  0.55555556  0.80960666  1
  Mg  Mg44  1  0.77777778  0.88888889  0.80960666  1
  Mg  Mg45  1  0.22222222  0.11111111  0.69039334  1
  Mg  Mg46  1  0.22222222  0.44444444  0.69039334  1
  Mg  Mg47  1  0.22222222  0.77777778  0.69039334  1
  Mg  Mg48  1  0.55555556  0.11111111  0.69039334  1
  Mg  Mg49  1  0.55555556  0.44444444  0.69039334  1
  Mg  Mg50  1  0.55555556  0.77777778  0.69039334  1
  Mg  Mg51  1  0.88888889  0.11111111  0.69039334  1
  Mg  Mg52  1  0.88888889  0.44444444  0.69039334  1
  Mg  Mg53  1  0.88888889  0.77777778  0.69039334  1
  Mg  Mg54  1  0.22222222  0.11111111  0.19039334  1
  Mg  Mg55  1  0.22222222  0.44444444  0.19039334  1
  Mg  Mg56  1  0.22222222  0.77777778  0.19039334  1
  Mg  Mg57  1  0.55555556  0.11111111  0.19039334  1
  Mg  Mg58  1  0.55555556  0.44444444  0.19039334  1
  Mg  Mg59  1  0.55555556  0.77777778  0.19039334  1
  Mg  Mg60  1  0.88888889  0.11111111  0.19039334  1
  Mg  Mg61  1  0.88888889  0.44444444  0.19039334  1
  Mg  Mg62  1  0.88888889  0.77777778  0.19039334  1
  Mg  Mg63  1  0.11111111  0.22222222  0.30960666  1
  Mg  Mg64  1  0.11111111  0.55555556  0.30960666  1
  Mg  Mg65  1  0.11111111  0.88888889  0.30960666  1
  Mg  Mg66  1  0.44444444  0.22222222  0.30960666  1
  Mg  Mg67  1  0.44444444  0.55555556  0.30960666  1
  Mg  Mg68  1  0.44444444  0.88888889  0.30960666  1
  Mg  Mg69  1  0.77777778  0.22222222  0.30960666  1
  Mg  Mg70  1  0.77777778  0.55555556  0.30960666  1
  Mg  Mg71  1  0.77777778  0.88888889  0.30960666  1
  Ta  Ta72  1  0.00000000  0.00000000  0.35706165  1
  Ta  Ta73  1  -0.00000000  0.33333333  0.35706165  1
  Ta  Ta74  1  -0.00000000  0.66666667  0.35706165  1
  Ta  Ta75  1  0.33333333  0.00000000  0.35706165  1
  Ta  Ta76  1  0.33333333  0.33333333  0.35706165  1
  Ta  Ta77  1  0.33333333  0.66666667  0.35706165  1
  Ta  Ta78  1  0.66666667  0.00000000  0.35706165  1
  Ta  Ta79  1  0.66666667  0.33333333  0.35706165  1
  Ta  Ta80  1  0.66666667  0.66666667  0.35706165  1
  Ta  Ta81  1  0.00000000  0.00000000  0.14293835  1
  Ta  Ta82  1  -0.00000000  0.33333333  0.14293835  1
  Ta  Ta83  1  -0.00000000  0.66666667  0.14293835  1
  Ta  Ta84  1  0.33333333  0.00000000  0.14293835  1
  Ta  Ta85  1  0.33333333  0.33333333  0.14293835  1
  Ta  Ta86  1  0.33333333  0.66666667  0.14293835  1
  Ta  Ta87  1  0.66666667  0.00000000  0.14293835  1
  Ta  Ta88  1  0.66666667  0.33333333  0.14293835  1
  Ta  Ta89  1  0.66666667  0.66666667  0.14293835  1
  Ta  Ta90  1  0.00000000  0.00000000  0.64293835  1
  Ta  Ta91  1  -0.00000000  0.33333333  0.64293835  1
  Ta  Ta92  1  -0.00000000  0.66666667  0.64293835  1
  Ta  Ta93  1  0.33333333  0.00000000  0.64293835  1
  Ta  Ta94  1  0.33333333  0.33333333  0.64293835  1
  Ta  Ta95  1  0.33333333  0.66666667  0.64293835  1
  Ta  Ta96  1  0.66666667  0.00000000  0.64293835  1
  Ta  Ta97  1  0.66666667  0.33333333  0.64293835  1
  Ta  Ta98  1  0.66666667  0.66666667  0.64293835  1
  Ta  Ta99  1  0.00000000  0.00000000  0.85706165  1
  Ta  Ta100  1  -0.00000000  0.33333333  0.85706165  1
  Ta  Ta101  1  -0.00000000  0.66666667  0.85706165  1
  Ta  Ta102  1  0.33333333  0.00000000  0.85706165  1
  Ta  Ta103  1  0.33333333  0.33333333  0.85706165  1
  Ta  Ta104  1  0.33333333  0.66666667  0.85706165  1
  Ta  Ta105  1  0.66666667  0.00000000  0.85706165  1
  Ta  Ta106  1  0.66666667  0.33333333  0.85706165  1
  Ta  Ta107  1  0.66666667  0.66666667  0.85706165  1
  O  O108  1  0.09610606  0.09610606  0.75000000  1
  O  O109  1  0.09610606  0.42943940  0.75000000  1
  O  O110  1  0.09610606  0.76277273  0.75000000  1
  O  O111  1  0.42943940  0.09610606  0.75000000  1
  O  O112  1  0.42943940  0.42943940  0.75000000  1
  O  O113  1  0.42943940  0.76277273  0.75000000  1
  O  O114  1  0.76277273  0.09610606  0.75000000  1
  O  O115  1  0.76277273  0.42943940  0.75000000  1
  O  O116  1  0.76277273  0.76277273  0.75000000  1
  O  O117  1  0.00000000  0.23722727  0.75000000  1
  O  O118  1  -0.00000000  0.57056060  0.75000000  1
  O  O119  1  -0.00000000  0.90389394  0.75000000  1
  O  O120  1  0.33333333  0.23722727  0.75000000  1
  O  O121  1  0.33333333  0.57056060  0.75000000  1
  O  O122  1  0.33333333  0.90389394  0.75000000  1
  O  O123  1  0.66666667  0.23722727  0.75000000  1
  O  O124  1  0.66666667  0.57056060  0.75000000  1
  O  O125  1  0.66666667  0.90389394  0.75000000  1
  O  O126  1  0.23722727  0.00000000  0.75000000  1
  O  O127  1  0.23722727  0.33333333  0.75000000  1
  O  O128  1  0.23722727  0.66666667  0.75000000  1
  O  O129  1  0.57056060  0.00000000  0.75000000  1
  O  O130  1  0.57056060  0.33333333  0.75000000  1
  O  O131  1  0.57056060  0.66666667  0.75000000  1
  O  O132  1  0.90389394  0.00000000  0.75000000  1
  O  O133  1  0.90389394  0.33333333  0.75000000  1
  O  O134  1  0.90389394  0.66666667  0.75000000  1
  O  O135  1  0.23722727  0.23722727  0.25000000  1
  O  O136  1  0.23722727  0.57056060  0.25000000  1
  O  O137  1  0.23722727  0.90389394  0.25000000  1
  O  O138  1  0.57056060  0.23722727  0.25000000  1
  O  O139  1  0.57056060  0.57056060  0.25000000  1
  O  O140  1  0.57056060  0.90389394  0.25000000  1
  O  O141  1  0.90389394  0.23722727  0.25000000  1
  O  O142  1  0.90389394  0.57056060  0.25000000  1
  O  O143  1  0.90389394  0.90389394  0.25000000  1
  O  O144  1  -0.00000000  0.09610606  0.25000000  1
  O  O145  1  -0.00000000  0.42943940  0.25000000  1
  O  O146  1  -0.00000000  0.76277273  0.25000000  1
  O  O147  1  0.33333333  0.09610606  0.25000000  1
  O  O148  1  0.33333333  0.42943940  0.25000000  1
  O  O149  1  0.33333333  0.76277273  0.25000000  1
  O  O150  1  0.66666667  0.09610606  0.25000000  1
  O  O151  1  0.66666667  0.42943940  0.25000000  1
  O  O152  1  0.66666667  0.76277273  0.25000000  1
  O  O153  1  0.09610606  0.00000000  0.25000000  1
  O  O154  1  0.09610606  0.33333333  0.25000000  1
  O  O155  1  0.09610606  0.66666667  0.25000000  1
  O  O156  1  0.42943940  0.00000000  0.25000000  1
  O  O157  1  0.42943940  0.33333333  0.25000000  1
  O  O158  1  0.42943940  0.66666667  0.25000000  1
  O  O159  1  0.76277273  0.00000000  0.25000000  1
  O  O160  1  0.76277273  0.33333333  0.25000000  1
  O  O161  1  0.76277273  0.66666667  0.25000000  1
  O  O162  1  0.22713152  0.21733515  0.58457565  1
  O  O163  1  0.22713152  0.55066848  0.58457565  1
  O  O164  1  0.22713152  0.88400182  0.58457565  1
  O  O165  1  0.56046485  0.21733515  0.58457565  1
  O  O166  1  0.56046485  0.55066848  0.58457565  1
  O  O167  1  0.56046485  0.88400182  0.58457565  1
  O  O168  1  0.89379818  0.21733515  0.58457565  1
  O  O169  1  0.89379818  0.55066848  0.58457565  1
  O  O170  1  0.89379818  0.88400182  0.58457565  1
  O  O171  1  0.11599818  0.00979637  0.58457565  1
  O  O172  1  0.11599818  0.34312970  0.58457565  1
  O  O173  1  0.11599818  0.67646303  0.58457565  1
  O  O174  1  0.44933152  0.00979637  0.58457565  1
  O  O175  1  0.44933152  0.34312970  0.58457565  1
  O  O176  1  0.44933152  0.67646303  0.58457565  1
  O  O177  1  0.78266485  0.00979637  0.58457565  1
  O  O178  1  0.78266485  0.34312970  0.58457565  1
  O  O179  1  0.78266485  0.67646303  0.58457565  1
  O  O180  1  0.32353697  0.10620182  0.58457565  1
  O  O181  1  0.32353697  0.43953515  0.58457565  1
  O  O182  1  0.32353697  0.77286848  0.58457565  1
  O  O183  1  0.65687030  0.10620182  0.58457565  1
  O  O184  1  0.65687030  0.43953515  0.58457565  1
  O  O185  1  0.65687030  0.77286848  0.58457565  1
  O  O186  1  0.99020363  0.10620182  0.58457565  1
  O  O187  1  0.99020363  0.43953515  0.58457565  1
  O  O188  1  0.99020363  0.77286848  0.58457565  1
  O  O189  1  0.00979637  0.11599818  0.91542435  1
  O  O190  1  0.00979637  0.44933152  0.91542435  1
  O  O191  1  0.00979637  0.78266485  0.91542435  1
  O  O192  1  0.34312970  0.11599818  0.91542435  1
  O  O193  1  0.34312970  0.44933152  0.91542435  1
  O  O194  1  0.34312970  0.78266485  0.91542435  1
  O  O195  1  0.67646303  0.11599818  0.91542435  1
  O  O196  1  0.67646303  0.44933152  0.91542435  1
  O  O197  1  0.67646303  0.78266485  0.91542435  1
  O  O198  1  0.10620182  0.32353697  0.91542435  1
  O  O199  1  0.10620182  0.65687030  0.91542435  1
  O  O200  1  0.10620182  0.99020363  0.91542435  1
  O  O201  1  0.43953515  0.32353697  0.91542435  1
  O  O202  1  0.43953515  0.65687030  0.91542435  1
  O  O203  1  0.43953515  0.99020363  0.91542435  1
  O  O204  1  0.77286848  0.32353697  0.91542435  1
  O  O205  1  0.77286848  0.65687030  0.91542435  1
  O  O206  1  0.77286848  0.99020363  0.91542435  1
  O  O207  1  0.21733515  0.22713152  0.91542435  1
  O  O208  1  0.21733515  0.56046485  0.91542435  1
  O  O209  1  0.21733515  0.89379818  0.91542435  1
  O  O210  1  0.55066848  0.22713152  0.91542435  1
  O  O211  1  0.55066848  0.56046485  0.91542435  1
  O  O212  1  0.55066848  0.89379818  0.91542435  1
  O  O213  1  0.88400182  0.22713152  0.91542435  1
  O  O214  1  0.88400182  0.56046485  0.91542435  1
  O  O215  1  0.88400182  0.89379818  0.91542435  1
  O  O216  1  0.11599818  0.10620182  0.08457565  1
  O  O217  1  0.11599818  0.43953515  0.08457565  1
  O  O218  1  0.11599818  0.77286848  0.08457565  1
  O  O219  1  0.44933152  0.10620182  0.08457565  1
  O  O220  1  0.44933152  0.43953515  0.08457565  1
  O  O221  1  0.44933152  0.77286848  0.08457565  1
  O  O222  1  0.78266485  0.10620182  0.08457565  1
  O  O223  1  0.78266485  0.43953515  0.08457565  1
  O  O224  1  0.78266485  0.77286848  0.08457565  1
  O  O225  1  0.22713152  0.00979637  0.08457565  1
  O  O226  1  0.22713152  0.34312970  0.08457565  1
  O  O227  1  0.22713152  0.67646303  0.08457565  1
  O  O228  1  0.56046485  0.00979637  0.08457565  1
  O  O229  1  0.56046485  0.34312970  0.08457565  1
  O  O230  1  0.56046485  0.67646303  0.08457565  1
  O  O231  1  0.89379818  0.00979637  0.08457565  1
  O  O232  1  0.89379818  0.34312970  0.08457565  1
  O  O233  1  0.89379818  0.67646303  0.08457565  1
  O  O234  1  0.32353697  0.21733515  0.08457565  1
  O  O235  1  0.32353697  0.55066848  0.08457565  1
  O  O236  1  0.32353697  0.88400182  0.08457565  1
  O  O237  1  0.65687030  0.21733515  0.08457565  1
  O  O238  1  0.65687030  0.55066848  0.08457565  1
  O  O239  1  0.65687030  0.88400182  0.08457565  1
  O  O240  1  0.99020363  0.21733515  0.08457565  1
  O  O241  1  0.99020363  0.55066848  0.08457565  1
  O  O242  1  0.99020363  0.88400182  0.08457565  1
  O  O243  1  0.00979637  0.22713152  0.41542435  1
  O  O244  1  0.00979637  0.56046485  0.41542435  1
  O  O245  1  0.00979637  0.89379818  0.41542435  1
  O  O246  1  0.34312970  0.22713152  0.41542435  1
  O  O247  1  0.34312970  0.56046485  0.41542435  1
  O  O248  1  0.34312970  0.89379818  0.41542435  1
  O  O249  1  0.67646303  0.22713152  0.41542435  1
  O  O250  1  0.67646303  0.56046485  0.41542435  1
  O  O251  1  0.67646303  0.89379818  0.41542435  1
  O  O252  1  0.21733515  0.32353697  0.41542435  1
  O  O253  1  0.21733515  0.65687030  0.41542435  1
  O  O254  1  0.21733515  0.99020363  0.41542435  1
  O  O255  1  0.55066848  0.32353697  0.41542435  1
  O  O256  1  0.55066848  0.65687030  0.41542435  1
  O  O257  1  0.55066848  0.99020363  0.41542435  1
  O  O258  1  0.88400182  0.32353697  0.41542435  1
  O  O259  1  0.88400182  0.65687030  0.41542435  1
  O  O260  1  0.88400182  0.99020363  0.41542435  1
  O  O261  1  0.10620182  0.11599818  0.41542435  1
  O  O262  1  0.10620182  0.44933152  0.41542435  1
  O  O263  1  0.10620182  0.78266485  0.41542435  1
  O  O264  1  0.43953515  0.11599818  0.41542435  1
  O  O265  1  0.43953515  0.44933152  0.41542435  1
  O  O266  1  0.43953515  0.78266485  0.41542435  1
  O  O267  1  0.77286848  0.11599818  0.41542435  1
  O  O268  1  0.77286848  0.44933152  0.41542435  1
  O  O269  1  0.77286848  0.78266485  0.41542435  1
