# generated using pymatgen
data_Y2Be2SiO7
_symmetry_space_group_name_H-M   'P 1'
_cell_length_a   14.53780467
_cell_length_b   14.53780467
_cell_length_c   14.22292608
_cell_angle_alpha   90.00000000
_cell_angle_beta   90.00000000
_cell_angle_gamma   90.00000000
_symmetry_Int_Tables_number   1
_chemical_formula_structural   Y2Be2SiO7
_chemical_formula_sum   'Y48 Be48 Si24 O168'
_cell_volume   3005.98363378
_cell_formula_units_Z   24
loop_
 _symmetry_equiv_pos_site_id
 _symmetry_equiv_pos_as_xyz
  1  'x, y, z'
loop_
 _atom_site_type_symbol
 _atom_site_label
 _atom_site_symmetry_multiplicity
 _atom_site_fract_x
 _atom_site_fract_y
 _atom_site_fract_z
 _atom_site_occupancy
  Y  Y0  1  0.17063434  0.42063434  0.16897144  1
  Y  Y1  1  0.17063434  0.42063434  0.50230477  1
  Y  Y2  1  0.17063434  0.42063434  0.83563811  1
  Y  Y3  1  0.67063434  0.42063434  0.16897144  1
  Y  Y4  1  0.67063434  0.42063434  0.50230477  1
  Y  Y5  1  0.67063434  0.42063434  0.83563811  1
  Y  Y6  1  0.17063434  -0.07936566  0.16897144  1
  Y  Y7  1  0.17063434  -0.07936566  0.50230477  1
  Y  Y8  1  0.17063434  -0.07936566  0.83563811  1
  Y  Y9  1  0.67063434  -0.07936566  0.16897144  1
  Y  Y10  1  0.67063434  -0.07936566  0.50230477  1
  Y  Y11  1  0.67063434  -0.07936566  0.83563811  1
  Y  Y12  1  0.07936566  0.17063434  0.16436189  1
  Y  Y13  1  0.07936566  0.17063434  0.49769523  1
  Y  Y14  1  0.07936566  0.17063434  0.83102856  1
  Y  Y15  1  0.57936566  0.17063434  0.16436189  1
  Y  Y16  1  0.57936566  0.17063434  0.49769523  1
  Y  Y17  1  0.57936566  0.17063434  0.83102856  1
  Y  Y18  1  0.07936566  -0.32936566  0.16436189  1
  Y  Y19  1  0.07936566  -0.32936566  0.49769523  1
  Y  Y20  1  0.07936566  -0.32936566  0.83102856  1
  Y  Y21  1  0.57936566  -0.32936566  0.16436189  1
  Y  Y22  1  0.57936566  -0.32936566  0.49769523  1
  Y  Y23  1  0.57936566  -0.32936566  0.83102856  1
  Y  Y24  1  0.42063434  0.32936566  0.16436189  1
  Y  Y25  1  0.42063434  0.32936566  0.49769523  1
  Y  Y26  1  0.42063434  0.32936566  0.83102856  1
  Y  Y27  1  0.92063434  0.32936566  0.16436189  1
  Y  Y28  1  0.92063434  0.32936566  0.49769523  1
  Y  Y29  1  0.92063434  0.32936566  0.83102856  1
  Y  Y30  1  0.42063434  -0.17063434  0.16436189  1
  Y  Y31  1  0.42063434  -0.17063434  0.49769523  1
  Y  Y32  1  0.42063434  -0.17063434  0.83102856  1
  Y  Y33  1  0.92063434  -0.17063434  0.16436189  1
  Y  Y34  1  0.92063434  -0.17063434  0.49769523  1
  Y  Y35  1  0.92063434  -0.17063434  0.83102856  1
  Y  Y36  1  0.32936566  0.07936566  0.16897144  1
  Y  Y37  1  0.32936566  0.07936566  0.50230477  1
  Y  Y38  1  0.32936566  0.07936566  0.83563811  1
  Y  Y39  1  0.82936566  0.07936566  0.16897144  1
  Y  Y40  1  0.82936566  0.07936566  0.50230477  1
  Y  Y41  1  0.82936566  0.07936566  0.83563811  1
  Y  Y42  1  0.32936566  -0.42063434  0.16897144  1
  Y  Y43  1  0.32936566  -0.42063434  0.50230477  1
  Y  Y44  1  0.32936566  -0.42063434  0.83563811  1
  Y  Y45  1  0.82936566  -0.42063434  0.16897144  1
  Y  Y46  1  0.82936566  -0.42063434  0.50230477  1
  Y  Y47  1  0.82936566  -0.42063434  0.83563811  1
  Be  Be48  1  0.31869525  0.43130475  0.01380755  1
  Be  Be49  1  0.31869525  0.43130475  0.34714088  1
  Be  Be50  1  0.31869525  0.43130475  0.68047422  1
  Be  Be51  1  0.81869525  0.43130475  0.01380755  1
  Be  Be52  1  0.81869525  0.43130475  0.34714088  1
  Be  Be53  1  0.81869525  0.43130475  0.68047422  1
  Be  Be54  1  0.31869525  -0.06869525  0.01380755  1
  Be  Be55  1  0.31869525  -0.06869525  0.34714088  1
  Be  Be56  1  0.31869525  -0.06869525  0.68047422  1
  Be  Be57  1  0.81869525  -0.06869525  0.01380755  1
  Be  Be58  1  0.81869525  -0.06869525  0.34714088  1
  Be  Be59  1  0.81869525  -0.06869525  0.68047422  1
  Be  Be60  1  0.43130475  0.18130475  0.31952578  1
  Be  Be61  1  0.43130475  0.18130475  0.65285912  1
  Be  Be62  1  0.43130475  0.18130475  0.98619245  1
  Be  Be63  1  0.93130475  0.18130475  0.31952578  1
  Be  Be64  1  0.93130475  0.18130475  0.65285912  1
  Be  Be65  1  0.93130475  0.18130475  0.98619245  1
  Be  Be66  1  0.43130475  -0.31869525  0.31952578  1
  Be  Be67  1  0.43130475  -0.31869525  0.65285912  1
  Be  Be68  1  0.43130475  -0.31869525  0.98619245  1
  Be  Be69  1  0.93130475  -0.31869525  0.31952578  1
  Be  Be70  1  0.93130475  -0.31869525  0.65285912  1
  Be  Be71  1  0.93130475  -0.31869525  0.98619245  1
  Be  Be72  1  0.06869525  0.31869525  0.31952578  1
  Be  Be73  1  0.06869525  0.31869525  0.65285912  1
  Be  Be74  1  0.06869525  0.31869525  0.98619245  1
  Be  Be75  1  0.56869525  0.31869525  0.31952578  1
  Be  Be76  1  0.56869525  0.31869525  0.65285912  1
  Be  Be77  1  0.56869525  0.31869525  0.98619245  1
  Be  Be78  1  0.06869525  -0.18130475  0.31952578  1
  Be  Be79  1  0.06869525  -0.18130475  0.65285912  1
  Be  Be80  1  0.06869525  -0.18130475  0.98619245  1
  Be  Be81  1  0.56869525  -0.18130475  0.31952578  1
  Be  Be82  1  0.56869525  -0.18130475  0.65285912  1
  Be  Be83  1  0.56869525  -0.18130475  0.98619245  1
  Be  Be84  1  0.18130475  0.06869525  0.01380755  1
  Be  Be85  1  0.18130475  0.06869525  0.34714088  1
  Be  Be86  1  0.18130475  0.06869525  0.68047422  1
  Be  Be87  1  0.68130475  0.06869525  0.01380755  1
  Be  Be88  1  0.68130475  0.06869525  0.34714088  1
  Be  Be89  1  0.68130475  0.06869525  0.68047422  1
  Be  Be90  1  0.18130475  -0.43130475  0.01380755  1
  Be  Be91  1  0.18130475  -0.43130475  0.34714088  1
  Be  Be92  1  0.18130475  -0.43130475  0.68047422  1
  Be  Be93  1  0.68130475  -0.43130475  0.01380755  1
  Be  Be94  1  0.68130475  -0.43130475  0.34714088  1
  Be  Be95  1  0.68130475  -0.43130475  0.68047422  1
  Si  Si96  1  0.25000000  0.25000000  0.00000000  1
  Si  Si97  1  0.25000000  0.25000000  0.33333333  1
  Si  Si98  1  0.25000000  0.25000000  0.66666667  1
  Si  Si99  1  0.75000000  0.25000000  0.00000000  1
  Si  Si100  1  0.75000000  0.25000000  0.33333333  1
  Si  Si101  1  0.75000000  0.25000000  0.66666667  1
  Si  Si102  1  0.25000000  -0.25000000  0.00000000  1
  Si  Si103  1  0.25000000  -0.25000000  0.33333333  1
  Si  Si104  1  0.25000000  -0.25000000  0.66666667  1
  Si  Si105  1  0.75000000  -0.25000000  0.00000000  1
  Si  Si106  1  0.75000000  -0.25000000  0.33333333  1
  Si  Si107  1  0.75000000  -0.25000000  0.66666667  1
  Si  Si108  1  0.00000000  0.50000000  0.00000000  1
  Si  Si109  1  0.00000000  0.50000000  0.33333333  1
  Si  Si110  1  0.00000000  0.50000000  0.66666667  1
  Si  Si111  1  0.50000000  0.50000000  0.00000000  1
  Si  Si112  1  0.50000000  0.50000000  0.33333333  1
  Si  Si113  1  0.50000000  0.50000000  0.66666667  1
  Si  Si114  1  0.00000000  0.00000000  0.00000000  1
  Si  Si115  1  0.00000000  0.00000000  0.33333333  1
  Si  Si116  1  0.00000000  0.00000000  0.66666667  1
  Si  Si117  1  0.50000000  0.00000000  0.00000000  1
  Si  Si118  1  0.50000000  0.00000000  0.33333333  1
  Si  Si119  1  0.50000000  0.00000000  0.66666667  1
  O  O120  1  0.08151081  0.04094796  0.06750273  1
  O  O121  1  0.08151081  0.04094796  0.40083607  1
  O  O122  1  0.08151081  0.04094796  0.73416940  1
  O  O123  1  0.58151081  0.04094796  0.06750273  1
  O  O124  1  0.58151081  0.04094796  0.40083607  1
  O  O125  1  0.58151081  0.04094796  0.73416940  1
  O  O126  1  0.08151081  -0.45905204  0.06750273  1
  O  O127  1  0.08151081  -0.45905204  0.40083607  1
  O  O128  1  0.08151081  -0.45905204  0.73416940  1
  O  O129  1  0.58151081  -0.45905204  0.06750273  1
  O  O130  1  0.58151081  -0.45905204  0.40083607  1
  O  O131  1  0.58151081  -0.45905204  0.73416940  1
  O  O132  1  0.45905204  0.08151081  0.26583060  1
  O  O133  1  0.45905204  0.08151081  0.59916393  1
  O  O134  1  0.45905204  0.08151081  0.93249727  1
  O  O135  1  0.95905204  0.08151081  0.26583060  1
  O  O136  1  0.95905204  0.08151081  0.59916393  1
  O  O137  1  0.95905204  0.08151081  0.93249727  1
  O  O138  1  0.45905204  -0.41848919  0.26583060  1
  O  O139  1  0.45905204  -0.41848919  0.59916393  1
  O  O140  1  0.45905204  -0.41848919  0.93249727  1
  O  O141  1  0.95905204  -0.41848919  0.26583060  1
  O  O142  1  0.95905204  -0.41848919  0.59916393  1
  O  O143  1  0.95905204  -0.41848919  0.93249727  1
  O  O144  1  0.04094796  0.41848919  0.26583060  1
  O  O145  1  0.04094796  0.41848919  0.59916393  1
  O  O146  1  0.04094796  0.41848919  0.93249727  1
  O  O147  1  0.54094796  0.41848919  0.26583060  1
  O  O148  1  0.54094796  0.41848919  0.59916393  1
  O  O149  1  0.54094796  0.41848919  0.93249727  1
  O  O150  1  0.04094796  -0.08151081  0.26583060  1
  O  O151  1  0.04094796  -0.08151081  0.59916393  1
  O  O152  1  0.04094796  -0.08151081  0.93249727  1
  O  O153  1  0.54094796  -0.08151081  0.26583060  1
  O  O154  1  0.54094796  -0.08151081  0.59916393  1
  O  O155  1  0.54094796  -0.08151081  0.93249727  1
  O  O156  1  0.41848919  0.45905204  0.06750273  1
  O  O157  1  0.41848919  0.45905204  0.40083607  1
  O  O158  1  0.41848919  0.45905204  0.73416940  1
  O  O159  1  0.91848919  0.45905204  0.06750273  1
  O  O160  1  0.91848919  0.45905204  0.40083607  1
  O  O161  1  0.91848919  0.45905204  0.73416940  1
  O  O162  1  0.41848919  -0.04094796  0.06750273  1
  O  O163  1  0.41848919  -0.04094796  0.40083607  1
  O  O164  1  0.41848919  -0.04094796  0.73416940  1
  O  O165  1  0.91848919  -0.04094796  0.06750273  1
  O  O166  1  0.91848919  -0.04094796  0.40083607  1
  O  O167  1  0.91848919  -0.04094796  0.73416940  1
  O  O168  1  0.16848919  0.29094796  0.26583060  1
  O  O169  1  0.16848919  0.29094796  0.59916393  1
  O  O170  1  0.16848919  0.29094796  0.93249727  1
  O  O171  1  0.66848919  0.29094796  0.26583060  1
  O  O172  1  0.66848919  0.29094796  0.59916393  1
  O  O173  1  0.66848919  0.29094796  0.93249727  1
  O  O174  1  0.16848919  -0.20905204  0.26583060  1
  O  O175  1  0.16848919  -0.20905204  0.59916393  1
  O  O176  1  0.16848919  -0.20905204  0.93249727  1
  O  O177  1  0.66848919  -0.20905204  0.26583060  1
  O  O178  1  0.66848919  -0.20905204  0.59916393  1
  O  O179  1  0.66848919  -0.20905204  0.93249727  1
  O  O180  1  0.33151081  0.20905204  0.26583060  1
  O  O181  1  0.33151081  0.20905204  0.59916393  1
  O  O182  1  0.33151081  0.20905204  0.93249727  1
  O  O183  1  0.83151081  0.20905204  0.26583060  1
  O  O184  1  0.83151081  0.20905204  0.59916393  1
  O  O185  1  0.83151081  0.20905204  0.93249727  1
  O  O186  1  0.33151081  -0.29094796  0.26583060  1
  O  O187  1  0.33151081  -0.29094796  0.59916393  1
  O  O188  1  0.33151081  -0.29094796  0.93249727  1
  O  O189  1  0.83151081  -0.29094796  0.26583060  1
  O  O190  1  0.83151081  -0.29094796  0.59916393  1
  O  O191  1  0.83151081  -0.29094796  0.93249727  1
  O  O192  1  0.20905204  0.16848919  0.06750273  1
  O  O193  1  0.20905204  0.16848919  0.40083607  1
  O  O194  1  0.20905204  0.16848919  0.73416940  1
  O  O195  1  0.70905204  0.16848919  0.06750273  1
  O  O196  1  0.70905204  0.16848919  0.40083607  1
  O  O197  1  0.70905204  0.16848919  0.73416940  1
  O  O198  1  0.20905204  -0.33151081  0.06750273  1
  O  O199  1  0.20905204  -0.33151081  0.40083607  1
  O  O200  1  0.20905204  -0.33151081  0.73416940  1
  O  O201  1  0.70905204  -0.33151081  0.06750273  1
  O  O202  1  0.70905204  -0.33151081  0.40083607  1
  O  O203  1  0.70905204  -0.33151081  0.73416940  1
  O  O204  1  0.29094796  0.33151081  0.06750273  1
  O  O205  1  0.29094796  0.33151081  0.40083607  1
  O  O206  1  0.29094796  0.33151081  0.73416940  1
  O  O207  1  0.79094796  0.33151081  0.06750273  1
  O  O208  1  0.79094796  0.33151081  0.40083607  1
  O  O209  1  0.79094796  0.33151081  0.73416940  1
  O  O210  1  0.29094796  -0.16848919  0.06750273  1
  O  O211  1  0.29094796  -0.16848919  0.40083607  1
  O  O212  1  0.29094796  -0.16848919  0.73416940  1
  O  O213  1  0.79094796  -0.16848919  0.06750273  1
  O  O214  1  0.79094796  -0.16848919  0.40083607  1
  O  O215  1  0.79094796  -0.16848919  0.73416940  1
  O  O216  1  0.42927038  0.17927038  0.09757395  1
  O  O217  1  0.42927038  0.17927038  0.43090728  1
  O  O218  1  0.42927038  0.17927038  0.76424061  1
  O  O219  1  0.92927038  0.17927038  0.09757395  1
  O  O220  1  0.92927038  0.17927038  0.43090728  1
  O  O221  1  0.92927038  0.17927038  0.76424061  1
  O  O222  1  0.42927038  -0.32072962  0.09757395  1
  O  O223  1  0.42927038  -0.32072962  0.43090728  1
  O  O224  1  0.42927038  -0.32072962  0.76424061  1
  O  O225  1  0.92927038  -0.32072962  0.09757395  1
  O  O226  1  0.92927038  -0.32072962  0.43090728  1
  O  O227  1  0.92927038  -0.32072962  0.76424061  1
  O  O228  1  0.32072962  0.42927038  0.23575939  1
  O  O229  1  0.32072962  0.42927038  0.56909272  1
  O  O230  1  0.32072962  0.42927038  0.90242605  1
  O  O231  1  0.82072962  0.42927038  0.23575939  1
  O  O232  1  0.82072962  0.42927038  0.56909272  1
  O  O233  1  0.82072962  0.42927038  0.90242605  1
  O  O234  1  0.32072962  -0.07072962  0.23575939  1
  O  O235  1  0.32072962  -0.07072962  0.56909272  1
  O  O236  1  0.32072962  -0.07072962  0.90242605  1
  O  O237  1  0.82072962  -0.07072962  0.23575939  1
  O  O238  1  0.82072962  -0.07072962  0.56909272  1
  O  O239  1  0.82072962  -0.07072962  0.90242605  1
  O  O240  1  0.17927038  0.07072962  0.23575939  1
  O  O241  1  0.17927038  0.07072962  0.56909272  1
  O  O242  1  0.17927038  0.07072962  0.90242605  1
  O  O243  1  0.67927038  0.07072962  0.23575939  1
  O  O244  1  0.67927038  0.07072962  0.56909272  1
  O  O245  1  0.67927038  0.07072962  0.90242605  1
  O  O246  1  0.17927038  -0.42927038  0.23575939  1
  O  O247  1  0.17927038  -0.42927038  0.56909272  1
  O  O248  1  0.17927038  -0.42927038  0.90242605  1
  O  O249  1  0.67927038  -0.42927038  0.23575939  1
  O  O250  1  0.67927038  -0.42927038  0.56909272  1
  O  O251  1  0.67927038  -0.42927038  0.90242605  1
  O  O252  1  0.07072962  0.32072962  0.09757395  1
  O  O253  1  0.07072962  0.32072962  0.43090728  1
  O  O254  1  0.07072962  0.32072962  0.76424061  1
  O  O255  1  0.57072962  0.32072962  0.09757395  1
  O  O256  1  0.57072962  0.32072962  0.43090728  1
  O  O257  1  0.57072962  0.32072962  0.76424061  1
  O  O258  1  0.07072962  -0.17927038  0.09757395  1
  O  O259  1  0.07072962  -0.17927038  0.43090728  1
  O  O260  1  0.07072962  -0.17927038  0.76424061  1
  O  O261  1  0.57072962  -0.17927038  0.09757395  1
  O  O262  1  0.57072962  -0.17927038  0.43090728  1
  O  O263  1  0.57072962  -0.17927038  0.76424061  1
  O  O264  1  0.00000000  0.25000000  0.27223785  1
  O  O265  1  0.00000000  0.25000000  0.60557119  1
  O  O266  1  0.00000000  0.25000000  0.93890452  1
  O  O267  1  0.50000000  0.25000000  0.27223785  1
  O  O268  1  0.50000000  0.25000000  0.60557119  1
  O  O269  1  0.50000000  0.25000000  0.93890452  1
  O  O270  1  0.00000000  -0.25000000  0.27223785  1
  O  O271  1  0.00000000  -0.25000000  0.60557119  1
  O  O272  1  0.00000000  -0.25000000  0.93890452  1
  O  O273  1  0.50000000  -0.25000000  0.27223785  1
  O  O274  1  0.50000000  -0.25000000  0.60557119  1
  O  O275  1  0.50000000  -0.25000000  0.93890452  1
  O  O276  1  0.25000000  0.50000000  0.06109548  1
  O  O277  1  0.25000000  0.50000000  0.39442881  1
  O  O278  1  0.25000000  0.50000000  0.72776215  1
  O  O279  1  0.75000000  0.50000000  0.06109548  1
  O  O280  1  0.75000000  0.50000000  0.39442881  1
  O  O281  1  0.75000000  0.50000000  0.72776215  1
  O  O282  1  0.25000000  0.00000000  0.06109548  1
  O  O283  1  0.25000000  0.00000000  0.39442881  1
  O  O284  1  0.25000000  0.00000000  0.72776215  1
  O  O285  1  0.75000000  0.00000000  0.06109548  1
  O  O286  1  0.75000000  0.00000000  0.39442881  1
  O  O287  1  0.75000000  0.00000000  0.72776215  1
