# generated using pymatgen
data_Ba4AgAuO6
_symmetry_space_group_name_H-M   'P 1'
_cell_length_a   13.19386986
_cell_length_b   11.58496184
_cell_length_c   11.38944540
_cell_angle_alpha   90.00000000
_cell_angle_beta   90.00000000
_cell_angle_gamma   90.00000000
_symmetry_Int_Tables_number   1
_chemical_formula_structural   Ba4AgAuO6
_chemical_formula_sum   'Ba32 Ag8 Au8 O48'
_cell_volume   1740.88218315
_cell_formula_units_Z   8
loop_
 _symmetry_equiv_pos_site_id
 _symmetry_equiv_pos_as_xyz
  1  'x, y, z'
loop_
 _atom_site_type_symbol
 _atom_site_label
 _atom_site_symmetry_multiplicity
 _atom_site_fract_x
 _atom_site_fract_y
 _atom_site_fract_z
 _atom_site_occupancy
  Ba  Ba0  1  0.85458339  -0.03189733  0.25000000  1
  Ba  Ba1  1  0.85458339  0.46810267  0.25000000  1
  Ba  Ba2  1  1.35458339  0.21810267  0.25000000  1
  Ba  Ba3  1  1.35458339  0.71810267  0.25000000  1
  Ba  Ba4  1  0.35380789  0.00000000  0.00000000  1
  Ba  Ba5  1  0.35380789  0.50000000  0.00000000  1
  Ba  Ba6  1  0.85380789  0.25000000  0.00000000  1
  Ba  Ba7  1  0.85380789  0.75000000  0.00000000  1
  Ba  Ba8  1  0.14541661  0.03189733  0.75000000  1
  Ba  Ba9  1  0.14541661  0.53189733  0.75000000  1
  Ba  Ba10  1  0.64541661  0.28189733  0.75000000  1
  Ba  Ba11  1  0.64541661  0.78189733  0.75000000  1
  Ba  Ba12  1  0.14541661  -0.03189733  0.25000000  1
  Ba  Ba13  1  0.14541661  0.46810267  0.25000000  1
  Ba  Ba14  1  0.64541661  0.21810267  0.25000000  1
  Ba  Ba15  1  0.64541661  0.71810267  0.25000000  1
  Ba  Ba16  1  0.85458339  0.03189733  0.75000000  1
  Ba  Ba17  1  0.85458339  0.53189733  0.75000000  1
  Ba  Ba18  1  1.35458339  0.28189733  0.75000000  1
  Ba  Ba19  1  1.35458339  0.78189733  0.75000000  1
  Ba  Ba20  1  0.64619211  -0.00000000  0.50000000  1
  Ba  Ba21  1  0.64619211  0.50000000  0.50000000  1
  Ba  Ba22  1  1.14619211  0.25000000  0.50000000  1
  Ba  Ba23  1  1.14619211  0.75000000  0.50000000  1
  Ba  Ba24  1  0.64619211  -0.00000000  0.00000000  1
  Ba  Ba25  1  0.64619211  0.50000000  0.00000000  1
  Ba  Ba26  1  1.14619211  0.25000000  0.00000000  1
  Ba  Ba27  1  1.14619211  0.75000000  0.00000000  1
  Ba  Ba28  1  0.35380789  0.00000000  0.50000000  1
  Ba  Ba29  1  0.35380789  0.50000000  0.50000000  1
  Ba  Ba30  1  0.85380789  0.25000000  0.50000000  1
  Ba  Ba31  1  0.85380789  0.75000000  0.50000000  1
  Ag  Ag32  1  0.50000000  0.04640021  0.75000000  1
  Ag  Ag33  1  0.50000000  0.54640021  0.75000000  1
  Ag  Ag34  1  1.00000000  0.29640021  0.75000000  1
  Ag  Ag35  1  1.00000000  0.79640021  0.75000000  1
  Ag  Ag36  1  0.50000000  -0.04640021  0.25000000  1
  Ag  Ag37  1  0.50000000  0.45359979  0.25000000  1
  Ag  Ag38  1  1.00000000  0.20359979  0.25000000  1
  Ag  Ag39  1  1.00000000  0.70359979  0.25000000  1
  Au  Au40  1  0.00000000  0.00000000  0.50000000  1
  Au  Au41  1  0.00000000  0.50000000  0.50000000  1
  Au  Au42  1  0.50000000  0.25000000  0.50000000  1
  Au  Au43  1  0.50000000  0.75000000  0.50000000  1
  Au  Au44  1  0.00000000  0.00000000  0.00000000  1
  Au  Au45  1  0.00000000  0.50000000  0.00000000  1
  Au  Au46  1  0.50000000  0.25000000  0.00000000  1
  Au  Au47  1  0.50000000  0.75000000  0.00000000  1
  O  O48  1  0.65857893  0.04749645  0.75000000  1
  O  O49  1  0.65857893  0.54749645  0.75000000  1
  O  O50  1  1.15857893  0.29749645  0.75000000  1
  O  O51  1  1.15857893  0.79749645  0.75000000  1
  O  O52  1  0.84583925  -0.00000000  0.00000000  1
  O  O53  1  0.84583925  0.50000000  0.00000000  1
  O  O54  1  1.34583925  0.25000000  0.00000000  1
  O  O55  1  1.34583925  0.75000000  0.00000000  1
  O  O56  1  0.34142107  0.04749645  0.75000000  1
  O  O57  1  0.34142107  0.54749645  0.75000000  1
  O  O58  1  0.84142107  0.29749645  0.75000000  1
  O  O59  1  0.84142107  0.79749645  0.75000000  1
  O  O60  1  0.50000000  -0.11546559  0.88979579  1
  O  O61  1  0.50000000  0.38453441  0.88979579  1
  O  O62  1  1.00000000  0.13453441  0.88979579  1
  O  O63  1  1.00000000  0.63453441  0.88979579  1
  O  O64  1  0.84583925  -0.00000000  0.50000000  1
  O  O65  1  0.84583925  0.50000000  0.50000000  1
  O  O66  1  1.34583925  0.25000000  0.50000000  1
  O  O67  1  1.34583925  0.75000000  0.50000000  1
  O  O68  1  0.15416075  -0.00000000  0.50000000  1
  O  O69  1  0.15416075  0.50000000  0.50000000  1
  O  O70  1  0.65416075  0.25000000  0.50000000  1
  O  O71  1  0.65416075  0.75000000  0.50000000  1
  O  O72  1  0.65857893  -0.04749645  0.25000000  1
  O  O73  1  0.65857893  0.45250355  0.25000000  1
  O  O74  1  1.15857893  0.20250355  0.25000000  1
  O  O75  1  1.15857893  0.70250355  0.25000000  1
  O  O76  1  0.34142107  -0.04749645  0.25000000  1
  O  O77  1  0.34142107  0.45250355  0.25000000  1
  O  O78  1  0.84142107  0.20250355  0.25000000  1
  O  O79  1  0.84142107  0.70250355  0.25000000  1
  O  O80  1  0.50000000  -0.11546559  0.61020421  1
  O  O81  1  0.50000000  0.38453441  0.61020421  1
  O  O82  1  1.00000000  0.13453441  0.61020421  1
  O  O83  1  1.00000000  0.63453441  0.61020421  1
  O  O84  1  0.15416075  -0.00000000  0.00000000  1
  O  O85  1  0.15416075  0.50000000  0.00000000  1
  O  O86  1  0.65416075  0.25000000  0.00000000  1
  O  O87  1  0.65416075  0.75000000  0.00000000  1
  O  O88  1  0.50000000  0.11546559  0.11020421  1
  O  O89  1  0.50000000  0.61546559  0.11020421  1
  O  O90  1  1.00000000  0.36546559  0.11020421  1
  O  O91  1  1.00000000  0.86546559  0.11020421  1
  O  O92  1  0.50000000  0.11546559  0.38979579  1
  O  O93  1  0.50000000  0.61546559  0.38979579  1
  O  O94  1  1.00000000  0.36546559  0.38979579  1
  O  O95  1  1.00000000  0.86546559  0.38979579  1
