# generated using pymatgen
data_KLi2BO3
_symmetry_space_group_name_H-M   'P 1'
_cell_length_a   15.97647489
_cell_length_b   12.88825543
_cell_length_c   12.86686994
_cell_angle_alpha   90.00000000
_cell_angle_beta   90.00000000
_cell_angle_gamma   90.00000000
_symmetry_Int_Tables_number   1
_chemical_formula_structural   KLi2BO3
_chemical_formula_sum   'K32 Li64 B32 O96'
_cell_volume   2649.40289719
_cell_formula_units_Z   32
loop_
 _symmetry_equiv_pos_site_id
 _symmetry_equiv_pos_as_xyz
  1  'x, y, z'
loop_
 _atom_site_type_symbol
 _atom_site_label
 _atom_site_symmetry_multiplicity
 _atom_site_fract_x
 _atom_site_fract_y
 _atom_site_fract_z
 _atom_site_occupancy
  K  K0  1  0.49588717  0.37500000  0.19864952  1
  K  K1  1  0.49588717  0.37500000  0.69864952  1
  K  K2  1  0.49588717  0.87500000  0.19864952  1
  K  K3  1  0.49588717  0.87500000  0.69864952  1
  K  K4  1  0.99588717  0.37500000  0.19864952  1
  K  K5  1  0.99588717  0.37500000  0.69864952  1
  K  K6  1  0.99588717  0.87500000  0.19864952  1
  K  K7  1  0.99588717  0.87500000  0.69864952  1
  K  K8  1  0.24588717  0.37500000  0.05135048  1
  K  K9  1  0.24588717  0.37500000  0.55135048  1
  K  K10  1  0.24588717  0.87500000  0.05135048  1
  K  K11  1  0.24588717  0.87500000  0.55135048  1
  K  K12  1  0.74588717  0.37500000  0.05135048  1
  K  K13  1  0.74588717  0.37500000  0.55135048  1
  K  K14  1  0.74588717  0.87500000  0.05135048  1
  K  K15  1  0.74588717  0.87500000  0.55135048  1
  K  K16  1  0.25411283  0.12500000  0.44864952  1
  K  K17  1  0.25411283  0.12500000  0.94864952  1
  K  K18  1  0.25411283  0.62500000  0.44864952  1
  K  K19  1  0.25411283  0.62500000  0.94864952  1
  K  K20  1  0.75411283  0.12500000  0.44864952  1
  K  K21  1  0.75411283  0.12500000  0.94864952  1
  K  K22  1  0.75411283  0.62500000  0.44864952  1
  K  K23  1  0.75411283  0.62500000  0.94864952  1
  K  K24  1  0.00411283  0.12500000  0.30135048  1
  K  K25  1  0.00411283  0.12500000  0.80135048  1
  K  K26  1  0.00411283  0.62500000  0.30135048  1
  K  K27  1  0.00411283  0.62500000  0.80135048  1
  K  K28  1  0.50411283  0.12500000  0.30135048  1
  K  K29  1  0.50411283  0.12500000  0.80135048  1
  K  K30  1  0.50411283  0.62500000  0.30135048  1
  K  K31  1  0.50411283  0.62500000  0.80135048  1
  Li  Li32  1  0.42967904  0.26993264  0.48342560  1
  Li  Li33  1  0.42967904  0.26993264  0.98342560  1
  Li  Li34  1  0.42967904  0.76993264  0.48342560  1
  Li  Li35  1  0.42967904  0.76993264  0.98342560  1
  Li  Li36  1  0.92967904  0.26993264  0.48342560  1
  Li  Li37  1  0.92967904  0.26993264  0.98342560  1
  Li  Li38  1  0.92967904  0.76993264  0.48342560  1
  Li  Li39  1  0.92967904  0.76993264  0.98342560  1
  Li  Li40  1  0.07032096  0.23006736  0.01657440  1
  Li  Li41  1  0.07032096  0.23006736  0.51657440  1
  Li  Li42  1  0.07032096  0.73006736  0.01657440  1
  Li  Li43  1  0.07032096  0.73006736  0.51657440  1
  Li  Li44  1  0.57032096  0.23006736  0.01657440  1
  Li  Li45  1  0.57032096  0.23006736  0.51657440  1
  Li  Li46  1  0.57032096  0.73006736  0.01657440  1
  Li  Li47  1  0.57032096  0.73006736  0.51657440  1
  Li  Li48  1  0.32032096  0.01993264  0.23342560  1
  Li  Li49  1  0.32032096  0.01993264  0.73342560  1
  Li  Li50  1  0.32032096  0.51993264  0.23342560  1
  Li  Li51  1  0.32032096  0.51993264  0.73342560  1
  Li  Li52  1  0.82032096  0.01993264  0.23342560  1
  Li  Li53  1  0.82032096  0.01993264  0.73342560  1
  Li  Li54  1  0.82032096  0.51993264  0.23342560  1
  Li  Li55  1  0.82032096  0.51993264  0.73342560  1
  Li  Li56  1  0.42967904  0.48006736  0.48342560  1
  Li  Li57  1  0.42967904  0.48006736  0.98342560  1
  Li  Li58  1  0.42967904  0.98006736  0.48342560  1
  Li  Li59  1  0.42967904  0.98006736  0.98342560  1
  Li  Li60  1  0.92967904  0.48006736  0.48342560  1
  Li  Li61  1  0.92967904  0.48006736  0.98342560  1
  Li  Li62  1  0.92967904  0.98006736  0.48342560  1
  Li  Li63  1  0.92967904  0.98006736  0.98342560  1
  Li  Li64  1  0.17967904  0.48006736  0.26657440  1
  Li  Li65  1  0.17967904  0.48006736  0.76657440  1
  Li  Li66  1  0.17967904  0.98006736  0.26657440  1
  Li  Li67  1  0.17967904  0.98006736  0.76657440  1
  Li  Li68  1  0.67967904  0.48006736  0.26657440  1
  Li  Li69  1  0.67967904  0.48006736  0.76657440  1
  Li  Li70  1  0.67967904  0.98006736  0.26657440  1
  Li  Li71  1  0.67967904  0.98006736  0.76657440  1
  Li  Li72  1  0.32032096  0.23006736  0.23342560  1
  Li  Li73  1  0.32032096  0.23006736  0.73342560  1
  Li  Li74  1  0.32032096  0.73006736  0.23342560  1
  Li  Li75  1  0.32032096  0.73006736  0.73342560  1
  Li  Li76  1  0.82032096  0.23006736  0.23342560  1
  Li  Li77  1  0.82032096  0.23006736  0.73342560  1
  Li  Li78  1  0.82032096  0.73006736  0.23342560  1
  Li  Li79  1  0.82032096  0.73006736  0.73342560  1
  Li  Li80  1  0.07032096  0.01993264  0.01657440  1
  Li  Li81  1  0.07032096  0.01993264  0.51657440  1
  Li  Li82  1  0.07032096  0.51993264  0.01657440  1
  Li  Li83  1  0.07032096  0.51993264  0.51657440  1
  Li  Li84  1  0.57032096  0.01993264  0.01657440  1
  Li  Li85  1  0.57032096  0.01993264  0.51657440  1
  Li  Li86  1  0.57032096  0.51993264  0.01657440  1
  Li  Li87  1  0.57032096  0.51993264  0.51657440  1
  Li  Li88  1  0.17967904  0.26993264  0.26657440  1
  Li  Li89  1  0.17967904  0.26993264  0.76657440  1
  Li  Li90  1  0.17967904  0.76993264  0.26657440  1
  Li  Li91  1  0.17967904  0.76993264  0.76657440  1
  Li  Li92  1  0.67967904  0.26993264  0.26657440  1
  Li  Li93  1  0.67967904  0.26993264  0.76657440  1
  Li  Li94  1  0.67967904  0.76993264  0.26657440  1
  Li  Li95  1  0.67967904  0.76993264  0.76657440  1
  B  B96  1  0.42419324  0.12500000  0.08687651  1
  B  B97  1  0.42419324  0.12500000  0.58687651  1
  B  B98  1  0.42419324  0.62500000  0.08687651  1
  B  B99  1  0.42419324  0.62500000  0.58687651  1
  B  B100  1  0.92419324  0.12500000  0.08687651  1
  B  B101  1  0.92419324  0.12500000  0.58687651  1
  B  B102  1  0.92419324  0.62500000  0.08687651  1
  B  B103  1  0.92419324  0.62500000  0.58687651  1
  B  B104  1  0.07580676  0.37500000  0.41312349  1
  B  B105  1  0.07580676  0.37500000  0.91312349  1
  B  B106  1  0.07580676  0.87500000  0.41312349  1
  B  B107  1  0.07580676  0.87500000  0.91312349  1
  B  B108  1  0.57580676  0.37500000  0.41312349  1
  B  B109  1  0.57580676  0.37500000  0.91312349  1
  B  B110  1  0.57580676  0.87500000  0.41312349  1
  B  B111  1  0.57580676  0.87500000  0.91312349  1
  B  B112  1  0.17419324  0.12500000  0.16312349  1
  B  B113  1  0.17419324  0.12500000  0.66312349  1
  B  B114  1  0.17419324  0.62500000  0.16312349  1
  B  B115  1  0.17419324  0.62500000  0.66312349  1
  B  B116  1  0.67419324  0.12500000  0.16312349  1
  B  B117  1  0.67419324  0.12500000  0.66312349  1
  B  B118  1  0.67419324  0.62500000  0.16312349  1
  B  B119  1  0.67419324  0.62500000  0.66312349  1
  B  B120  1  0.32580676  0.37500000  0.33687651  1
  B  B121  1  0.32580676  0.37500000  0.83687651  1
  B  B122  1  0.32580676  0.87500000  0.33687651  1
  B  B123  1  0.32580676  0.87500000  0.83687651  1
  B  B124  1  0.82580676  0.37500000  0.33687651  1
  B  B125  1  0.82580676  0.37500000  0.83687651  1
  B  B126  1  0.82580676  0.87500000  0.33687651  1
  B  B127  1  0.82580676  0.87500000  0.83687651  1
  O  O128  1  0.39648169  0.21972083  0.12364396  1
  O  O129  1  0.39648169  0.21972083  0.62364396  1
  O  O130  1  0.39648169  0.71972083  0.12364396  1
  O  O131  1  0.39648169  0.71972083  0.62364396  1
  O  O132  1  0.89648169  0.21972083  0.12364396  1
  O  O133  1  0.89648169  0.21972083  0.62364396  1
  O  O134  1  0.89648169  0.71972083  0.12364396  1
  O  O135  1  0.89648169  0.71972083  0.62364396  1
  O  O136  1  0.14648169  0.21972083  0.12635604  1
  O  O137  1  0.14648169  0.21972083  0.62635604  1
  O  O138  1  0.14648169  0.71972083  0.12635604  1
  O  O139  1  0.14648169  0.71972083  0.62635604  1
  O  O140  1  0.64648169  0.21972083  0.12635604  1
  O  O141  1  0.64648169  0.21972083  0.62635604  1
  O  O142  1  0.64648169  0.71972083  0.12635604  1
  O  O143  1  0.64648169  0.71972083  0.62635604  1
  O  O144  1  0.35351831  0.46972083  0.37364396  1
  O  O145  1  0.35351831  0.46972083  0.87364396  1
  O  O146  1  0.35351831  0.96972083  0.37364396  1
  O  O147  1  0.35351831  0.96972083  0.87364396  1
  O  O148  1  0.85351831  0.46972083  0.37364396  1
  O  O149  1  0.85351831  0.46972083  0.87364396  1
  O  O150  1  0.85351831  0.96972083  0.37364396  1
  O  O151  1  0.85351831  0.96972083  0.87364396  1
  O  O152  1  0.26831671  0.37500000  0.25407917  1
  O  O153  1  0.26831671  0.37500000  0.75407917  1
  O  O154  1  0.26831671  0.87500000  0.25407917  1
  O  O155  1  0.26831671  0.87500000  0.75407917  1
  O  O156  1  0.76831671  0.37500000  0.25407917  1
  O  O157  1  0.76831671  0.37500000  0.75407917  1
  O  O158  1  0.76831671  0.87500000  0.25407917  1
  O  O159  1  0.76831671  0.87500000  0.75407917  1
  O  O160  1  0.23168329  0.12500000  0.24592083  1
  O  O161  1  0.23168329  0.12500000  0.74592083  1
  O  O162  1  0.23168329  0.62500000  0.24592083  1
  O  O163  1  0.23168329  0.62500000  0.74592083  1
  O  O164  1  0.73168329  0.12500000  0.24592083  1
  O  O165  1  0.73168329  0.12500000  0.74592083  1
  O  O166  1  0.73168329  0.62500000  0.24592083  1
  O  O167  1  0.73168329  0.62500000  0.74592083  1
  O  O168  1  0.39648169  0.03027917  0.12364396  1
  O  O169  1  0.39648169  0.03027917  0.62364396  1
  O  O170  1  0.39648169  0.53027917  0.12364396  1
  O  O171  1  0.39648169  0.53027917  0.62364396  1
  O  O172  1  0.89648169  0.03027917  0.12364396  1
  O  O173  1  0.89648169  0.03027917  0.62364396  1
  O  O174  1  0.89648169  0.53027917  0.12364396  1
  O  O175  1  0.89648169  0.53027917  0.62364396  1
  O  O176  1  0.10351831  0.46972083  0.37635604  1
  O  O177  1  0.10351831  0.46972083  0.87635604  1
  O  O178  1  0.10351831  0.96972083  0.37635604  1
  O  O179  1  0.10351831  0.96972083  0.87635604  1
  O  O180  1  0.60351831  0.46972083  0.37635604  1
  O  O181  1  0.60351831  0.46972083  0.87635604  1
  O  O182  1  0.60351831  0.96972083  0.37635604  1
  O  O183  1  0.60351831  0.96972083  0.87635604  1
  O  O184  1  0.10351831  0.28027917  0.37635604  1
  O  O185  1  0.10351831  0.28027917  0.87635604  1
  O  O186  1  0.10351831  0.78027917  0.37635604  1
  O  O187  1  0.10351831  0.78027917  0.87635604  1
  O  O188  1  0.60351831  0.28027917  0.37635604  1
  O  O189  1  0.60351831  0.28027917  0.87635604  1
  O  O190  1  0.60351831  0.78027917  0.37635604  1
  O  O191  1  0.60351831  0.78027917  0.87635604  1
  O  O192  1  0.01831671  0.37500000  0.49592083  1
  O  O193  1  0.01831671  0.37500000  0.99592083  1
  O  O194  1  0.01831671  0.87500000  0.49592083  1
  O  O195  1  0.01831671  0.87500000  0.99592083  1
  O  O196  1  0.51831671  0.37500000  0.49592083  1
  O  O197  1  0.51831671  0.37500000  0.99592083  1
  O  O198  1  0.51831671  0.87500000  0.49592083  1
  O  O199  1  0.51831671  0.87500000  0.99592083  1
  O  O200  1  0.14648169  0.03027917  0.12635604  1
  O  O201  1  0.14648169  0.03027917  0.62635604  1
  O  O202  1  0.14648169  0.53027917  0.12635604  1
  O  O203  1  0.14648169  0.53027917  0.62635604  1
  O  O204  1  0.64648169  0.03027917  0.12635604  1
  O  O205  1  0.64648169  0.03027917  0.62635604  1
  O  O206  1  0.64648169  0.53027917  0.12635604  1
  O  O207  1  0.64648169  0.53027917  0.62635604  1
  O  O208  1  0.48168329  0.12500000  0.00407917  1
  O  O209  1  0.48168329  0.12500000  0.50407917  1
  O  O210  1  0.48168329  0.62500000  0.00407917  1
  O  O211  1  0.48168329  0.62500000  0.50407917  1
  O  O212  1  0.98168329  0.12500000  0.00407917  1
  O  O213  1  0.98168329  0.12500000  0.50407917  1
  O  O214  1  0.98168329  0.62500000  0.00407917  1
  O  O215  1  0.98168329  0.62500000  0.50407917  1
  O  O216  1  0.35351831  0.28027917  0.37364396  1
  O  O217  1  0.35351831  0.28027917  0.87364396  1
  O  O218  1  0.35351831  0.78027917  0.37364396  1
  O  O219  1  0.35351831  0.78027917  0.87364396  1
  O  O220  1  0.85351831  0.28027917  0.37364396  1
  O  O221  1  0.85351831  0.28027917  0.87364396  1
  O  O222  1  0.85351831  0.78027917  0.37364396  1
  O  O223  1  0.85351831  0.78027917  0.87364396  1
