# generated using pymatgen
data_SrGa4O7
_symmetry_space_group_name_H-M   'P 1'
_cell_length_a   13.50439192
_cell_length_b   18.42577589
_cell_length_c   17.13205945
_cell_angle_alpha   90.00000000
_cell_angle_beta   105.91730741
_cell_angle_gamma   90.00000000
_symmetry_Int_Tables_number   1
_chemical_formula_structural   SrGa4O7
_chemical_formula_sum   'Sr24 Ga96 O168'
_cell_volume   4099.50358027
_cell_formula_units_Z   24
loop_
 _symmetry_equiv_pos_site_id
 _symmetry_equiv_pos_as_xyz
  1  'x, y, z'
loop_
 _atom_site_type_symbol
 _atom_site_label
 _atom_site_symmetry_multiplicity
 _atom_site_fract_x
 _atom_site_fract_y
 _atom_site_fract_z
 _atom_site_occupancy
  Sr  Sr0  1  0.50000000  -0.09272499  0.08333333  1
  Sr  Sr1  1  0.50000000  -0.09272499  0.41666667  1
  Sr  Sr2  1  0.50000000  -0.09272499  0.75000000  1
  Sr  Sr3  1  0.50000000  0.40727501  0.08333333  1
  Sr  Sr4  1  0.50000000  0.40727501  0.41666667  1
  Sr  Sr5  1  0.50000000  0.40727501  0.75000000  1
  Sr  Sr6  1  1.00000000  0.15727501  0.08333333  1
  Sr  Sr7  1  1.00000000  0.15727501  0.41666667  1
  Sr  Sr8  1  1.00000000  0.15727501  0.75000000  1
  Sr  Sr9  1  1.00000000  0.65727501  0.08333333  1
  Sr  Sr10  1  1.00000000  0.65727501  0.41666667  1
  Sr  Sr11  1  1.00000000  0.65727501  0.75000000  1
  Sr  Sr12  1  0.50000000  0.09272499  0.25000000  1
  Sr  Sr13  1  0.50000000  0.09272499  0.58333333  1
  Sr  Sr14  1  0.50000000  0.09272499  0.91666667  1
  Sr  Sr15  1  0.50000000  0.59272499  0.25000000  1
  Sr  Sr16  1  0.50000000  0.59272499  0.58333333  1
  Sr  Sr17  1  0.50000000  0.59272499  0.91666667  1
  Sr  Sr18  1  1.00000000  0.34272499  0.25000000  1
  Sr  Sr19  1  1.00000000  0.34272499  0.58333333  1
  Sr  Sr20  1  1.00000000  0.34272499  0.91666667  1
  Sr  Sr21  1  1.00000000  0.84272499  0.25000000  1
  Sr  Sr22  1  1.00000000  0.84272499  0.58333333  1
  Sr  Sr23  1  1.00000000  0.84272499  0.91666667  1
  Ga  Ga24  1  0.33173714  0.04412775  0.06727967  1
  Ga  Ga25  1  0.33173714  0.04412775  0.40061300  1
  Ga  Ga26  1  0.33173714  0.04412775  0.73394633  1
  Ga  Ga27  1  0.33173714  0.54412775  0.06727967  1
  Ga  Ga28  1  0.33173714  0.54412775  0.40061300  1
  Ga  Ga29  1  0.33173714  0.54412775  0.73394633  1
  Ga  Ga30  1  0.83173714  0.29412775  0.06727967  1
  Ga  Ga31  1  0.83173714  0.29412775  0.40061300  1
  Ga  Ga32  1  0.83173714  0.29412775  0.73394633  1
  Ga  Ga33  1  0.83173714  0.79412775  0.06727967  1
  Ga  Ga34  1  0.83173714  0.79412775  0.40061300  1
  Ga  Ga35  1  0.83173714  0.79412775  0.73394633  1
  Ga  Ga36  1  0.66826286  0.04412775  0.09938700  1
  Ga  Ga37  1  0.66826286  0.04412775  0.43272033  1
  Ga  Ga38  1  0.66826286  0.04412775  0.76605367  1
  Ga  Ga39  1  0.66826286  0.54412775  0.09938700  1
  Ga  Ga40  1  0.66826286  0.54412775  0.43272033  1
  Ga  Ga41  1  0.66826286  0.54412775  0.76605367  1
  Ga  Ga42  1  1.16826286  0.29412775  0.09938700  1
  Ga  Ga43  1  1.16826286  0.29412775  0.43272033  1
  Ga  Ga44  1  1.16826286  0.29412775  0.76605367  1
  Ga  Ga45  1  1.16826286  0.79412775  0.09938700  1
  Ga  Ga46  1  1.16826286  0.79412775  0.43272033  1
  Ga  Ga47  1  1.16826286  0.79412775  0.76605367  1
  Ga  Ga48  1  0.66826286  -0.04412775  0.26605367  1
  Ga  Ga49  1  0.66826286  -0.04412775  0.59938700  1
  Ga  Ga50  1  0.66826286  -0.04412775  0.93272033  1
  Ga  Ga51  1  0.66826286  0.45587225  0.26605367  1
  Ga  Ga52  1  0.66826286  0.45587225  0.59938700  1
  Ga  Ga53  1  0.66826286  0.45587225  0.93272033  1
  Ga  Ga54  1  1.16826286  0.20587225  0.26605367  1
  Ga  Ga55  1  1.16826286  0.20587225  0.59938700  1
  Ga  Ga56  1  1.16826286  0.20587225  0.93272033  1
  Ga  Ga57  1  1.16826286  0.70587225  0.26605367  1
  Ga  Ga58  1  1.16826286  0.70587225  0.59938700  1
  Ga  Ga59  1  1.16826286  0.70587225  0.93272033  1
  Ga  Ga60  1  0.33173714  -0.04412775  0.23394633  1
  Ga  Ga61  1  0.33173714  -0.04412775  0.56727967  1
  Ga  Ga62  1  0.33173714  -0.04412775  0.90061300  1
  Ga  Ga63  1  0.33173714  0.45587225  0.23394633  1
  Ga  Ga64  1  0.33173714  0.45587225  0.56727967  1
  Ga  Ga65  1  0.33173714  0.45587225  0.90061300  1
  Ga  Ga66  1  0.83173714  0.20587225  0.23394633  1
  Ga  Ga67  1  0.83173714  0.20587225  0.56727967  1
  Ga  Ga68  1  0.83173714  0.20587225  0.90061300  1
  Ga  Ga69  1  0.83173714  0.70587225  0.23394633  1
  Ga  Ga70  1  0.83173714  0.70587225  0.56727967  1
  Ga  Ga71  1  0.83173714  0.70587225  0.90061300  1
  Ga  Ga72  1  0.88111349  -0.03026995  0.08133364  1
  Ga  Ga73  1  0.88111349  -0.03026995  0.41466698  1
  Ga  Ga74  1  0.88111349  -0.03026995  0.74800031  1
  Ga  Ga75  1  0.88111349  0.46973005  0.08133364  1
  Ga  Ga76  1  0.88111349  0.46973005  0.41466698  1
  Ga  Ga77  1  0.88111349  0.46973005  0.74800031  1
  Ga  Ga78  1  1.38111349  0.21973005  0.08133364  1
  Ga  Ga79  1  1.38111349  0.21973005  0.41466698  1
  Ga  Ga80  1  1.38111349  0.21973005  0.74800031  1
  Ga  Ga81  1  1.38111349  0.71973005  0.08133364  1
  Ga  Ga82  1  1.38111349  0.71973005  0.41466698  1
  Ga  Ga83  1  1.38111349  0.71973005  0.74800031  1
  Ga  Ga84  1  0.11888651  -0.03026995  0.08533302  1
  Ga  Ga85  1  0.11888651  -0.03026995  0.41866636  1
  Ga  Ga86  1  0.11888651  -0.03026995  0.75199969  1
  Ga  Ga87  1  0.11888651  0.46973005  0.08533302  1
  Ga  Ga88  1  0.11888651  0.46973005  0.41866636  1
  Ga  Ga89  1  0.11888651  0.46973005  0.75199969  1
  Ga  Ga90  1  0.61888651  0.21973005  0.08533302  1
  Ga  Ga91  1  0.61888651  0.21973005  0.41866636  1
  Ga  Ga92  1  0.61888651  0.21973005  0.75199969  1
  Ga  Ga93  1  0.61888651  0.71973005  0.08533302  1
  Ga  Ga94  1  0.61888651  0.71973005  0.41866636  1
  Ga  Ga95  1  0.61888651  0.71973005  0.75199969  1
  Ga  Ga96  1  0.88111349  0.03026995  0.24800031  1
  Ga  Ga97  1  0.88111349  0.03026995  0.58133364  1
  Ga  Ga98  1  0.88111349  0.03026995  0.91466698  1
  Ga  Ga99  1  0.88111349  0.53026995  0.24800031  1
  Ga  Ga100  1  0.88111349  0.53026995  0.58133364  1
  Ga  Ga101  1  0.88111349  0.53026995  0.91466698  1
  Ga  Ga102  1  1.38111349  0.28026995  0.24800031  1
  Ga  Ga103  1  1.38111349  0.28026995  0.58133364  1
  Ga  Ga104  1  1.38111349  0.28026995  0.91466698  1
  Ga  Ga105  1  1.38111349  0.78026995  0.24800031  1
  Ga  Ga106  1  1.38111349  0.78026995  0.58133364  1
  Ga  Ga107  1  1.38111349  0.78026995  0.91466698  1
  Ga  Ga108  1  0.11888651  0.03026995  0.25199969  1
  Ga  Ga109  1  0.11888651  0.03026995  0.58533302  1
  Ga  Ga110  1  0.11888651  0.03026995  0.91866636  1
  Ga  Ga111  1  0.11888651  0.53026995  0.25199969  1
  Ga  Ga112  1  0.11888651  0.53026995  0.58533302  1
  Ga  Ga113  1  0.11888651  0.53026995  0.91866636  1
  Ga  Ga114  1  0.61888651  0.28026995  0.25199969  1
  Ga  Ga115  1  0.61888651  0.28026995  0.58533302  1
  Ga  Ga116  1  0.61888651  0.28026995  0.91866636  1
  Ga  Ga117  1  0.61888651  0.78026995  0.25199969  1
  Ga  Ga118  1  0.61888651  0.78026995  0.58533302  1
  Ga  Ga119  1  0.61888651  0.78026995  0.91866636  1
  O  O120  1  0.50000000  -0.23159377  0.08333333  1
  O  O121  1  0.50000000  -0.23159377  0.41666667  1
  O  O122  1  0.50000000  -0.23159377  0.75000000  1
  O  O123  1  0.50000000  0.26840623  0.08333333  1
  O  O124  1  0.50000000  0.26840623  0.41666667  1
  O  O125  1  0.50000000  0.26840623  0.75000000  1
  O  O126  1  1.00000000  0.01840623  0.08333333  1
  O  O127  1  1.00000000  0.01840623  0.41666667  1
  O  O128  1  1.00000000  0.01840623  0.75000000  1
  O  O129  1  1.00000000  0.51840623  0.08333333  1
  O  O130  1  1.00000000  0.51840623  0.41666667  1
  O  O131  1  1.00000000  0.51840623  0.75000000  1
  O  O132  1  0.50000000  0.23159377  0.25000000  1
  O  O133  1  0.50000000  0.23159377  0.58333333  1
  O  O134  1  0.50000000  0.23159377  0.91666667  1
  O  O135  1  0.50000000  0.73159377  0.25000000  1
  O  O136  1  0.50000000  0.73159377  0.58333333  1
  O  O137  1  0.50000000  0.73159377  0.91666667  1
  O  O138  1  1.00000000  0.48159377  0.25000000  1
  O  O139  1  1.00000000  0.48159377  0.58333333  1
  O  O140  1  1.00000000  0.48159377  0.91666667  1
  O  O141  1  1.00000000  0.98159377  0.25000000  1
  O  O142  1  1.00000000  0.98159377  0.58333333  1
  O  O143  1  1.00000000  0.98159377  0.91666667  1
  O  O144  1  0.38024705  0.12848333  0.11900035  1
  O  O145  1  0.38024705  0.12848333  0.45233368  1
  O  O146  1  0.38024705  0.12848333  0.78566702  1
  O  O147  1  0.38024705  0.62848333  0.11900035  1
  O  O148  1  0.38024705  0.62848333  0.45233368  1
  O  O149  1  0.38024705  0.62848333  0.78566702  1
  O  O150  1  0.88024705  0.37848333  0.11900035  1
  O  O151  1  0.88024705  0.37848333  0.45233368  1
  O  O152  1  0.88024705  0.37848333  0.78566702  1
  O  O153  1  0.88024705  0.87848333  0.11900035  1
  O  O154  1  0.88024705  0.87848333  0.45233368  1
  O  O155  1  0.88024705  0.87848333  0.78566702  1
  O  O156  1  0.61975295  0.12848333  0.04766632  1
  O  O157  1  0.61975295  0.12848333  0.38099965  1
  O  O158  1  0.61975295  0.12848333  0.71433298  1
  O  O159  1  0.61975295  0.62848333  0.04766632  1
  O  O160  1  0.61975295  0.62848333  0.38099965  1
  O  O161  1  0.61975295  0.62848333  0.71433298  1
  O  O162  1  1.11975295  0.37848333  0.04766632  1
  O  O163  1  1.11975295  0.37848333  0.38099965  1
  O  O164  1  1.11975295  0.37848333  0.71433298  1
  O  O165  1  1.11975295  0.87848333  0.04766632  1
  O  O166  1  1.11975295  0.87848333  0.38099965  1
  O  O167  1  1.11975295  0.87848333  0.71433298  1
  O  O168  1  0.61975295  -0.12848333  0.21433298  1
  O  O169  1  0.61975295  -0.12848333  0.54766632  1
  O  O170  1  0.61975295  -0.12848333  0.88099965  1
  O  O171  1  0.61975295  0.37151667  0.21433298  1
  O  O172  1  0.61975295  0.37151667  0.54766632  1
  O  O173  1  0.61975295  0.37151667  0.88099965  1
  O  O174  1  1.11975295  0.12151667  0.21433298  1
  O  O175  1  1.11975295  0.12151667  0.54766632  1
  O  O176  1  1.11975295  0.12151667  0.88099965  1
  O  O177  1  1.11975295  0.62151667  0.21433298  1
  O  O178  1  1.11975295  0.62151667  0.54766632  1
  O  O179  1  1.11975295  0.62151667  0.88099965  1
  O  O180  1  0.38024705  -0.12848333  0.28566702  1
  O  O181  1  0.38024705  -0.12848333  0.61900035  1
  O  O182  1  0.38024705  -0.12848333  0.95233368  1
  O  O183  1  0.38024705  0.37151667  0.28566702  1
  O  O184  1  0.38024705  0.37151667  0.61900035  1
  O  O185  1  0.38024705  0.37151667  0.95233368  1
  O  O186  1  0.88024705  0.12151667  0.28566702  1
  O  O187  1  0.88024705  0.12151667  0.61900035  1
  O  O188  1  0.88024705  0.12151667  0.95233368  1
  O  O189  1  0.88024705  0.62151667  0.28566702  1
  O  O190  1  0.88024705  0.62151667  0.61900035  1
  O  O191  1  0.88024705  0.62151667  0.95233368  1
  O  O192  1  0.61539264  -0.02319175  0.01796486  1
  O  O193  1  0.61539264  -0.02319175  0.35129819  1
  O  O194  1  0.61539264  -0.02319175  0.68463153  1
  O  O195  1  0.61539264  0.47680825  0.01796486  1
  O  O196  1  0.61539264  0.47680825  0.35129819  1
  O  O197  1  0.61539264  0.47680825  0.68463153  1
  O  O198  1  1.11539264  0.22680825  0.01796486  1
  O  O199  1  1.11539264  0.22680825  0.35129819  1
  O  O200  1  1.11539264  0.22680825  0.68463153  1
  O  O201  1  1.11539264  0.72680825  0.01796486  1
  O  O202  1  1.11539264  0.72680825  0.35129819  1
  O  O203  1  1.11539264  0.72680825  0.68463153  1
  O  O204  1  0.38460736  -0.02319175  0.14870181  1
  O  O205  1  0.38460736  -0.02319175  0.48203514  1
  O  O206  1  0.38460736  -0.02319175  0.81536847  1
  O  O207  1  0.38460736  0.47680825  0.14870181  1
  O  O208  1  0.38460736  0.47680825  0.48203514  1
  O  O209  1  0.38460736  0.47680825  0.81536847  1
  O  O210  1  0.88460736  0.22680825  0.14870181  1
  O  O211  1  0.88460736  0.22680825  0.48203514  1
  O  O212  1  0.88460736  0.22680825  0.81536847  1
  O  O213  1  0.88460736  0.72680825  0.14870181  1
  O  O214  1  0.88460736  0.72680825  0.48203514  1
  O  O215  1  0.88460736  0.72680825  0.81536847  1
  O  O216  1  0.18853619  -0.03173666  0.19750724  1
  O  O217  1  0.18853619  -0.03173666  0.53084057  1
  O  O218  1  0.18853619  -0.03173666  0.86417390  1
  O  O219  1  0.18853619  0.46826334  0.19750724  1
  O  O220  1  0.18853619  0.46826334  0.53084057  1
  O  O221  1  0.18853619  0.46826334  0.86417390  1
  O  O222  1  0.68853619  0.21826334  0.19750724  1
  O  O223  1  0.68853619  0.21826334  0.53084057  1
  O  O224  1  0.68853619  0.21826334  0.86417390  1
  O  O225  1  0.68853619  0.71826334  0.19750724  1
  O  O226  1  0.68853619  0.71826334  0.53084057  1
  O  O227  1  0.68853619  0.71826334  0.86417390  1
  O  O228  1  0.81146381  -0.03173666  0.30249276  1
  O  O229  1  0.81146381  -0.03173666  0.63582610  1
  O  O230  1  0.81146381  -0.03173666  0.96915943  1
  O  O231  1  0.81146381  0.46826334  0.30249276  1
  O  O232  1  0.81146381  0.46826334  0.63582610  1
  O  O233  1  0.81146381  0.46826334  0.96915943  1
  O  O234  1  1.31146381  0.21826334  0.30249276  1
  O  O235  1  1.31146381  0.21826334  0.63582610  1
  O  O236  1  1.31146381  0.21826334  0.96915943  1
  O  O237  1  1.31146381  0.71826334  0.30249276  1
  O  O238  1  1.31146381  0.71826334  0.63582610  1
  O  O239  1  1.31146381  0.71826334  0.96915943  1
  O  O240  1  0.81146381  0.03173666  0.13582610  1
  O  O241  1  0.81146381  0.03173666  0.46915943  1
  O  O242  1  0.81146381  0.03173666  0.80249276  1
  O  O243  1  0.81146381  0.53173666  0.13582610  1
  O  O244  1  0.81146381  0.53173666  0.46915943  1
  O  O245  1  0.81146381  0.53173666  0.80249276  1
  O  O246  1  1.31146381  0.28173666  0.13582610  1
  O  O247  1  1.31146381  0.28173666  0.46915943  1
  O  O248  1  1.31146381  0.28173666  0.80249276  1
  O  O249  1  1.31146381  0.78173666  0.13582610  1
  O  O250  1  1.31146381  0.78173666  0.46915943  1
  O  O251  1  1.31146381  0.78173666  0.80249276  1
  O  O252  1  0.18853619  0.03173666  0.03084057  1
  O  O253  1  0.18853619  0.03173666  0.36417390  1
  O  O254  1  0.18853619  0.03173666  0.69750724  1
  O  O255  1  0.18853619  0.53173666  0.03084057  1
  O  O256  1  0.18853619  0.53173666  0.36417390  1
  O  O257  1  0.18853619  0.53173666  0.69750724  1
  O  O258  1  0.68853619  0.28173666  0.03084057  1
  O  O259  1  0.68853619  0.28173666  0.36417390  1
  O  O260  1  0.68853619  0.28173666  0.69750724  1
  O  O261  1  0.68853619  0.78173666  0.03084057  1
  O  O262  1  0.68853619  0.78173666  0.36417390  1
  O  O263  1  0.68853619  0.78173666  0.69750724  1
  O  O264  1  0.61539264  0.02319175  0.18463153  1
  O  O265  1  0.61539264  0.02319175  0.51796486  1
  O  O266  1  0.61539264  0.02319175  0.85129819  1
  O  O267  1  0.61539264  0.52319175  0.18463153  1
  O  O268  1  0.61539264  0.52319175  0.51796486  1
  O  O269  1  0.61539264  0.52319175  0.85129819  1
  O  O270  1  1.11539264  0.27319175  0.18463153  1
  O  O271  1  1.11539264  0.27319175  0.51796486  1
  O  O272  1  1.11539264  0.27319175  0.85129819  1
  O  O273  1  1.11539264  0.77319175  0.18463153  1
  O  O274  1  1.11539264  0.77319175  0.51796486  1
  O  O275  1  1.11539264  0.77319175  0.85129819  1
  O  O276  1  0.38460736  0.02319175  0.31536847  1
  O  O277  1  0.38460736  0.02319175  0.64870181  1
  O  O278  1  0.38460736  0.02319175  0.98203514  1
  O  O279  1  0.38460736  0.52319175  0.31536847  1
  O  O280  1  0.38460736  0.52319175  0.64870181  1
  O  O281  1  0.38460736  0.52319175  0.98203514  1
  O  O282  1  0.88460736  0.27319175  0.31536847  1
  O  O283  1  0.88460736  0.27319175  0.64870181  1
  O  O284  1  0.88460736  0.27319175  0.98203514  1
  O  O285  1  0.88460736  0.77319175  0.31536847  1
  O  O286  1  0.88460736  0.77319175  0.64870181  1
  O  O287  1  0.88460736  0.77319175  0.98203514  1
