# generated using pymatgen
data_Rb2O
_symmetry_space_group_name_H-M   'P 1'
_cell_length_a   13.40233717
_cell_length_b   13.40233717
_cell_length_c   13.40233717
_cell_angle_alpha   90.00000000
_cell_angle_beta   90.00000000
_cell_angle_gamma   90.00000000
_symmetry_Int_Tables_number   1
_chemical_formula_structural   Rb2O
_chemical_formula_sum   'Rb64 O32'
_cell_volume   2407.36320440
_cell_formula_units_Z   32
loop_
 _symmetry_equiv_pos_site_id
 _symmetry_equiv_pos_as_xyz
  1  'x, y, z'
loop_
 _atom_site_type_symbol
 _atom_site_label
 _atom_site_symmetry_multiplicity
 _atom_site_fract_x
 _atom_site_fract_y
 _atom_site_fract_z
 _atom_site_occupancy
  Rb  Rb0  1  0.37500000  0.37500000  0.37500000  1
  Rb  Rb1  1  0.37500000  0.37500000  0.87500000  1
  Rb  Rb2  1  0.37500000  0.87500000  0.37500000  1
  Rb  Rb3  1  0.37500000  0.87500000  0.87500000  1
  Rb  Rb4  1  0.87500000  0.37500000  0.37500000  1
  Rb  Rb5  1  0.87500000  0.37500000  0.87500000  1
  Rb  Rb6  1  0.87500000  0.87500000  0.37500000  1
  Rb  Rb7  1  0.87500000  0.87500000  0.87500000  1
  Rb  Rb8  1  0.62500000  0.62500000  0.37500000  1
  Rb  Rb9  1  0.62500000  0.62500000  0.87500000  1
  Rb  Rb10  1  0.62500000  1.12500000  0.37500000  1
  Rb  Rb11  1  0.62500000  1.12500000  0.87500000  1
  Rb  Rb12  1  1.12500000  0.62500000  0.37500000  1
  Rb  Rb13  1  1.12500000  0.62500000  0.87500000  1
  Rb  Rb14  1  1.12500000  1.12500000  0.37500000  1
  Rb  Rb15  1  1.12500000  1.12500000  0.87500000  1
  Rb  Rb16  1  0.62500000  0.37500000  0.62500000  1
  Rb  Rb17  1  0.62500000  0.37500000  1.12500000  1
  Rb  Rb18  1  0.62500000  0.87500000  0.62500000  1
  Rb  Rb19  1  0.62500000  0.87500000  1.12500000  1
  Rb  Rb20  1  1.12500000  0.37500000  0.62500000  1
  Rb  Rb21  1  1.12500000  0.37500000  1.12500000  1
  Rb  Rb22  1  1.12500000  0.87500000  0.62500000  1
  Rb  Rb23  1  1.12500000  0.87500000  1.12500000  1
  Rb  Rb24  1  0.37500000  0.62500000  0.62500000  1
  Rb  Rb25  1  0.37500000  0.62500000  1.12500000  1
  Rb  Rb26  1  0.37500000  1.12500000  0.62500000  1
  Rb  Rb27  1  0.37500000  1.12500000  1.12500000  1
  Rb  Rb28  1  0.87500000  0.62500000  0.62500000  1
  Rb  Rb29  1  0.87500000  0.62500000  1.12500000  1
  Rb  Rb30  1  0.87500000  1.12500000  0.62500000  1
  Rb  Rb31  1  0.87500000  1.12500000  1.12500000  1
  Rb  Rb32  1  0.12500000  0.12500000  0.12500000  1
  Rb  Rb33  1  0.12500000  0.12500000  0.62500000  1
  Rb  Rb34  1  0.12500000  0.62500000  0.12500000  1
  Rb  Rb35  1  0.12500000  0.62500000  0.62500000  1
  Rb  Rb36  1  0.62500000  0.12500000  0.12500000  1
  Rb  Rb37  1  0.62500000  0.12500000  0.62500000  1
  Rb  Rb38  1  0.62500000  0.62500000  0.12500000  1
  Rb  Rb39  1  0.62500000  0.62500000  0.62500000  1
  Rb  Rb40  1  0.37500000  0.37500000  0.12500000  1
  Rb  Rb41  1  0.37500000  0.37500000  0.62500000  1
  Rb  Rb42  1  0.37500000  0.87500000  0.12500000  1
  Rb  Rb43  1  0.37500000  0.87500000  0.62500000  1
  Rb  Rb44  1  0.87500000  0.37500000  0.12500000  1
  Rb  Rb45  1  0.87500000  0.37500000  0.62500000  1
  Rb  Rb46  1  0.87500000  0.87500000  0.12500000  1
  Rb  Rb47  1  0.87500000  0.87500000  0.62500000  1
  Rb  Rb48  1  0.37500000  0.12500000  0.37500000  1
  Rb  Rb49  1  0.37500000  0.12500000  0.87500000  1
  Rb  Rb50  1  0.37500000  0.62500000  0.37500000  1
  Rb  Rb51  1  0.37500000  0.62500000  0.87500000  1
  Rb  Rb52  1  0.87500000  0.12500000  0.37500000  1
  Rb  Rb53  1  0.87500000  0.12500000  0.87500000  1
  Rb  Rb54  1  0.87500000  0.62500000  0.37500000  1
  Rb  Rb55  1  0.87500000  0.62500000  0.87500000  1
  Rb  Rb56  1  0.12500000  0.37500000  0.37500000  1
  Rb  Rb57  1  0.12500000  0.37500000  0.87500000  1
  Rb  Rb58  1  0.12500000  0.87500000  0.37500000  1
  Rb  Rb59  1  0.12500000  0.87500000  0.87500000  1
  Rb  Rb60  1  0.62500000  0.37500000  0.37500000  1
  Rb  Rb61  1  0.62500000  0.37500000  0.87500000  1
  Rb  Rb62  1  0.62500000  0.87500000  0.37500000  1
  Rb  Rb63  1  0.62500000  0.87500000  0.87500000  1
  O  O64  1  0.00000000  0.00000000  0.00000000  1
  O  O65  1  0.00000000  0.00000000  0.50000000  1
  O  O66  1  0.00000000  0.50000000  0.00000000  1
  O  O67  1  0.00000000  0.50000000  0.50000000  1
  O  O68  1  0.50000000  0.00000000  0.00000000  1
  O  O69  1  0.50000000  0.00000000  0.50000000  1
  O  O70  1  0.50000000  0.50000000  0.00000000  1
  O  O71  1  0.50000000  0.50000000  0.50000000  1
  O  O72  1  0.25000000  0.25000000  0.00000000  1
  O  O73  1  0.25000000  0.25000000  0.50000000  1
  O  O74  1  0.25000000  0.75000000  0.00000000  1
  O  O75  1  0.25000000  0.75000000  0.50000000  1
  O  O76  1  0.75000000  0.25000000  0.00000000  1
  O  O77  1  0.75000000  0.25000000  0.50000000  1
  O  O78  1  0.75000000  0.75000000  0.00000000  1
  O  O79  1  0.75000000  0.75000000  0.50000000  1
  O  O80  1  0.25000000  0.00000000  0.25000000  1
  O  O81  1  0.25000000  0.00000000  0.75000000  1
  O  O82  1  0.25000000  0.50000000  0.25000000  1
  O  O83  1  0.25000000  0.50000000  0.75000000  1
  O  O84  1  0.75000000  0.00000000  0.25000000  1
  O  O85  1  0.75000000  0.00000000  0.75000000  1
  O  O86  1  0.75000000  0.50000000  0.25000000  1
  O  O87  1  0.75000000  0.50000000  0.75000000  1
  O  O88  1  0.00000000  0.25000000  0.25000000  1
  O  O89  1  0.00000000  0.25000000  0.75000000  1
  O  O90  1  0.00000000  0.75000000  0.25000000  1
  O  O91  1  0.00000000  0.75000000  0.75000000  1
  O  O92  1  0.50000000  0.25000000  0.25000000  1
  O  O93  1  0.50000000  0.25000000  0.75000000  1
  O  O94  1  0.50000000  0.75000000  0.25000000  1
  O  O95  1  0.50000000  0.75000000  0.75000000  1
