# generated using pymatgen
data_Li3AuO3
_symmetry_space_group_name_H-M   'P 1'
_cell_length_a   12.82444043
_cell_length_b   12.82444043
_cell_length_c   14.41261609
_cell_angle_alpha   90.00000000
_cell_angle_beta   90.00000000
_cell_angle_gamma   90.00000000
_symmetry_Int_Tables_number   1
_chemical_formula_structural   Li3AuO3
_chemical_formula_sum   'Li96 Au32 O96'
_cell_volume   2370.38924400
_cell_formula_units_Z   32
loop_
 _symmetry_equiv_pos_site_id
 _symmetry_equiv_pos_as_xyz
  1  'x, y, z'
loop_
 _atom_site_type_symbol
 _atom_site_label
 _atom_site_symmetry_multiplicity
 _atom_site_fract_x
 _atom_site_fract_y
 _atom_site_fract_z
 _atom_site_occupancy
  Li  Li0  1  0.36622944  0.22772983  0.00000000  1
  Li  Li1  1  0.36622944  0.22772983  0.25000000  1
  Li  Li2  1  0.36622944  0.22772983  0.50000000  1
  Li  Li3  1  0.36622944  0.22772983  0.75000000  1
  Li  Li4  1  0.86622944  0.72772983  0.00000000  1
  Li  Li5  1  0.86622944  0.72772983  0.25000000  1
  Li  Li6  1  0.86622944  0.72772983  0.50000000  1
  Li  Li7  1  0.86622944  0.72772983  0.75000000  1
  Li  Li8  1  0.22772983  0.13377056  0.12500000  1
  Li  Li9  1  0.22772983  0.13377056  0.37500000  1
  Li  Li10  1  0.22772983  0.13377056  0.62500000  1
  Li  Li11  1  0.22772983  0.13377056  0.87500000  1
  Li  Li12  1  0.72772983  0.63377056  0.12500000  1
  Li  Li13  1  0.72772983  0.63377056  0.37500000  1
  Li  Li14  1  0.72772983  0.63377056  0.62500000  1
  Li  Li15  1  0.72772983  0.63377056  0.87500000  1
  Li  Li16  1  0.77227017  -0.13377056  0.12500000  1
  Li  Li17  1  0.77227017  -0.13377056  0.37500000  1
  Li  Li18  1  0.77227017  -0.13377056  0.62500000  1
  Li  Li19  1  0.77227017  -0.13377056  0.87500000  1
  Li  Li20  1  1.27227017  0.36622944  0.12500000  1
  Li  Li21  1  1.27227017  0.36622944  0.37500000  1
  Li  Li22  1  1.27227017  0.36622944  0.62500000  1
  Li  Li23  1  1.27227017  0.36622944  0.87500000  1
  Li  Li24  1  0.63377056  -0.22772983  0.00000000  1
  Li  Li25  1  0.63377056  -0.22772983  0.25000000  1
  Li  Li26  1  0.63377056  -0.22772983  0.50000000  1
  Li  Li27  1  0.63377056  -0.22772983  0.75000000  1
  Li  Li28  1  1.13377056  0.27227017  0.00000000  1
  Li  Li29  1  1.13377056  0.27227017  0.25000000  1
  Li  Li30  1  1.13377056  0.27227017  0.50000000  1
  Li  Li31  1  1.13377056  0.27227017  0.75000000  1
  Li  Li32  1  0.22772983  -0.13377056  0.12500000  1
  Li  Li33  1  0.22772983  -0.13377056  0.37500000  1
  Li  Li34  1  0.22772983  -0.13377056  0.62500000  1
  Li  Li35  1  0.22772983  -0.13377056  0.87500000  1
  Li  Li36  1  0.72772983  0.36622944  0.12500000  1
  Li  Li37  1  0.72772983  0.36622944  0.37500000  1
  Li  Li38  1  0.72772983  0.36622944  0.62500000  1
  Li  Li39  1  0.72772983  0.36622944  0.87500000  1
  Li  Li40  1  0.77227017  0.13377056  0.12500000  1
  Li  Li41  1  0.77227017  0.13377056  0.37500000  1
  Li  Li42  1  0.77227017  0.13377056  0.62500000  1
  Li  Li43  1  0.77227017  0.13377056  0.87500000  1
  Li  Li44  1  1.27227017  0.63377056  0.12500000  1
  Li  Li45  1  1.27227017  0.63377056  0.37500000  1
  Li  Li46  1  1.27227017  0.63377056  0.62500000  1
  Li  Li47  1  1.27227017  0.63377056  0.87500000  1
  Li  Li48  1  0.36622944  -0.22772983  0.00000000  1
  Li  Li49  1  0.36622944  -0.22772983  0.25000000  1
  Li  Li50  1  0.36622944  -0.22772983  0.50000000  1
  Li  Li51  1  0.36622944  -0.22772983  0.75000000  1
  Li  Li52  1  0.86622944  0.27227017  0.00000000  1
  Li  Li53  1  0.86622944  0.27227017  0.25000000  1
  Li  Li54  1  0.86622944  0.27227017  0.50000000  1
  Li  Li55  1  0.86622944  0.27227017  0.75000000  1
  Li  Li56  1  0.63377056  0.22772983  0.00000000  1
  Li  Li57  1  0.63377056  0.22772983  0.25000000  1
  Li  Li58  1  0.63377056  0.22772983  0.50000000  1
  Li  Li59  1  0.63377056  0.22772983  0.75000000  1
  Li  Li60  1  1.13377056  0.72772983  0.00000000  1
  Li  Li61  1  1.13377056  0.72772983  0.25000000  1
  Li  Li62  1  1.13377056  0.72772983  0.50000000  1
  Li  Li63  1  1.13377056  0.72772983  0.75000000  1
  Li  Li64  1  0.16515397  0.00000000  0.00000000  1
  Li  Li65  1  0.16515397  0.00000000  0.25000000  1
  Li  Li66  1  0.16515397  0.00000000  0.50000000  1
  Li  Li67  1  0.16515397  0.00000000  0.75000000  1
  Li  Li68  1  0.66515397  0.50000000  0.00000000  1
  Li  Li69  1  0.66515397  0.50000000  0.25000000  1
  Li  Li70  1  0.66515397  0.50000000  0.50000000  1
  Li  Li71  1  0.66515397  0.50000000  0.75000000  1
  Li  Li72  1  0.50000000  -0.16515397  0.12500000  1
  Li  Li73  1  0.50000000  -0.16515397  0.37500000  1
  Li  Li74  1  0.50000000  -0.16515397  0.62500000  1
  Li  Li75  1  0.50000000  -0.16515397  0.87500000  1
  Li  Li76  1  1.00000000  0.33484603  0.12500000  1
  Li  Li77  1  1.00000000  0.33484603  0.37500000  1
  Li  Li78  1  1.00000000  0.33484603  0.62500000  1
  Li  Li79  1  1.00000000  0.33484603  0.87500000  1
  Li  Li80  1  0.50000000  0.16515397  0.12500000  1
  Li  Li81  1  0.50000000  0.16515397  0.37500000  1
  Li  Li82  1  0.50000000  0.16515397  0.62500000  1
  Li  Li83  1  0.50000000  0.16515397  0.87500000  1
  Li  Li84  1  1.00000000  0.66515397  0.12500000  1
  Li  Li85  1  1.00000000  0.66515397  0.37500000  1
  Li  Li86  1  1.00000000  0.66515397  0.62500000  1
  Li  Li87  1  1.00000000  0.66515397  0.87500000  1
  Li  Li88  1  0.83484603  -0.00000000  0.00000000  1
  Li  Li89  1  0.83484603  -0.00000000  0.25000000  1
  Li  Li90  1  0.83484603  -0.00000000  0.50000000  1
  Li  Li91  1  0.83484603  -0.00000000  0.75000000  1
  Li  Li92  1  1.33484603  0.50000000  0.00000000  1
  Li  Li93  1  1.33484603  0.50000000  0.25000000  1
  Li  Li94  1  1.33484603  0.50000000  0.50000000  1
  Li  Li95  1  1.33484603  0.50000000  0.75000000  1
  Au  Au96  1  0.61842495  -0.00000000  0.00000000  1
  Au  Au97  1  0.61842495  -0.00000000  0.25000000  1
  Au  Au98  1  0.61842495  -0.00000000  0.50000000  1
  Au  Au99  1  0.61842495  -0.00000000  0.75000000  1
  Au  Au100  1  1.11842495  0.50000000  0.00000000  1
  Au  Au101  1  1.11842495  0.50000000  0.25000000  1
  Au  Au102  1  1.11842495  0.50000000  0.50000000  1
  Au  Au103  1  1.11842495  0.50000000  0.75000000  1
  Au  Au104  1  0.50000000  -0.38157505  0.12500000  1
  Au  Au105  1  0.50000000  -0.38157505  0.37500000  1
  Au  Au106  1  0.50000000  -0.38157505  0.62500000  1
  Au  Au107  1  0.50000000  -0.38157505  0.87500000  1
  Au  Au108  1  1.00000000  0.11842495  0.12500000  1
  Au  Au109  1  1.00000000  0.11842495  0.37500000  1
  Au  Au110  1  1.00000000  0.11842495  0.62500000  1
  Au  Au111  1  1.00000000  0.11842495  0.87500000  1
  Au  Au112  1  0.38157505  0.00000000  0.00000000  1
  Au  Au113  1  0.38157505  0.00000000  0.25000000  1
  Au  Au114  1  0.38157505  0.00000000  0.50000000  1
  Au  Au115  1  0.38157505  0.00000000  0.75000000  1
  Au  Au116  1  0.88157505  0.50000000  0.00000000  1
  Au  Au117  1  0.88157505  0.50000000  0.25000000  1
  Au  Au118  1  0.88157505  0.50000000  0.50000000  1
  Au  Au119  1  0.88157505  0.50000000  0.75000000  1
  Au  Au120  1  0.50000000  0.38157505  0.12500000  1
  Au  Au121  1  0.50000000  0.38157505  0.37500000  1
  Au  Au122  1  0.50000000  0.38157505  0.62500000  1
  Au  Au123  1  0.50000000  0.38157505  0.87500000  1
  Au  Au124  1  1.00000000  0.88157505  0.12500000  1
  Au  Au125  1  1.00000000  0.88157505  0.37500000  1
  Au  Au126  1  1.00000000  0.88157505  0.62500000  1
  Au  Au127  1  1.00000000  0.88157505  0.87500000  1
  O  O128  1  0.10667496  -0.00000000  0.12500000  1
  O  O129  1  0.10667496  -0.00000000  0.37500000  1
  O  O130  1  0.10667496  -0.00000000  0.62500000  1
  O  O131  1  0.10667496  -0.00000000  0.87500000  1
  O  O132  1  0.60667496  0.50000000  0.12500000  1
  O  O133  1  0.60667496  0.50000000  0.37500000  1
  O  O134  1  0.60667496  0.50000000  0.62500000  1
  O  O135  1  0.60667496  0.50000000  0.87500000  1
  O  O136  1  0.89332504  0.00000000  0.12500000  1
  O  O137  1  0.89332504  0.00000000  0.37500000  1
  O  O138  1  0.89332504  0.00000000  0.62500000  1
  O  O139  1  0.89332504  0.00000000  0.87500000  1
  O  O140  1  1.39332504  0.50000000  0.12500000  1
  O  O141  1  1.39332504  0.50000000  0.37500000  1
  O  O142  1  1.39332504  0.50000000  0.62500000  1
  O  O143  1  1.39332504  0.50000000  0.87500000  1
  O  O144  1  0.50000000  0.10667496  0.00000000  1
  O  O145  1  0.50000000  0.10667496  0.25000000  1
  O  O146  1  0.50000000  0.10667496  0.50000000  1
  O  O147  1  0.50000000  0.10667496  0.75000000  1
  O  O148  1  1.00000000  0.60667496  0.00000000  1
  O  O149  1  1.00000000  0.60667496  0.25000000  1
  O  O150  1  1.00000000  0.60667496  0.50000000  1
  O  O151  1  1.00000000  0.60667496  0.75000000  1
  O  O152  1  0.50000000  -0.10667496  0.00000000  1
  O  O153  1  0.50000000  -0.10667496  0.25000000  1
  O  O154  1  0.50000000  -0.10667496  0.50000000  1
  O  O155  1  0.50000000  -0.10667496  0.75000000  1
  O  O156  1  1.00000000  0.39332504  0.00000000  1
  O  O157  1  1.00000000  0.39332504  0.25000000  1
  O  O158  1  1.00000000  0.39332504  0.50000000  1
  O  O159  1  1.00000000  0.39332504  0.75000000  1
  O  O160  1  0.27166010  -0.10922417  0.00000000  1
  O  O161  1  0.27166010  -0.10922417  0.25000000  1
  O  O162  1  0.27166010  -0.10922417  0.50000000  1
  O  O163  1  0.27166010  -0.10922417  0.75000000  1
  O  O164  1  0.77166010  0.39077583  0.00000000  1
  O  O165  1  0.77166010  0.39077583  0.25000000  1
  O  O166  1  0.77166010  0.39077583  0.50000000  1
  O  O167  1  0.77166010  0.39077583  0.75000000  1
  O  O168  1  0.39077583  -0.27166010  0.12500000  1
  O  O169  1  0.39077583  -0.27166010  0.37500000  1
  O  O170  1  0.39077583  -0.27166010  0.62500000  1
  O  O171  1  0.39077583  -0.27166010  0.87500000  1
  O  O172  1  0.89077583  0.22833990  0.12500000  1
  O  O173  1  0.89077583  0.22833990  0.37500000  1
  O  O174  1  0.89077583  0.22833990  0.62500000  1
  O  O175  1  0.89077583  0.22833990  0.87500000  1
  O  O176  1  0.60922417  0.27166010  0.12500000  1
  O  O177  1  0.60922417  0.27166010  0.37500000  1
  O  O178  1  0.60922417  0.27166010  0.62500000  1
  O  O179  1  0.60922417  0.27166010  0.87500000  1
  O  O180  1  1.10922417  0.77166010  0.12500000  1
  O  O181  1  1.10922417  0.77166010  0.37500000  1
  O  O182  1  1.10922417  0.77166010  0.62500000  1
  O  O183  1  1.10922417  0.77166010  0.87500000  1
  O  O184  1  0.72833990  0.10922417  0.00000000  1
  O  O185  1  0.72833990  0.10922417  0.25000000  1
  O  O186  1  0.72833990  0.10922417  0.50000000  1
  O  O187  1  0.72833990  0.10922417  0.75000000  1
  O  O188  1  1.22833990  0.60922417  0.00000000  1
  O  O189  1  1.22833990  0.60922417  0.25000000  1
  O  O190  1  1.22833990  0.60922417  0.50000000  1
  O  O191  1  1.22833990  0.60922417  0.75000000  1
  O  O192  1  0.39077583  0.27166010  0.12500000  1
  O  O193  1  0.39077583  0.27166010  0.37500000  1
  O  O194  1  0.39077583  0.27166010  0.62500000  1
  O  O195  1  0.39077583  0.27166010  0.87500000  1
  O  O196  1  0.89077583  0.77166010  0.12500000  1
  O  O197  1  0.89077583  0.77166010  0.37500000  1
  O  O198  1  0.89077583  0.77166010  0.62500000  1
  O  O199  1  0.89077583  0.77166010  0.87500000  1
  O  O200  1  0.60922417  -0.27166010  0.12500000  1
  O  O201  1  0.60922417  -0.27166010  0.37500000  1
  O  O202  1  0.60922417  -0.27166010  0.62500000  1
  O  O203  1  0.60922417  -0.27166010  0.87500000  1
  O  O204  1  1.10922417  0.22833990  0.12500000  1
  O  O205  1  1.10922417  0.22833990  0.37500000  1
  O  O206  1  1.10922417  0.22833990  0.62500000  1
  O  O207  1  1.10922417  0.22833990  0.87500000  1
  O  O208  1  0.27166010  0.10922417  0.00000000  1
  O  O209  1  0.27166010  0.10922417  0.25000000  1
  O  O210  1  0.27166010  0.10922417  0.50000000  1
  O  O211  1  0.27166010  0.10922417  0.75000000  1
  O  O212  1  0.77166010  0.60922417  0.00000000  1
  O  O213  1  0.77166010  0.60922417  0.25000000  1
  O  O214  1  0.77166010  0.60922417  0.50000000  1
  O  O215  1  0.77166010  0.60922417  0.75000000  1
  O  O216  1  0.72833990  -0.10922417  0.00000000  1
  O  O217  1  0.72833990  -0.10922417  0.25000000  1
  O  O218  1  0.72833990  -0.10922417  0.50000000  1
  O  O219  1  0.72833990  -0.10922417  0.75000000  1
  O  O220  1  1.22833990  0.39077583  0.00000000  1
  O  O221  1  1.22833990  0.39077583  0.25000000  1
  O  O222  1  1.22833990  0.39077583  0.50000000  1
  O  O223  1  1.22833990  0.39077583  0.75000000  1
