# generated using pymatgen
data_Cs2Li2GeO4
_symmetry_space_group_name_H-M   'P 1'
_cell_length_a   17.06492043
_cell_length_b   17.44099809
_cell_length_c   18.71413913
_cell_angle_alpha   84.37901683
_cell_angle_beta   76.02344080
_cell_angle_gamma   86.70890353
_symmetry_Int_Tables_number   1
_chemical_formula_structural   Cs2Li2GeO4
_chemical_formula_sum   'Cs72 Li72 Ge36 O144'
_cell_volume   5375.70129560
_cell_formula_units_Z   36
loop_
 _symmetry_equiv_pos_site_id
 _symmetry_equiv_pos_as_xyz
  1  'x, y, z'
loop_
 _atom_site_type_symbol
 _atom_site_label
 _atom_site_symmetry_multiplicity
 _atom_site_fract_x
 _atom_site_fract_y
 _atom_site_fract_z
 _atom_site_occupancy
  Cs  Cs0  1  0.07124373  0.09031748  0.49211069  1
  Cs  Cs1  1  0.07124373  0.09031748  0.99211069  1
  Cs  Cs2  1  0.07124373  0.42365081  0.49211069  1
  Cs  Cs3  1  0.07124373  0.42365081  0.99211069  1
  Cs  Cs4  1  0.07124373  0.75698415  0.49211069  1
  Cs  Cs5  1  0.07124373  0.75698415  0.99211069  1
  Cs  Cs6  1  0.40457706  0.09031748  0.49211069  1
  Cs  Cs7  1  0.40457706  0.09031748  0.99211069  1
  Cs  Cs8  1  0.40457706  0.42365081  0.49211069  1
  Cs  Cs9  1  0.40457706  0.42365081  0.99211069  1
  Cs  Cs10  1  0.40457706  0.75698415  0.49211069  1
  Cs  Cs11  1  0.40457706  0.75698415  0.99211069  1
  Cs  Cs12  1  0.73791039  0.09031748  0.49211069  1
  Cs  Cs13  1  0.73791039  0.09031748  0.99211069  1
  Cs  Cs14  1  0.73791039  0.42365081  0.49211069  1
  Cs  Cs15  1  0.73791039  0.42365081  0.99211069  1
  Cs  Cs16  1  0.73791039  0.75698415  0.49211069  1
  Cs  Cs17  1  0.73791039  0.75698415  0.99211069  1
  Cs  Cs18  1  0.26208961  0.24301585  0.00788931  1
  Cs  Cs19  1  0.26208961  0.24301585  0.50788931  1
  Cs  Cs20  1  0.26208961  0.57634919  0.00788931  1
  Cs  Cs21  1  0.26208961  0.57634919  0.50788931  1
  Cs  Cs22  1  0.26208961  0.90968252  0.00788931  1
  Cs  Cs23  1  0.26208961  0.90968252  0.50788931  1
  Cs  Cs24  1  0.59542294  0.24301585  0.00788931  1
  Cs  Cs25  1  0.59542294  0.24301585  0.50788931  1
  Cs  Cs26  1  0.59542294  0.57634919  0.00788931  1
  Cs  Cs27  1  0.59542294  0.57634919  0.50788931  1
  Cs  Cs28  1  0.59542294  0.90968252  0.00788931  1
  Cs  Cs29  1  0.59542294  0.90968252  0.50788931  1
  Cs  Cs30  1  0.92875627  0.24301585  0.00788931  1
  Cs  Cs31  1  0.92875627  0.24301585  0.50788931  1
  Cs  Cs32  1  0.92875627  0.57634919  0.00788931  1
  Cs  Cs33  1  0.92875627  0.57634919  0.50788931  1
  Cs  Cs34  1  0.92875627  0.90968252  0.00788931  1
  Cs  Cs35  1  0.92875627  0.90968252  0.50788931  1
  Cs  Cs36  1  0.16105758  0.28428729  0.35663486  1
  Cs  Cs37  1  0.16105758  0.28428729  0.85663486  1
  Cs  Cs38  1  0.16105758  0.61762063  0.35663486  1
  Cs  Cs39  1  0.16105758  0.61762063  0.85663486  1
  Cs  Cs40  1  0.16105758  0.95095396  0.35663486  1
  Cs  Cs41  1  0.16105758  0.95095396  0.85663486  1
  Cs  Cs42  1  0.49439091  0.28428729  0.35663486  1
  Cs  Cs43  1  0.49439091  0.28428729  0.85663486  1
  Cs  Cs44  1  0.49439091  0.61762063  0.35663486  1
  Cs  Cs45  1  0.49439091  0.61762063  0.85663486  1
  Cs  Cs46  1  0.49439091  0.95095396  0.35663486  1
  Cs  Cs47  1  0.49439091  0.95095396  0.85663486  1
  Cs  Cs48  1  0.82772425  0.28428729  0.35663486  1
  Cs  Cs49  1  0.82772425  0.28428729  0.85663486  1
  Cs  Cs50  1  0.82772425  0.61762063  0.35663486  1
  Cs  Cs51  1  0.82772425  0.61762063  0.85663486  1
  Cs  Cs52  1  0.82772425  0.95095396  0.35663486  1
  Cs  Cs53  1  0.82772425  0.95095396  0.85663486  1
  Cs  Cs54  1  0.17227575  0.04904604  0.14336514  1
  Cs  Cs55  1  0.17227575  0.04904604  0.64336514  1
  Cs  Cs56  1  0.17227575  0.38237937  0.14336514  1
  Cs  Cs57  1  0.17227575  0.38237937  0.64336514  1
  Cs  Cs58  1  0.17227575  0.71571271  0.14336514  1
  Cs  Cs59  1  0.17227575  0.71571271  0.64336514  1
  Cs  Cs60  1  0.50560909  0.04904604  0.14336514  1
  Cs  Cs61  1  0.50560909  0.04904604  0.64336514  1
  Cs  Cs62  1  0.50560909  0.38237937  0.14336514  1
  Cs  Cs63  1  0.50560909  0.38237937  0.64336514  1
  Cs  Cs64  1  0.50560909  0.71571271  0.14336514  1
  Cs  Cs65  1  0.50560909  0.71571271  0.64336514  1
  Cs  Cs66  1  0.83894242  0.04904604  0.14336514  1
  Cs  Cs67  1  0.83894242  0.04904604  0.64336514  1
  Cs  Cs68  1  0.83894242  0.38237937  0.14336514  1
  Cs  Cs69  1  0.83894242  0.38237937  0.64336514  1
  Cs  Cs70  1  0.83894242  0.71571271  0.14336514  1
  Cs  Cs71  1  0.83894242  0.71571271  0.64336514  1
  Li  Li72  1  0.02280631  0.27184820  0.28035964  1
  Li  Li73  1  0.02280631  0.27184820  0.78035964  1
  Li  Li74  1  0.02280631  0.60518153  0.28035964  1
  Li  Li75  1  0.02280631  0.60518153  0.78035964  1
  Li  Li76  1  0.02280631  0.93851487  0.28035964  1
  Li  Li77  1  0.02280631  0.93851487  0.78035964  1
  Li  Li78  1  0.35613965  0.27184820  0.28035964  1
  Li  Li79  1  0.35613965  0.27184820  0.78035964  1
  Li  Li80  1  0.35613965  0.60518153  0.28035964  1
  Li  Li81  1  0.35613965  0.60518153  0.78035964  1
  Li  Li82  1  0.35613965  0.93851487  0.28035964  1
  Li  Li83  1  0.35613965  0.93851487  0.78035964  1
  Li  Li84  1  0.68947298  0.27184820  0.28035964  1
  Li  Li85  1  0.68947298  0.27184820  0.78035964  1
  Li  Li86  1  0.68947298  0.60518153  0.28035964  1
  Li  Li87  1  0.68947298  0.60518153  0.78035964  1
  Li  Li88  1  0.68947298  0.93851487  0.28035964  1
  Li  Li89  1  0.68947298  0.93851487  0.78035964  1
  Li  Li90  1  0.31052702  0.06148513  0.21964036  1
  Li  Li91  1  0.31052702  0.06148513  0.71964036  1
  Li  Li92  1  0.31052702  0.39481847  0.21964036  1
  Li  Li93  1  0.31052702  0.39481847  0.71964036  1
  Li  Li94  1  0.31052702  0.72815180  0.21964036  1
  Li  Li95  1  0.31052702  0.72815180  0.71964036  1
  Li  Li96  1  0.64386035  0.06148513  0.21964036  1
  Li  Li97  1  0.64386035  0.06148513  0.71964036  1
  Li  Li98  1  0.64386035  0.39481847  0.21964036  1
  Li  Li99  1  0.64386035  0.39481847  0.71964036  1
  Li  Li100  1  0.64386035  0.72815180  0.21964036  1
  Li  Li101  1  0.64386035  0.72815180  0.71964036  1
  Li  Li102  1  0.97719369  0.06148513  0.21964036  1
  Li  Li103  1  0.97719369  0.06148513  0.71964036  1
  Li  Li104  1  0.97719369  0.39481847  0.21964036  1
  Li  Li105  1  0.97719369  0.39481847  0.71964036  1
  Li  Li106  1  0.97719369  0.72815180  0.21964036  1
  Li  Li107  1  0.97719369  0.72815180  0.71964036  1
  Li  Li108  1  0.23130942  0.19575266  0.20990955  1
  Li  Li109  1  0.23130942  0.19575266  0.70990955  1
  Li  Li110  1  0.23130942  0.52908600  0.20990955  1
  Li  Li111  1  0.23130942  0.52908600  0.70990955  1
  Li  Li112  1  0.23130942  0.86241933  0.20990955  1
  Li  Li113  1  0.23130942  0.86241933  0.70990955  1
  Li  Li114  1  0.56464275  0.19575266  0.20990955  1
  Li  Li115  1  0.56464275  0.19575266  0.70990955  1
  Li  Li116  1  0.56464275  0.52908600  0.20990955  1
  Li  Li117  1  0.56464275  0.52908600  0.70990955  1
  Li  Li118  1  0.56464275  0.86241933  0.20990955  1
  Li  Li119  1  0.56464275  0.86241933  0.70990955  1
  Li  Li120  1  0.89797608  0.19575266  0.20990955  1
  Li  Li121  1  0.89797608  0.19575266  0.70990955  1
  Li  Li122  1  0.89797608  0.52908600  0.20990955  1
  Li  Li123  1  0.89797608  0.52908600  0.70990955  1
  Li  Li124  1  0.89797608  0.86241933  0.20990955  1
  Li  Li125  1  0.89797608  0.86241933  0.70990955  1
  Li  Li126  1  0.10202392  0.13758067  0.29009045  1
  Li  Li127  1  0.10202392  0.13758067  0.79009045  1
  Li  Li128  1  0.10202392  0.47091400  0.29009045  1
  Li  Li129  1  0.10202392  0.47091400  0.79009045  1
  Li  Li130  1  0.10202392  0.80424734  0.29009045  1
  Li  Li131  1  0.10202392  0.80424734  0.79009045  1
  Li  Li132  1  0.43535725  0.13758067  0.29009045  1
  Li  Li133  1  0.43535725  0.13758067  0.79009045  1
  Li  Li134  1  0.43535725  0.47091400  0.29009045  1
  Li  Li135  1  0.43535725  0.47091400  0.79009045  1
  Li  Li136  1  0.43535725  0.80424734  0.29009045  1
  Li  Li137  1  0.43535725  0.80424734  0.79009045  1
  Li  Li138  1  0.76869058  0.13758067  0.29009045  1
  Li  Li139  1  0.76869058  0.13758067  0.79009045  1
  Li  Li140  1  0.76869058  0.47091400  0.29009045  1
  Li  Li141  1  0.76869058  0.47091400  0.79009045  1
  Li  Li142  1  0.76869058  0.80424734  0.29009045  1
  Li  Li143  1  0.76869058  0.80424734  0.79009045  1
  Ge  Ge144  1  0.28714468  0.10572199  0.35454601  1
  Ge  Ge145  1  0.28714468  0.10572199  0.85454601  1
  Ge  Ge146  1  0.28714468  0.43905532  0.35454601  1
  Ge  Ge147  1  0.28714468  0.43905532  0.85454601  1
  Ge  Ge148  1  0.28714468  0.77238865  0.35454601  1
  Ge  Ge149  1  0.28714468  0.77238865  0.85454601  1
  Ge  Ge150  1  0.62047802  0.10572199  0.35454601  1
  Ge  Ge151  1  0.62047802  0.10572199  0.85454601  1
  Ge  Ge152  1  0.62047802  0.43905532  0.35454601  1
  Ge  Ge153  1  0.62047802  0.43905532  0.85454601  1
  Ge  Ge154  1  0.62047802  0.77238865  0.35454601  1
  Ge  Ge155  1  0.62047802  0.77238865  0.85454601  1
  Ge  Ge156  1  0.95381135  0.10572199  0.35454601  1
  Ge  Ge157  1  0.95381135  0.10572199  0.85454601  1
  Ge  Ge158  1  0.95381135  0.43905532  0.35454601  1
  Ge  Ge159  1  0.95381135  0.43905532  0.85454601  1
  Ge  Ge160  1  0.95381135  0.77238865  0.35454601  1
  Ge  Ge161  1  0.95381135  0.77238865  0.85454601  1
  Ge  Ge162  1  0.04618865  0.22761135  0.14545399  1
  Ge  Ge163  1  0.04618865  0.22761135  0.64545399  1
  Ge  Ge164  1  0.04618865  0.56094468  0.14545399  1
  Ge  Ge165  1  0.04618865  0.56094468  0.64545399  1
  Ge  Ge166  1  0.04618865  0.89427801  0.14545399  1
  Ge  Ge167  1  0.04618865  0.89427801  0.64545399  1
  Ge  Ge168  1  0.37952198  0.22761135  0.14545399  1
  Ge  Ge169  1  0.37952198  0.22761135  0.64545399  1
  Ge  Ge170  1  0.37952198  0.56094468  0.14545399  1
  Ge  Ge171  1  0.37952198  0.56094468  0.64545399  1
  Ge  Ge172  1  0.37952198  0.89427801  0.14545399  1
  Ge  Ge173  1  0.37952198  0.89427801  0.64545399  1
  Ge  Ge174  1  0.71285532  0.22761135  0.14545399  1
  Ge  Ge175  1  0.71285532  0.22761135  0.64545399  1
  Ge  Ge176  1  0.71285532  0.56094468  0.14545399  1
  Ge  Ge177  1  0.71285532  0.56094468  0.64545399  1
  Ge  Ge178  1  0.71285532  0.89427801  0.14545399  1
  Ge  Ge179  1  0.71285532  0.89427801  0.64545399  1
  O  O180  1  0.00702774  0.19124152  0.35737613  1
  O  O181  1  0.00702774  0.19124152  0.85737613  1
  O  O182  1  0.00702774  0.52457486  0.35737613  1
  O  O183  1  0.00702774  0.52457486  0.85737613  1
  O  O184  1  0.00702774  0.85790819  0.35737613  1
  O  O185  1  0.00702774  0.85790819  0.85737613  1
  O  O186  1  0.34036107  0.19124152  0.35737613  1
  O  O187  1  0.34036107  0.19124152  0.85737613  1
  O  O188  1  0.34036107  0.52457486  0.35737613  1
  O  O189  1  0.34036107  0.52457486  0.85737613  1
  O  O190  1  0.34036107  0.85790819  0.35737613  1
  O  O191  1  0.34036107  0.85790819  0.85737613  1
  O  O192  1  0.67369440  0.19124152  0.35737613  1
  O  O193  1  0.67369440  0.19124152  0.85737613  1
  O  O194  1  0.67369440  0.52457486  0.35737613  1
  O  O195  1  0.67369440  0.52457486  0.85737613  1
  O  O196  1  0.67369440  0.85790819  0.35737613  1
  O  O197  1  0.67369440  0.85790819  0.85737613  1
  O  O198  1  0.32630560  0.14209181  0.14262387  1
  O  O199  1  0.32630560  0.14209181  0.64262387  1
  O  O200  1  0.32630560  0.47542514  0.14262387  1
  O  O201  1  0.32630560  0.47542514  0.64262387  1
  O  O202  1  0.32630560  0.80875848  0.14262387  1
  O  O203  1  0.32630560  0.80875848  0.64262387  1
  O  O204  1  0.65963893  0.14209181  0.14262387  1
  O  O205  1  0.65963893  0.14209181  0.64262387  1
  O  O206  1  0.65963893  0.47542514  0.14262387  1
  O  O207  1  0.65963893  0.47542514  0.64262387  1
  O  O208  1  0.65963893  0.80875848  0.14262387  1
  O  O209  1  0.65963893  0.80875848  0.64262387  1
  O  O210  1  0.99297226  0.14209181  0.14262387  1
  O  O211  1  0.99297226  0.14209181  0.64262387  1
  O  O212  1  0.99297226  0.47542514  0.14262387  1
  O  O213  1  0.99297226  0.47542514  0.64262387  1
  O  O214  1  0.99297226  0.80875848  0.14262387  1
  O  O215  1  0.99297226  0.80875848  0.64262387  1
  O  O216  1  0.30002506  0.28759626  0.19969762  1
  O  O217  1  0.30002506  0.28759626  0.69969762  1
  O  O218  1  0.30002506  0.62092960  0.19969762  1
  O  O219  1  0.30002506  0.62092960  0.69969762  1
  O  O220  1  0.30002506  0.95426293  0.19969762  1
  O  O221  1  0.30002506  0.95426293  0.69969762  1
  O  O222  1  0.63335840  0.28759626  0.19969762  1
  O  O223  1  0.63335840  0.28759626  0.69969762  1
  O  O224  1  0.63335840  0.62092960  0.19969762  1
  O  O225  1  0.63335840  0.62092960  0.69969762  1
  O  O226  1  0.63335840  0.95426293  0.19969762  1
  O  O227  1  0.63335840  0.95426293  0.69969762  1
  O  O228  1  0.96669173  0.28759626  0.19969762  1
  O  O229  1  0.96669173  0.28759626  0.69969762  1
  O  O230  1  0.96669173  0.62092960  0.19969762  1
  O  O231  1  0.96669173  0.62092960  0.69969762  1
  O  O232  1  0.96669173  0.95426293  0.19969762  1
  O  O233  1  0.96669173  0.95426293  0.69969762  1
  O  O234  1  0.03330827  0.04573707  0.30030238  1
  O  O235  1  0.03330827  0.04573707  0.80030238  1
  O  O236  1  0.03330827  0.37907040  0.30030238  1
  O  O237  1  0.03330827  0.37907040  0.80030238  1
  O  O238  1  0.03330827  0.71240374  0.30030238  1
  O  O239  1  0.03330827  0.71240374  0.80030238  1
  O  O240  1  0.36664160  0.04573707  0.30030238  1
  O  O241  1  0.36664160  0.04573707  0.80030238  1
  O  O242  1  0.36664160  0.37907040  0.30030238  1
  O  O243  1  0.36664160  0.37907040  0.80030238  1
  O  O244  1  0.36664160  0.71240374  0.30030238  1
  O  O245  1  0.36664160  0.71240374  0.80030238  1
  O  O246  1  0.69997494  0.04573707  0.30030238  1
  O  O247  1  0.69997494  0.04573707  0.80030238  1
  O  O248  1  0.69997494  0.37907040  0.30030238  1
  O  O249  1  0.69997494  0.37907040  0.80030238  1
  O  O250  1  0.69997494  0.71240374  0.30030238  1
  O  O251  1  0.69997494  0.71240374  0.80030238  1
  O  O252  1  0.24398143  0.06571670  0.44529993  1
  O  O253  1  0.24398143  0.06571670  0.94529993  1
  O  O254  1  0.24398143  0.39905003  0.44529993  1
  O  O255  1  0.24398143  0.39905003  0.94529993  1
  O  O256  1  0.24398143  0.73238336  0.44529993  1
  O  O257  1  0.24398143  0.73238336  0.94529993  1
  O  O258  1  0.57731476  0.06571670  0.44529993  1
  O  O259  1  0.57731476  0.06571670  0.94529993  1
  O  O260  1  0.57731476  0.39905003  0.44529993  1
  O  O261  1  0.57731476  0.39905003  0.94529993  1
  O  O262  1  0.57731476  0.73238336  0.44529993  1
  O  O263  1  0.57731476  0.73238336  0.94529993  1
  O  O264  1  0.91064810  0.06571670  0.44529993  1
  O  O265  1  0.91064810  0.06571670  0.94529993  1
  O  O266  1  0.91064810  0.39905003  0.44529993  1
  O  O267  1  0.91064810  0.39905003  0.94529993  1
  O  O268  1  0.91064810  0.73238336  0.44529993  1
  O  O269  1  0.91064810  0.73238336  0.94529993  1
  O  O270  1  0.08935190  0.26761664  0.05470007  1
  O  O271  1  0.08935190  0.26761664  0.55470007  1
  O  O272  1  0.08935190  0.60094997  0.05470007  1
  O  O273  1  0.08935190  0.60094997  0.55470007  1
  O  O274  1  0.08935190  0.93428330  0.05470007  1
  O  O275  1  0.08935190  0.93428330  0.55470007  1
  O  O276  1  0.42268524  0.26761664  0.05470007  1
  O  O277  1  0.42268524  0.26761664  0.55470007  1
  O  O278  1  0.42268524  0.60094997  0.05470007  1
  O  O279  1  0.42268524  0.60094997  0.55470007  1
  O  O280  1  0.42268524  0.93428330  0.05470007  1
  O  O281  1  0.42268524  0.93428330  0.55470007  1
  O  O282  1  0.75601857  0.26761664  0.05470007  1
  O  O283  1  0.75601857  0.26761664  0.55470007  1
  O  O284  1  0.75601857  0.60094997  0.05470007  1
  O  O285  1  0.75601857  0.60094997  0.55470007  1
  O  O286  1  0.75601857  0.93428330  0.05470007  1
  O  O287  1  0.75601857  0.93428330  0.55470007  1
  O  O288  1  0.11938696  0.21368302  0.20229174  1
  O  O289  1  0.11938696  0.21368302  0.70229174  1
  O  O290  1  0.11938696  0.54701635  0.20229174  1
  O  O291  1  0.11938696  0.54701635  0.70229174  1
  O  O292  1  0.11938696  0.88034969  0.20229174  1
  O  O293  1  0.11938696  0.88034969  0.70229174  1
  O  O294  1  0.45272030  0.21368302  0.20229174  1
  O  O295  1  0.45272030  0.21368302  0.70229174  1
  O  O296  1  0.45272030  0.54701635  0.20229174  1
  O  O297  1  0.45272030  0.54701635  0.70229174  1
  O  O298  1  0.45272030  0.88034969  0.20229174  1
  O  O299  1  0.45272030  0.88034969  0.70229174  1
  O  O300  1  0.78605363  0.21368302  0.20229174  1
  O  O301  1  0.78605363  0.21368302  0.70229174  1
  O  O302  1  0.78605363  0.54701635  0.20229174  1
  O  O303  1  0.78605363  0.54701635  0.70229174  1
  O  O304  1  0.78605363  0.88034969  0.20229174  1
  O  O305  1  0.78605363  0.88034969  0.70229174  1
  O  O306  1  0.21394637  0.11965031  0.29770826  1
  O  O307  1  0.21394637  0.11965031  0.79770826  1
  O  O308  1  0.21394637  0.45298365  0.29770826  1
  O  O309  1  0.21394637  0.45298365  0.79770826  1
  O  O310  1  0.21394637  0.78631698  0.29770826  1
  O  O311  1  0.21394637  0.78631698  0.79770826  1
  O  O312  1  0.54727970  0.11965031  0.29770826  1
  O  O313  1  0.54727970  0.11965031  0.79770826  1
  O  O314  1  0.54727970  0.45298365  0.29770826  1
  O  O315  1  0.54727970  0.45298365  0.79770826  1
  O  O316  1  0.54727970  0.78631698  0.29770826  1
  O  O317  1  0.54727970  0.78631698  0.79770826  1
  O  O318  1  0.88061304  0.11965031  0.29770826  1
  O  O319  1  0.88061304  0.11965031  0.79770826  1
  O  O320  1  0.88061304  0.45298365  0.29770826  1
  O  O321  1  0.88061304  0.45298365  0.79770826  1
  O  O322  1  0.88061304  0.78631698  0.29770826  1
  O  O323  1  0.88061304  0.78631698  0.79770826  1
