# generated using pymatgen
data_BaTi(AsO4)2
_symmetry_space_group_name_H-M   'P 1'
_cell_length_a   16.77139581
_cell_length_b   16.40390002
_cell_length_c   15.60028879
_cell_angle_alpha   90.00000000
_cell_angle_beta   94.31657438
_cell_angle_gamma   90.00000000
_symmetry_Int_Tables_number   1
_chemical_formula_structural   BaTi(AsO4)2
_chemical_formula_sum   'Ba24 Ti24 As48 O192'
_cell_volume   4279.71935442
_cell_formula_units_Z   24
loop_
 _symmetry_equiv_pos_site_id
 _symmetry_equiv_pos_as_xyz
  1  'x, y, z'
loop_
 _atom_site_type_symbol
 _atom_site_label
 _atom_site_symmetry_multiplicity
 _atom_site_fract_x
 _atom_site_fract_y
 _atom_site_fract_z
 _atom_site_occupancy
  Ba  Ba0  1  0.00000000  -0.00000000  0.25000000  1
  Ba  Ba1  1  0.00000000  -0.00000000  0.75000000  1
  Ba  Ba2  1  0.00000000  0.33333333  0.25000000  1
  Ba  Ba3  1  0.00000000  0.33333333  0.75000000  1
  Ba  Ba4  1  0.00000000  0.66666667  0.25000000  1
  Ba  Ba5  1  0.00000000  0.66666667  0.75000000  1
  Ba  Ba6  1  0.50000000  -0.00000000  0.25000000  1
  Ba  Ba7  1  0.50000000  -0.00000000  0.75000000  1
  Ba  Ba8  1  0.50000000  0.33333333  0.25000000  1
  Ba  Ba9  1  0.50000000  0.33333333  0.75000000  1
  Ba  Ba10  1  0.50000000  0.66666667  0.25000000  1
  Ba  Ba11  1  0.50000000  0.66666667  0.75000000  1
  Ba  Ba12  1  0.25000000  0.16666667  0.25000000  1
  Ba  Ba13  1  0.25000000  0.16666667  0.75000000  1
  Ba  Ba14  1  0.25000000  0.50000000  0.25000000  1
  Ba  Ba15  1  0.25000000  0.50000000  0.75000000  1
  Ba  Ba16  1  0.25000000  0.83333333  0.25000000  1
  Ba  Ba17  1  0.25000000  0.83333333  0.75000000  1
  Ba  Ba18  1  0.75000000  0.16666667  0.25000000  1
  Ba  Ba19  1  0.75000000  0.16666667  0.75000000  1
  Ba  Ba20  1  0.75000000  0.50000000  0.25000000  1
  Ba  Ba21  1  0.75000000  0.50000000  0.75000000  1
  Ba  Ba22  1  0.75000000  0.83333333  0.25000000  1
  Ba  Ba23  1  0.75000000  0.83333333  0.75000000  1
  Ti  Ti24  1  0.00000000  0.00000000  0.00000000  1
  Ti  Ti25  1  0.00000000  0.00000000  0.50000000  1
  Ti  Ti26  1  0.00000000  0.33333333  0.00000000  1
  Ti  Ti27  1  0.00000000  0.33333333  0.50000000  1
  Ti  Ti28  1  0.00000000  0.66666667  0.00000000  1
  Ti  Ti29  1  0.00000000  0.66666667  0.50000000  1
  Ti  Ti30  1  0.50000000  0.00000000  0.00000000  1
  Ti  Ti31  1  0.50000000  0.00000000  0.50000000  1
  Ti  Ti32  1  0.50000000  0.33333333  0.00000000  1
  Ti  Ti33  1  0.50000000  0.33333333  0.50000000  1
  Ti  Ti34  1  0.50000000  0.66666667  0.00000000  1
  Ti  Ti35  1  0.50000000  0.66666667  0.50000000  1
  Ti  Ti36  1  0.25000000  0.16666667  0.00000000  1
  Ti  Ti37  1  0.25000000  0.16666667  0.50000000  1
  Ti  Ti38  1  0.25000000  0.50000000  0.00000000  1
  Ti  Ti39  1  0.25000000  0.50000000  0.50000000  1
  Ti  Ti40  1  0.25000000  0.83333333  0.00000000  1
  Ti  Ti41  1  0.25000000  0.83333333  0.50000000  1
  Ti  Ti42  1  0.75000000  0.16666667  0.00000000  1
  Ti  Ti43  1  0.75000000  0.16666667  0.50000000  1
  Ti  Ti44  1  0.75000000  0.50000000  0.00000000  1
  Ti  Ti45  1  0.75000000  0.50000000  0.50000000  1
  Ti  Ti46  1  0.75000000  0.83333333  0.00000000  1
  Ti  Ti47  1  0.75000000  0.83333333  0.50000000  1
  As  As48  1  0.18525183  0.00000000  0.10287810  1
  As  As49  1  0.18525183  0.00000000  0.60287810  1
  As  As50  1  0.18525183  0.33333333  0.10287810  1
  As  As51  1  0.18525183  0.33333333  0.60287810  1
  As  As52  1  0.18525183  0.66666667  0.10287810  1
  As  As53  1  0.18525183  0.66666667  0.60287810  1
  As  As54  1  0.68525183  0.00000000  0.10287810  1
  As  As55  1  0.68525183  0.00000000  0.60287810  1
  As  As56  1  0.68525183  0.33333333  0.10287810  1
  As  As57  1  0.68525183  0.33333333  0.60287810  1
  As  As58  1  0.68525183  0.66666667  0.10287810  1
  As  As59  1  0.68525183  0.66666667  0.60287810  1
  As  As60  1  0.43525183  0.16666667  0.10287810  1
  As  As61  1  0.43525183  0.16666667  0.60287810  1
  As  As62  1  0.43525183  0.50000000  0.10287810  1
  As  As63  1  0.43525183  0.50000000  0.60287810  1
  As  As64  1  0.43525183  0.83333333  0.10287810  1
  As  As65  1  0.43525183  0.83333333  0.60287810  1
  As  As66  1  0.93525183  0.16666667  0.10287810  1
  As  As67  1  0.93525183  0.16666667  0.60287810  1
  As  As68  1  0.93525183  0.50000000  0.10287810  1
  As  As69  1  0.93525183  0.50000000  0.60287810  1
  As  As70  1  0.93525183  0.83333333  0.10287810  1
  As  As71  1  0.93525183  0.83333333  0.60287810  1
  As  As72  1  0.31474817  -0.00000000  0.39712190  1
  As  As73  1  0.31474817  -0.00000000  0.89712190  1
  As  As74  1  0.31474817  0.33333333  0.39712190  1
  As  As75  1  0.31474817  0.33333333  0.89712190  1
  As  As76  1  0.31474817  0.66666667  0.39712190  1
  As  As77  1  0.31474817  0.66666667  0.89712190  1
  As  As78  1  0.81474817  -0.00000000  0.39712190  1
  As  As79  1  0.81474817  -0.00000000  0.89712190  1
  As  As80  1  0.81474817  0.33333333  0.39712190  1
  As  As81  1  0.81474817  0.33333333  0.89712190  1
  As  As82  1  0.81474817  0.66666667  0.39712190  1
  As  As83  1  0.81474817  0.66666667  0.89712190  1
  As  As84  1  0.56474817  0.16666667  0.39712190  1
  As  As85  1  0.56474817  0.16666667  0.89712190  1
  As  As86  1  0.56474817  0.50000000  0.39712190  1
  As  As87  1  0.56474817  0.50000000  0.89712190  1
  As  As88  1  0.56474817  0.83333333  0.39712190  1
  As  As89  1  0.56474817  0.83333333  0.89712190  1
  As  As90  1  1.06474817  0.16666667  0.39712190  1
  As  As91  1  1.06474817  0.16666667  0.89712190  1
  As  As92  1  1.06474817  0.50000000  0.39712190  1
  As  As93  1  1.06474817  0.50000000  0.89712190  1
  As  As94  1  1.06474817  0.83333333  0.39712190  1
  As  As95  1  1.06474817  0.83333333  0.89712190  1
  O  O96  1  0.15548968  0.00000000  0.20340302  1
  O  O97  1  0.15548968  0.00000000  0.70340302  1
  O  O98  1  0.15548968  0.33333333  0.20340302  1
  O  O99  1  0.15548968  0.33333333  0.70340302  1
  O  O100  1  0.15548968  0.66666667  0.20340302  1
  O  O101  1  0.15548968  0.66666667  0.70340302  1
  O  O102  1  0.65548968  0.00000000  0.20340302  1
  O  O103  1  0.65548968  0.00000000  0.70340302  1
  O  O104  1  0.65548968  0.33333333  0.20340302  1
  O  O105  1  0.65548968  0.33333333  0.70340302  1
  O  O106  1  0.65548968  0.66666667  0.20340302  1
  O  O107  1  0.65548968  0.66666667  0.70340302  1
  O  O108  1  0.40548968  0.16666667  0.20340302  1
  O  O109  1  0.40548968  0.16666667  0.70340302  1
  O  O110  1  0.40548968  0.50000000  0.20340302  1
  O  O111  1  0.40548968  0.50000000  0.70340302  1
  O  O112  1  0.40548968  0.83333333  0.20340302  1
  O  O113  1  0.40548968  0.83333333  0.70340302  1
  O  O114  1  0.90548968  0.16666667  0.20340302  1
  O  O115  1  0.90548968  0.16666667  0.70340302  1
  O  O116  1  0.90548968  0.50000000  0.20340302  1
  O  O117  1  0.90548968  0.50000000  0.70340302  1
  O  O118  1  0.90548968  0.83333333  0.20340302  1
  O  O119  1  0.90548968  0.83333333  0.70340302  1
  O  O120  1  0.34451032  0.00000000  0.29659698  1
  O  O121  1  0.34451032  0.00000000  0.79659698  1
  O  O122  1  0.34451032  0.33333333  0.29659698  1
  O  O123  1  0.34451032  0.33333333  0.79659698  1
  O  O124  1  0.34451032  0.66666667  0.29659698  1
  O  O125  1  0.34451032  0.66666667  0.79659698  1
  O  O126  1  0.84451032  0.00000000  0.29659698  1
  O  O127  1  0.84451032  0.00000000  0.79659698  1
  O  O128  1  0.84451032  0.33333333  0.29659698  1
  O  O129  1  0.84451032  0.33333333  0.79659698  1
  O  O130  1  0.84451032  0.66666667  0.29659698  1
  O  O131  1  0.84451032  0.66666667  0.79659698  1
  O  O132  1  0.59451032  0.16666667  0.29659698  1
  O  O133  1  0.59451032  0.16666667  0.79659698  1
  O  O134  1  0.59451032  0.50000000  0.29659698  1
  O  O135  1  0.59451032  0.50000000  0.79659698  1
  O  O136  1  0.59451032  0.83333333  0.29659698  1
  O  O137  1  0.59451032  0.83333333  0.79659698  1
  O  O138  1  1.09451032  0.16666667  0.29659698  1
  O  O139  1  1.09451032  0.16666667  0.79659698  1
  O  O140  1  1.09451032  0.50000000  0.29659698  1
  O  O141  1  1.09451032  0.50000000  0.79659698  1
  O  O142  1  1.09451032  0.83333333  0.29659698  1
  O  O143  1  1.09451032  0.83333333  0.79659698  1
  O  O144  1  0.24471569  0.08467766  0.09226450  1
  O  O145  1  0.24471569  0.08467766  0.59226450  1
  O  O146  1  0.24471569  0.41801100  0.09226450  1
  O  O147  1  0.24471569  0.41801100  0.59226450  1
  O  O148  1  0.24471569  0.75134433  0.09226450  1
  O  O149  1  0.24471569  0.75134433  0.59226450  1
  O  O150  1  0.74471569  0.08467766  0.09226450  1
  O  O151  1  0.74471569  0.08467766  0.59226450  1
  O  O152  1  0.74471569  0.41801100  0.09226450  1
  O  O153  1  0.74471569  0.41801100  0.59226450  1
  O  O154  1  0.74471569  0.75134433  0.09226450  1
  O  O155  1  0.74471569  0.75134433  0.59226450  1
  O  O156  1  0.49471569  0.25134433  0.09226450  1
  O  O157  1  0.49471569  0.25134433  0.59226450  1
  O  O158  1  0.49471569  0.58467766  0.09226450  1
  O  O159  1  0.49471569  0.58467766  0.59226450  1
  O  O160  1  0.49471569  0.91801100  0.09226450  1
  O  O161  1  0.49471569  0.91801100  0.59226450  1
  O  O162  1  0.99471569  0.25134433  0.09226450  1
  O  O163  1  0.99471569  0.25134433  0.59226450  1
  O  O164  1  0.99471569  0.58467766  0.09226450  1
  O  O165  1  0.99471569  0.58467766  0.59226450  1
  O  O166  1  0.99471569  0.91801100  0.09226450  1
  O  O167  1  0.99471569  0.91801100  0.59226450  1
  O  O168  1  0.25528431  -0.08467766  0.40773550  1
  O  O169  1  0.25528431  -0.08467766  0.90773550  1
  O  O170  1  0.25528431  0.24865567  0.40773550  1
  O  O171  1  0.25528431  0.24865567  0.90773550  1
  O  O172  1  0.25528431  0.58198900  0.40773550  1
  O  O173  1  0.25528431  0.58198900  0.90773550  1
  O  O174  1  0.75528431  -0.08467766  0.40773550  1
  O  O175  1  0.75528431  -0.08467766  0.90773550  1
  O  O176  1  0.75528431  0.24865567  0.40773550  1
  O  O177  1  0.75528431  0.24865567  0.90773550  1
  O  O178  1  0.75528431  0.58198900  0.40773550  1
  O  O179  1  0.75528431  0.58198900  0.90773550  1
  O  O180  1  0.50528431  0.08198900  0.40773550  1
  O  O181  1  0.50528431  0.08198900  0.90773550  1
  O  O182  1  0.50528431  0.41532234  0.40773550  1
  O  O183  1  0.50528431  0.41532234  0.90773550  1
  O  O184  1  0.50528431  0.74865567  0.40773550  1
  O  O185  1  0.50528431  0.74865567  0.90773550  1
  O  O186  1  1.00528431  0.08198900  0.40773550  1
  O  O187  1  1.00528431  0.08198900  0.90773550  1
  O  O188  1  1.00528431  0.41532234  0.40773550  1
  O  O189  1  1.00528431  0.41532234  0.90773550  1
  O  O190  1  1.00528431  0.74865567  0.40773550  1
  O  O191  1  1.00528431  0.74865567  0.90773550  1
  O  O192  1  0.25528431  0.08467766  0.40773550  1
  O  O193  1  0.25528431  0.08467766  0.90773550  1
  O  O194  1  0.25528431  0.41801100  0.40773550  1
  O  O195  1  0.25528431  0.41801100  0.90773550  1
  O  O196  1  0.25528431  0.75134433  0.40773550  1
  O  O197  1  0.25528431  0.75134433  0.90773550  1
  O  O198  1  0.75528431  0.08467766  0.40773550  1
  O  O199  1  0.75528431  0.08467766  0.90773550  1
  O  O200  1  0.75528431  0.41801100  0.40773550  1
  O  O201  1  0.75528431  0.41801100  0.90773550  1
  O  O202  1  0.75528431  0.75134433  0.40773550  1
  O  O203  1  0.75528431  0.75134433  0.90773550  1
  O  O204  1  0.50528431  0.25134433  0.40773550  1
  O  O205  1  0.50528431  0.25134433  0.90773550  1
  O  O206  1  0.50528431  0.58467766  0.40773550  1
  O  O207  1  0.50528431  0.58467766  0.90773550  1
  O  O208  1  0.50528431  0.91801100  0.40773550  1
  O  O209  1  0.50528431  0.91801100  0.90773550  1
  O  O210  1  1.00528431  0.25134433  0.40773550  1
  O  O211  1  1.00528431  0.25134433  0.90773550  1
  O  O212  1  1.00528431  0.58467766  0.40773550  1
  O  O213  1  1.00528431  0.58467766  0.90773550  1
  O  O214  1  1.00528431  0.91801100  0.40773550  1
  O  O215  1  1.00528431  0.91801100  0.90773550  1
  O  O216  1  0.24471569  -0.08467766  0.09226450  1
  O  O217  1  0.24471569  -0.08467766  0.59226450  1
  O  O218  1  0.24471569  0.24865567  0.09226450  1
  O  O219  1  0.24471569  0.24865567  0.59226450  1
  O  O220  1  0.24471569  0.58198900  0.09226450  1
  O  O221  1  0.24471569  0.58198900  0.59226450  1
  O  O222  1  0.74471569  -0.08467766  0.09226450  1
  O  O223  1  0.74471569  -0.08467766  0.59226450  1
  O  O224  1  0.74471569  0.24865567  0.09226450  1
  O  O225  1  0.74471569  0.24865567  0.59226450  1
  O  O226  1  0.74471569  0.58198900  0.09226450  1
  O  O227  1  0.74471569  0.58198900  0.59226450  1
  O  O228  1  0.49471569  0.08198900  0.09226450  1
  O  O229  1  0.49471569  0.08198900  0.59226450  1
  O  O230  1  0.49471569  0.41532234  0.09226450  1
  O  O231  1  0.49471569  0.41532234  0.59226450  1
  O  O232  1  0.49471569  0.74865567  0.09226450  1
  O  O233  1  0.49471569  0.74865567  0.59226450  1
  O  O234  1  0.99471569  0.08198900  0.09226450  1
  O  O235  1  0.99471569  0.08198900  0.59226450  1
  O  O236  1  0.99471569  0.41532234  0.09226450  1
  O  O237  1  0.99471569  0.41532234  0.59226450  1
  O  O238  1  0.99471569  0.74865567  0.09226450  1
  O  O239  1  0.99471569  0.74865567  0.59226450  1
  O  O240  1  0.11370391  0.00000000  0.01929705  1
  O  O241  1  0.11370391  0.00000000  0.51929705  1
  O  O242  1  0.11370391  0.33333333  0.01929705  1
  O  O243  1  0.11370391  0.33333333  0.51929705  1
  O  O244  1  0.11370391  0.66666667  0.01929705  1
  O  O245  1  0.11370391  0.66666667  0.51929705  1
  O  O246  1  0.61370391  0.00000000  0.01929705  1
  O  O247  1  0.61370391  0.00000000  0.51929705  1
  O  O248  1  0.61370391  0.33333333  0.01929705  1
  O  O249  1  0.61370391  0.33333333  0.51929705  1
  O  O250  1  0.61370391  0.66666667  0.01929705  1
  O  O251  1  0.61370391  0.66666667  0.51929705  1
  O  O252  1  0.36370391  0.16666667  0.01929705  1
  O  O253  1  0.36370391  0.16666667  0.51929705  1
  O  O254  1  0.36370391  0.50000000  0.01929705  1
  O  O255  1  0.36370391  0.50000000  0.51929705  1
  O  O256  1  0.36370391  0.83333333  0.01929705  1
  O  O257  1  0.36370391  0.83333333  0.51929705  1
  O  O258  1  0.86370391  0.16666667  0.01929705  1
  O  O259  1  0.86370391  0.16666667  0.51929705  1
  O  O260  1  0.86370391  0.50000000  0.01929705  1
  O  O261  1  0.86370391  0.50000000  0.51929705  1
  O  O262  1  0.86370391  0.83333333  0.01929705  1
  O  O263  1  0.86370391  0.83333333  0.51929705  1
  O  O264  1  0.38629609  0.00000000  0.48070295  1
  O  O265  1  0.38629609  0.00000000  0.98070295  1
  O  O266  1  0.38629609  0.33333333  0.48070295  1
  O  O267  1  0.38629609  0.33333333  0.98070295  1
  O  O268  1  0.38629609  0.66666667  0.48070295  1
  O  O269  1  0.38629609  0.66666667  0.98070295  1
  O  O270  1  0.88629609  0.00000000  0.48070295  1
  O  O271  1  0.88629609  0.00000000  0.98070295  1
  O  O272  1  0.88629609  0.33333333  0.48070295  1
  O  O273  1  0.88629609  0.33333333  0.98070295  1
  O  O274  1  0.88629609  0.66666667  0.48070295  1
  O  O275  1  0.88629609  0.66666667  0.98070295  1
  O  O276  1  0.63629609  0.16666667  0.48070295  1
  O  O277  1  0.63629609  0.16666667  0.98070295  1
  O  O278  1  0.63629609  0.50000000  0.48070295  1
  O  O279  1  0.63629609  0.50000000  0.98070295  1
  O  O280  1  0.63629609  0.83333333  0.48070295  1
  O  O281  1  0.63629609  0.83333333  0.98070295  1
  O  O282  1  1.13629609  0.16666667  0.48070295  1
  O  O283  1  1.13629609  0.16666667  0.98070295  1
  O  O284  1  1.13629609  0.50000000  0.48070295  1
  O  O285  1  1.13629609  0.50000000  0.98070295  1
  O  O286  1  1.13629609  0.83333333  0.48070295  1
  O  O287  1  1.13629609  0.83333333  0.98070295  1
