# generated using pymatgen
data_Ca3WO6
_symmetry_space_group_name_H-M   'P 1'
_cell_length_a   9.31854680
_cell_length_b   9.31854680
_cell_length_c   10.92270971
_cell_angle_alpha   90.00000000
_cell_angle_beta   90.00000000
_cell_angle_gamma   120.00000000
_symmetry_Int_Tables_number   1
_chemical_formula_structural   Ca3WO6
_chemical_formula_sum   'Ca18 W6 O36'
_cell_volume   821.40511814
_cell_formula_units_Z   6
loop_
 _symmetry_equiv_pos_site_id
 _symmetry_equiv_pos_as_xyz
  1  'x, y, z'
loop_
 _atom_site_type_symbol
 _atom_site_label
 _atom_site_symmetry_multiplicity
 _atom_site_fract_x
 _atom_site_fract_y
 _atom_site_fract_z
 _atom_site_occupancy
  Ca  Ca0  1  -0.26976793  -0.22769991  0.70518584  1
  Ca  Ca1  1  0.39689873  0.10563342  1.03851917  1
  Ca  Ca2  1  0.06356540  0.43896675  1.37185250  1
  Ca  Ca3  1  0.22769991  -0.04206802  0.70518584  1
  Ca  Ca4  1  0.89436658  0.29126531  1.03851917  1
  Ca  Ca5  1  0.56103325  0.62459864  1.37185250  1
  Ca  Ca6  1  -0.04206802  -0.26976793  0.29481416  1
  Ca  Ca7  1  0.62459864  0.06356540  0.62814750  1
  Ca  Ca8  1  0.29126531  0.39689873  0.96148083  1
  Ca  Ca9  1  0.04206802  0.26976793  0.70518584  1
  Ca  Ca10  1  0.70873469  0.60310127  1.03851917  1
  Ca  Ca11  1  0.37540136  0.93643460  1.37185250  1
  Ca  Ca12  1  -0.22769991  0.04206802  0.29481416  1
  Ca  Ca13  1  0.43896675  0.37540136  0.62814750  1
  Ca  Ca14  1  0.10563342  0.70873469  0.96148083  1
  Ca  Ca15  1  0.26976793  0.22769991  0.29481416  1
  Ca  Ca16  1  0.93643460  0.56103325  0.62814750  1
  Ca  Ca17  1  0.60310127  0.89436658  0.96148083  1
  W  W18  1  -0.00000000  -0.00000000  -0.00000000  1
  W  W19  1  0.66666667  0.33333333  0.33333333  1
  W  W20  1  0.33333333  0.66666667  0.66666667  1
  W  W21  1  0.00000000  0.00000000  0.50000000  1
  W  W22  1  0.66666667  0.33333333  0.83333333  1
  W  W23  1  0.33333333  0.66666667  1.16666667  1
  O  O24  1  -0.14663801  -0.50764769  0.43009483  1
  O  O25  1  0.52002866  -0.17431436  0.76342817  1
  O  O26  1  0.18669532  0.15901898  1.09676150  1
  O  O27  1  -0.50764769  -0.36100968  0.56990517  1
  O  O28  1  0.15901898  -0.02767635  0.90323850  1
  O  O29  1  -0.17431436  0.30565699  1.23657183  1
  O  O30  1  -0.02647193  -0.17871464  0.60476476  1
  O  O31  1  0.64019474  0.15461869  0.93809810  1
  O  O32  1  0.30686141  0.48795203  1.27143143  1
  O  O33  1  0.36100968  -0.14663801  0.56990517  1
  O  O34  1  1.02767635  0.18669532  0.90323850  1
  O  O35  1  0.69434301  0.52002866  1.23657183  1
  O  O36  1  -0.15224271  0.02647193  0.60476476  1
  O  O37  1  0.51442395  0.35980526  0.93809810  1
  O  O38  1  0.18109062  0.69313859  1.27143143  1
  O  O39  1  -0.17871464  -0.15224271  0.39523524  1
  O  O40  1  0.48795203  0.18109062  0.72856857  1
  O  O41  1  0.15461869  0.51442395  1.06190190  1
  O  O42  1  0.17871464  0.15224271  0.60476476  1
  O  O43  1  0.84538131  0.48557605  0.93809810  1
  O  O44  1  0.51204797  0.81890938  1.27143143  1
  O  O45  1  0.15224271  -0.02647193  0.39523524  1
  O  O46  1  0.81890938  0.30686141  0.72856857  1
  O  O47  1  0.48557605  0.64019474  1.06190190  1
  O  O48  1  -0.36100968  0.14663801  0.43009483  1
  O  O49  1  0.30565699  0.47997134  0.76342817  1
  O  O50  1  -0.02767635  0.81330468  1.09676150  1
  O  O51  1  0.02647193  0.17871464  0.39523524  1
  O  O52  1  0.69313859  0.51204797  0.72856857  1
  O  O53  1  0.35980526  0.84538131  1.06190190  1
  O  O54  1  0.50764769  0.36100968  0.43009483  1
  O  O55  1  1.17431436  0.69434301  0.76342817  1
  O  O56  1  0.84098102  1.02767635  1.09676150  1
  O  O57  1  0.14663801  0.50764769  0.56990517  1
  O  O58  1  0.81330468  0.84098102  0.90323850  1
  O  O59  1  0.47997134  1.17431436  1.23657183  1
