# generated using pymatgen
data_Mg(CuO2)2
_symmetry_space_group_name_H-M   'P 1'
_cell_length_a   9.15105506
_cell_length_b   9.75977067
_cell_length_c   8.99344289
_cell_angle_alpha   90.00000000
_cell_angle_beta   90.00000000
_cell_angle_gamma   90.00000000
_symmetry_Int_Tables_number   1
_chemical_formula_structural   Mg(CuO2)2
_chemical_formula_sum   'Mg12 Cu24 O48'
_cell_volume   803.22415827
_cell_formula_units_Z   12
loop_
 _symmetry_equiv_pos_site_id
 _symmetry_equiv_pos_as_xyz
  1  'x, y, z'
loop_
 _atom_site_type_symbol
 _atom_site_label
 _atom_site_symmetry_multiplicity
 _atom_site_fract_x
 _atom_site_fract_y
 _atom_site_fract_z
 _atom_site_occupancy
  Mg  Mg0  1  0.29099859  0.15241551  0.25000000  1
  Mg  Mg1  1  0.62433192  0.15241551  0.25000000  1
  Mg  Mg2  1  0.95766525  0.15241551  0.25000000  1
  Mg  Mg3  1  0.29099859  0.34758449  0.75000000  1
  Mg  Mg4  1  0.62433192  0.34758449  0.75000000  1
  Mg  Mg5  1  0.95766525  0.34758449  0.75000000  1
  Mg  Mg6  1  0.04233475  0.65241551  0.25000000  1
  Mg  Mg7  1  0.37566808  0.65241551  0.25000000  1
  Mg  Mg8  1  0.70900141  0.65241551  0.25000000  1
  Mg  Mg9  1  0.04233475  0.84758449  0.75000000  1
  Mg  Mg10  1  0.37566808  0.84758449  0.75000000  1
  Mg  Mg11  1  0.70900141  0.84758449  0.75000000  1
  Cu  Cu12  1  0.11544008  0.38538270  0.06952937  1
  Cu  Cu13  1  0.44877341  0.38538270  0.06952937  1
  Cu  Cu14  1  0.78210674  0.38538270  0.06952937  1
  Cu  Cu15  1  0.11544008  0.11461730  0.56952937  1
  Cu  Cu16  1  0.44877341  0.11461730  0.56952937  1
  Cu  Cu17  1  0.78210674  0.11461730  0.56952937  1
  Cu  Cu18  1  0.21789326  0.61461730  0.56952937  1
  Cu  Cu19  1  0.55122659  0.61461730  0.56952937  1
  Cu  Cu20  1  0.88455992  0.61461730  0.56952937  1
  Cu  Cu21  1  0.11544008  0.11461730  0.93047063  1
  Cu  Cu22  1  0.44877341  0.11461730  0.93047063  1
  Cu  Cu23  1  0.78210674  0.11461730  0.93047063  1
  Cu  Cu24  1  0.21789326  0.61461730  0.93047063  1
  Cu  Cu25  1  0.55122659  0.61461730  0.93047063  1
  Cu  Cu26  1  0.88455992  0.61461730  0.93047063  1
  Cu  Cu27  1  0.11544008  0.38538270  0.43047063  1
  Cu  Cu28  1  0.44877341  0.38538270  0.43047063  1
  Cu  Cu29  1  0.78210674  0.38538270  0.43047063  1
  Cu  Cu30  1  0.21789326  0.88538270  0.43047063  1
  Cu  Cu31  1  0.55122659  0.88538270  0.43047063  1
  Cu  Cu32  1  0.88455992  0.88538270  0.43047063  1
  Cu  Cu33  1  0.21789326  0.88538270  0.06952937  1
  Cu  Cu34  1  0.55122659  0.88538270  0.06952937  1
  Cu  Cu35  1  0.88455992  0.88538270  0.06952937  1
  O  O36  1  0.21171689  0.54344021  0.38316352  1
  O  O37  1  0.54505022  0.54344021  0.38316352  1
  O  O38  1  0.87838355  0.54344021  0.38316352  1
  O  O39  1  0.12161645  0.45655979  0.61683648  1
  O  O40  1  0.45494978  0.45655979  0.61683648  1
  O  O41  1  0.78828311  0.45655979  0.61683648  1
  O  O42  1  0.33139046  0.25000000  0.50000000  1
  O  O43  1  0.66472380  0.25000000  0.50000000  1
  O  O44  1  0.99805713  0.25000000  0.50000000  1
  O  O45  1  0.12161645  0.04344021  0.38316352  1
  O  O46  1  0.45494978  0.04344021  0.38316352  1
  O  O47  1  0.78828311  0.04344021  0.38316352  1
  O  O48  1  0.12161645  0.04344021  0.11683648  1
  O  O49  1  0.45494978  0.04344021  0.11683648  1
  O  O50  1  0.78828311  0.04344021  0.11683648  1
  O  O51  1  0.12319857  0.20063777  0.75000000  1
  O  O52  1  0.45653191  0.20063777  0.75000000  1
  O  O53  1  0.78986524  0.20063777  0.75000000  1
  O  O54  1  0.21171689  0.95655979  0.61683648  1
  O  O55  1  0.54505022  0.95655979  0.61683648  1
  O  O56  1  0.87838355  0.95655979  0.61683648  1
  O  O57  1  0.21013476  0.70063777  0.75000000  1
  O  O58  1  0.54346809  0.70063777  0.75000000  1
  O  O59  1  0.87680143  0.70063777  0.75000000  1
  O  O60  1  0.33139046  0.25000000  0.00000000  1
  O  O61  1  0.66472380  0.25000000  0.00000000  1
  O  O62  1  0.99805713  0.25000000  0.00000000  1
  O  O63  1  0.00194287  0.75000000  0.50000000  1
  O  O64  1  0.33527620  0.75000000  0.50000000  1
  O  O65  1  0.66860954  0.75000000  0.50000000  1
  O  O66  1  0.21171689  0.54344021  0.11683648  1
  O  O67  1  0.54505022  0.54344021  0.11683648  1
  O  O68  1  0.87838355  0.54344021  0.11683648  1
  O  O69  1  0.21013476  0.79936223  0.25000000  1
  O  O70  1  0.54346809  0.79936223  0.25000000  1
  O  O71  1  0.87680143  0.79936223  0.25000000  1
  O  O72  1  0.12319857  0.29936223  0.25000000  1
  O  O73  1  0.45653191  0.29936223  0.25000000  1
  O  O74  1  0.78986524  0.29936223  0.25000000  1
  O  O75  1  0.00194287  0.75000000  0.00000000  1
  O  O76  1  0.33527620  0.75000000  0.00000000  1
  O  O77  1  0.66860954  0.75000000  0.00000000  1
  O  O78  1  0.21171689  0.95655979  0.88316352  1
  O  O79  1  0.54505022  0.95655979  0.88316352  1
  O  O80  1  0.87838355  0.95655979  0.88316352  1
  O  O81  1  0.12161645  0.45655979  0.88316352  1
  O  O82  1  0.45494978  0.45655979  0.88316352  1
  O  O83  1  0.78828311  0.45655979  0.88316352  1
