# generated using pymatgen
data_CsLi5(BO3)2
_symmetry_space_group_name_H-M   'P 1'
_cell_length_a   23.36116318
_cell_length_b   19.00227803
_cell_length_c   15.97791320
_cell_angle_alpha   90.00000000
_cell_angle_beta   132.30770864
_cell_angle_gamma   90.00000000
_symmetry_Int_Tables_number   1
_chemical_formula_structural   CsLi5(BO3)2
_chemical_formula_sum   'Cs32 Li160 B64 O192'
_cell_volume   5245.44303366
_cell_formula_units_Z   32
loop_
 _symmetry_equiv_pos_site_id
 _symmetry_equiv_pos_as_xyz
  1  'x, y, z'
loop_
 _atom_site_type_symbol
 _atom_site_label
 _atom_site_symmetry_multiplicity
 _atom_site_fract_x
 _atom_site_fract_y
 _atom_site_fract_z
 _atom_site_occupancy
  Cs  Cs0  1  0.25000000  0.09098654  0.37500000  1
  Cs  Cs1  1  0.25000000  0.09098654  0.87500000  1
  Cs  Cs2  1  0.25000000  0.59098654  0.37500000  1
  Cs  Cs3  1  0.25000000  0.59098654  0.87500000  1
  Cs  Cs4  1  0.75000000  0.09098654  0.37500000  1
  Cs  Cs5  1  0.75000000  0.09098654  0.87500000  1
  Cs  Cs6  1  0.75000000  0.59098654  0.37500000  1
  Cs  Cs7  1  0.75000000  0.59098654  0.87500000  1
  Cs  Cs8  1  0.50000000  0.34098654  0.37500000  1
  Cs  Cs9  1  0.50000000  0.34098654  0.87500000  1
  Cs  Cs10  1  0.50000000  0.84098654  0.37500000  1
  Cs  Cs11  1  0.50000000  0.84098654  0.87500000  1
  Cs  Cs12  1  1.00000000  0.34098654  0.37500000  1
  Cs  Cs13  1  1.00000000  0.34098654  0.87500000  1
  Cs  Cs14  1  1.00000000  0.84098654  0.37500000  1
  Cs  Cs15  1  1.00000000  0.84098654  0.87500000  1
  Cs  Cs16  1  0.25000000  -0.09098654  0.12500000  1
  Cs  Cs17  1  0.25000000  -0.09098654  0.62500000  1
  Cs  Cs18  1  0.25000000  0.40901346  0.12500000  1
  Cs  Cs19  1  0.25000000  0.40901346  0.62500000  1
  Cs  Cs20  1  0.75000000  -0.09098654  0.12500000  1
  Cs  Cs21  1  0.75000000  -0.09098654  0.62500000  1
  Cs  Cs22  1  0.75000000  0.40901346  0.12500000  1
  Cs  Cs23  1  0.75000000  0.40901346  0.62500000  1
  Cs  Cs24  1  0.50000000  0.15901346  0.12500000  1
  Cs  Cs25  1  0.50000000  0.15901346  0.62500000  1
  Cs  Cs26  1  0.50000000  0.65901346  0.12500000  1
  Cs  Cs27  1  0.50000000  0.65901346  0.62500000  1
  Cs  Cs28  1  1.00000000  0.15901346  0.12500000  1
  Cs  Cs29  1  1.00000000  0.15901346  0.62500000  1
  Cs  Cs30  1  1.00000000  0.65901346  0.12500000  1
  Cs  Cs31  1  1.00000000  0.65901346  0.62500000  1
  Li  Li32  1  0.30143608  0.06705663  0.11512559  1
  Li  Li33  1  0.30143608  0.06705663  0.61512559  1
  Li  Li34  1  0.30143608  0.56705663  0.11512559  1
  Li  Li35  1  0.30143608  0.56705663  0.61512559  1
  Li  Li36  1  0.80143608  0.06705663  0.11512559  1
  Li  Li37  1  0.80143608  0.06705663  0.61512559  1
  Li  Li38  1  0.80143608  0.56705663  0.11512559  1
  Li  Li39  1  0.80143608  0.56705663  0.61512559  1
  Li  Li40  1  0.55143608  0.31705663  0.11512559  1
  Li  Li41  1  0.55143608  0.31705663  0.61512559  1
  Li  Li42  1  0.55143608  0.81705663  0.11512559  1
  Li  Li43  1  0.55143608  0.81705663  0.61512559  1
  Li  Li44  1  1.05143608  0.31705663  0.11512559  1
  Li  Li45  1  1.05143608  0.31705663  0.61512559  1
  Li  Li46  1  1.05143608  0.81705663  0.11512559  1
  Li  Li47  1  1.05143608  0.81705663  0.61512559  1
  Li  Li48  1  0.30594806  0.15808914  0.23080262  1
  Li  Li49  1  0.30594806  0.15808914  0.73080262  1
  Li  Li50  1  0.30594806  0.65808914  0.23080262  1
  Li  Li51  1  0.30594806  0.65808914  0.73080262  1
  Li  Li52  1  0.80594806  0.15808914  0.23080262  1
  Li  Li53  1  0.80594806  0.15808914  0.73080262  1
  Li  Li54  1  0.80594806  0.65808914  0.23080262  1
  Li  Li55  1  0.80594806  0.65808914  0.73080262  1
  Li  Li56  1  0.55594806  0.40808914  0.23080262  1
  Li  Li57  1  0.55594806  0.40808914  0.73080262  1
  Li  Li58  1  0.55594806  0.90808914  0.23080262  1
  Li  Li59  1  0.55594806  0.90808914  0.73080262  1
  Li  Li60  1  1.05594806  0.40808914  0.23080262  1
  Li  Li61  1  1.05594806  0.40808914  0.73080262  1
  Li  Li62  1  1.05594806  0.90808914  0.23080262  1
  Li  Li63  1  1.05594806  0.90808914  0.73080262  1
  Li  Li64  1  0.19856392  -0.06705663  0.38487441  1
  Li  Li65  1  0.19856392  -0.06705663  0.88487441  1
  Li  Li66  1  0.19856392  0.43294337  0.38487441  1
  Li  Li67  1  0.19856392  0.43294337  0.88487441  1
  Li  Li68  1  0.69856392  -0.06705663  0.38487441  1
  Li  Li69  1  0.69856392  -0.06705663  0.88487441  1
  Li  Li70  1  0.69856392  0.43294337  0.38487441  1
  Li  Li71  1  0.69856392  0.43294337  0.88487441  1
  Li  Li72  1  0.44856392  0.18294337  0.38487441  1
  Li  Li73  1  0.44856392  0.18294337  0.88487441  1
  Li  Li74  1  0.44856392  0.68294337  0.38487441  1
  Li  Li75  1  0.44856392  0.68294337  0.88487441  1
  Li  Li76  1  0.94856392  0.18294337  0.38487441  1
  Li  Li77  1  0.94856392  0.18294337  0.88487441  1
  Li  Li78  1  0.94856392  0.68294337  0.38487441  1
  Li  Li79  1  0.94856392  0.68294337  0.88487441  1
  Li  Li80  1  0.19856392  0.06705663  0.13487441  1
  Li  Li81  1  0.19856392  0.06705663  0.63487441  1
  Li  Li82  1  0.19856392  0.56705663  0.13487441  1
  Li  Li83  1  0.19856392  0.56705663  0.63487441  1
  Li  Li84  1  0.69856392  0.06705663  0.13487441  1
  Li  Li85  1  0.69856392  0.06705663  0.63487441  1
  Li  Li86  1  0.69856392  0.56705663  0.13487441  1
  Li  Li87  1  0.69856392  0.56705663  0.63487441  1
  Li  Li88  1  0.44856392  0.31705663  0.13487441  1
  Li  Li89  1  0.44856392  0.31705663  0.63487441  1
  Li  Li90  1  0.44856392  0.81705663  0.13487441  1
  Li  Li91  1  0.44856392  0.81705663  0.63487441  1
  Li  Li92  1  0.94856392  0.31705663  0.13487441  1
  Li  Li93  1  0.94856392  0.31705663  0.63487441  1
  Li  Li94  1  0.94856392  0.81705663  0.13487441  1
  Li  Li95  1  0.94856392  0.81705663  0.63487441  1
  Li  Li96  1  -0.00000000  0.00000000  0.00000000  1
  Li  Li97  1  -0.00000000  0.00000000  0.50000000  1
  Li  Li98  1  -0.00000000  0.50000000  0.00000000  1
  Li  Li99  1  -0.00000000  0.50000000  0.50000000  1
  Li  Li100  1  0.50000000  0.00000000  0.00000000  1
  Li  Li101  1  0.50000000  0.00000000  0.50000000  1
  Li  Li102  1  0.50000000  0.50000000  0.00000000  1
  Li  Li103  1  0.50000000  0.50000000  0.50000000  1
  Li  Li104  1  0.25000000  0.25000000  0.00000000  1
  Li  Li105  1  0.25000000  0.25000000  0.50000000  1
  Li  Li106  1  0.25000000  0.75000000  0.00000000  1
  Li  Li107  1  0.25000000  0.75000000  0.50000000  1
  Li  Li108  1  0.75000000  0.25000000  0.00000000  1
  Li  Li109  1  0.75000000  0.25000000  0.50000000  1
  Li  Li110  1  0.75000000  0.75000000  0.00000000  1
  Li  Li111  1  0.75000000  0.75000000  0.50000000  1
  Li  Li112  1  0.19405194  -0.15808914  0.26919738  1
  Li  Li113  1  0.19405194  -0.15808914  0.76919738  1
  Li  Li114  1  0.19405194  0.34191086  0.26919738  1
  Li  Li115  1  0.19405194  0.34191086  0.76919738  1
  Li  Li116  1  0.69405194  -0.15808914  0.26919738  1
  Li  Li117  1  0.69405194  -0.15808914  0.76919738  1
  Li  Li118  1  0.69405194  0.34191086  0.26919738  1
  Li  Li119  1  0.69405194  0.34191086  0.76919738  1
  Li  Li120  1  0.44405194  0.09191086  0.26919738  1
  Li  Li121  1  0.44405194  0.09191086  0.76919738  1
  Li  Li122  1  0.44405194  0.59191086  0.26919738  1
  Li  Li123  1  0.44405194  0.59191086  0.76919738  1
  Li  Li124  1  0.94405194  0.09191086  0.26919738  1
  Li  Li125  1  0.94405194  0.09191086  0.76919738  1
  Li  Li126  1  0.94405194  0.59191086  0.26919738  1
  Li  Li127  1  0.94405194  0.59191086  0.76919738  1
  Li  Li128  1  0.30143608  -0.06705663  0.36512559  1
  Li  Li129  1  0.30143608  -0.06705663  0.86512559  1
  Li  Li130  1  0.30143608  0.43294337  0.36512559  1
  Li  Li131  1  0.30143608  0.43294337  0.86512559  1
  Li  Li132  1  0.80143608  -0.06705663  0.36512559  1
  Li  Li133  1  0.80143608  -0.06705663  0.86512559  1
  Li  Li134  1  0.80143608  0.43294337  0.36512559  1
  Li  Li135  1  0.80143608  0.43294337  0.86512559  1
  Li  Li136  1  0.55143608  0.18294337  0.36512559  1
  Li  Li137  1  0.55143608  0.18294337  0.86512559  1
  Li  Li138  1  0.55143608  0.68294337  0.36512559  1
  Li  Li139  1  0.55143608  0.68294337  0.86512559  1
  Li  Li140  1  1.05143608  0.18294337  0.36512559  1
  Li  Li141  1  1.05143608  0.18294337  0.86512559  1
  Li  Li142  1  1.05143608  0.68294337  0.36512559  1
  Li  Li143  1  1.05143608  0.68294337  0.86512559  1
  Li  Li144  1  0.30594806  -0.15808914  0.48080262  1
  Li  Li145  1  0.30594806  -0.15808914  0.98080262  1
  Li  Li146  1  0.30594806  0.34191086  0.48080262  1
  Li  Li147  1  0.30594806  0.34191086  0.98080262  1
  Li  Li148  1  0.80594806  -0.15808914  0.48080262  1
  Li  Li149  1  0.80594806  -0.15808914  0.98080262  1
  Li  Li150  1  0.80594806  0.34191086  0.48080262  1
  Li  Li151  1  0.80594806  0.34191086  0.98080262  1
  Li  Li152  1  0.55594806  0.09191086  0.48080262  1
  Li  Li153  1  0.55594806  0.09191086  0.98080262  1
  Li  Li154  1  0.55594806  0.59191086  0.48080262  1
  Li  Li155  1  0.55594806  0.59191086  0.98080262  1
  Li  Li156  1  1.05594806  0.09191086  0.48080262  1
  Li  Li157  1  1.05594806  0.09191086  0.98080262  1
  Li  Li158  1  1.05594806  0.59191086  0.48080262  1
  Li  Li159  1  1.05594806  0.59191086  0.98080262  1
  Li  Li160  1  -0.00000000  0.00000000  0.25000000  1
  Li  Li161  1  -0.00000000  0.00000000  0.75000000  1
  Li  Li162  1  -0.00000000  0.50000000  0.25000000  1
  Li  Li163  1  -0.00000000  0.50000000  0.75000000  1
  Li  Li164  1  0.50000000  0.00000000  0.25000000  1
  Li  Li165  1  0.50000000  0.00000000  0.75000000  1
  Li  Li166  1  0.50000000  0.50000000  0.25000000  1
  Li  Li167  1  0.50000000  0.50000000  0.75000000  1
  Li  Li168  1  0.25000000  0.25000000  0.25000000  1
  Li  Li169  1  0.25000000  0.25000000  0.75000000  1
  Li  Li170  1  0.25000000  0.75000000  0.25000000  1
  Li  Li171  1  0.25000000  0.75000000  0.75000000  1
  Li  Li172  1  0.75000000  0.25000000  0.25000000  1
  Li  Li173  1  0.75000000  0.25000000  0.75000000  1
  Li  Li174  1  0.75000000  0.75000000  0.25000000  1
  Li  Li175  1  0.75000000  0.75000000  0.75000000  1
  Li  Li176  1  0.19405194  0.15808914  0.01919738  1
  Li  Li177  1  0.19405194  0.15808914  0.51919738  1
  Li  Li178  1  0.19405194  0.65808914  0.01919738  1
  Li  Li179  1  0.19405194  0.65808914  0.51919738  1
  Li  Li180  1  0.69405194  0.15808914  0.01919738  1
  Li  Li181  1  0.69405194  0.15808914  0.51919738  1
  Li  Li182  1  0.69405194  0.65808914  0.01919738  1
  Li  Li183  1  0.69405194  0.65808914  0.51919738  1
  Li  Li184  1  0.44405194  0.40808914  0.01919738  1
  Li  Li185  1  0.44405194  0.40808914  0.51919738  1
  Li  Li186  1  0.44405194  0.90808914  0.01919738  1
  Li  Li187  1  0.44405194  0.90808914  0.51919738  1
  Li  Li188  1  0.94405194  0.40808914  0.01919738  1
  Li  Li189  1  0.94405194  0.40808914  0.51919738  1
  Li  Li190  1  0.94405194  0.90808914  0.01919738  1
  Li  Li191  1  0.94405194  0.90808914  0.51919738  1
  B  B192  1  0.12021363  0.03598270  0.40567098  1
  B  B193  1  0.12021363  0.03598270  0.90567098  1
  B  B194  1  0.12021363  0.53598270  0.40567098  1
  B  B195  1  0.12021363  0.53598270  0.90567098  1
  B  B196  1  0.62021363  0.03598270  0.40567098  1
  B  B197  1  0.62021363  0.03598270  0.90567098  1
  B  B198  1  0.62021363  0.53598270  0.40567098  1
  B  B199  1  0.62021363  0.53598270  0.90567098  1
  B  B200  1  0.37021363  0.28598270  0.40567098  1
  B  B201  1  0.37021363  0.28598270  0.90567098  1
  B  B202  1  0.37021363  0.78598270  0.40567098  1
  B  B203  1  0.37021363  0.78598270  0.90567098  1
  B  B204  1  0.87021363  0.28598270  0.40567098  1
  B  B205  1  0.87021363  0.28598270  0.90567098  1
  B  B206  1  0.87021363  0.78598270  0.40567098  1
  B  B207  1  0.87021363  0.78598270  0.90567098  1
  B  B208  1  0.12021363  -0.03598270  0.15567098  1
  B  B209  1  0.12021363  -0.03598270  0.65567098  1
  B  B210  1  0.12021363  0.46401730  0.15567098  1
  B  B211  1  0.12021363  0.46401730  0.65567098  1
  B  B212  1  0.62021363  -0.03598270  0.15567098  1
  B  B213  1  0.62021363  -0.03598270  0.65567098  1
  B  B214  1  0.62021363  0.46401730  0.15567098  1
  B  B215  1  0.62021363  0.46401730  0.65567098  1
  B  B216  1  0.37021363  0.21401730  0.15567098  1
  B  B217  1  0.37021363  0.21401730  0.65567098  1
  B  B218  1  0.37021363  0.71401730  0.15567098  1
  B  B219  1  0.37021363  0.71401730  0.65567098  1
  B  B220  1  0.87021363  0.21401730  0.15567098  1
  B  B221  1  0.87021363  0.21401730  0.65567098  1
  B  B222  1  0.87021363  0.71401730  0.15567098  1
  B  B223  1  0.87021363  0.71401730  0.65567098  1
  B  B224  1  0.37978637  -0.03598270  0.09432902  1
  B  B225  1  0.37978637  -0.03598270  0.59432902  1
  B  B226  1  0.37978637  0.46401730  0.09432902  1
  B  B227  1  0.37978637  0.46401730  0.59432902  1
  B  B228  1  0.87978637  -0.03598270  0.09432902  1
  B  B229  1  0.87978637  -0.03598270  0.59432902  1
  B  B230  1  0.87978637  0.46401730  0.09432902  1
  B  B231  1  0.87978637  0.46401730  0.59432902  1
  B  B232  1  0.62978637  0.21401730  0.09432902  1
  B  B233  1  0.62978637  0.21401730  0.59432902  1
  B  B234  1  0.62978637  0.71401730  0.09432902  1
  B  B235  1  0.62978637  0.71401730  0.59432902  1
  B  B236  1  1.12978637  0.21401730  0.09432902  1
  B  B237  1  1.12978637  0.21401730  0.59432902  1
  B  B238  1  1.12978637  0.71401730  0.09432902  1
  B  B239  1  1.12978637  0.71401730  0.59432902  1
  B  B240  1  0.37978637  0.03598270  0.34432902  1
  B  B241  1  0.37978637  0.03598270  0.84432902  1
  B  B242  1  0.37978637  0.53598270  0.34432902  1
  B  B243  1  0.37978637  0.53598270  0.84432902  1
  B  B244  1  0.87978637  0.03598270  0.34432902  1
  B  B245  1  0.87978637  0.03598270  0.84432902  1
  B  B246  1  0.87978637  0.53598270  0.34432902  1
  B  B247  1  0.87978637  0.53598270  0.84432902  1
  B  B248  1  0.62978637  0.28598270  0.34432902  1
  B  B249  1  0.62978637  0.28598270  0.84432902  1
  B  B250  1  0.62978637  0.78598270  0.34432902  1
  B  B251  1  0.62978637  0.78598270  0.84432902  1
  B  B252  1  1.12978637  0.28598270  0.34432902  1
  B  B253  1  1.12978637  0.28598270  0.84432902  1
  B  B254  1  1.12978637  0.78598270  0.34432902  1
  B  B255  1  1.12978637  0.78598270  0.84432902  1
  O  O256  1  0.39056388  -0.02636243  0.39864186  1
  O  O257  1  0.39056388  -0.02636243  0.89864186  1
  O  O258  1  0.39056388  0.47363757  0.39864186  1
  O  O259  1  0.39056388  0.47363757  0.89864186  1
  O  O260  1  0.89056388  -0.02636243  0.39864186  1
  O  O261  1  0.89056388  -0.02636243  0.89864186  1
  O  O262  1  0.89056388  0.47363757  0.39864186  1
  O  O263  1  0.89056388  0.47363757  0.89864186  1
  O  O264  1  0.64056388  0.22363757  0.39864186  1
  O  O265  1  0.64056388  0.22363757  0.89864186  1
  O  O266  1  0.64056388  0.72363757  0.39864186  1
  O  O267  1  0.64056388  0.72363757  0.89864186  1
  O  O268  1  1.14056388  0.22363757  0.39864186  1
  O  O269  1  1.14056388  0.22363757  0.89864186  1
  O  O270  1  1.14056388  0.72363757  0.39864186  1
  O  O271  1  1.14056388  0.72363757  0.89864186  1
  O  O272  1  0.30472750  -0.17229871  0.35687292  1
  O  O273  1  0.30472750  -0.17229871  0.85687292  1
  O  O274  1  0.30472750  0.32770129  0.35687292  1
  O  O275  1  0.30472750  0.32770129  0.85687292  1
  O  O276  1  0.80472750  -0.17229871  0.35687292  1
  O  O277  1  0.80472750  -0.17229871  0.85687292  1
  O  O278  1  0.80472750  0.32770129  0.35687292  1
  O  O279  1  0.80472750  0.32770129  0.85687292  1
  O  O280  1  0.55472750  0.07770129  0.35687292  1
  O  O281  1  0.55472750  0.07770129  0.85687292  1
  O  O282  1  0.55472750  0.57770129  0.35687292  1
  O  O283  1  0.55472750  0.57770129  0.85687292  1
  O  O284  1  1.05472750  0.07770129  0.35687292  1
  O  O285  1  1.05472750  0.07770129  0.85687292  1
  O  O286  1  1.05472750  0.57770129  0.35687292  1
  O  O287  1  1.05472750  0.57770129  0.85687292  1
  O  O288  1  0.19527250  0.17229871  0.14312708  1
  O  O289  1  0.19527250  0.17229871  0.64312708  1
  O  O290  1  0.19527250  0.67229871  0.14312708  1
  O  O291  1  0.19527250  0.67229871  0.64312708  1
  O  O292  1  0.69527250  0.17229871  0.14312708  1
  O  O293  1  0.69527250  0.17229871  0.64312708  1
  O  O294  1  0.69527250  0.67229871  0.14312708  1
  O  O295  1  0.69527250  0.67229871  0.64312708  1
  O  O296  1  0.44527250  0.42229871  0.14312708  1
  O  O297  1  0.44527250  0.42229871  0.64312708  1
  O  O298  1  0.44527250  0.92229871  0.14312708  1
  O  O299  1  0.44527250  0.92229871  0.64312708  1
  O  O300  1  0.94527250  0.42229871  0.14312708  1
  O  O301  1  0.94527250  0.42229871  0.64312708  1
  O  O302  1  0.94527250  0.92229871  0.14312708  1
  O  O303  1  0.94527250  0.92229871  0.64312708  1
  O  O304  1  0.39056388  0.02636243  0.14864186  1
  O  O305  1  0.39056388  0.02636243  0.64864186  1
  O  O306  1  0.39056388  0.52636243  0.14864186  1
  O  O307  1  0.39056388  0.52636243  0.64864186  1
  O  O308  1  0.89056388  0.02636243  0.14864186  1
  O  O309  1  0.89056388  0.02636243  0.64864186  1
  O  O310  1  0.89056388  0.52636243  0.14864186  1
  O  O311  1  0.89056388  0.52636243  0.64864186  1
  O  O312  1  0.64056388  0.27636243  0.14864186  1
  O  O313  1  0.64056388  0.27636243  0.64864186  1
  O  O314  1  0.64056388  0.77636243  0.14864186  1
  O  O315  1  0.64056388  0.77636243  0.64864186  1
  O  O316  1  1.14056388  0.27636243  0.14864186  1
  O  O317  1  1.14056388  0.27636243  0.64864186  1
  O  O318  1  1.14056388  0.77636243  0.14864186  1
  O  O319  1  1.14056388  0.77636243  0.64864186  1
  O  O320  1  0.30472750  0.17229871  0.10687292  1
  O  O321  1  0.30472750  0.17229871  0.60687292  1
  O  O322  1  0.30472750  0.67229871  0.10687292  1
  O  O323  1  0.30472750  0.67229871  0.60687292  1
  O  O324  1  0.80472750  0.17229871  0.10687292  1
  O  O325  1  0.80472750  0.17229871  0.60687292  1
  O  O326  1  0.80472750  0.67229871  0.10687292  1
  O  O327  1  0.80472750  0.67229871  0.60687292  1
  O  O328  1  0.55472750  0.42229871  0.10687292  1
  O  O329  1  0.55472750  0.42229871  0.60687292  1
  O  O330  1  0.55472750  0.92229871  0.10687292  1
  O  O331  1  0.55472750  0.92229871  0.60687292  1
  O  O332  1  1.05472750  0.42229871  0.10687292  1
  O  O333  1  1.05472750  0.42229871  0.60687292  1
  O  O334  1  1.05472750  0.92229871  0.10687292  1
  O  O335  1  1.05472750  0.92229871  0.60687292  1
  O  O336  1  0.19527250  -0.17229871  0.39312708  1
  O  O337  1  0.19527250  -0.17229871  0.89312708  1
  O  O338  1  0.19527250  0.32770129  0.39312708  1
  O  O339  1  0.19527250  0.32770129  0.89312708  1
  O  O340  1  0.69527250  -0.17229871  0.39312708  1
  O  O341  1  0.69527250  -0.17229871  0.89312708  1
  O  O342  1  0.69527250  0.32770129  0.39312708  1
  O  O343  1  0.69527250  0.32770129  0.89312708  1
  O  O344  1  0.44527250  0.07770129  0.39312708  1
  O  O345  1  0.44527250  0.07770129  0.89312708  1
  O  O346  1  0.44527250  0.57770129  0.39312708  1
  O  O347  1  0.44527250  0.57770129  0.89312708  1
  O  O348  1  0.94527250  0.07770129  0.39312708  1
  O  O349  1  0.94527250  0.07770129  0.89312708  1
  O  O350  1  0.94527250  0.57770129  0.39312708  1
  O  O351  1  0.94527250  0.57770129  0.89312708  1
  O  O352  1  0.19197532  -0.05715991  0.25396116  1
  O  O353  1  0.19197532  -0.05715991  0.75396116  1
  O  O354  1  0.19197532  0.44284009  0.25396116  1
  O  O355  1  0.19197532  0.44284009  0.75396116  1
  O  O356  1  0.69197532  -0.05715991  0.25396116  1
  O  O357  1  0.69197532  -0.05715991  0.75396116  1
  O  O358  1  0.69197532  0.44284009  0.25396116  1
  O  O359  1  0.69197532  0.44284009  0.75396116  1
  O  O360  1  0.44197532  0.19284009  0.25396116  1
  O  O361  1  0.44197532  0.19284009  0.75396116  1
  O  O362  1  0.44197532  0.69284009  0.25396116  1
  O  O363  1  0.44197532  0.69284009  0.75396116  1
  O  O364  1  0.94197532  0.19284009  0.25396116  1
  O  O365  1  0.94197532  0.19284009  0.75396116  1
  O  O366  1  0.94197532  0.69284009  0.25396116  1
  O  O367  1  0.94197532  0.69284009  0.75396116  1
  O  O368  1  0.10943612  0.02636243  0.10135814  1
  O  O369  1  0.10943612  0.02636243  0.60135814  1
  O  O370  1  0.10943612  0.52636243  0.10135814  1
  O  O371  1  0.10943612  0.52636243  0.60135814  1
  O  O372  1  0.60943612  0.02636243  0.10135814  1
  O  O373  1  0.60943612  0.02636243  0.60135814  1
  O  O374  1  0.60943612  0.52636243  0.10135814  1
  O  O375  1  0.60943612  0.52636243  0.60135814  1
  O  O376  1  0.35943612  0.27636243  0.10135814  1
  O  O377  1  0.35943612  0.27636243  0.60135814  1
  O  O378  1  0.35943612  0.77636243  0.10135814  1
  O  O379  1  0.35943612  0.77636243  0.60135814  1
  O  O380  1  0.85943612  0.27636243  0.10135814  1
  O  O381  1  0.85943612  0.27636243  0.60135814  1
  O  O382  1  0.85943612  0.77636243  0.10135814  1
  O  O383  1  0.85943612  0.77636243  0.60135814  1
  O  O384  1  0.19197532  0.05715991  0.00396116  1
  O  O385  1  0.19197532  0.05715991  0.50396116  1
  O  O386  1  0.19197532  0.55715991  0.00396116  1
  O  O387  1  0.19197532  0.55715991  0.50396116  1
  O  O388  1  0.69197532  0.05715991  0.00396116  1
  O  O389  1  0.69197532  0.05715991  0.50396116  1
  O  O390  1  0.69197532  0.55715991  0.00396116  1
  O  O391  1  0.69197532  0.55715991  0.50396116  1
  O  O392  1  0.44197532  0.30715991  0.00396116  1
  O  O393  1  0.44197532  0.30715991  0.50396116  1
  O  O394  1  0.44197532  0.80715991  0.00396116  1
  O  O395  1  0.44197532  0.80715991  0.50396116  1
  O  O396  1  0.94197532  0.30715991  0.00396116  1
  O  O397  1  0.94197532  0.30715991  0.50396116  1
  O  O398  1  0.94197532  0.80715991  0.00396116  1
  O  O399  1  0.94197532  0.80715991  0.50396116  1
  O  O400  1  0.30802468  -0.05715991  0.49603884  1
  O  O401  1  0.30802468  -0.05715991  0.99603884  1
  O  O402  1  0.30802468  0.44284009  0.49603884  1
  O  O403  1  0.30802468  0.44284009  0.99603884  1
  O  O404  1  0.80802468  -0.05715991  0.49603884  1
  O  O405  1  0.80802468  -0.05715991  0.99603884  1
  O  O406  1  0.80802468  0.44284009  0.49603884  1
  O  O407  1  0.80802468  0.44284009  0.99603884  1
  O  O408  1  0.55802468  0.19284009  0.49603884  1
  O  O409  1  0.55802468  0.19284009  0.99603884  1
  O  O410  1  0.55802468  0.69284009  0.49603884  1
  O  O411  1  0.55802468  0.69284009  0.99603884  1
  O  O412  1  1.05802468  0.19284009  0.49603884  1
  O  O413  1  1.05802468  0.19284009  0.99603884  1
  O  O414  1  1.05802468  0.69284009  0.49603884  1
  O  O415  1  1.05802468  0.69284009  0.99603884  1
  O  O416  1  0.30802468  0.05715991  0.24603884  1
  O  O417  1  0.30802468  0.05715991  0.74603884  1
  O  O418  1  0.30802468  0.55715991  0.24603884  1
  O  O419  1  0.30802468  0.55715991  0.74603884  1
  O  O420  1  0.80802468  0.05715991  0.24603884  1
  O  O421  1  0.80802468  0.05715991  0.74603884  1
  O  O422  1  0.80802468  0.55715991  0.24603884  1
  O  O423  1  0.80802468  0.55715991  0.74603884  1
  O  O424  1  0.55802468  0.30715991  0.24603884  1
  O  O425  1  0.55802468  0.30715991  0.74603884  1
  O  O426  1  0.55802468  0.80715991  0.24603884  1
  O  O427  1  0.55802468  0.80715991  0.74603884  1
  O  O428  1  1.05802468  0.30715991  0.24603884  1
  O  O429  1  1.05802468  0.30715991  0.74603884  1
  O  O430  1  1.05802468  0.80715991  0.24603884  1
  O  O431  1  1.05802468  0.80715991  0.74603884  1
  O  O432  1  0.10943612  -0.02636243  0.35135814  1
  O  O433  1  0.10943612  -0.02636243  0.85135814  1
  O  O434  1  0.10943612  0.47363757  0.35135814  1
  O  O435  1  0.10943612  0.47363757  0.85135814  1
  O  O436  1  0.60943612  -0.02636243  0.35135814  1
  O  O437  1  0.60943612  -0.02636243  0.85135814  1
  O  O438  1  0.60943612  0.47363757  0.35135814  1
  O  O439  1  0.60943612  0.47363757  0.85135814  1
  O  O440  1  0.35943612  0.22363757  0.35135814  1
  O  O441  1  0.35943612  0.22363757  0.85135814  1
  O  O442  1  0.35943612  0.72363757  0.35135814  1
  O  O443  1  0.35943612  0.72363757  0.85135814  1
  O  O444  1  0.85943612  0.22363757  0.35135814  1
  O  O445  1  0.85943612  0.22363757  0.85135814  1
  O  O446  1  0.85943612  0.72363757  0.35135814  1
  O  O447  1  0.85943612  0.72363757  0.85135814  1
