# generated using pymatgen
data_La3SbO3
_symmetry_space_group_name_H-M   'P 1'
_cell_length_a   13.72613193
_cell_length_b   12.26922880
_cell_length_c   12.21822360
_cell_angle_alpha   90.00000000
_cell_angle_beta   118.67740542
_cell_angle_gamma   90.00000000
_symmetry_Int_Tables_number   1
_chemical_formula_structural   La3SbO3
_chemical_formula_sum   'La36 Sb12 O36'
_cell_volume   1805.25764004
_cell_formula_units_Z   12
loop_
 _symmetry_equiv_pos_site_id
 _symmetry_equiv_pos_as_xyz
  1  'x, y, z'
loop_
 _atom_site_type_symbol
 _atom_site_label
 _atom_site_symmetry_multiplicity
 _atom_site_fract_x
 _atom_site_fract_y
 _atom_site_fract_z
 _atom_site_occupancy
  La  La0  1  0.38121853  -0.00000000  0.55622661  1
  La  La1  1  0.38121853  0.33333333  0.55622661  1
  La  La2  1  0.38121853  0.66666667  0.55622661  1
  La  La3  1  0.88121853  0.16666667  0.55622661  1
  La  La4  1  0.88121853  0.50000000  0.55622661  1
  La  La5  1  0.88121853  0.83333333  0.55622661  1
  La  La6  1  0.61878147  -0.00000000  0.44377339  1
  La  La7  1  0.61878147  0.33333333  0.44377339  1
  La  La8  1  0.61878147  0.66666667  0.44377339  1
  La  La9  1  1.11878147  0.16666667  0.44377339  1
  La  La10  1  1.11878147  0.50000000  0.44377339  1
  La  La11  1  1.11878147  0.83333333  0.44377339  1
  La  La12  1  0.37171674  -0.00000000  0.10156834  1
  La  La13  1  0.37171674  0.33333333  0.10156834  1
  La  La14  1  0.37171674  0.66666667  0.10156834  1
  La  La15  1  0.87171674  0.16666667  0.10156834  1
  La  La16  1  0.87171674  0.50000000  0.10156834  1
  La  La17  1  0.87171674  0.83333333  0.10156834  1
  La  La18  1  0.62828326  -0.00000000  0.89843166  1
  La  La19  1  0.62828326  0.33333333  0.89843166  1
  La  La20  1  0.62828326  0.66666667  0.89843166  1
  La  La21  1  1.12828326  0.16666667  0.89843166  1
  La  La22  1  1.12828326  0.50000000  0.89843166  1
  La  La23  1  1.12828326  0.83333333  0.89843166  1
  La  La24  1  0.84663213  -0.00000000  0.79361898  1
  La  La25  1  0.84663213  0.33333333  0.79361898  1
  La  La26  1  0.84663213  0.66666667  0.79361898  1
  La  La27  1  1.34663213  0.16666667  0.79361898  1
  La  La28  1  1.34663213  0.50000000  0.79361898  1
  La  La29  1  1.34663213  0.83333333  0.79361898  1
  La  La30  1  0.15336787  -0.00000000  0.20638102  1
  La  La31  1  0.15336787  0.33333333  0.20638102  1
  La  La32  1  0.15336787  0.66666667  0.20638102  1
  La  La33  1  0.65336787  0.16666667  0.20638102  1
  La  La34  1  0.65336787  0.50000000  0.20638102  1
  La  La35  1  0.65336787  0.83333333  0.20638102  1
  Sb  Sb36  1  0.87735004  0.00000000  0.31845618  1
  Sb  Sb37  1  0.87735004  0.33333333  0.31845618  1
  Sb  Sb38  1  0.87735004  0.66666667  0.31845618  1
  Sb  Sb39  1  1.37735004  0.16666667  0.31845618  1
  Sb  Sb40  1  1.37735004  0.50000000  0.31845618  1
  Sb  Sb41  1  1.37735004  0.83333333  0.31845618  1
  Sb  Sb42  1  0.12264996  -0.00000000  0.68154382  1
  Sb  Sb43  1  0.12264996  0.33333333  0.68154382  1
  Sb  Sb44  1  0.12264996  0.66666667  0.68154382  1
  Sb  Sb45  1  0.62264996  0.16666667  0.68154382  1
  Sb  Sb46  1  0.62264996  0.50000000  0.68154382  1
  Sb  Sb47  1  0.62264996  0.83333333  0.68154382  1
  O  O48  1  0.81052992  0.00000000  0.58886619  1
  O  O49  1  0.81052992  0.33333333  0.58886619  1
  O  O50  1  0.81052992  0.66666667  0.58886619  1
  O  O51  1  1.31052992  0.16666667  0.58886619  1
  O  O52  1  1.31052992  0.50000000  0.58886619  1
  O  O53  1  1.31052992  0.83333333  0.58886619  1
  O  O54  1  0.18947008  -0.00000000  0.41113381  1
  O  O55  1  0.18947008  0.33333333  0.41113381  1
  O  O56  1  0.18947008  0.66666667  0.41113381  1
  O  O57  1  0.68947008  0.16666667  0.41113381  1
  O  O58  1  0.68947008  0.50000000  0.41113381  1
  O  O59  1  0.68947008  0.83333333  0.41113381  1
  O  O60  1  0.56478726  -0.00000000  0.20424653  1
  O  O61  1  0.56478726  0.33333333  0.20424653  1
  O  O62  1  0.56478726  0.66666667  0.20424653  1
  O  O63  1  1.06478726  0.16666667  0.20424653  1
  O  O64  1  1.06478726  0.50000000  0.20424653  1
  O  O65  1  1.06478726  0.83333333  0.20424653  1
  O  O66  1  0.43521274  -0.00000000  0.79575347  1
  O  O67  1  0.43521274  0.33333333  0.79575347  1
  O  O68  1  0.43521274  0.66666667  0.79575347  1
  O  O69  1  0.93521274  0.16666667  0.79575347  1
  O  O70  1  0.93521274  0.50000000  0.79575347  1
  O  O71  1  0.93521274  0.83333333  0.79575347  1
  O  O72  1  0.83909805  -0.00000000  0.98909346  1
  O  O73  1  0.83909805  0.33333333  0.98909346  1
  O  O74  1  0.83909805  0.66666667  0.98909346  1
  O  O75  1  1.33909805  0.16666667  0.98909346  1
  O  O76  1  1.33909805  0.50000000  0.98909346  1
  O  O77  1  1.33909805  0.83333333  0.98909346  1
  O  O78  1  0.16090195  -0.00000000  0.01090654  1
  O  O79  1  0.16090195  0.33333333  0.01090654  1
  O  O80  1  0.16090195  0.66666667  0.01090654  1
  O  O81  1  0.66090195  0.16666667  0.01090654  1
  O  O82  1  0.66090195  0.50000000  0.01090654  1
  O  O83  1  0.66090195  0.83333333  0.01090654  1
