# generated using pymatgen
data_Sr2GeO4
_symmetry_space_group_name_H-M   'P 1'
_cell_length_a   11.70839616
_cell_length_b   14.44926684
_cell_length_c   11.04238536
_cell_angle_alpha   90.00000000
_cell_angle_beta   116.59556154
_cell_angle_gamma   90.00000000
_symmetry_Int_Tables_number   1
_chemical_formula_structural   Sr2GeO4
_chemical_formula_sum   'Sr32 Ge16 O64'
_cell_volume   1670.45739387
_cell_formula_units_Z   16
loop_
 _symmetry_equiv_pos_site_id
 _symmetry_equiv_pos_as_xyz
  1  'x, y, z'
loop_
 _atom_site_type_symbol
 _atom_site_label
 _atom_site_symmetry_multiplicity
 _atom_site_fract_x
 _atom_site_fract_y
 _atom_site_fract_z
 _atom_site_occupancy
  Sr  Sr0  1  0.14785625  0.17403846  0.56942974  1
  Sr  Sr1  1  0.14785625  0.67403846  0.56942974  1
  Sr  Sr2  1  0.64785625  0.17403846  0.56942974  1
  Sr  Sr3  1  0.64785625  0.67403846  0.56942974  1
  Sr  Sr4  1  0.35214375  0.42403846  0.93057026  1
  Sr  Sr5  1  0.35214375  0.92403846  0.93057026  1
  Sr  Sr6  1  0.85214375  0.42403846  0.93057026  1
  Sr  Sr7  1  0.85214375  0.92403846  0.93057026  1
  Sr  Sr8  1  0.35214375  0.32596154  0.43057026  1
  Sr  Sr9  1  0.35214375  0.82596154  0.43057026  1
  Sr  Sr10  1  0.85214375  0.32596154  0.43057026  1
  Sr  Sr11  1  0.85214375  0.82596154  0.43057026  1
  Sr  Sr12  1  0.14785625  0.07596154  0.06942974  1
  Sr  Sr13  1  0.14785625  0.57596154  0.06942974  1
  Sr  Sr14  1  0.64785625  0.07596154  0.06942974  1
  Sr  Sr15  1  0.64785625  0.57596154  0.06942974  1
  Sr  Sr16  1  0.00828407  0.49863444  0.30002058  1
  Sr  Sr17  1  0.00828407  0.99863444  0.30002058  1
  Sr  Sr18  1  0.50828407  0.49863444  0.30002058  1
  Sr  Sr19  1  0.50828407  0.99863444  0.30002058  1
  Sr  Sr20  1  0.49171593  0.24863444  0.19997942  1
  Sr  Sr21  1  0.49171593  0.74863444  0.19997942  1
  Sr  Sr22  1  0.99171593  0.24863444  0.19997942  1
  Sr  Sr23  1  0.99171593  0.74863444  0.19997942  1
  Sr  Sr24  1  0.49171593  0.00136556  0.69997942  1
  Sr  Sr25  1  0.49171593  0.50136556  0.69997942  1
  Sr  Sr26  1  0.99171593  0.00136556  0.69997942  1
  Sr  Sr27  1  0.99171593  0.50136556  0.69997942  1
  Sr  Sr28  1  0.00828407  0.25136556  0.80002058  1
  Sr  Sr29  1  0.00828407  0.75136556  0.80002058  1
  Sr  Sr30  1  0.50828407  0.25136556  0.80002058  1
  Sr  Sr31  1  0.50828407  0.75136556  0.80002058  1
  Ge  Ge32  1  0.17457057  0.39177274  0.58230074  1
  Ge  Ge33  1  0.17457057  0.89177274  0.58230074  1
  Ge  Ge34  1  0.67457057  0.39177274  0.58230074  1
  Ge  Ge35  1  0.67457057  0.89177274  0.58230074  1
  Ge  Ge36  1  0.32542943  0.14177274  0.91769926  1
  Ge  Ge37  1  0.32542943  0.64177274  0.91769926  1
  Ge  Ge38  1  0.82542943  0.14177274  0.91769926  1
  Ge  Ge39  1  0.82542943  0.64177274  0.91769926  1
  Ge  Ge40  1  0.32542943  0.10822726  0.41769926  1
  Ge  Ge41  1  0.32542943  0.60822726  0.41769926  1
  Ge  Ge42  1  0.82542943  0.10822726  0.41769926  1
  Ge  Ge43  1  0.82542943  0.60822726  0.41769926  1
  Ge  Ge44  1  0.17457057  0.35822726  0.08230074  1
  Ge  Ge45  1  0.17457057  0.85822726  0.08230074  1
  Ge  Ge46  1  0.67457057  0.35822726  0.08230074  1
  Ge  Ge47  1  0.67457057  0.85822726  0.08230074  1
  O  O48  1  0.13560767  0.01059209  0.55874414  1
  O  O49  1  0.13560767  0.51059209  0.55874414  1
  O  O50  1  0.63560767  0.01059209  0.55874414  1
  O  O51  1  0.63560767  0.51059209  0.55874414  1
  O  O52  1  0.36439233  0.26059209  0.94125586  1
  O  O53  1  0.36439233  0.76059209  0.94125586  1
  O  O54  1  0.86439233  0.26059209  0.94125586  1
  O  O55  1  0.86439233  0.76059209  0.94125586  1
  O  O56  1  0.36439233  0.48940791  0.44125586  1
  O  O57  1  0.36439233  0.98940791  0.44125586  1
  O  O58  1  0.86439233  0.48940791  0.44125586  1
  O  O59  1  0.86439233  0.98940791  0.44125586  1
  O  O60  1  0.13560767  0.23940791  0.05874414  1
  O  O61  1  0.13560767  0.73940791  0.05874414  1
  O  O62  1  0.63560767  0.23940791  0.05874414  1
  O  O63  1  0.63560767  0.73940791  0.05874414  1
  O  O64  1  0.13517549  0.33368681  0.42351817  1
  O  O65  1  0.13517549  0.83368681  0.42351817  1
  O  O66  1  0.63517549  0.33368681  0.42351817  1
  O  O67  1  0.63517549  0.83368681  0.42351817  1
  O  O68  1  0.36482451  0.08368681  0.07648183  1
  O  O69  1  0.36482451  0.58368681  0.07648183  1
  O  O70  1  0.86482451  0.08368681  0.07648183  1
  O  O71  1  0.86482451  0.58368681  0.07648183  1
  O  O72  1  0.36482451  0.16631319  0.57648183  1
  O  O73  1  0.36482451  0.66631319  0.57648183  1
  O  O74  1  0.86482451  0.16631319  0.57648183  1
  O  O75  1  0.86482451  0.66631319  0.57648183  1
  O  O76  1  0.13517549  0.41631319  0.92351817  1
  O  O77  1  0.13517549  0.91631319  0.92351817  1
  O  O78  1  0.63517549  0.41631319  0.92351817  1
  O  O79  1  0.63517549  0.91631319  0.92351817  1
  O  O80  1  0.06996665  0.33337402  0.63738932  1
  O  O81  1  0.06996665  0.83337402  0.63738932  1
  O  O82  1  0.56996665  0.33337402  0.63738932  1
  O  O83  1  0.56996665  0.83337402  0.63738932  1
  O  O84  1  0.43003335  0.08337402  0.86261068  1
  O  O85  1  0.43003335  0.58337402  0.86261068  1
  O  O86  1  0.93003335  0.08337402  0.86261068  1
  O  O87  1  0.93003335  0.58337402  0.86261068  1
  O  O88  1  0.43003335  0.16662598  0.36261068  1
  O  O89  1  0.43003335  0.66662598  0.36261068  1
  O  O90  1  0.93003335  0.16662598  0.36261068  1
  O  O91  1  0.93003335  0.66662598  0.36261068  1
  O  O92  1  0.06996665  0.41662598  0.13738932  1
  O  O93  1  0.06996665  0.91662598  0.13738932  1
  O  O94  1  0.56996665  0.41662598  0.13738932  1
  O  O95  1  0.56996665  0.91662598  0.13738932  1
  O  O96  1  0.33958741  0.37537991  0.69577871  1
  O  O97  1  0.33958741  0.87537991  0.69577871  1
  O  O98  1  0.83958741  0.37537991  0.69577871  1
  O  O99  1  0.83958741  0.87537991  0.69577871  1
  O  O100  1  0.16041259  0.12537991  0.80422129  1
  O  O101  1  0.16041259  0.62537991  0.80422129  1
  O  O102  1  0.66041259  0.12537991  0.80422129  1
  O  O103  1  0.66041259  0.62537991  0.80422129  1
  O  O104  1  0.16041259  0.12462009  0.30422129  1
  O  O105  1  0.16041259  0.62462009  0.30422129  1
  O  O106  1  0.66041259  0.12462009  0.30422129  1
  O  O107  1  0.66041259  0.62462009  0.30422129  1
  O  O108  1  0.33958741  0.37462009  0.19577871  1
  O  O109  1  0.33958741  0.87462009  0.19577871  1
  O  O110  1  0.83958741  0.37462009  0.19577871  1
  O  O111  1  0.83958741  0.87462009  0.19577871  1
