# generated using pymatgen
data_TaAlO4
_symmetry_space_group_name_H-M   'P 1'
_cell_length_a   12.16524381
_cell_length_b   11.37194441
_cell_length_c   12.89774486
_cell_angle_alpha   90.00000000
_cell_angle_beta   107.71638509
_cell_angle_gamma   90.00000000
_symmetry_Int_Tables_number   1
_chemical_formula_structural   TaAlO4
_chemical_formula_sum   'Ta24 Al24 O96'
_cell_volume   1699.68435446
_cell_formula_units_Z   24
loop_
 _symmetry_equiv_pos_site_id
 _symmetry_equiv_pos_as_xyz
  1  'x, y, z'
loop_
 _atom_site_type_symbol
 _atom_site_label
 _atom_site_symmetry_multiplicity
 _atom_site_fract_x
 _atom_site_fract_y
 _atom_site_fract_z
 _atom_site_occupancy
  Ta  Ta0  1  0.89403122  -0.00000000  0.38456644  1
  Ta  Ta1  1  0.89403122  -0.00000000  0.88456644  1
  Ta  Ta2  1  0.89403122  0.33333333  0.38456644  1
  Ta  Ta3  1  0.89403122  0.33333333  0.88456644  1
  Ta  Ta4  1  0.89403122  0.66666667  0.38456644  1
  Ta  Ta5  1  0.89403122  0.66666667  0.88456644  1
  Ta  Ta6  1  1.39403122  0.16666667  0.38456644  1
  Ta  Ta7  1  1.39403122  0.16666667  0.88456644  1
  Ta  Ta8  1  1.39403122  0.50000000  0.38456644  1
  Ta  Ta9  1  1.39403122  0.50000000  0.88456644  1
  Ta  Ta10  1  1.39403122  0.83333333  0.38456644  1
  Ta  Ta11  1  1.39403122  0.83333333  0.88456644  1
  Ta  Ta12  1  0.10596878  0.00000000  0.11543356  1
  Ta  Ta13  1  0.10596878  0.00000000  0.61543356  1
  Ta  Ta14  1  0.10596878  0.33333333  0.11543356  1
  Ta  Ta15  1  0.10596878  0.33333333  0.61543356  1
  Ta  Ta16  1  0.10596878  0.66666667  0.11543356  1
  Ta  Ta17  1  0.10596878  0.66666667  0.61543356  1
  Ta  Ta18  1  0.60596878  0.16666667  0.11543356  1
  Ta  Ta19  1  0.60596878  0.16666667  0.61543356  1
  Ta  Ta20  1  0.60596878  0.50000000  0.11543356  1
  Ta  Ta21  1  0.60596878  0.50000000  0.61543356  1
  Ta  Ta22  1  0.60596878  0.83333333  0.11543356  1
  Ta  Ta23  1  0.60596878  0.83333333  0.61543356  1
  Al  Al24  1  0.79906685  0.00000000  0.08986693  1
  Al  Al25  1  0.79906685  0.00000000  0.58986693  1
  Al  Al26  1  0.79906685  0.33333333  0.08986693  1
  Al  Al27  1  0.79906685  0.33333333  0.58986693  1
  Al  Al28  1  0.79906685  0.66666667  0.08986693  1
  Al  Al29  1  0.79906685  0.66666667  0.58986693  1
  Al  Al30  1  1.29906685  0.16666667  0.08986693  1
  Al  Al31  1  1.29906685  0.16666667  0.58986693  1
  Al  Al32  1  1.29906685  0.50000000  0.08986693  1
  Al  Al33  1  1.29906685  0.50000000  0.58986693  1
  Al  Al34  1  1.29906685  0.83333333  0.08986693  1
  Al  Al35  1  1.29906685  0.83333333  0.58986693  1
  Al  Al36  1  0.20093315  -0.00000000  0.41013307  1
  Al  Al37  1  0.20093315  -0.00000000  0.91013307  1
  Al  Al38  1  0.20093315  0.33333333  0.41013307  1
  Al  Al39  1  0.20093315  0.33333333  0.91013307  1
  Al  Al40  1  0.20093315  0.66666667  0.41013307  1
  Al  Al41  1  0.20093315  0.66666667  0.91013307  1
  Al  Al42  1  0.70093315  0.16666667  0.41013307  1
  Al  Al43  1  0.70093315  0.16666667  0.91013307  1
  Al  Al44  1  0.70093315  0.50000000  0.41013307  1
  Al  Al45  1  0.70093315  0.50000000  0.91013307  1
  Al  Al46  1  0.70093315  0.83333333  0.41013307  1
  Al  Al47  1  0.70093315  0.83333333  0.91013307  1
  O  O48  1  0.35802144  0.00000000  0.39894638  1
  O  O49  1  0.35802144  0.00000000  0.89894638  1
  O  O50  1  0.35802144  0.33333333  0.39894638  1
  O  O51  1  0.35802144  0.33333333  0.89894638  1
  O  O52  1  0.35802144  0.66666667  0.39894638  1
  O  O53  1  0.35802144  0.66666667  0.89894638  1
  O  O54  1  0.85802144  0.16666667  0.39894638  1
  O  O55  1  0.85802144  0.16666667  0.89894638  1
  O  O56  1  0.85802144  0.50000000  0.39894638  1
  O  O57  1  0.85802144  0.50000000  0.89894638  1
  O  O58  1  0.85802144  0.83333333  0.39894638  1
  O  O59  1  0.85802144  0.83333333  0.89894638  1
  O  O60  1  0.64197856  0.00000000  0.10105362  1
  O  O61  1  0.64197856  0.00000000  0.60105362  1
  O  O62  1  0.64197856  0.33333333  0.10105362  1
  O  O63  1  0.64197856  0.33333333  0.60105362  1
  O  O64  1  0.64197856  0.66666667  0.10105362  1
  O  O65  1  0.64197856  0.66666667  0.60105362  1
  O  O66  1  1.14197856  0.16666667  0.10105362  1
  O  O67  1  1.14197856  0.16666667  0.60105362  1
  O  O68  1  1.14197856  0.50000000  0.10105362  1
  O  O69  1  1.14197856  0.50000000  0.60105362  1
  O  O70  1  1.14197856  0.83333333  0.10105362  1
  O  O71  1  1.14197856  0.83333333  0.60105362  1
  O  O72  1  0.94210236  0.00000000  0.06701413  1
  O  O73  1  0.94210236  0.00000000  0.56701413  1
  O  O74  1  0.94210236  0.33333333  0.06701413  1
  O  O75  1  0.94210236  0.33333333  0.56701413  1
  O  O76  1  0.94210236  0.66666667  0.06701413  1
  O  O77  1  0.94210236  0.66666667  0.56701413  1
  O  O78  1  1.44210236  0.16666667  0.06701413  1
  O  O79  1  1.44210236  0.16666667  0.56701413  1
  O  O80  1  1.44210236  0.50000000  0.06701413  1
  O  O81  1  1.44210236  0.50000000  0.56701413  1
  O  O82  1  1.44210236  0.83333333  0.06701413  1
  O  O83  1  1.44210236  0.83333333  0.56701413  1
  O  O84  1  0.05789764  -0.00000000  0.43298587  1
  O  O85  1  0.05789764  -0.00000000  0.93298587  1
  O  O86  1  0.05789764  0.33333333  0.43298587  1
  O  O87  1  0.05789764  0.33333333  0.93298587  1
  O  O88  1  0.05789764  0.66666667  0.43298587  1
  O  O89  1  0.05789764  0.66666667  0.93298587  1
  O  O90  1  0.55789764  0.16666667  0.43298587  1
  O  O91  1  0.55789764  0.16666667  0.93298587  1
  O  O92  1  0.55789764  0.50000000  0.43298587  1
  O  O93  1  0.55789764  0.50000000  0.93298587  1
  O  O94  1  0.55789764  0.83333333  0.43298587  1
  O  O95  1  0.55789764  0.83333333  0.93298587  1
  O  O96  1  0.14108876  -0.00000000  0.26247327  1
  O  O97  1  0.14108876  -0.00000000  0.76247327  1
  O  O98  1  0.14108876  0.33333333  0.26247327  1
  O  O99  1  0.14108876  0.33333333  0.76247327  1
  O  O100  1  0.14108876  0.66666667  0.26247327  1
  O  O101  1  0.14108876  0.66666667  0.76247327  1
  O  O102  1  0.64108876  0.16666667  0.26247327  1
  O  O103  1  0.64108876  0.16666667  0.76247327  1
  O  O104  1  0.64108876  0.50000000  0.26247327  1
  O  O105  1  0.64108876  0.50000000  0.76247327  1
  O  O106  1  0.64108876  0.83333333  0.26247327  1
  O  O107  1  0.64108876  0.83333333  0.76247327  1
  O  O108  1  0.85891124  0.00000000  0.23752673  1
  O  O109  1  0.85891124  0.00000000  0.73752673  1
  O  O110  1  0.85891124  0.33333333  0.23752673  1
  O  O111  1  0.85891124  0.33333333  0.73752673  1
  O  O112  1  0.85891124  0.66666667  0.23752673  1
  O  O113  1  0.85891124  0.66666667  0.73752673  1
  O  O114  1  1.35891124  0.16666667  0.23752673  1
  O  O115  1  1.35891124  0.16666667  0.73752673  1
  O  O116  1  1.35891124  0.50000000  0.23752673  1
  O  O117  1  1.35891124  0.50000000  0.73752673  1
  O  O118  1  1.35891124  0.83333333  0.23752673  1
  O  O119  1  1.35891124  0.83333333  0.73752673  1
  O  O120  1  0.26244264  0.00000000  0.07124058  1
  O  O121  1  0.26244264  0.00000000  0.57124058  1
  O  O122  1  0.26244264  0.33333333  0.07124058  1
  O  O123  1  0.26244264  0.33333333  0.57124058  1
  O  O124  1  0.26244264  0.66666667  0.07124058  1
  O  O125  1  0.26244264  0.66666667  0.57124058  1
  O  O126  1  0.76244264  0.16666667  0.07124058  1
  O  O127  1  0.76244264  0.16666667  0.57124058  1
  O  O128  1  0.76244264  0.50000000  0.07124058  1
  O  O129  1  0.76244264  0.50000000  0.57124058  1
  O  O130  1  0.76244264  0.83333333  0.07124058  1
  O  O131  1  0.76244264  0.83333333  0.57124058  1
  O  O132  1  0.73755736  -0.00000000  0.42875942  1
  O  O133  1  0.73755736  -0.00000000  0.92875942  1
  O  O134  1  0.73755736  0.33333333  0.42875942  1
  O  O135  1  0.73755736  0.33333333  0.92875942  1
  O  O136  1  0.73755736  0.66666667  0.42875942  1
  O  O137  1  0.73755736  0.66666667  0.92875942  1
  O  O138  1  1.23755736  0.16666667  0.42875942  1
  O  O139  1  1.23755736  0.16666667  0.92875942  1
  O  O140  1  1.23755736  0.50000000  0.42875942  1
  O  O141  1  1.23755736  0.50000000  0.92875942  1
  O  O142  1  1.23755736  0.83333333  0.42875942  1
  O  O143  1  1.23755736  0.83333333  0.92875942  1
