# generated using pymatgen
data_Ba3V2O8
_symmetry_space_group_name_H-M   'P 1'
_cell_length_a   17.28539686
_cell_length_b   17.28539686
_cell_length_c   21.35445693
_cell_angle_alpha   90.00000000
_cell_angle_beta   90.00000000
_cell_angle_gamma   120.00000000
_symmetry_Int_Tables_number   1
_chemical_formula_structural   Ba3V2O8
_chemical_formula_sum   'Ba81 V54 O216'
_cell_volume   5525.58002398
_cell_formula_units_Z   27
loop_
 _symmetry_equiv_pos_site_id
 _symmetry_equiv_pos_as_xyz
  1  'x, y, z'
loop_
 _atom_site_type_symbol
 _atom_site_label
 _atom_site_symmetry_multiplicity
 _atom_site_fract_x
 _atom_site_fract_y
 _atom_site_fract_z
 _atom_site_occupancy
  Ba  Ba0  1  0.00000000  0.00000000  0.79467179  1
  Ba  Ba1  1  0.00000000  0.33333333  0.79467179  1
  Ba  Ba2  1  0.00000000  0.66666667  0.79467179  1
  Ba  Ba3  1  0.33333333  0.00000000  0.79467179  1
  Ba  Ba4  1  0.33333333  0.33333333  0.79467179  1
  Ba  Ba5  1  0.33333333  0.66666667  0.79467179  1
  Ba  Ba6  1  0.66666667  0.00000000  0.79467179  1
  Ba  Ba7  1  0.66666667  0.33333333  0.79467179  1
  Ba  Ba8  1  0.66666667  0.66666667  0.79467179  1
  Ba  Ba9  1  0.22222222  0.11111111  1.12800513  1
  Ba  Ba10  1  0.22222222  0.44444444  1.12800513  1
  Ba  Ba11  1  0.22222222  0.77777778  1.12800513  1
  Ba  Ba12  1  0.55555556  0.11111111  1.12800513  1
  Ba  Ba13  1  0.55555556  0.44444444  1.12800513  1
  Ba  Ba14  1  0.55555556  0.77777778  1.12800513  1
  Ba  Ba15  1  0.88888889  0.11111111  1.12800513  1
  Ba  Ba16  1  0.88888889  0.44444444  1.12800513  1
  Ba  Ba17  1  0.88888889  0.77777778  1.12800513  1
  Ba  Ba18  1  0.11111111  0.22222222  1.46133846  1
  Ba  Ba19  1  0.11111111  0.55555556  1.46133846  1
  Ba  Ba20  1  0.11111111  0.88888889  1.46133846  1
  Ba  Ba21  1  0.44444444  0.22222222  1.46133846  1
  Ba  Ba22  1  0.44444444  0.55555556  1.46133846  1
  Ba  Ba23  1  0.44444444  0.88888889  1.46133846  1
  Ba  Ba24  1  0.77777778  0.22222222  1.46133846  1
  Ba  Ba25  1  0.77777778  0.55555556  1.46133846  1
  Ba  Ba26  1  0.77777778  0.88888889  1.46133846  1
  Ba  Ba27  1  -0.00000000  -0.00000000  0.20532821  1
  Ba  Ba28  1  0.00000000  0.33333333  0.20532821  1
  Ba  Ba29  1  0.00000000  0.66666667  0.20532821  1
  Ba  Ba30  1  0.33333333  -0.00000000  0.20532821  1
  Ba  Ba31  1  0.33333333  0.33333333  0.20532821  1
  Ba  Ba32  1  0.33333333  0.66666667  0.20532821  1
  Ba  Ba33  1  0.66666667  -0.00000000  0.20532821  1
  Ba  Ba34  1  0.66666667  0.33333333  0.20532821  1
  Ba  Ba35  1  0.66666667  0.66666667  0.20532821  1
  Ba  Ba36  1  0.22222222  0.11111111  0.53866154  1
  Ba  Ba37  1  0.22222222  0.44444444  0.53866154  1
  Ba  Ba38  1  0.22222222  0.77777778  0.53866154  1
  Ba  Ba39  1  0.55555556  0.11111111  0.53866154  1
  Ba  Ba40  1  0.55555556  0.44444444  0.53866154  1
  Ba  Ba41  1  0.55555556  0.77777778  0.53866154  1
  Ba  Ba42  1  0.88888889  0.11111111  0.53866154  1
  Ba  Ba43  1  0.88888889  0.44444444  0.53866154  1
  Ba  Ba44  1  0.88888889  0.77777778  0.53866154  1
  Ba  Ba45  1  0.11111111  0.22222222  0.87199487  1
  Ba  Ba46  1  0.11111111  0.55555556  0.87199487  1
  Ba  Ba47  1  0.11111111  0.88888889  0.87199487  1
  Ba  Ba48  1  0.44444444  0.22222222  0.87199487  1
  Ba  Ba49  1  0.44444444  0.55555556  0.87199487  1
  Ba  Ba50  1  0.44444444  0.88888889  0.87199487  1
  Ba  Ba51  1  0.77777778  0.22222222  0.87199487  1
  Ba  Ba52  1  0.77777778  0.55555556  0.87199487  1
  Ba  Ba53  1  0.77777778  0.88888889  0.87199487  1
  Ba  Ba54  1  -0.00000000  -0.00000000  -0.00000000  1
  Ba  Ba55  1  0.00000000  0.33333333  -0.00000000  1
  Ba  Ba56  1  0.00000000  0.66666667  -0.00000000  1
  Ba  Ba57  1  0.33333333  -0.00000000  -0.00000000  1
  Ba  Ba58  1  0.33333333  0.33333333  -0.00000000  1
  Ba  Ba59  1  0.33333333  0.66666667  -0.00000000  1
  Ba  Ba60  1  0.66666667  -0.00000000  -0.00000000  1
  Ba  Ba61  1  0.66666667  0.33333333  -0.00000000  1
  Ba  Ba62  1  0.66666667  0.66666667  -0.00000000  1
  Ba  Ba63  1  0.22222222  0.11111111  0.33333333  1
  Ba  Ba64  1  0.22222222  0.44444444  0.33333333  1
  Ba  Ba65  1  0.22222222  0.77777778  0.33333333  1
  Ba  Ba66  1  0.55555556  0.11111111  0.33333333  1
  Ba  Ba67  1  0.55555556  0.44444444  0.33333333  1
  Ba  Ba68  1  0.55555556  0.77777778  0.33333333  1
  Ba  Ba69  1  0.88888889  0.11111111  0.33333333  1
  Ba  Ba70  1  0.88888889  0.44444444  0.33333333  1
  Ba  Ba71  1  0.88888889  0.77777778  0.33333333  1
  Ba  Ba72  1  0.11111111  0.22222222  0.66666667  1
  Ba  Ba73  1  0.11111111  0.55555556  0.66666667  1
  Ba  Ba74  1  0.11111111  0.88888889  0.66666667  1
  Ba  Ba75  1  0.44444444  0.22222222  0.66666667  1
  Ba  Ba76  1  0.44444444  0.55555556  0.66666667  1
  Ba  Ba77  1  0.44444444  0.88888889  0.66666667  1
  Ba  Ba78  1  0.77777778  0.22222222  0.66666667  1
  Ba  Ba79  1  0.77777778  0.55555556  0.66666667  1
  Ba  Ba80  1  0.77777778  0.88888889  0.66666667  1
  V  V81  1  -0.00000000  -0.00000000  0.40756963  1
  V  V82  1  -0.00000000  0.33333333  0.40756963  1
  V  V83  1  -0.00000000  0.66666667  0.40756963  1
  V  V84  1  0.33333333  -0.00000000  0.40756963  1
  V  V85  1  0.33333333  0.33333333  0.40756963  1
  V  V86  1  0.33333333  0.66666667  0.40756963  1
  V  V87  1  0.66666667  -0.00000000  0.40756963  1
  V  V88  1  0.66666667  0.33333333  0.40756963  1
  V  V89  1  0.66666667  0.66666667  0.40756963  1
  V  V90  1  0.22222222  0.11111111  0.74090296  1
  V  V91  1  0.22222222  0.44444444  0.74090296  1
  V  V92  1  0.22222222  0.77777778  0.74090296  1
  V  V93  1  0.55555556  0.11111111  0.74090296  1
  V  V94  1  0.55555556  0.44444444  0.74090296  1
  V  V95  1  0.55555556  0.77777778  0.74090296  1
  V  V96  1  0.88888889  0.11111111  0.74090296  1
  V  V97  1  0.88888889  0.44444444  0.74090296  1
  V  V98  1  0.88888889  0.77777778  0.74090296  1
  V  V99  1  0.11111111  0.22222222  1.07423630  1
  V  V100  1  0.11111111  0.55555556  1.07423630  1
  V  V101  1  0.11111111  0.88888889  1.07423630  1
  V  V102  1  0.44444444  0.22222222  1.07423630  1
  V  V103  1  0.44444444  0.55555556  1.07423630  1
  V  V104  1  0.44444444  0.88888889  1.07423630  1
  V  V105  1  0.77777778  0.22222222  1.07423630  1
  V  V106  1  0.77777778  0.55555556  1.07423630  1
  V  V107  1  0.77777778  0.88888889  1.07423630  1
  V  V108  1  0.00000000  -0.00000000  0.59243037  1
  V  V109  1  0.00000000  0.33333333  0.59243037  1
  V  V110  1  0.00000000  0.66666667  0.59243037  1
  V  V111  1  0.33333333  -0.00000000  0.59243037  1
  V  V112  1  0.33333333  0.33333333  0.59243037  1
  V  V113  1  0.33333333  0.66666667  0.59243037  1
  V  V114  1  0.66666667  -0.00000000  0.59243037  1
  V  V115  1  0.66666667  0.33333333  0.59243037  1
  V  V116  1  0.66666667  0.66666667  0.59243037  1
  V  V117  1  0.22222222  0.11111111  0.92576370  1
  V  V118  1  0.22222222  0.44444444  0.92576370  1
  V  V119  1  0.22222222  0.77777778  0.92576370  1
  V  V120  1  0.55555556  0.11111111  0.92576370  1
  V  V121  1  0.55555556  0.44444444  0.92576370  1
  V  V122  1  0.55555556  0.77777778  0.92576370  1
  V  V123  1  0.88888889  0.11111111  0.92576370  1
  V  V124  1  0.88888889  0.44444444  0.92576370  1
  V  V125  1  0.88888889  0.77777778  0.92576370  1
  V  V126  1  0.11111111  0.22222222  1.25909704  1
  V  V127  1  0.11111111  0.55555556  1.25909704  1
  V  V128  1  0.11111111  0.88888889  1.25909704  1
  V  V129  1  0.44444444  0.22222222  1.25909704  1
  V  V130  1  0.44444444  0.55555556  1.25909704  1
  V  V131  1  0.44444444  0.88888889  1.25909704  1
  V  V132  1  0.77777778  0.22222222  1.25909704  1
  V  V133  1  0.77777778  0.55555556  1.25909704  1
  V  V134  1  0.77777778  0.88888889  1.25909704  1
  O  O135  1  -0.00000000  -0.00000000  0.32747455  1
  O  O136  1  0.00000000  0.33333333  0.32747455  1
  O  O137  1  0.00000000  0.66666667  0.32747455  1
  O  O138  1  0.33333333  -0.00000000  0.32747455  1
  O  O139  1  0.33333333  0.33333333  0.32747455  1
  O  O140  1  0.33333333  0.66666667  0.32747455  1
  O  O141  1  0.66666667  -0.00000000  0.32747455  1
  O  O142  1  0.66666667  0.33333333  0.32747455  1
  O  O143  1  0.66666667  0.66666667  0.32747455  1
  O  O144  1  0.22222222  0.11111111  0.66080788  1
  O  O145  1  0.22222222  0.44444444  0.66080788  1
  O  O146  1  0.22222222  0.77777778  0.66080788  1
  O  O147  1  0.55555556  0.11111111  0.66080788  1
  O  O148  1  0.55555556  0.44444444  0.66080788  1
  O  O149  1  0.55555556  0.77777778  0.66080788  1
  O  O150  1  0.88888889  0.11111111  0.66080788  1
  O  O151  1  0.88888889  0.44444444  0.66080788  1
  O  O152  1  0.88888889  0.77777778  0.66080788  1
  O  O153  1  0.11111111  0.22222222  0.99414121  1
  O  O154  1  0.11111111  0.55555556  0.99414121  1
  O  O155  1  0.11111111  0.88888889  0.99414121  1
  O  O156  1  0.44444444  0.22222222  0.99414121  1
  O  O157  1  0.44444444  0.55555556  0.99414121  1
  O  O158  1  0.44444444  0.88888889  0.99414121  1
  O  O159  1  0.77777778  0.22222222  0.99414121  1
  O  O160  1  0.77777778  0.55555556  0.99414121  1
  O  O161  1  0.77777778  0.88888889  0.99414121  1
  O  O162  1  -0.00000000  0.00000000  0.67252545  1
  O  O163  1  0.00000000  0.33333333  0.67252545  1
  O  O164  1  0.00000000  0.66666667  0.67252545  1
  O  O165  1  0.33333333  0.00000000  0.67252545  1
  O  O166  1  0.33333333  0.33333333  0.67252545  1
  O  O167  1  0.33333333  0.66666667  0.67252545  1
  O  O168  1  0.66666667  0.00000000  0.67252545  1
  O  O169  1  0.66666667  0.33333333  0.67252545  1
  O  O170  1  0.66666667  0.66666667  0.67252545  1
  O  O171  1  0.22222222  0.11111111  1.00585879  1
  O  O172  1  0.22222222  0.44444444  1.00585879  1
  O  O173  1  0.22222222  0.77777778  1.00585879  1
  O  O174  1  0.55555556  0.11111111  1.00585879  1
  O  O175  1  0.55555556  0.44444444  1.00585879  1
  O  O176  1  0.55555556  0.77777778  1.00585879  1
  O  O177  1  0.88888889  0.11111111  1.00585879  1
  O  O178  1  0.88888889  0.44444444  1.00585879  1
  O  O179  1  0.88888889  0.77777778  1.00585879  1
  O  O180  1  0.11111111  0.22222222  1.33919212  1
  O  O181  1  0.11111111  0.55555556  1.33919212  1
  O  O182  1  0.11111111  0.88888889  1.33919212  1
  O  O183  1  0.44444444  0.22222222  1.33919212  1
  O  O184  1  0.44444444  0.55555556  1.33919212  1
  O  O185  1  0.44444444  0.88888889  1.33919212  1
  O  O186  1  0.77777778  0.22222222  1.33919212  1
  O  O187  1  0.77777778  0.55555556  1.33919212  1
  O  O188  1  0.77777778  0.88888889  1.33919212  1
  O  O189  1  -0.05426195  0.05426195  0.43489484  1
  O  O190  1  -0.05426195  0.38759528  0.43489484  1
  O  O191  1  -0.05426195  0.72092861  0.43489484  1
  O  O192  1  0.27907139  0.05426195  0.43489484  1
  O  O193  1  0.27907139  0.38759528  0.43489484  1
  O  O194  1  0.27907139  0.72092861  0.43489484  1
  O  O195  1  0.61240472  0.05426195  0.43489484  1
  O  O196  1  0.61240472  0.38759528  0.43489484  1
  O  O197  1  0.61240472  0.72092861  0.43489484  1
  O  O198  1  0.16796028  0.16537306  0.76822817  1
  O  O199  1  0.16796028  0.49870639  0.76822817  1
  O  O200  1  0.16796028  0.83203972  0.76822817  1
  O  O201  1  0.50129361  0.16537306  0.76822817  1
  O  O202  1  0.50129361  0.49870639  0.76822817  1
  O  O203  1  0.50129361  0.83203972  0.76822817  1
  O  O204  1  0.83462694  0.16537306  0.76822817  1
  O  O205  1  0.83462694  0.49870639  0.76822817  1
  O  O206  1  0.83462694  0.83203972  0.76822817  1
  O  O207  1  0.05684917  0.27648417  1.10156151  1
  O  O208  1  0.05684917  0.60981750  1.10156151  1
  O  O209  1  0.05684917  0.94315083  1.10156151  1
  O  O210  1  0.39018250  0.27648417  1.10156151  1
  O  O211  1  0.39018250  0.60981750  1.10156151  1
  O  O212  1  0.39018250  0.94315083  1.10156151  1
  O  O213  1  0.72351583  0.27648417  1.10156151  1
  O  O214  1  0.72351583  0.60981750  1.10156151  1
  O  O215  1  0.72351583  0.94315083  1.10156151  1
  O  O216  1  0.10852389  0.05426195  0.43489484  1
  O  O217  1  0.10852389  0.38759528  0.43489484  1
  O  O218  1  0.10852389  0.72092861  0.43489484  1
  O  O219  1  0.44185722  0.05426195  0.43489484  1
  O  O220  1  0.44185722  0.38759528  0.43489484  1
  O  O221  1  0.44185722  0.72092861  0.43489484  1
  O  O222  1  0.77519056  0.05426195  0.43489484  1
  O  O223  1  0.77519056  0.38759528  0.43489484  1
  O  O224  1  0.77519056  0.72092861  0.43489484  1
  O  O225  1  0.33074611  0.16537306  0.76822817  1
  O  O226  1  0.33074611  0.49870639  0.76822817  1
  O  O227  1  0.33074611  0.83203972  0.76822817  1
  O  O228  1  0.66407945  0.16537306  0.76822817  1
  O  O229  1  0.66407945  0.49870639  0.76822817  1
  O  O230  1  0.66407945  0.83203972  0.76822817  1
  O  O231  1  0.99741278  0.16537306  0.76822817  1
  O  O232  1  0.99741278  0.49870639  0.76822817  1
  O  O233  1  0.99741278  0.83203972  0.76822817  1
  O  O234  1  0.21963500  0.27648417  1.10156151  1
  O  O235  1  0.21963500  0.60981750  1.10156151  1
  O  O236  1  0.21963500  0.94315083  1.10156151  1
  O  O237  1  0.55296834  0.27648417  1.10156151  1
  O  O238  1  0.55296834  0.60981750  1.10156151  1
  O  O239  1  0.55296834  0.94315083  1.10156151  1
  O  O240  1  0.88630167  0.27648417  1.10156151  1
  O  O241  1  0.88630167  0.60981750  1.10156151  1
  O  O242  1  0.88630167  0.94315083  1.10156151  1
  O  O243  1  -0.05426195  -0.10852389  0.43489484  1
  O  O244  1  -0.05426195  0.22480944  0.43489484  1
  O  O245  1  -0.05426195  0.55814278  0.43489484  1
  O  O246  1  0.27907139  -0.10852389  0.43489484  1
  O  O247  1  0.27907139  0.22480944  0.43489484  1
  O  O248  1  0.27907139  0.55814278  0.43489484  1
  O  O249  1  0.61240472  -0.10852389  0.43489484  1
  O  O250  1  0.61240472  0.22480944  0.43489484  1
  O  O251  1  0.61240472  0.55814278  0.43489484  1
  O  O252  1  0.16796028  0.00258722  0.76822817  1
  O  O253  1  0.16796028  0.33592055  0.76822817  1
  O  O254  1  0.16796028  0.66925389  0.76822817  1
  O  O255  1  0.50129361  0.00258722  0.76822817  1
  O  O256  1  0.50129361  0.33592055  0.76822817  1
  O  O257  1  0.50129361  0.66925389  0.76822817  1
  O  O258  1  0.83462694  0.00258722  0.76822817  1
  O  O259  1  0.83462694  0.33592055  0.76822817  1
  O  O260  1  0.83462694  0.66925389  0.76822817  1
  O  O261  1  0.05684917  0.11369833  1.10156151  1
  O  O262  1  0.05684917  0.44703166  1.10156151  1
  O  O263  1  0.05684917  0.78036500  1.10156151  1
  O  O264  1  0.39018250  0.11369833  1.10156151  1
  O  O265  1  0.39018250  0.44703166  1.10156151  1
  O  O266  1  0.39018250  0.78036500  1.10156151  1
  O  O267  1  0.72351583  0.11369833  1.10156151  1
  O  O268  1  0.72351583  0.44703166  1.10156151  1
  O  O269  1  0.72351583  0.78036500  1.10156151  1
  O  O270  1  0.05426195  -0.05426195  0.56510516  1
  O  O271  1  0.05426195  0.27907139  0.56510516  1
  O  O272  1  0.05426195  0.61240472  0.56510516  1
  O  O273  1  0.38759528  -0.05426195  0.56510516  1
  O  O274  1  0.38759528  0.27907139  0.56510516  1
  O  O275  1  0.38759528  0.61240472  0.56510516  1
  O  O276  1  0.72092861  -0.05426195  0.56510516  1
  O  O277  1  0.72092861  0.27907139  0.56510516  1
  O  O278  1  0.72092861  0.61240472  0.56510516  1
  O  O279  1  0.27648417  0.05684917  0.89843849  1
  O  O280  1  0.27648417  0.39018250  0.89843849  1
  O  O281  1  0.27648417  0.72351583  0.89843849  1
  O  O282  1  0.60981750  0.05684917  0.89843849  1
  O  O283  1  0.60981750  0.39018250  0.89843849  1
  O  O284  1  0.60981750  0.72351583  0.89843849  1
  O  O285  1  0.94315083  0.05684917  0.89843849  1
  O  O286  1  0.94315083  0.39018250  0.89843849  1
  O  O287  1  0.94315083  0.72351583  0.89843849  1
  O  O288  1  0.16537306  0.16796028  1.23177183  1
  O  O289  1  0.16537306  0.50129361  1.23177183  1
  O  O290  1  0.16537306  0.83462694  1.23177183  1
  O  O291  1  0.49870639  0.16796028  1.23177183  1
  O  O292  1  0.49870639  0.50129361  1.23177183  1
  O  O293  1  0.49870639  0.83462694  1.23177183  1
  O  O294  1  0.83203972  0.16796028  1.23177183  1
  O  O295  1  0.83203972  0.50129361  1.23177183  1
  O  O296  1  0.83203972  0.83462694  1.23177183  1
  O  O297  1  0.05426195  0.10852389  0.56510516  1
  O  O298  1  0.05426195  0.44185722  0.56510516  1
  O  O299  1  0.05426195  0.77519056  0.56510516  1
  O  O300  1  0.38759528  0.10852389  0.56510516  1
  O  O301  1  0.38759528  0.44185722  0.56510516  1
  O  O302  1  0.38759528  0.77519056  0.56510516  1
  O  O303  1  0.72092861  0.10852389  0.56510516  1
  O  O304  1  0.72092861  0.44185722  0.56510516  1
  O  O305  1  0.72092861  0.77519056  0.56510516  1
  O  O306  1  0.27648417  0.21963500  0.89843849  1
  O  O307  1  0.27648417  0.55296834  0.89843849  1
  O  O308  1  0.27648417  0.88630167  0.89843849  1
  O  O309  1  0.60981750  0.21963500  0.89843849  1
  O  O310  1  0.60981750  0.55296834  0.89843849  1
  O  O311  1  0.60981750  0.88630167  0.89843849  1
  O  O312  1  0.94315083  0.21963500  0.89843849  1
  O  O313  1  0.94315083  0.55296834  0.89843849  1
  O  O314  1  0.94315083  0.88630167  0.89843849  1
  O  O315  1  0.16537306  0.33074611  1.23177183  1
  O  O316  1  0.16537306  0.66407945  1.23177183  1
  O  O317  1  0.16537306  0.99741278  1.23177183  1
  O  O318  1  0.49870639  0.33074611  1.23177183  1
  O  O319  1  0.49870639  0.66407945  1.23177183  1
  O  O320  1  0.49870639  0.99741278  1.23177183  1
  O  O321  1  0.83203972  0.33074611  1.23177183  1
  O  O322  1  0.83203972  0.66407945  1.23177183  1
  O  O323  1  0.83203972  0.99741278  1.23177183  1
  O  O324  1  -0.10852389  -0.05426195  0.56510516  1
  O  O325  1  -0.10852389  0.27907139  0.56510516  1
  O  O326  1  -0.10852389  0.61240472  0.56510516  1
  O  O327  1  0.22480944  -0.05426195  0.56510516  1
  O  O328  1  0.22480944  0.27907139  0.56510516  1
  O  O329  1  0.22480944  0.61240472  0.56510516  1
  O  O330  1  0.55814278  -0.05426195  0.56510516  1
  O  O331  1  0.55814278  0.27907139  0.56510516  1
  O  O332  1  0.55814278  0.61240472  0.56510516  1
  O  O333  1  0.11369833  0.05684917  0.89843849  1
  O  O334  1  0.11369833  0.39018250  0.89843849  1
  O  O335  1  0.11369833  0.72351583  0.89843849  1
  O  O336  1  0.44703166  0.05684917  0.89843849  1
  O  O337  1  0.44703166  0.39018250  0.89843849  1
  O  O338  1  0.44703166  0.72351583  0.89843849  1
  O  O339  1  0.78036500  0.05684917  0.89843849  1
  O  O340  1  0.78036500  0.39018250  0.89843849  1
  O  O341  1  0.78036500  0.72351583  0.89843849  1
  O  O342  1  0.00258722  0.16796028  1.23177183  1
  O  O343  1  0.00258722  0.50129361  1.23177183  1
  O  O344  1  0.00258722  0.83462694  1.23177183  1
  O  O345  1  0.33592055  0.16796028  1.23177183  1
  O  O346  1  0.33592055  0.50129361  1.23177183  1
  O  O347  1  0.33592055  0.83462694  1.23177183  1
  O  O348  1  0.66925389  0.16796028  1.23177183  1
  O  O349  1  0.66925389  0.50129361  1.23177183  1
  O  O350  1  0.66925389  0.83462694  1.23177183  1
