# generated using pymatgen
data_Zr(MoO4)2
_symmetry_space_group_name_H-M   'P 1'
_cell_length_a   11.78656717
_cell_length_b   11.78656717
_cell_length_c   12.57573933
_cell_angle_alpha   90.00000000
_cell_angle_beta   90.00000000
_cell_angle_gamma   120.00000000
_symmetry_Int_Tables_number   1
_chemical_formula_structural   Zr(MoO4)2
_chemical_formula_sum   'Zr8 Mo16 O64'
_cell_volume   1512.99965655
_cell_formula_units_Z   8
loop_
 _symmetry_equiv_pos_site_id
 _symmetry_equiv_pos_as_xyz
  1  'x, y, z'
loop_
 _atom_site_type_symbol
 _atom_site_label
 _atom_site_symmetry_multiplicity
 _atom_site_fract_x
 _atom_site_fract_y
 _atom_site_fract_z
 _atom_site_occupancy
  Zr  Zr0  1  0.00000000  0.00000000  0.00000000  1
  Zr  Zr1  1  0.00000000  0.00000000  0.50000000  1
  Zr  Zr2  1  -0.00000000  0.50000000  0.00000000  1
  Zr  Zr3  1  -0.00000000  0.50000000  0.50000000  1
  Zr  Zr4  1  0.50000000  0.00000000  0.00000000  1
  Zr  Zr5  1  0.50000000  0.00000000  0.50000000  1
  Zr  Zr6  1  0.50000000  0.50000000  0.00000000  1
  Zr  Zr7  1  0.50000000  0.50000000  0.50000000  1
  Mo  Mo8  1  0.16666667  0.33333333  0.14206051  1
  Mo  Mo9  1  0.16666667  0.33333333  0.64206051  1
  Mo  Mo10  1  0.16666667  0.83333333  0.14206051  1
  Mo  Mo11  1  0.16666667  0.83333333  0.64206051  1
  Mo  Mo12  1  0.66666667  0.33333333  0.14206051  1
  Mo  Mo13  1  0.66666667  0.33333333  0.64206051  1
  Mo  Mo14  1  0.66666667  0.83333333  0.14206051  1
  Mo  Mo15  1  0.66666667  0.83333333  0.64206051  1
  Mo  Mo16  1  0.33333333  0.16666667  0.35793949  1
  Mo  Mo17  1  0.33333333  0.16666667  0.85793949  1
  Mo  Mo18  1  0.33333333  0.66666667  0.35793949  1
  Mo  Mo19  1  0.33333333  0.66666667  0.85793949  1
  Mo  Mo20  1  0.83333333  0.16666667  0.35793949  1
  Mo  Mo21  1  0.83333333  0.16666667  0.85793949  1
  Mo  Mo22  1  0.83333333  0.66666667  0.35793949  1
  Mo  Mo23  1  0.83333333  0.66666667  0.85793949  1
  O  O24  1  0.33333333  0.16666667  0.22092713  1
  O  O25  1  0.33333333  0.16666667  0.72092713  1
  O  O26  1  0.33333333  0.66666667  0.22092713  1
  O  O27  1  0.33333333  0.66666667  0.72092713  1
  O  O28  1  0.83333333  0.16666667  0.22092713  1
  O  O29  1  0.83333333  0.16666667  0.72092713  1
  O  O30  1  0.83333333  0.66666667  0.22092713  1
  O  O31  1  0.83333333  0.66666667  0.72092713  1
  O  O32  1  0.16666667  0.33333333  0.27907287  1
  O  O33  1  0.16666667  0.33333333  0.77907287  1
  O  O34  1  0.16666667  0.83333333  0.27907287  1
  O  O35  1  0.16666667  0.83333333  0.77907287  1
  O  O36  1  0.66666667  0.33333333  0.27907287  1
  O  O37  1  0.66666667  0.33333333  0.77907287  1
  O  O38  1  0.66666667  0.83333333  0.27907287  1
  O  O39  1  0.66666667  0.83333333  0.77907287  1
  O  O40  1  0.41678520  0.08321480  0.40562607  1
  O  O41  1  0.41678520  0.08321480  0.90562607  1
  O  O42  1  0.41678520  0.58321480  0.40562607  1
  O  O43  1  0.41678520  0.58321480  0.90562607  1
  O  O44  1  0.91678520  0.08321480  0.40562607  1
  O  O45  1  0.91678520  0.08321480  0.90562607  1
  O  O46  1  0.91678520  0.58321480  0.40562607  1
  O  O47  1  0.91678520  0.58321480  0.90562607  1
  O  O48  1  0.08321480  0.41678520  0.09437393  1
  O  O49  1  0.08321480  0.41678520  0.59437393  1
  O  O50  1  0.08321480  0.91678520  0.09437393  1
  O  O51  1  0.08321480  0.91678520  0.59437393  1
  O  O52  1  0.58321480  0.41678520  0.09437393  1
  O  O53  1  0.58321480  0.41678520  0.59437393  1
  O  O54  1  0.58321480  0.91678520  0.09437393  1
  O  O55  1  0.58321480  0.91678520  0.59437393  1
  O  O56  1  0.08321480  0.16642960  0.09437393  1
  O  O57  1  0.08321480  0.16642960  0.59437393  1
  O  O58  1  0.08321480  0.66642960  0.09437393  1
  O  O59  1  0.08321480  0.66642960  0.59437393  1
  O  O60  1  0.58321480  0.16642960  0.09437393  1
  O  O61  1  0.58321480  0.16642960  0.59437393  1
  O  O62  1  0.58321480  0.66642960  0.09437393  1
  O  O63  1  0.58321480  0.66642960  0.59437393  1
  O  O64  1  0.33357040  0.41678520  0.09437393  1
  O  O65  1  0.33357040  0.41678520  0.59437393  1
  O  O66  1  0.33357040  0.91678520  0.09437393  1
  O  O67  1  0.33357040  0.91678520  0.59437393  1
  O  O68  1  0.83357040  0.41678520  0.09437393  1
  O  O69  1  0.83357040  0.41678520  0.59437393  1
  O  O70  1  0.83357040  0.91678520  0.09437393  1
  O  O71  1  0.83357040  0.91678520  0.59437393  1
  O  O72  1  0.16642960  0.08321480  0.40562607  1
  O  O73  1  0.16642960  0.08321480  0.90562607  1
  O  O74  1  0.16642960  0.58321480  0.40562607  1
  O  O75  1  0.16642960  0.58321480  0.90562607  1
  O  O76  1  0.66642960  0.08321480  0.40562607  1
  O  O77  1  0.66642960  0.08321480  0.90562607  1
  O  O78  1  0.66642960  0.58321480  0.40562607  1
  O  O79  1  0.66642960  0.58321480  0.90562607  1
  O  O80  1  0.41678520  0.33357040  0.40562607  1
  O  O81  1  0.41678520  0.33357040  0.90562607  1
  O  O82  1  0.41678520  0.83357040  0.40562607  1
  O  O83  1  0.41678520  0.83357040  0.90562607  1
  O  O84  1  0.91678520  0.33357040  0.40562607  1
  O  O85  1  0.91678520  0.33357040  0.90562607  1
  O  O86  1  0.91678520  0.83357040  0.40562607  1
  O  O87  1  0.91678520  0.83357040  0.90562607  1
