# generated using pymatgen
data_Rb2Cd2O3
_symmetry_space_group_name_H-M   'P 1'
_cell_length_a   12.97811069
_cell_length_b   13.51567031
_cell_length_c   13.78914060
_cell_angle_alpha   90.00000000
_cell_angle_beta   116.73529838
_cell_angle_gamma   90.00000000
_symmetry_Int_Tables_number   1
_chemical_formula_structural   Rb2Cd2O3
_chemical_formula_sum   'Rb32 Cd32 O48'
_cell_volume   2160.14862123
_cell_formula_units_Z   16
loop_
 _symmetry_equiv_pos_site_id
 _symmetry_equiv_pos_as_xyz
  1  'x, y, z'
loop_
 _atom_site_type_symbol
 _atom_site_label
 _atom_site_symmetry_multiplicity
 _atom_site_fract_x
 _atom_site_fract_y
 _atom_site_fract_z
 _atom_site_occupancy
  Rb  Rb0  1  0.41092368  0.32262559  0.03849904  1
  Rb  Rb1  1  0.41092368  0.32262559  0.53849904  1
  Rb  Rb2  1  0.41092368  0.82262559  0.03849904  1
  Rb  Rb3  1  0.41092368  0.82262559  0.53849904  1
  Rb  Rb4  1  0.91092368  0.32262559  0.03849904  1
  Rb  Rb5  1  0.91092368  0.32262559  0.53849904  1
  Rb  Rb6  1  0.91092368  0.82262559  0.03849904  1
  Rb  Rb7  1  0.91092368  0.82262559  0.53849904  1
  Rb  Rb8  1  0.08907632  0.17737441  0.46150096  1
  Rb  Rb9  1  0.08907632  0.17737441  0.96150096  1
  Rb  Rb10  1  0.08907632  0.67737441  0.46150096  1
  Rb  Rb11  1  0.08907632  0.67737441  0.96150096  1
  Rb  Rb12  1  0.58907632  0.17737441  0.46150096  1
  Rb  Rb13  1  0.58907632  0.17737441  0.96150096  1
  Rb  Rb14  1  0.58907632  0.67737441  0.46150096  1
  Rb  Rb15  1  0.58907632  0.67737441  0.96150096  1
  Rb  Rb16  1  0.08907632  0.07262559  0.21150096  1
  Rb  Rb17  1  0.08907632  0.07262559  0.71150096  1
  Rb  Rb18  1  0.08907632  0.57262559  0.21150096  1
  Rb  Rb19  1  0.08907632  0.57262559  0.71150096  1
  Rb  Rb20  1  0.58907632  0.07262559  0.21150096  1
  Rb  Rb21  1  0.58907632  0.07262559  0.71150096  1
  Rb  Rb22  1  0.58907632  0.57262559  0.21150096  1
  Rb  Rb23  1  0.58907632  0.57262559  0.71150096  1
  Rb  Rb24  1  0.41092368  0.42737441  0.28849904  1
  Rb  Rb25  1  0.41092368  0.42737441  0.78849904  1
  Rb  Rb26  1  0.41092368  0.92737441  0.28849904  1
  Rb  Rb27  1  0.41092368  0.92737441  0.78849904  1
  Rb  Rb28  1  0.91092368  0.42737441  0.28849904  1
  Rb  Rb29  1  0.91092368  0.42737441  0.78849904  1
  Rb  Rb30  1  0.91092368  0.92737441  0.28849904  1
  Rb  Rb31  1  0.91092368  0.92737441  0.78849904  1
  Cd  Cd32  1  0.16723304  0.43935693  0.03710302  1
  Cd  Cd33  1  0.16723304  0.43935693  0.53710302  1
  Cd  Cd34  1  0.16723304  0.93935693  0.03710302  1
  Cd  Cd35  1  0.16723304  0.93935693  0.53710302  1
  Cd  Cd36  1  0.66723304  0.43935693  0.03710302  1
  Cd  Cd37  1  0.66723304  0.43935693  0.53710302  1
  Cd  Cd38  1  0.66723304  0.93935693  0.03710302  1
  Cd  Cd39  1  0.66723304  0.93935693  0.53710302  1
  Cd  Cd40  1  0.33276696  0.06064307  0.46289698  1
  Cd  Cd41  1  0.33276696  0.06064307  0.96289698  1
  Cd  Cd42  1  0.33276696  0.56064307  0.46289698  1
  Cd  Cd43  1  0.33276696  0.56064307  0.96289698  1
  Cd  Cd44  1  0.83276696  0.06064307  0.46289698  1
  Cd  Cd45  1  0.83276696  0.06064307  0.96289698  1
  Cd  Cd46  1  0.83276696  0.56064307  0.46289698  1
  Cd  Cd47  1  0.83276696  0.56064307  0.96289698  1
  Cd  Cd48  1  0.33276696  0.18935693  0.21289698  1
  Cd  Cd49  1  0.33276696  0.18935693  0.71289698  1
  Cd  Cd50  1  0.33276696  0.68935693  0.21289698  1
  Cd  Cd51  1  0.33276696  0.68935693  0.71289698  1
  Cd  Cd52  1  0.83276696  0.18935693  0.21289698  1
  Cd  Cd53  1  0.83276696  0.18935693  0.71289698  1
  Cd  Cd54  1  0.83276696  0.68935693  0.21289698  1
  Cd  Cd55  1  0.83276696  0.68935693  0.71289698  1
  Cd  Cd56  1  0.16723304  0.31064307  0.28710302  1
  Cd  Cd57  1  0.16723304  0.31064307  0.78710302  1
  Cd  Cd58  1  0.16723304  0.81064307  0.28710302  1
  Cd  Cd59  1  0.16723304  0.81064307  0.78710302  1
  Cd  Cd60  1  0.66723304  0.31064307  0.28710302  1
  Cd  Cd61  1  0.66723304  0.31064307  0.78710302  1
  Cd  Cd62  1  0.66723304  0.81064307  0.28710302  1
  Cd  Cd63  1  0.66723304  0.81064307  0.78710302  1
  O  O64  1  0.19778872  0.30948582  0.14050972  1
  O  O65  1  0.19778872  0.30948582  0.64050972  1
  O  O66  1  0.19778872  0.80948582  0.14050972  1
  O  O67  1  0.19778872  0.80948582  0.64050972  1
  O  O68  1  0.69778872  0.30948582  0.14050972  1
  O  O69  1  0.69778872  0.30948582  0.64050972  1
  O  O70  1  0.69778872  0.80948582  0.14050972  1
  O  O71  1  0.69778872  0.80948582  0.64050972  1
  O  O72  1  0.30221128  0.19051418  0.35949028  1
  O  O73  1  0.30221128  0.19051418  0.85949028  1
  O  O74  1  0.30221128  0.69051418  0.35949028  1
  O  O75  1  0.30221128  0.69051418  0.85949028  1
  O  O76  1  0.80221128  0.19051418  0.35949028  1
  O  O77  1  0.80221128  0.19051418  0.85949028  1
  O  O78  1  0.80221128  0.69051418  0.35949028  1
  O  O79  1  0.80221128  0.69051418  0.85949028  1
  O  O80  1  0.30221128  0.05948582  0.10949028  1
  O  O81  1  0.30221128  0.05948582  0.60949028  1
  O  O82  1  0.30221128  0.55948582  0.10949028  1
  O  O83  1  0.30221128  0.55948582  0.60949028  1
  O  O84  1  0.80221128  0.05948582  0.10949028  1
  O  O85  1  0.80221128  0.05948582  0.60949028  1
  O  O86  1  0.80221128  0.55948582  0.10949028  1
  O  O87  1  0.80221128  0.55948582  0.60949028  1
  O  O88  1  0.19778872  0.44051418  0.39050972  1
  O  O89  1  0.19778872  0.44051418  0.89050972  1
  O  O90  1  0.19778872  0.94051418  0.39050972  1
  O  O91  1  0.19778872  0.94051418  0.89050972  1
  O  O92  1  0.69778872  0.44051418  0.39050972  1
  O  O93  1  0.69778872  0.44051418  0.89050972  1
  O  O94  1  0.69778872  0.94051418  0.39050972  1
  O  O95  1  0.69778872  0.94051418  0.89050972  1
  O  O96  1  0.00000000  0.00000000  0.00000000  1
  O  O97  1  0.00000000  0.00000000  0.50000000  1
  O  O98  1  0.00000000  0.50000000  0.00000000  1
  O  O99  1  0.00000000  0.50000000  0.50000000  1
  O  O100  1  0.50000000  0.00000000  0.00000000  1
  O  O101  1  0.50000000  0.00000000  0.50000000  1
  O  O102  1  0.50000000  0.50000000  0.00000000  1
  O  O103  1  0.50000000  0.50000000  0.50000000  1
  O  O104  1  0.00000000  0.25000000  0.25000000  1
  O  O105  1  0.00000000  0.25000000  0.75000000  1
  O  O106  1  0.00000000  0.75000000  0.25000000  1
  O  O107  1  0.00000000  0.75000000  0.75000000  1
  O  O108  1  0.50000000  0.25000000  0.25000000  1
  O  O109  1  0.50000000  0.25000000  0.75000000  1
  O  O110  1  0.50000000  0.75000000  0.25000000  1
  O  O111  1  0.50000000  0.75000000  0.75000000  1
