# generated using pymatgen
data_Ba3In2O6
_symmetry_space_group_name_H-M   'P 1'
_cell_length_a   17.94961587
_cell_length_b   17.94961587
_cell_length_c   21.64348509
_cell_angle_alpha   90.00000000
_cell_angle_beta   90.00000000
_cell_angle_gamma   90.00000000
_symmetry_Int_Tables_number   1
_chemical_formula_structural   Ba3In2O6
_chemical_formula_sum   'Ba108 In72 O216'
_cell_volume   6973.28653678
_cell_formula_units_Z   36
loop_
 _symmetry_equiv_pos_site_id
 _symmetry_equiv_pos_as_xyz
  1  'x, y, z'
loop_
 _atom_site_type_symbol
 _atom_site_label
 _atom_site_symmetry_multiplicity
 _atom_site_fract_x
 _atom_site_fract_y
 _atom_site_fract_z
 _atom_site_occupancy
  Ba  Ba0  1  -0.00000000  0.66666667  0.68233902  1
  Ba  Ba1  1  0.16666667  0.83333333  0.68233902  1
  Ba  Ba2  1  -0.00000000  0.33333333  0.68233902  1
  Ba  Ba3  1  0.16666667  0.50000000  0.68233902  1
  Ba  Ba4  1  0.33333333  0.66666667  0.68233902  1
  Ba  Ba5  1  0.50000000  0.83333333  0.68233902  1
  Ba  Ba6  1  0.00000000  -0.00000000  0.68233902  1
  Ba  Ba7  1  0.16666667  0.16666667  0.68233902  1
  Ba  Ba8  1  0.33333333  0.33333333  0.68233902  1
  Ba  Ba9  1  0.50000000  0.50000000  0.68233902  1
  Ba  Ba10  1  0.66666667  0.66666667  0.68233902  1
  Ba  Ba11  1  0.83333333  0.83333333  0.68233902  1
  Ba  Ba12  1  0.33333333  0.00000000  0.68233902  1
  Ba  Ba13  1  0.50000000  0.16666667  0.68233902  1
  Ba  Ba14  1  0.66666667  0.33333333  0.68233902  1
  Ba  Ba15  1  0.83333333  0.50000000  0.68233902  1
  Ba  Ba16  1  0.66666667  0.00000000  0.68233902  1
  Ba  Ba17  1  0.83333333  0.16666667  0.68233902  1
  Ba  Ba18  1  0.16666667  0.66666667  1.18233902  1
  Ba  Ba19  1  0.33333333  0.83333333  1.18233902  1
  Ba  Ba20  1  0.16666667  0.33333333  1.18233902  1
  Ba  Ba21  1  0.33333333  0.50000000  1.18233902  1
  Ba  Ba22  1  0.50000000  0.66666667  1.18233902  1
  Ba  Ba23  1  0.66666667  0.83333333  1.18233902  1
  Ba  Ba24  1  0.16666667  0.00000000  1.18233902  1
  Ba  Ba25  1  0.33333333  0.16666667  1.18233902  1
  Ba  Ba26  1  0.50000000  0.33333333  1.18233902  1
  Ba  Ba27  1  0.66666667  0.50000000  1.18233902  1
  Ba  Ba28  1  0.83333333  0.66666667  1.18233902  1
  Ba  Ba29  1  1.00000000  0.83333333  1.18233902  1
  Ba  Ba30  1  0.50000000  0.00000000  1.18233902  1
  Ba  Ba31  1  0.66666667  0.16666667  1.18233902  1
  Ba  Ba32  1  0.83333333  0.33333333  1.18233902  1
  Ba  Ba33  1  1.00000000  0.50000000  1.18233902  1
  Ba  Ba34  1  0.83333333  0.00000000  1.18233902  1
  Ba  Ba35  1  1.00000000  0.16666667  1.18233902  1
  Ba  Ba36  1  -0.00000000  0.66666667  0.31766098  1
  Ba  Ba37  1  0.16666667  0.83333333  0.31766098  1
  Ba  Ba38  1  -0.00000000  0.33333333  0.31766098  1
  Ba  Ba39  1  0.16666667  0.50000000  0.31766098  1
  Ba  Ba40  1  0.33333333  0.66666667  0.31766098  1
  Ba  Ba41  1  0.50000000  0.83333333  0.31766098  1
  Ba  Ba42  1  -0.00000000  0.00000000  0.31766098  1
  Ba  Ba43  1  0.16666667  0.16666667  0.31766098  1
  Ba  Ba44  1  0.33333333  0.33333333  0.31766098  1
  Ba  Ba45  1  0.50000000  0.50000000  0.31766098  1
  Ba  Ba46  1  0.66666667  0.66666667  0.31766098  1
  Ba  Ba47  1  0.83333333  0.83333333  0.31766098  1
  Ba  Ba48  1  0.33333333  0.00000000  0.31766098  1
  Ba  Ba49  1  0.50000000  0.16666667  0.31766098  1
  Ba  Ba50  1  0.66666667  0.33333333  0.31766098  1
  Ba  Ba51  1  0.83333333  0.50000000  0.31766098  1
  Ba  Ba52  1  0.66666667  0.00000000  0.31766098  1
  Ba  Ba53  1  0.83333333  0.16666667  0.31766098  1
  Ba  Ba54  1  0.16666667  0.66666667  0.81766098  1
  Ba  Ba55  1  0.33333333  0.83333333  0.81766098  1
  Ba  Ba56  1  0.16666667  0.33333333  0.81766098  1
  Ba  Ba57  1  0.33333333  0.50000000  0.81766098  1
  Ba  Ba58  1  0.50000000  0.66666667  0.81766098  1
  Ba  Ba59  1  0.66666667  0.83333333  0.81766098  1
  Ba  Ba60  1  0.16666667  0.00000000  0.81766098  1
  Ba  Ba61  1  0.33333333  0.16666667  0.81766098  1
  Ba  Ba62  1  0.50000000  0.33333333  0.81766098  1
  Ba  Ba63  1  0.66666667  0.50000000  0.81766098  1
  Ba  Ba64  1  0.83333333  0.66666667  0.81766098  1
  Ba  Ba65  1  1.00000000  0.83333333  0.81766098  1
  Ba  Ba66  1  0.50000000  0.00000000  0.81766098  1
  Ba  Ba67  1  0.66666667  0.16666667  0.81766098  1
  Ba  Ba68  1  0.83333333  0.33333333  0.81766098  1
  Ba  Ba69  1  1.00000000  0.50000000  0.81766098  1
  Ba  Ba70  1  0.83333333  0.00000000  0.81766098  1
  Ba  Ba71  1  1.00000000  0.16666667  0.81766098  1
  Ba  Ba72  1  -0.00000000  0.66666667  0.50000000  1
  Ba  Ba73  1  0.16666667  0.83333333  0.50000000  1
  Ba  Ba74  1  -0.00000000  0.33333333  0.50000000  1
  Ba  Ba75  1  0.16666667  0.50000000  0.50000000  1
  Ba  Ba76  1  0.33333333  0.66666667  0.50000000  1
  Ba  Ba77  1  0.50000000  0.83333333  0.50000000  1
  Ba  Ba78  1  0.00000000  0.00000000  0.50000000  1
  Ba  Ba79  1  0.16666667  0.16666667  0.50000000  1
  Ba  Ba80  1  0.33333333  0.33333333  0.50000000  1
  Ba  Ba81  1  0.50000000  0.50000000  0.50000000  1
  Ba  Ba82  1  0.66666667  0.66666667  0.50000000  1
  Ba  Ba83  1  0.83333333  0.83333333  0.50000000  1
  Ba  Ba84  1  0.33333333  0.00000000  0.50000000  1
  Ba  Ba85  1  0.50000000  0.16666667  0.50000000  1
  Ba  Ba86  1  0.66666667  0.33333333  0.50000000  1
  Ba  Ba87  1  0.83333333  0.50000000  0.50000000  1
  Ba  Ba88  1  0.66666667  0.00000000  0.50000000  1
  Ba  Ba89  1  0.83333333  0.16666667  0.50000000  1
  Ba  Ba90  1  0.16666667  0.66666667  1.00000000  1
  Ba  Ba91  1  0.33333333  0.83333333  1.00000000  1
  Ba  Ba92  1  0.16666667  0.33333333  1.00000000  1
  Ba  Ba93  1  0.33333333  0.50000000  1.00000000  1
  Ba  Ba94  1  0.50000000  0.66666667  1.00000000  1
  Ba  Ba95  1  0.66666667  0.83333333  1.00000000  1
  Ba  Ba96  1  0.16666667  0.00000000  1.00000000  1
  Ba  Ba97  1  0.33333333  0.16666667  1.00000000  1
  Ba  Ba98  1  0.50000000  0.33333333  1.00000000  1
  Ba  Ba99  1  0.66666667  0.50000000  1.00000000  1
  Ba  Ba100  1  0.83333333  0.66666667  1.00000000  1
  Ba  Ba101  1  1.00000000  0.83333333  1.00000000  1
  Ba  Ba102  1  0.50000000  0.00000000  1.00000000  1
  Ba  Ba103  1  0.66666667  0.16666667  1.00000000  1
  Ba  Ba104  1  0.83333333  0.33333333  1.00000000  1
  Ba  Ba105  1  1.00000000  0.50000000  1.00000000  1
  Ba  Ba106  1  0.83333333  0.00000000  1.00000000  1
  Ba  Ba107  1  1.00000000  0.16666667  1.00000000  1
  In  In108  1  -0.00000000  0.66666667  0.89746712  1
  In  In109  1  0.16666667  0.83333333  0.89746712  1
  In  In110  1  -0.00000000  0.33333333  0.89746712  1
  In  In111  1  0.16666667  0.50000000  0.89746712  1
  In  In112  1  0.33333333  0.66666667  0.89746712  1
  In  In113  1  0.50000000  0.83333333  0.89746712  1
  In  In114  1  0.00000000  0.00000000  0.89746712  1
  In  In115  1  0.16666667  0.16666667  0.89746712  1
  In  In116  1  0.33333333  0.33333333  0.89746712  1
  In  In117  1  0.50000000  0.50000000  0.89746712  1
  In  In118  1  0.66666667  0.66666667  0.89746712  1
  In  In119  1  0.83333333  0.83333333  0.89746712  1
  In  In120  1  0.33333333  0.00000000  0.89746712  1
  In  In121  1  0.50000000  0.16666667  0.89746712  1
  In  In122  1  0.66666667  0.33333333  0.89746712  1
  In  In123  1  0.83333333  0.50000000  0.89746712  1
  In  In124  1  0.66666667  0.00000000  0.89746712  1
  In  In125  1  0.83333333  0.16666667  0.89746712  1
  In  In126  1  0.16666667  0.66666667  1.39746712  1
  In  In127  1  0.33333333  0.83333333  1.39746712  1
  In  In128  1  0.16666667  0.33333333  1.39746712  1
  In  In129  1  0.33333333  0.50000000  1.39746712  1
  In  In130  1  0.50000000  0.66666667  1.39746712  1
  In  In131  1  0.66666667  0.83333333  1.39746712  1
  In  In132  1  0.16666667  0.00000000  1.39746712  1
  In  In133  1  0.33333333  0.16666667  1.39746712  1
  In  In134  1  0.50000000  0.33333333  1.39746712  1
  In  In135  1  0.66666667  0.50000000  1.39746712  1
  In  In136  1  0.83333333  0.66666667  1.39746712  1
  In  In137  1  1.00000000  0.83333333  1.39746712  1
  In  In138  1  0.50000000  0.00000000  1.39746712  1
  In  In139  1  0.66666667  0.16666667  1.39746712  1
  In  In140  1  0.83333333  0.33333333  1.39746712  1
  In  In141  1  1.00000000  0.50000000  1.39746712  1
  In  In142  1  0.83333333  0.00000000  1.39746712  1
  In  In143  1  1.00000000  0.16666667  1.39746712  1
  In  In144  1  -0.00000000  0.66666667  0.10253288  1
  In  In145  1  0.16666667  0.83333333  0.10253288  1
  In  In146  1  -0.00000000  0.33333333  0.10253288  1
  In  In147  1  0.16666667  0.50000000  0.10253288  1
  In  In148  1  0.33333333  0.66666667  0.10253288  1
  In  In149  1  0.50000000  0.83333333  0.10253288  1
  In  In150  1  -0.00000000  0.00000000  0.10253288  1
  In  In151  1  0.16666667  0.16666667  0.10253288  1
  In  In152  1  0.33333333  0.33333333  0.10253288  1
  In  In153  1  0.50000000  0.50000000  0.10253288  1
  In  In154  1  0.66666667  0.66666667  0.10253288  1
  In  In155  1  0.83333333  0.83333333  0.10253288  1
  In  In156  1  0.33333333  0.00000000  0.10253288  1
  In  In157  1  0.50000000  0.16666667  0.10253288  1
  In  In158  1  0.66666667  0.33333333  0.10253288  1
  In  In159  1  0.83333333  0.50000000  0.10253288  1
  In  In160  1  0.66666667  0.00000000  0.10253288  1
  In  In161  1  0.83333333  0.16666667  0.10253288  1
  In  In162  1  0.16666667  0.66666667  0.60253288  1
  In  In163  1  0.33333333  0.83333333  0.60253288  1
  In  In164  1  0.16666667  0.33333333  0.60253288  1
  In  In165  1  0.33333333  0.50000000  0.60253288  1
  In  In166  1  0.50000000  0.66666667  0.60253288  1
  In  In167  1  0.66666667  0.83333333  0.60253288  1
  In  In168  1  0.16666667  0.00000000  0.60253288  1
  In  In169  1  0.33333333  0.16666667  0.60253288  1
  In  In170  1  0.50000000  0.33333333  0.60253288  1
  In  In171  1  0.66666667  0.50000000  0.60253288  1
  In  In172  1  0.83333333  0.66666667  0.60253288  1
  In  In173  1  1.00000000  0.83333333  0.60253288  1
  In  In174  1  0.50000000  0.00000000  0.60253288  1
  In  In175  1  0.66666667  0.16666667  0.60253288  1
  In  In176  1  0.83333333  0.33333333  0.60253288  1
  In  In177  1  1.00000000  0.50000000  0.60253288  1
  In  In178  1  0.83333333  0.00000000  0.60253288  1
  In  In179  1  1.00000000  0.16666667  0.60253288  1
  O  O180  1  -0.00000000  0.66666667  0.80012869  1
  O  O181  1  0.16666667  0.83333333  0.80012869  1
  O  O182  1  -0.00000000  0.33333333  0.80012869  1
  O  O183  1  0.16666667  0.50000000  0.80012869  1
  O  O184  1  0.33333333  0.66666667  0.80012869  1
  O  O185  1  0.50000000  0.83333333  0.80012869  1
  O  O186  1  -0.00000000  0.00000000  0.80012869  1
  O  O187  1  0.16666667  0.16666667  0.80012869  1
  O  O188  1  0.33333333  0.33333333  0.80012869  1
  O  O189  1  0.50000000  0.50000000  0.80012869  1
  O  O190  1  0.66666667  0.66666667  0.80012869  1
  O  O191  1  0.83333333  0.83333333  0.80012869  1
  O  O192  1  0.33333333  0.00000000  0.80012869  1
  O  O193  1  0.50000000  0.16666667  0.80012869  1
  O  O194  1  0.66666667  0.33333333  0.80012869  1
  O  O195  1  0.83333333  0.50000000  0.80012869  1
  O  O196  1  0.66666667  0.00000000  0.80012869  1
  O  O197  1  0.83333333  0.16666667  0.80012869  1
  O  O198  1  0.16666667  0.66666667  1.30012869  1
  O  O199  1  0.33333333  0.83333333  1.30012869  1
  O  O200  1  0.16666667  0.33333333  1.30012869  1
  O  O201  1  0.33333333  0.50000000  1.30012869  1
  O  O202  1  0.50000000  0.66666667  1.30012869  1
  O  O203  1  0.66666667  0.83333333  1.30012869  1
  O  O204  1  0.16666667  0.00000000  1.30012869  1
  O  O205  1  0.33333333  0.16666667  1.30012869  1
  O  O206  1  0.50000000  0.33333333  1.30012869  1
  O  O207  1  0.66666667  0.50000000  1.30012869  1
  O  O208  1  0.83333333  0.66666667  1.30012869  1
  O  O209  1  1.00000000  0.83333333  1.30012869  1
  O  O210  1  0.50000000  0.00000000  1.30012869  1
  O  O211  1  0.66666667  0.16666667  1.30012869  1
  O  O212  1  0.83333333  0.33333333  1.30012869  1
  O  O213  1  1.00000000  0.50000000  1.30012869  1
  O  O214  1  0.83333333  0.00000000  1.30012869  1
  O  O215  1  1.00000000  0.16666667  1.30012869  1
  O  O216  1  -0.00000000  0.66666667  0.19987131  1
  O  O217  1  0.16666667  0.83333333  0.19987131  1
  O  O218  1  -0.00000000  0.33333333  0.19987131  1
  O  O219  1  0.16666667  0.50000000  0.19987131  1
  O  O220  1  0.33333333  0.66666667  0.19987131  1
  O  O221  1  0.50000000  0.83333333  0.19987131  1
  O  O222  1  0.00000000  -0.00000000  0.19987131  1
  O  O223  1  0.16666667  0.16666667  0.19987131  1
  O  O224  1  0.33333333  0.33333333  0.19987131  1
  O  O225  1  0.50000000  0.50000000  0.19987131  1
  O  O226  1  0.66666667  0.66666667  0.19987131  1
  O  O227  1  0.83333333  0.83333333  0.19987131  1
  O  O228  1  0.33333333  0.00000000  0.19987131  1
  O  O229  1  0.50000000  0.16666667  0.19987131  1
  O  O230  1  0.66666667  0.33333333  0.19987131  1
  O  O231  1  0.83333333  0.50000000  0.19987131  1
  O  O232  1  0.66666667  0.00000000  0.19987131  1
  O  O233  1  0.83333333  0.16666667  0.19987131  1
  O  O234  1  0.16666667  0.66666667  0.69987131  1
  O  O235  1  0.33333333  0.83333333  0.69987131  1
  O  O236  1  0.16666667  0.33333333  0.69987131  1
  O  O237  1  0.33333333  0.50000000  0.69987131  1
  O  O238  1  0.50000000  0.66666667  0.69987131  1
  O  O239  1  0.66666667  0.83333333  0.69987131  1
  O  O240  1  0.16666667  0.00000000  0.69987131  1
  O  O241  1  0.33333333  0.16666667  0.69987131  1
  O  O242  1  0.50000000  0.33333333  0.69987131  1
  O  O243  1  0.66666667  0.50000000  0.69987131  1
  O  O244  1  0.83333333  0.66666667  0.69987131  1
  O  O245  1  1.00000000  0.83333333  0.69987131  1
  O  O246  1  0.50000000  0.00000000  0.69987131  1
  O  O247  1  0.66666667  0.16666667  0.69987131  1
  O  O248  1  0.83333333  0.33333333  0.69987131  1
  O  O249  1  1.00000000  0.50000000  0.69987131  1
  O  O250  1  0.83333333  0.00000000  0.69987131  1
  O  O251  1  1.00000000  0.16666667  0.69987131  1
  O  O252  1  0.08333333  0.58333333  0.41696906  1
  O  O253  1  0.25000000  0.75000000  0.41696906  1
  O  O254  1  0.08333333  0.25000000  0.41696906  1
  O  O255  1  0.25000000  0.41666667  0.41696906  1
  O  O256  1  0.41666667  0.58333333  0.41696906  1
  O  O257  1  0.58333333  0.75000000  0.41696906  1
  O  O258  1  0.08333333  -0.08333333  0.41696906  1
  O  O259  1  0.25000000  0.08333333  0.41696906  1
  O  O260  1  0.41666667  0.25000000  0.41696906  1
  O  O261  1  0.58333333  0.41666667  0.41696906  1
  O  O262  1  0.75000000  0.58333333  0.41696906  1
  O  O263  1  0.91666667  0.75000000  0.41696906  1
  O  O264  1  0.41666667  -0.08333333  0.41696906  1
  O  O265  1  0.58333333  0.08333333  0.41696906  1
  O  O266  1  0.75000000  0.25000000  0.41696906  1
  O  O267  1  0.91666667  0.41666667  0.41696906  1
  O  O268  1  0.75000000  -0.08333333  0.41696906  1
  O  O269  1  0.91666667  0.08333333  0.41696906  1
  O  O270  1  0.25000000  0.58333333  0.91696906  1
  O  O271  1  0.41666667  0.75000000  0.91696906  1
  O  O272  1  0.25000000  0.25000000  0.91696906  1
  O  O273  1  0.41666667  0.41666667  0.91696906  1
  O  O274  1  0.58333333  0.58333333  0.91696906  1
  O  O275  1  0.75000000  0.75000000  0.91696906  1
  O  O276  1  0.25000000  -0.08333333  0.91696906  1
  O  O277  1  0.41666667  0.08333333  0.91696906  1
  O  O278  1  0.58333333  0.25000000  0.91696906  1
  O  O279  1  0.75000000  0.41666667  0.91696906  1
  O  O280  1  0.91666667  0.58333333  0.91696906  1
  O  O281  1  1.08333333  0.75000000  0.91696906  1
  O  O282  1  0.58333333  -0.08333333  0.91696906  1
  O  O283  1  0.75000000  0.08333333  0.91696906  1
  O  O284  1  0.91666667  0.25000000  0.91696906  1
  O  O285  1  1.08333333  0.41666667  0.91696906  1
  O  O286  1  0.91666667  -0.08333333  0.91696906  1
  O  O287  1  1.08333333  0.08333333  0.91696906  1
  O  O288  1  0.08333333  0.75000000  0.41696906  1
  O  O289  1  0.25000000  0.91666667  0.41696906  1
  O  O290  1  0.08333333  0.41666667  0.41696906  1
  O  O291  1  0.25000000  0.58333333  0.41696906  1
  O  O292  1  0.41666667  0.75000000  0.41696906  1
  O  O293  1  0.58333333  0.91666667  0.41696906  1
  O  O294  1  0.08333333  0.08333333  0.41696906  1
  O  O295  1  0.25000000  0.25000000  0.41696906  1
  O  O296  1  0.41666667  0.41666667  0.41696906  1
  O  O297  1  0.58333333  0.58333333  0.41696906  1
  O  O298  1  0.75000000  0.75000000  0.41696906  1
  O  O299  1  0.91666667  0.91666667  0.41696906  1
  O  O300  1  0.41666667  0.08333333  0.41696906  1
  O  O301  1  0.58333333  0.25000000  0.41696906  1
  O  O302  1  0.75000000  0.41666667  0.41696906  1
  O  O303  1  0.91666667  0.58333333  0.41696906  1
  O  O304  1  0.75000000  0.08333333  0.41696906  1
  O  O305  1  0.91666667  0.25000000  0.41696906  1
  O  O306  1  0.25000000  0.75000000  0.91696906  1
  O  O307  1  0.41666667  0.91666667  0.91696906  1
  O  O308  1  0.25000000  0.41666667  0.91696906  1
  O  O309  1  0.41666667  0.58333333  0.91696906  1
  O  O310  1  0.58333333  0.75000000  0.91696906  1
  O  O311  1  0.75000000  0.91666667  0.91696906  1
  O  O312  1  0.25000000  0.08333333  0.91696906  1
  O  O313  1  0.41666667  0.25000000  0.91696906  1
  O  O314  1  0.58333333  0.41666667  0.91696906  1
  O  O315  1  0.75000000  0.58333333  0.91696906  1
  O  O316  1  0.91666667  0.75000000  0.91696906  1
  O  O317  1  1.08333333  0.91666667  0.91696906  1
  O  O318  1  0.58333333  0.08333333  0.91696906  1
  O  O319  1  0.75000000  0.25000000  0.91696906  1
  O  O320  1  0.91666667  0.41666667  0.91696906  1
  O  O321  1  1.08333333  0.58333333  0.91696906  1
  O  O322  1  0.91666667  0.08333333  0.91696906  1
  O  O323  1  1.08333333  0.25000000  0.91696906  1
  O  O324  1  0.08333333  0.75000000  0.08303094  1
  O  O325  1  0.25000000  0.91666667  0.08303094  1
  O  O326  1  0.08333333  0.41666667  0.08303094  1
  O  O327  1  0.25000000  0.58333333  0.08303094  1
  O  O328  1  0.41666667  0.75000000  0.08303094  1
  O  O329  1  0.58333333  0.91666667  0.08303094  1
  O  O330  1  0.08333333  0.08333333  0.08303094  1
  O  O331  1  0.25000000  0.25000000  0.08303094  1
  O  O332  1  0.41666667  0.41666667  0.08303094  1
  O  O333  1  0.58333333  0.58333333  0.08303094  1
  O  O334  1  0.75000000  0.75000000  0.08303094  1
  O  O335  1  0.91666667  0.91666667  0.08303094  1
  O  O336  1  0.41666667  0.08333333  0.08303094  1
  O  O337  1  0.58333333  0.25000000  0.08303094  1
  O  O338  1  0.75000000  0.41666667  0.08303094  1
  O  O339  1  0.91666667  0.58333333  0.08303094  1
  O  O340  1  0.75000000  0.08333333  0.08303094  1
  O  O341  1  0.91666667  0.25000000  0.08303094  1
  O  O342  1  0.25000000  0.75000000  0.58303094  1
  O  O343  1  0.41666667  0.91666667  0.58303094  1
  O  O344  1  0.25000000  0.41666667  0.58303094  1
  O  O345  1  0.41666667  0.58333333  0.58303094  1
  O  O346  1  0.58333333  0.75000000  0.58303094  1
  O  O347  1  0.75000000  0.91666667  0.58303094  1
  O  O348  1  0.25000000  0.08333333  0.58303094  1
  O  O349  1  0.41666667  0.25000000  0.58303094  1
  O  O350  1  0.58333333  0.41666667  0.58303094  1
  O  O351  1  0.75000000  0.58333333  0.58303094  1
  O  O352  1  0.91666667  0.75000000  0.58303094  1
  O  O353  1  1.08333333  0.91666667  0.58303094  1
  O  O354  1  0.58333333  0.08333333  0.58303094  1
  O  O355  1  0.75000000  0.25000000  0.58303094  1
  O  O356  1  0.91666667  0.41666667  0.58303094  1
  O  O357  1  1.08333333  0.58333333  0.58303094  1
  O  O358  1  0.91666667  0.08333333  0.58303094  1
  O  O359  1  1.08333333  0.25000000  0.58303094  1
  O  O360  1  0.08333333  0.58333333  0.08303094  1
  O  O361  1  0.25000000  0.75000000  0.08303094  1
  O  O362  1  0.08333333  0.25000000  0.08303094  1
  O  O363  1  0.25000000  0.41666667  0.08303094  1
  O  O364  1  0.41666667  0.58333333  0.08303094  1
  O  O365  1  0.58333333  0.75000000  0.08303094  1
  O  O366  1  0.08333333  -0.08333333  0.08303094  1
  O  O367  1  0.25000000  0.08333333  0.08303094  1
  O  O368  1  0.41666667  0.25000000  0.08303094  1
  O  O369  1  0.58333333  0.41666667  0.08303094  1
  O  O370  1  0.75000000  0.58333333  0.08303094  1
  O  O371  1  0.91666667  0.75000000  0.08303094  1
  O  O372  1  0.41666667  -0.08333333  0.08303094  1
  O  O373  1  0.58333333  0.08333333  0.08303094  1
  O  O374  1  0.75000000  0.25000000  0.08303094  1
  O  O375  1  0.91666667  0.41666667  0.08303094  1
  O  O376  1  0.75000000  -0.08333333  0.08303094  1
  O  O377  1  0.91666667  0.08333333  0.08303094  1
  O  O378  1  0.25000000  0.58333333  0.58303094  1
  O  O379  1  0.41666667  0.75000000  0.58303094  1
  O  O380  1  0.25000000  0.25000000  0.58303094  1
  O  O381  1  0.41666667  0.41666667  0.58303094  1
  O  O382  1  0.58333333  0.58333333  0.58303094  1
  O  O383  1  0.75000000  0.75000000  0.58303094  1
  O  O384  1  0.25000000  -0.08333333  0.58303094  1
  O  O385  1  0.41666667  0.08333333  0.58303094  1
  O  O386  1  0.58333333  0.25000000  0.58303094  1
  O  O387  1  0.75000000  0.41666667  0.58303094  1
  O  O388  1  0.91666667  0.58333333  0.58303094  1
  O  O389  1  1.08333333  0.75000000  0.58303094  1
  O  O390  1  0.58333333  -0.08333333  0.58303094  1
  O  O391  1  0.75000000  0.08333333  0.58303094  1
  O  O392  1  0.91666667  0.25000000  0.58303094  1
  O  O393  1  1.08333333  0.41666667  0.58303094  1
  O  O394  1  0.91666667  -0.08333333  0.58303094  1
  O  O395  1  1.08333333  0.08333333  0.58303094  1
