# generated using pymatgen
data_Zn(SbO3)2
_symmetry_space_group_name_H-M   'P 1'
_cell_length_a   9.34117145
_cell_length_b   9.34117145
_cell_length_c   9.28625778
_cell_angle_alpha   90.00000000
_cell_angle_beta   90.00000000
_cell_angle_gamma   90.00000000
_symmetry_Int_Tables_number   1
_chemical_formula_structural   Zn(SbO3)2
_chemical_formula_sum   'Zn8 Sb16 O48'
_cell_volume   810.29548929
_cell_formula_units_Z   8
loop_
 _symmetry_equiv_pos_site_id
 _symmetry_equiv_pos_as_xyz
  1  'x, y, z'
loop_
 _atom_site_type_symbol
 _atom_site_label
 _atom_site_symmetry_multiplicity
 _atom_site_fract_x
 _atom_site_fract_y
 _atom_site_fract_z
 _atom_site_occupancy
  Zn  Zn0  1  0.00000000  0.50000000  0.00000000  1
  Zn  Zn1  1  0.50000000  0.50000000  0.00000000  1
  Zn  Zn2  1  0.00000000  0.00000000  0.00000000  1
  Zn  Zn3  1  0.50000000  0.00000000  0.00000000  1
  Zn  Zn4  1  0.25000000  0.25000000  0.50000000  1
  Zn  Zn5  1  0.75000000  0.25000000  0.50000000  1
  Zn  Zn6  1  0.25000000  -0.25000000  0.50000000  1
  Zn  Zn7  1  0.75000000  -0.25000000  0.50000000  1
  Sb  Sb8  1  0.25000000  0.25000000  0.83241867  1
  Sb  Sb9  1  0.75000000  0.25000000  0.83241867  1
  Sb  Sb10  1  0.25000000  -0.25000000  0.83241867  1
  Sb  Sb11  1  0.75000000  -0.25000000  0.83241867  1
  Sb  Sb12  1  0.00000000  0.50000000  0.33241867  1
  Sb  Sb13  1  0.50000000  0.50000000  0.33241867  1
  Sb  Sb14  1  0.00000000  0.00000000  0.33241867  1
  Sb  Sb15  1  0.50000000  0.00000000  0.33241867  1
  Sb  Sb16  1  0.25000000  0.25000000  0.16758133  1
  Sb  Sb17  1  0.75000000  0.25000000  0.16758133  1
  Sb  Sb18  1  0.25000000  -0.25000000  0.16758133  1
  Sb  Sb19  1  0.75000000  -0.25000000  0.16758133  1
  Sb  Sb20  1  0.00000000  0.50000000  0.66758133  1
  Sb  Sb21  1  0.50000000  0.50000000  0.66758133  1
  Sb  Sb22  1  0.00000000  0.00000000  0.66758133  1
  Sb  Sb23  1  0.50000000  0.00000000  0.66758133  1
  O  O24  1  0.34840575  0.15159425  0.67003442  1
  O  O25  1  0.84840575  0.15159425  0.67003442  1
  O  O26  1  0.34840575  -0.34840575  0.67003442  1
  O  O27  1  0.84840575  -0.34840575  0.67003442  1
  O  O28  1  0.15159425  0.34840575  0.67003442  1
  O  O29  1  0.65159425  0.34840575  0.67003442  1
  O  O30  1  0.15159425  -0.15159425  0.67003442  1
  O  O31  1  0.65159425  -0.15159425  0.67003442  1
  O  O32  1  0.34840575  0.15159425  0.32996558  1
  O  O33  1  0.84840575  0.15159425  0.32996558  1
  O  O34  1  0.34840575  -0.34840575  0.32996558  1
  O  O35  1  0.84840575  -0.34840575  0.32996558  1
  O  O36  1  0.40159425  0.40159425  0.17003442  1
  O  O37  1  0.90159425  0.40159425  0.17003442  1
  O  O38  1  0.40159425  -0.09840575  0.17003442  1
  O  O39  1  0.90159425  -0.09840575  0.17003442  1
  O  O40  1  0.09840575  0.09840575  0.17003442  1
  O  O41  1  0.59840575  0.09840575  0.17003442  1
  O  O42  1  0.09840575  -0.40159425  0.17003442  1
  O  O43  1  0.59840575  -0.40159425  0.17003442  1
  O  O44  1  0.09840575  0.09840575  0.82996558  1
  O  O45  1  0.59840575  0.09840575  0.82996558  1
  O  O46  1  0.09840575  -0.40159425  0.82996558  1
  O  O47  1  0.59840575  -0.40159425  0.82996558  1
  O  O48  1  0.15394858  0.34605142  0.00000000  1
  O  O49  1  0.65394858  0.34605142  0.00000000  1
  O  O50  1  0.15394858  -0.15394858  0.00000000  1
  O  O51  1  0.65394858  -0.15394858  0.00000000  1
  O  O52  1  0.40394858  0.40394858  0.50000000  1
  O  O53  1  0.90394858  0.40394858  0.50000000  1
  O  O54  1  0.40394858  -0.09605142  0.50000000  1
  O  O55  1  0.90394858  -0.09605142  0.50000000  1
  O  O56  1  0.09605142  0.09605142  0.50000000  1
  O  O57  1  0.59605142  0.09605142  0.50000000  1
  O  O58  1  0.09605142  -0.40394858  0.50000000  1
  O  O59  1  0.59605142  -0.40394858  0.50000000  1
  O  O60  1  0.34605142  0.15394858  0.00000000  1
  O  O61  1  0.84605142  0.15394858  0.00000000  1
  O  O62  1  0.34605142  -0.34605142  0.00000000  1
  O  O63  1  0.84605142  -0.34605142  0.00000000  1
  O  O64  1  0.15159425  0.34840575  0.32996558  1
  O  O65  1  0.65159425  0.34840575  0.32996558  1
  O  O66  1  0.15159425  -0.15159425  0.32996558  1
  O  O67  1  0.65159425  -0.15159425  0.32996558  1
  O  O68  1  0.40159425  0.40159425  0.82996558  1
  O  O69  1  0.90159425  0.40159425  0.82996558  1
  O  O70  1  0.40159425  -0.09840575  0.82996558  1
  O  O71  1  0.90159425  -0.09840575  0.82996558  1
