# generated using pymatgen
data_Na2Zn(SiO3)2
_symmetry_space_group_name_H-M   'P 1'
_cell_length_a   14.16660467
_cell_length_b   21.16646910
_cell_length_c   14.84112702
_cell_angle_alpha   90.00000000
_cell_angle_beta   90.00000000
_cell_angle_gamma   90.00000000
_symmetry_Int_Tables_number   1
_chemical_formula_structural   Na2Zn(SiO3)2
_chemical_formula_sum   'Na64 Zn32 Si64 O192'
_cell_volume   4450.21582498
_cell_formula_units_Z   32
loop_
 _symmetry_equiv_pos_site_id
 _symmetry_equiv_pos_as_xyz
  1  'x, y, z'
loop_
 _atom_site_type_symbol
 _atom_site_label
 _atom_site_symmetry_multiplicity
 _atom_site_fract_x
 _atom_site_fract_y
 _atom_site_fract_z
 _atom_site_occupancy
  Na  Na0  1  0.25845620  0.67166172  0.23730754  1
  Na  Na1  1  0.25845620  0.67166172  0.73730754  1
  Na  Na2  1  0.75845620  0.67166172  0.23730754  1
  Na  Na3  1  0.75845620  0.67166172  0.73730754  1
  Na  Na4  1  0.50845620  1.17166172  0.23730754  1
  Na  Na5  1  0.50845620  1.17166172  0.73730754  1
  Na  Na6  1  1.00845620  1.17166172  0.23730754  1
  Na  Na7  1  1.00845620  1.17166172  0.73730754  1
  Na  Na8  1  0.50845620  0.67166172  0.48730754  1
  Na  Na9  1  0.50845620  0.67166172  0.98730754  1
  Na  Na10  1  1.00845620  0.67166172  0.48730754  1
  Na  Na11  1  1.00845620  0.67166172  0.98730754  1
  Na  Na12  1  0.25845620  1.17166172  0.48730754  1
  Na  Na13  1  0.25845620  1.17166172  0.98730754  1
  Na  Na14  1  0.75845620  1.17166172  0.48730754  1
  Na  Na15  1  0.75845620  1.17166172  0.98730754  1
  Na  Na16  1  0.24154380  0.32833828  0.23730754  1
  Na  Na17  1  0.24154380  0.32833828  0.73730754  1
  Na  Na18  1  0.74154380  0.32833828  0.23730754  1
  Na  Na19  1  0.74154380  0.32833828  0.73730754  1
  Na  Na20  1  0.49154380  0.82833828  0.23730754  1
  Na  Na21  1  0.49154380  0.82833828  0.73730754  1
  Na  Na22  1  0.99154380  0.82833828  0.23730754  1
  Na  Na23  1  0.99154380  0.82833828  0.73730754  1
  Na  Na24  1  0.49154380  0.32833828  0.48730754  1
  Na  Na25  1  0.49154380  0.32833828  0.98730754  1
  Na  Na26  1  0.99154380  0.32833828  0.48730754  1
  Na  Na27  1  0.99154380  0.32833828  0.98730754  1
  Na  Na28  1  0.24154380  0.82833828  0.48730754  1
  Na  Na29  1  0.24154380  0.82833828  0.98730754  1
  Na  Na30  1  0.74154380  0.82833828  0.48730754  1
  Na  Na31  1  0.74154380  0.82833828  0.98730754  1
  Na  Na32  1  0.36654380  0.92166172  0.36230754  1
  Na  Na33  1  0.36654380  0.92166172  0.86230754  1
  Na  Na34  1  0.86654380  0.92166172  0.36230754  1
  Na  Na35  1  0.86654380  0.92166172  0.86230754  1
  Na  Na36  1  0.61654380  1.42166172  0.36230754  1
  Na  Na37  1  0.61654380  1.42166172  0.86230754  1
  Na  Na38  1  1.11654380  1.42166172  0.36230754  1
  Na  Na39  1  1.11654380  1.42166172  0.86230754  1
  Na  Na40  1  0.61654380  0.92166172  0.61230754  1
  Na  Na41  1  0.61654380  0.92166172  1.11230754  1
  Na  Na42  1  1.11654380  0.92166172  0.61230754  1
  Na  Na43  1  1.11654380  0.92166172  1.11230754  1
  Na  Na44  1  0.36654380  1.42166172  0.61230754  1
  Na  Na45  1  0.36654380  1.42166172  1.11230754  1
  Na  Na46  1  0.86654380  1.42166172  0.61230754  1
  Na  Na47  1  0.86654380  1.42166172  1.11230754  1
  Na  Na48  1  0.38345620  0.57833828  0.36230754  1
  Na  Na49  1  0.38345620  0.57833828  0.86230754  1
  Na  Na50  1  0.88345620  0.57833828  0.36230754  1
  Na  Na51  1  0.88345620  0.57833828  0.86230754  1
  Na  Na52  1  0.63345620  1.07833828  0.36230754  1
  Na  Na53  1  0.63345620  1.07833828  0.86230754  1
  Na  Na54  1  1.13345620  1.07833828  0.36230754  1
  Na  Na55  1  1.13345620  1.07833828  0.86230754  1
  Na  Na56  1  0.63345620  0.57833828  0.61230754  1
  Na  Na57  1  0.63345620  0.57833828  1.11230754  1
  Na  Na58  1  1.13345620  0.57833828  0.61230754  1
  Na  Na59  1  1.13345620  0.57833828  1.11230754  1
  Na  Na60  1  0.38345620  1.07833828  0.61230754  1
  Na  Na61  1  0.38345620  1.07833828  1.11230754  1
  Na  Na62  1  0.88345620  1.07833828  0.61230754  1
  Na  Na63  1  0.88345620  1.07833828  1.11230754  1
  Zn  Zn64  1  0.37500000  0.75000000  0.37395707  1
  Zn  Zn65  1  0.37500000  0.75000000  0.87395707  1
  Zn  Zn66  1  0.87500000  0.75000000  0.37395707  1
  Zn  Zn67  1  0.87500000  0.75000000  0.87395707  1
  Zn  Zn68  1  0.62500000  1.25000000  0.37395707  1
  Zn  Zn69  1  0.62500000  1.25000000  0.87395707  1
  Zn  Zn70  1  1.12500000  1.25000000  0.37395707  1
  Zn  Zn71  1  1.12500000  1.25000000  0.87395707  1
  Zn  Zn72  1  0.62500000  0.75000000  0.62395707  1
  Zn  Zn73  1  0.62500000  0.75000000  1.12395707  1
  Zn  Zn74  1  1.12500000  0.75000000  0.62395707  1
  Zn  Zn75  1  1.12500000  0.75000000  1.12395707  1
  Zn  Zn76  1  0.37500000  1.25000000  0.62395707  1
  Zn  Zn77  1  0.37500000  1.25000000  1.12395707  1
  Zn  Zn78  1  0.87500000  1.25000000  0.62395707  1
  Zn  Zn79  1  0.87500000  1.25000000  1.12395707  1
  Zn  Zn80  1  0.25000000  0.50000000  0.24895707  1
  Zn  Zn81  1  0.25000000  0.50000000  0.74895707  1
  Zn  Zn82  1  0.75000000  0.50000000  0.24895707  1
  Zn  Zn83  1  0.75000000  0.50000000  0.74895707  1
  Zn  Zn84  1  0.50000000  1.00000000  0.24895707  1
  Zn  Zn85  1  0.50000000  1.00000000  0.74895707  1
  Zn  Zn86  1  1.00000000  1.00000000  0.24895707  1
  Zn  Zn87  1  1.00000000  1.00000000  0.74895707  1
  Zn  Zn88  1  0.50000000  0.50000000  0.49895707  1
  Zn  Zn89  1  0.50000000  0.50000000  0.99895707  1
  Zn  Zn90  1  1.00000000  0.50000000  0.49895707  1
  Zn  Zn91  1  1.00000000  0.50000000  0.99895707  1
  Zn  Zn92  1  0.25000000  1.00000000  0.49895707  1
  Zn  Zn93  1  0.25000000  1.00000000  0.99895707  1
  Zn  Zn94  1  0.75000000  1.00000000  0.49895707  1
  Zn  Zn95  1  0.75000000  1.00000000  0.99895707  1
  Si  Si96  1  0.26772049  0.16779996  0.26157975  1
  Si  Si97  1  0.26772049  0.16779996  0.76157975  1
  Si  Si98  1  0.76772049  0.16779996  0.26157975  1
  Si  Si99  1  0.76772049  0.16779996  0.76157975  1
  Si  Si100  1  0.51772049  0.66779996  0.26157975  1
  Si  Si101  1  0.51772049  0.66779996  0.76157975  1
  Si  Si102  1  1.01772049  0.66779996  0.26157975  1
  Si  Si103  1  1.01772049  0.66779996  0.76157975  1
  Si  Si104  1  0.51772049  0.16779996  0.51157975  1
  Si  Si105  1  0.51772049  0.16779996  1.01157975  1
  Si  Si106  1  1.01772049  0.16779996  0.51157975  1
  Si  Si107  1  1.01772049  0.16779996  1.01157975  1
  Si  Si108  1  0.26772049  0.66779996  0.51157975  1
  Si  Si109  1  0.26772049  0.66779996  1.01157975  1
  Si  Si110  1  0.76772049  0.66779996  0.51157975  1
  Si  Si111  1  0.76772049  0.66779996  1.01157975  1
  Si  Si112  1  0.23227951  0.83220004  0.26157975  1
  Si  Si113  1  0.23227951  0.83220004  0.76157975  1
  Si  Si114  1  0.73227951  0.83220004  0.26157975  1
  Si  Si115  1  0.73227951  0.83220004  0.76157975  1
  Si  Si116  1  0.48227951  1.33220004  0.26157975  1
  Si  Si117  1  0.48227951  1.33220004  0.76157975  1
  Si  Si118  1  0.98227951  1.33220004  0.26157975  1
  Si  Si119  1  0.98227951  1.33220004  0.76157975  1
  Si  Si120  1  0.48227951  0.83220004  0.51157975  1
  Si  Si121  1  0.48227951  0.83220004  1.01157975  1
  Si  Si122  1  0.98227951  0.83220004  0.51157975  1
  Si  Si123  1  0.98227951  0.83220004  1.01157975  1
  Si  Si124  1  0.23227951  1.33220004  0.51157975  1
  Si  Si125  1  0.23227951  1.33220004  1.01157975  1
  Si  Si126  1  0.73227951  1.33220004  0.51157975  1
  Si  Si127  1  0.73227951  1.33220004  1.01157975  1
  Si  Si128  1  0.10727951  0.41779996  0.13657975  1
  Si  Si129  1  0.10727951  0.41779996  0.63657975  1
  Si  Si130  1  0.60727951  0.41779996  0.13657975  1
  Si  Si131  1  0.60727951  0.41779996  0.63657975  1
  Si  Si132  1  0.35727951  0.91779996  0.13657975  1
  Si  Si133  1  0.35727951  0.91779996  0.63657975  1
  Si  Si134  1  0.85727951  0.91779996  0.13657975  1
  Si  Si135  1  0.85727951  0.91779996  0.63657975  1
  Si  Si136  1  0.35727951  0.41779996  0.38657975  1
  Si  Si137  1  0.35727951  0.41779996  0.88657975  1
  Si  Si138  1  0.85727951  0.41779996  0.38657975  1
  Si  Si139  1  0.85727951  0.41779996  0.88657975  1
  Si  Si140  1  0.10727951  0.91779996  0.38657975  1
  Si  Si141  1  0.10727951  0.91779996  0.88657975  1
  Si  Si142  1  0.60727951  0.91779996  0.38657975  1
  Si  Si143  1  0.60727951  0.91779996  0.88657975  1
  Si  Si144  1  0.14272049  0.08220004  0.13657975  1
  Si  Si145  1  0.14272049  0.08220004  0.63657975  1
  Si  Si146  1  0.64272049  0.08220004  0.13657975  1
  Si  Si147  1  0.64272049  0.08220004  0.63657975  1
  Si  Si148  1  0.39272049  0.58220004  0.13657975  1
  Si  Si149  1  0.39272049  0.58220004  0.63657975  1
  Si  Si150  1  0.89272049  0.58220004  0.13657975  1
  Si  Si151  1  0.89272049  0.58220004  0.63657975  1
  Si  Si152  1  0.39272049  0.08220004  0.38657975  1
  Si  Si153  1  0.39272049  0.08220004  0.88657975  1
  Si  Si154  1  0.89272049  0.08220004  0.38657975  1
  Si  Si155  1  0.89272049  0.08220004  0.88657975  1
  Si  Si156  1  0.14272049  0.58220004  0.38657975  1
  Si  Si157  1  0.14272049  0.58220004  0.88657975  1
  Si  Si158  1  0.64272049  0.58220004  0.38657975  1
  Si  Si159  1  0.64272049  0.58220004  0.88657975  1
  O  O160  1  0.23443482  0.23402048  0.30409693  1
  O  O161  1  0.23443482  0.23402048  0.80409693  1
  O  O162  1  0.73443482  0.23402048  0.30409693  1
  O  O163  1  0.73443482  0.23402048  0.80409693  1
  O  O164  1  0.48443482  0.73402048  0.30409693  1
  O  O165  1  0.48443482  0.73402048  0.80409693  1
  O  O166  1  0.98443482  0.73402048  0.30409693  1
  O  O167  1  0.98443482  0.73402048  0.80409693  1
  O  O168  1  0.48443482  0.23402048  0.55409693  1
  O  O169  1  0.48443482  0.23402048  1.05409693  1
  O  O170  1  0.98443482  0.23402048  0.55409693  1
  O  O171  1  0.98443482  0.23402048  1.05409693  1
  O  O172  1  0.23443482  0.73402048  0.55409693  1
  O  O173  1  0.23443482  0.73402048  1.05409693  1
  O  O174  1  0.73443482  0.73402048  0.55409693  1
  O  O175  1  0.73443482  0.73402048  1.05409693  1
  O  O176  1  0.26556518  0.76597952  0.30409693  1
  O  O177  1  0.26556518  0.76597952  0.80409693  1
  O  O178  1  0.76556518  0.76597952  0.30409693  1
  O  O179  1  0.76556518  0.76597952  0.80409693  1
  O  O180  1  0.51556518  1.26597952  0.30409693  1
  O  O181  1  0.51556518  1.26597952  0.80409693  1
  O  O182  1  1.01556518  1.26597952  0.30409693  1
  O  O183  1  1.01556518  1.26597952  0.80409693  1
  O  O184  1  0.51556518  0.76597952  0.55409693  1
  O  O185  1  0.51556518  0.76597952  1.05409693  1
  O  O186  1  1.01556518  0.76597952  0.55409693  1
  O  O187  1  1.01556518  0.76597952  1.05409693  1
  O  O188  1  0.26556518  1.26597952  0.55409693  1
  O  O189  1  0.26556518  1.26597952  1.05409693  1
  O  O190  1  0.76556518  1.26597952  0.55409693  1
  O  O191  1  0.76556518  1.26597952  1.05409693  1
  O  O192  1  0.14056518  0.48402048  0.17909693  1
  O  O193  1  0.14056518  0.48402048  0.67909693  1
  O  O194  1  0.64056518  0.48402048  0.17909693  1
  O  O195  1  0.64056518  0.48402048  0.67909693  1
  O  O196  1  0.39056518  0.98402048  0.17909693  1
  O  O197  1  0.39056518  0.98402048  0.67909693  1
  O  O198  1  0.89056518  0.98402048  0.17909693  1
  O  O199  1  0.89056518  0.98402048  0.67909693  1
  O  O200  1  0.39056518  0.48402048  0.42909693  1
  O  O201  1  0.39056518  0.48402048  0.92909693  1
  O  O202  1  0.89056518  0.48402048  0.42909693  1
  O  O203  1  0.89056518  0.48402048  0.92909693  1
  O  O204  1  0.14056518  0.98402048  0.42909693  1
  O  O205  1  0.14056518  0.98402048  0.92909693  1
  O  O206  1  0.64056518  0.98402048  0.42909693  1
  O  O207  1  0.64056518  0.98402048  0.92909693  1
  O  O208  1  0.35943482  0.51597952  0.17909693  1
  O  O209  1  0.35943482  0.51597952  0.67909693  1
  O  O210  1  0.85943482  0.51597952  0.17909693  1
  O  O211  1  0.85943482  0.51597952  0.67909693  1
  O  O212  1  0.60943482  1.01597952  0.17909693  1
  O  O213  1  0.60943482  1.01597952  0.67909693  1
  O  O214  1  1.10943482  1.01597952  0.17909693  1
  O  O215  1  1.10943482  1.01597952  0.67909693  1
  O  O216  1  0.60943482  0.51597952  0.42909693  1
  O  O217  1  0.60943482  0.51597952  0.92909693  1
  O  O218  1  1.10943482  0.51597952  0.42909693  1
  O  O219  1  1.10943482  0.51597952  0.92909693  1
  O  O220  1  0.35943482  1.01597952  0.42909693  1
  O  O221  1  0.35943482  1.01597952  0.92909693  1
  O  O222  1  0.85943482  1.01597952  0.42909693  1
  O  O223  1  0.85943482  1.01597952  0.92909693  1
  O  O224  1  0.17255005  0.13128508  0.22018532  1
  O  O225  1  0.17255005  0.13128508  0.72018532  1
  O  O226  1  0.67255005  0.13128508  0.22018532  1
  O  O227  1  0.67255005  0.13128508  0.72018532  1
  O  O228  1  0.42255005  0.63128508  0.22018532  1
  O  O229  1  0.42255005  0.63128508  0.72018532  1
  O  O230  1  0.92255005  0.63128508  0.22018532  1
  O  O231  1  0.92255005  0.63128508  0.72018532  1
  O  O232  1  0.42255005  0.13128508  0.47018532  1
  O  O233  1  0.42255005  0.13128508  0.97018532  1
  O  O234  1  0.92255005  0.13128508  0.47018532  1
  O  O235  1  0.92255005  0.13128508  0.97018532  1
  O  O236  1  0.17255005  0.63128508  0.47018532  1
  O  O237  1  0.17255005  0.63128508  0.97018532  1
  O  O238  1  0.67255005  0.63128508  0.47018532  1
  O  O239  1  0.67255005  0.63128508  0.97018532  1
  O  O240  1  0.07744995  0.36871492  0.22018532  1
  O  O241  1  0.07744995  0.36871492  0.72018532  1
  O  O242  1  0.57744995  0.36871492  0.22018532  1
  O  O243  1  0.57744995  0.36871492  0.72018532  1
  O  O244  1  0.32744995  0.86871492  0.22018532  1
  O  O245  1  0.32744995  0.86871492  0.72018532  1
  O  O246  1  0.82744995  0.86871492  0.22018532  1
  O  O247  1  0.82744995  0.86871492  0.72018532  1
  O  O248  1  0.32744995  0.36871492  0.47018532  1
  O  O249  1  0.32744995  0.36871492  0.97018532  1
  O  O250  1  0.82744995  0.36871492  0.47018532  1
  O  O251  1  0.82744995  0.36871492  0.97018532  1
  O  O252  1  0.07744995  0.86871492  0.47018532  1
  O  O253  1  0.07744995  0.86871492  0.97018532  1
  O  O254  1  0.57744995  0.86871492  0.47018532  1
  O  O255  1  0.57744995  0.86871492  0.97018532  1
  O  O256  1  0.20244995  0.38128508  0.09518532  1
  O  O257  1  0.20244995  0.38128508  0.59518532  1
  O  O258  1  0.70244995  0.38128508  0.09518532  1
  O  O259  1  0.70244995  0.38128508  0.59518532  1
  O  O260  1  0.45244995  0.88128508  0.09518532  1
  O  O261  1  0.45244995  0.88128508  0.59518532  1
  O  O262  1  0.95244995  0.88128508  0.09518532  1
  O  O263  1  0.95244995  0.88128508  0.59518532  1
  O  O264  1  0.45244995  0.38128508  0.34518532  1
  O  O265  1  0.45244995  0.38128508  0.84518532  1
  O  O266  1  0.95244995  0.38128508  0.34518532  1
  O  O267  1  0.95244995  0.38128508  0.84518532  1
  O  O268  1  0.20244995  0.88128508  0.34518532  1
  O  O269  1  0.20244995  0.88128508  0.84518532  1
  O  O270  1  0.70244995  0.88128508  0.34518532  1
  O  O271  1  0.70244995  0.88128508  0.84518532  1
  O  O272  1  0.04755005  0.11871492  0.09518532  1
  O  O273  1  0.04755005  0.11871492  0.59518532  1
  O  O274  1  0.54755005  0.11871492  0.09518532  1
  O  O275  1  0.54755005  0.11871492  0.59518532  1
  O  O276  1  0.29755005  0.61871492  0.09518532  1
  O  O277  1  0.29755005  0.61871492  0.59518532  1
  O  O278  1  0.79755005  0.61871492  0.09518532  1
  O  O279  1  0.79755005  0.61871492  0.59518532  1
  O  O280  1  0.29755005  0.11871492  0.34518532  1
  O  O281  1  0.29755005  0.11871492  0.84518532  1
  O  O282  1  0.79755005  0.11871492  0.34518532  1
  O  O283  1  0.79755005  0.11871492  0.84518532  1
  O  O284  1  0.04755005  0.61871492  0.34518532  1
  O  O285  1  0.04755005  0.61871492  0.84518532  1
  O  O286  1  0.54755005  0.61871492  0.34518532  1
  O  O287  1  0.54755005  0.61871492  0.84518532  1
  O  O288  1  0.35239234  0.67277904  0.43880192  1
  O  O289  1  0.35239234  0.67277904  0.93880192  1
  O  O290  1  0.85239234  0.67277904  0.43880192  1
  O  O291  1  0.85239234  0.67277904  0.93880192  1
  O  O292  1  0.60239234  1.17277904  0.43880192  1
  O  O293  1  0.60239234  1.17277904  0.93880192  1
  O  O294  1  1.10239234  1.17277904  0.43880192  1
  O  O295  1  1.10239234  1.17277904  0.93880192  1
  O  O296  1  0.60239234  0.67277904  0.68880192  1
  O  O297  1  0.60239234  0.67277904  1.18880192  1
  O  O298  1  1.10239234  0.67277904  0.68880192  1
  O  O299  1  1.10239234  0.67277904  1.18880192  1
  O  O300  1  0.35239234  1.17277904  0.68880192  1
  O  O301  1  0.35239234  1.17277904  1.18880192  1
  O  O302  1  0.85239234  1.17277904  0.68880192  1
  O  O303  1  0.85239234  1.17277904  1.18880192  1
  O  O304  1  0.39760766  0.82722096  0.43880192  1
  O  O305  1  0.39760766  0.82722096  0.93880192  1
  O  O306  1  0.89760766  0.82722096  0.43880192  1
  O  O307  1  0.89760766  0.82722096  0.93880192  1
  O  O308  1  0.64760766  1.32722096  0.43880192  1
  O  O309  1  0.64760766  1.32722096  0.93880192  1
  O  O310  1  1.14760766  1.32722096  0.43880192  1
  O  O311  1  1.14760766  1.32722096  0.93880192  1
  O  O312  1  0.64760766  0.82722096  0.68880192  1
  O  O313  1  0.64760766  0.82722096  1.18880192  1
  O  O314  1  1.14760766  0.82722096  0.68880192  1
  O  O315  1  1.14760766  0.82722096  1.18880192  1
  O  O316  1  0.39760766  1.32722096  0.68880192  1
  O  O317  1  0.39760766  1.32722096  1.18880192  1
  O  O318  1  0.89760766  1.32722096  0.68880192  1
  O  O319  1  0.89760766  1.32722096  1.18880192  1
  O  O320  1  0.22739234  0.57722096  0.31380192  1
  O  O321  1  0.22739234  0.57722096  0.81380192  1
  O  O322  1  0.72739234  0.57722096  0.31380192  1
  O  O323  1  0.72739234  0.57722096  0.81380192  1
  O  O324  1  0.47739234  1.07722096  0.31380192  1
  O  O325  1  0.47739234  1.07722096  0.81380192  1
  O  O326  1  0.97739234  1.07722096  0.31380192  1
  O  O327  1  0.97739234  1.07722096  0.81380192  1
  O  O328  1  0.47739234  0.57722096  0.56380192  1
  O  O329  1  0.47739234  0.57722096  1.06380192  1
  O  O330  1  0.97739234  0.57722096  0.56380192  1
  O  O331  1  0.97739234  0.57722096  1.06380192  1
  O  O332  1  0.22739234  1.07722096  0.56380192  1
  O  O333  1  0.22739234  1.07722096  1.06380192  1
  O  O334  1  0.72739234  1.07722096  0.56380192  1
  O  O335  1  0.72739234  1.07722096  1.06380192  1
  O  O336  1  0.27260766  0.42277904  0.31380192  1
  O  O337  1  0.27260766  0.42277904  0.81380192  1
  O  O338  1  0.77260766  0.42277904  0.31380192  1
  O  O339  1  0.77260766  0.42277904  0.81380192  1
  O  O340  1  0.52260766  0.92277904  0.31380192  1
  O  O341  1  0.52260766  0.92277904  0.81380192  1
  O  O342  1  1.02260766  0.92277904  0.31380192  1
  O  O343  1  1.02260766  0.92277904  0.81380192  1
  O  O344  1  0.52260766  0.42277904  0.56380192  1
  O  O345  1  0.52260766  0.42277904  1.06380192  1
  O  O346  1  1.02260766  0.42277904  0.56380192  1
  O  O347  1  1.02260766  0.42277904  1.06380192  1
  O  O348  1  0.27260766  0.92277904  0.56380192  1
  O  O349  1  0.27260766  0.92277904  1.06380192  1
  O  O350  1  0.77260766  0.92277904  0.56380192  1
  O  O351  1  0.77260766  0.92277904  1.06380192  1
