# generated using pymatgen
data_Cs2CeO3
_symmetry_space_group_name_H-M   'P 1'
_cell_length_a   23.05491995
_cell_length_b   22.77099123
_cell_length_c   19.43149654
_cell_angle_alpha   90.00000000
_cell_angle_beta   90.00000000
_cell_angle_gamma   90.00000000
_symmetry_Int_Tables_number   1
_chemical_formula_structural   Cs2CeO3
_chemical_formula_sum   'Cs144 Ce72 O216'
_cell_volume   10201.21273264
_cell_formula_units_Z   72
loop_
 _symmetry_equiv_pos_site_id
 _symmetry_equiv_pos_as_xyz
  1  'x, y, z'
loop_
 _atom_site_type_symbol
 _atom_site_label
 _atom_site_symmetry_multiplicity
 _atom_site_fract_x
 _atom_site_fract_y
 _atom_site_fract_z
 _atom_site_occupancy
  Cs  Cs0  1  0.33202570  -0.04664252  0.24311343  1
  Cs  Cs1  1  0.33202570  -0.04664252  0.57644676  1
  Cs  Cs2  1  0.33202570  -0.04664252  0.90978010  1
  Cs  Cs3  1  0.33202570  0.28669081  0.24311343  1
  Cs  Cs4  1  0.33202570  0.28669081  0.57644676  1
  Cs  Cs5  1  0.33202570  0.28669081  0.90978010  1
  Cs  Cs6  1  0.33202570  0.62002414  0.24311343  1
  Cs  Cs7  1  0.33202570  0.62002414  0.57644676  1
  Cs  Cs8  1  0.33202570  0.62002414  0.90978010  1
  Cs  Cs9  1  0.83202570  -0.04664252  0.24311343  1
  Cs  Cs10  1  0.83202570  -0.04664252  0.57644676  1
  Cs  Cs11  1  0.83202570  -0.04664252  0.90978010  1
  Cs  Cs12  1  0.83202570  0.28669081  0.24311343  1
  Cs  Cs13  1  0.83202570  0.28669081  0.57644676  1
  Cs  Cs14  1  0.83202570  0.28669081  0.90978010  1
  Cs  Cs15  1  0.83202570  0.62002414  0.24311343  1
  Cs  Cs16  1  0.83202570  0.62002414  0.57644676  1
  Cs  Cs17  1  0.83202570  0.62002414  0.90978010  1
  Cs  Cs18  1  0.58202570  0.12002414  0.24311343  1
  Cs  Cs19  1  0.58202570  0.12002414  0.57644676  1
  Cs  Cs20  1  0.58202570  0.12002414  0.90978010  1
  Cs  Cs21  1  0.58202570  0.45335748  0.24311343  1
  Cs  Cs22  1  0.58202570  0.45335748  0.57644676  1
  Cs  Cs23  1  0.58202570  0.45335748  0.90978010  1
  Cs  Cs24  1  0.58202570  0.78669081  0.24311343  1
  Cs  Cs25  1  0.58202570  0.78669081  0.57644676  1
  Cs  Cs26  1  0.58202570  0.78669081  0.90978010  1
  Cs  Cs27  1  1.08202570  0.12002414  0.24311343  1
  Cs  Cs28  1  1.08202570  0.12002414  0.57644676  1
  Cs  Cs29  1  1.08202570  0.12002414  0.90978010  1
  Cs  Cs30  1  1.08202570  0.45335748  0.24311343  1
  Cs  Cs31  1  1.08202570  0.45335748  0.57644676  1
  Cs  Cs32  1  1.08202570  0.45335748  0.90978010  1
  Cs  Cs33  1  1.08202570  0.78669081  0.24311343  1
  Cs  Cs34  1  1.08202570  0.78669081  0.57644676  1
  Cs  Cs35  1  1.08202570  0.78669081  0.90978010  1
  Cs  Cs36  1  0.33202570  0.04664252  0.07644676  1
  Cs  Cs37  1  0.33202570  0.04664252  0.40978010  1
  Cs  Cs38  1  0.33202570  0.04664252  0.74311343  1
  Cs  Cs39  1  0.33202570  0.37997586  0.07644676  1
  Cs  Cs40  1  0.33202570  0.37997586  0.40978010  1
  Cs  Cs41  1  0.33202570  0.37997586  0.74311343  1
  Cs  Cs42  1  0.33202570  0.71330919  0.07644676  1
  Cs  Cs43  1  0.33202570  0.71330919  0.40978010  1
  Cs  Cs44  1  0.33202570  0.71330919  0.74311343  1
  Cs  Cs45  1  0.83202570  0.04664252  0.07644676  1
  Cs  Cs46  1  0.83202570  0.04664252  0.40978010  1
  Cs  Cs47  1  0.83202570  0.04664252  0.74311343  1
  Cs  Cs48  1  0.83202570  0.37997586  0.07644676  1
  Cs  Cs49  1  0.83202570  0.37997586  0.40978010  1
  Cs  Cs50  1  0.83202570  0.37997586  0.74311343  1
  Cs  Cs51  1  0.83202570  0.71330919  0.07644676  1
  Cs  Cs52  1  0.83202570  0.71330919  0.40978010  1
  Cs  Cs53  1  0.83202570  0.71330919  0.74311343  1
  Cs  Cs54  1  0.58202570  0.21330919  0.07644676  1
  Cs  Cs55  1  0.58202570  0.21330919  0.40978010  1
  Cs  Cs56  1  0.58202570  0.21330919  0.74311343  1
  Cs  Cs57  1  0.58202570  0.54664252  0.07644676  1
  Cs  Cs58  1  0.58202570  0.54664252  0.40978010  1
  Cs  Cs59  1  0.58202570  0.54664252  0.74311343  1
  Cs  Cs60  1  0.58202570  0.87997586  0.07644676  1
  Cs  Cs61  1  0.58202570  0.87997586  0.40978010  1
  Cs  Cs62  1  0.58202570  0.87997586  0.74311343  1
  Cs  Cs63  1  1.08202570  0.21330919  0.07644676  1
  Cs  Cs64  1  1.08202570  0.21330919  0.40978010  1
  Cs  Cs65  1  1.08202570  0.21330919  0.74311343  1
  Cs  Cs66  1  1.08202570  0.54664252  0.07644676  1
  Cs  Cs67  1  1.08202570  0.54664252  0.40978010  1
  Cs  Cs68  1  1.08202570  0.54664252  0.74311343  1
  Cs  Cs69  1  1.08202570  0.87997586  0.07644676  1
  Cs  Cs70  1  1.08202570  0.87997586  0.40978010  1
  Cs  Cs71  1  1.08202570  0.87997586  0.74311343  1
  Cs  Cs72  1  0.16797430  0.04664252  0.07644676  1
  Cs  Cs73  1  0.16797430  0.04664252  0.40978010  1
  Cs  Cs74  1  0.16797430  0.04664252  0.74311343  1
  Cs  Cs75  1  0.16797430  0.37997586  0.07644676  1
  Cs  Cs76  1  0.16797430  0.37997586  0.40978010  1
  Cs  Cs77  1  0.16797430  0.37997586  0.74311343  1
  Cs  Cs78  1  0.16797430  0.71330919  0.07644676  1
  Cs  Cs79  1  0.16797430  0.71330919  0.40978010  1
  Cs  Cs80  1  0.16797430  0.71330919  0.74311343  1
  Cs  Cs81  1  0.66797430  0.04664252  0.07644676  1
  Cs  Cs82  1  0.66797430  0.04664252  0.40978010  1
  Cs  Cs83  1  0.66797430  0.04664252  0.74311343  1
  Cs  Cs84  1  0.66797430  0.37997586  0.07644676  1
  Cs  Cs85  1  0.66797430  0.37997586  0.40978010  1
  Cs  Cs86  1  0.66797430  0.37997586  0.74311343  1
  Cs  Cs87  1  0.66797430  0.71330919  0.07644676  1
  Cs  Cs88  1  0.66797430  0.71330919  0.40978010  1
  Cs  Cs89  1  0.66797430  0.71330919  0.74311343  1
  Cs  Cs90  1  0.41797430  0.21330919  0.07644676  1
  Cs  Cs91  1  0.41797430  0.21330919  0.40978010  1
  Cs  Cs92  1  0.41797430  0.21330919  0.74311343  1
  Cs  Cs93  1  0.41797430  0.54664252  0.07644676  1
  Cs  Cs94  1  0.41797430  0.54664252  0.40978010  1
  Cs  Cs95  1  0.41797430  0.54664252  0.74311343  1
  Cs  Cs96  1  0.41797430  0.87997586  0.07644676  1
  Cs  Cs97  1  0.41797430  0.87997586  0.40978010  1
  Cs  Cs98  1  0.41797430  0.87997586  0.74311343  1
  Cs  Cs99  1  0.91797430  0.21330919  0.07644676  1
  Cs  Cs100  1  0.91797430  0.21330919  0.40978010  1
  Cs  Cs101  1  0.91797430  0.21330919  0.74311343  1
  Cs  Cs102  1  0.91797430  0.54664252  0.07644676  1
  Cs  Cs103  1  0.91797430  0.54664252  0.40978010  1
  Cs  Cs104  1  0.91797430  0.54664252  0.74311343  1
  Cs  Cs105  1  0.91797430  0.87997586  0.07644676  1
  Cs  Cs106  1  0.91797430  0.87997586  0.40978010  1
  Cs  Cs107  1  0.91797430  0.87997586  0.74311343  1
  Cs  Cs108  1  0.16797430  -0.04664252  0.24311343  1
  Cs  Cs109  1  0.16797430  -0.04664252  0.57644676  1
  Cs  Cs110  1  0.16797430  -0.04664252  0.90978010  1
  Cs  Cs111  1  0.16797430  0.28669081  0.24311343  1
  Cs  Cs112  1  0.16797430  0.28669081  0.57644676  1
  Cs  Cs113  1  0.16797430  0.28669081  0.90978010  1
  Cs  Cs114  1  0.16797430  0.62002414  0.24311343  1
  Cs  Cs115  1  0.16797430  0.62002414  0.57644676  1
  Cs  Cs116  1  0.16797430  0.62002414  0.90978010  1
  Cs  Cs117  1  0.66797430  -0.04664252  0.24311343  1
  Cs  Cs118  1  0.66797430  -0.04664252  0.57644676  1
  Cs  Cs119  1  0.66797430  -0.04664252  0.90978010  1
  Cs  Cs120  1  0.66797430  0.28669081  0.24311343  1
  Cs  Cs121  1  0.66797430  0.28669081  0.57644676  1
  Cs  Cs122  1  0.66797430  0.28669081  0.90978010  1
  Cs  Cs123  1  0.66797430  0.62002414  0.24311343  1
  Cs  Cs124  1  0.66797430  0.62002414  0.57644676  1
  Cs  Cs125  1  0.66797430  0.62002414  0.90978010  1
  Cs  Cs126  1  0.41797430  0.12002414  0.24311343  1
  Cs  Cs127  1  0.41797430  0.12002414  0.57644676  1
  Cs  Cs128  1  0.41797430  0.12002414  0.90978010  1
  Cs  Cs129  1  0.41797430  0.45335748  0.24311343  1
  Cs  Cs130  1  0.41797430  0.45335748  0.57644676  1
  Cs  Cs131  1  0.41797430  0.45335748  0.90978010  1
  Cs  Cs132  1  0.41797430  0.78669081  0.24311343  1
  Cs  Cs133  1  0.41797430  0.78669081  0.57644676  1
  Cs  Cs134  1  0.41797430  0.78669081  0.90978010  1
  Cs  Cs135  1  0.91797430  0.12002414  0.24311343  1
  Cs  Cs136  1  0.91797430  0.12002414  0.57644676  1
  Cs  Cs137  1  0.91797430  0.12002414  0.90978010  1
  Cs  Cs138  1  0.91797430  0.45335748  0.24311343  1
  Cs  Cs139  1  0.91797430  0.45335748  0.57644676  1
  Cs  Cs140  1  0.91797430  0.45335748  0.90978010  1
  Cs  Cs141  1  0.91797430  0.78669081  0.24311343  1
  Cs  Cs142  1  0.91797430  0.78669081  0.57644676  1
  Cs  Cs143  1  0.91797430  0.78669081  0.90978010  1
  Ce  Ce144  1  0.25000000  0.13583923  0.25534332  1
  Ce  Ce145  1  0.25000000  0.13583923  0.58867665  1
  Ce  Ce146  1  0.25000000  0.13583923  0.92200998  1
  Ce  Ce147  1  0.25000000  0.46917256  0.25534332  1
  Ce  Ce148  1  0.25000000  0.46917256  0.58867665  1
  Ce  Ce149  1  0.25000000  0.46917256  0.92200998  1
  Ce  Ce150  1  0.25000000  0.80250590  0.25534332  1
  Ce  Ce151  1  0.25000000  0.80250590  0.58867665  1
  Ce  Ce152  1  0.25000000  0.80250590  0.92200998  1
  Ce  Ce153  1  0.75000000  0.13583923  0.25534332  1
  Ce  Ce154  1  0.75000000  0.13583923  0.58867665  1
  Ce  Ce155  1  0.75000000  0.13583923  0.92200998  1
  Ce  Ce156  1  0.75000000  0.46917256  0.25534332  1
  Ce  Ce157  1  0.75000000  0.46917256  0.58867665  1
  Ce  Ce158  1  0.75000000  0.46917256  0.92200998  1
  Ce  Ce159  1  0.75000000  0.80250590  0.25534332  1
  Ce  Ce160  1  0.75000000  0.80250590  0.58867665  1
  Ce  Ce161  1  0.75000000  0.80250590  0.92200998  1
  Ce  Ce162  1  0.50000000  0.30250590  0.25534332  1
  Ce  Ce163  1  0.50000000  0.30250590  0.58867665  1
  Ce  Ce164  1  0.50000000  0.30250590  0.92200998  1
  Ce  Ce165  1  0.50000000  0.63583923  0.25534332  1
  Ce  Ce166  1  0.50000000  0.63583923  0.58867665  1
  Ce  Ce167  1  0.50000000  0.63583923  0.92200998  1
  Ce  Ce168  1  0.50000000  0.96917256  0.25534332  1
  Ce  Ce169  1  0.50000000  0.96917256  0.58867665  1
  Ce  Ce170  1  0.50000000  0.96917256  0.92200998  1
  Ce  Ce171  1  1.00000000  0.30250590  0.25534332  1
  Ce  Ce172  1  1.00000000  0.30250590  0.58867665  1
  Ce  Ce173  1  1.00000000  0.30250590  0.92200998  1
  Ce  Ce174  1  1.00000000  0.63583923  0.25534332  1
  Ce  Ce175  1  1.00000000  0.63583923  0.58867665  1
  Ce  Ce176  1  1.00000000  0.63583923  0.92200998  1
  Ce  Ce177  1  1.00000000  0.96917256  0.25534332  1
  Ce  Ce178  1  1.00000000  0.96917256  0.58867665  1
  Ce  Ce179  1  1.00000000  0.96917256  0.92200998  1
  Ce  Ce180  1  0.25000000  -0.13583923  0.08867665  1
  Ce  Ce181  1  0.25000000  -0.13583923  0.42200998  1
  Ce  Ce182  1  0.25000000  -0.13583923  0.75534332  1
  Ce  Ce183  1  0.25000000  0.19749410  0.08867665  1
  Ce  Ce184  1  0.25000000  0.19749410  0.42200998  1
  Ce  Ce185  1  0.25000000  0.19749410  0.75534332  1
  Ce  Ce186  1  0.25000000  0.53082744  0.08867665  1
  Ce  Ce187  1  0.25000000  0.53082744  0.42200998  1
  Ce  Ce188  1  0.25000000  0.53082744  0.75534332  1
  Ce  Ce189  1  0.75000000  -0.13583923  0.08867665  1
  Ce  Ce190  1  0.75000000  -0.13583923  0.42200998  1
  Ce  Ce191  1  0.75000000  -0.13583923  0.75534332  1
  Ce  Ce192  1  0.75000000  0.19749410  0.08867665  1
  Ce  Ce193  1  0.75000000  0.19749410  0.42200998  1
  Ce  Ce194  1  0.75000000  0.19749410  0.75534332  1
  Ce  Ce195  1  0.75000000  0.53082744  0.08867665  1
  Ce  Ce196  1  0.75000000  0.53082744  0.42200998  1
  Ce  Ce197  1  0.75000000  0.53082744  0.75534332  1
  Ce  Ce198  1  0.50000000  0.03082744  0.08867665  1
  Ce  Ce199  1  0.50000000  0.03082744  0.42200998  1
  Ce  Ce200  1  0.50000000  0.03082744  0.75534332  1
  Ce  Ce201  1  0.50000000  0.36416077  0.08867665  1
  Ce  Ce202  1  0.50000000  0.36416077  0.42200998  1
  Ce  Ce203  1  0.50000000  0.36416077  0.75534332  1
  Ce  Ce204  1  0.50000000  0.69749410  0.08867665  1
  Ce  Ce205  1  0.50000000  0.69749410  0.42200998  1
  Ce  Ce206  1  0.50000000  0.69749410  0.75534332  1
  Ce  Ce207  1  1.00000000  0.03082744  0.08867665  1
  Ce  Ce208  1  1.00000000  0.03082744  0.42200998  1
  Ce  Ce209  1  1.00000000  0.03082744  0.75534332  1
  Ce  Ce210  1  1.00000000  0.36416077  0.08867665  1
  Ce  Ce211  1  1.00000000  0.36416077  0.42200998  1
  Ce  Ce212  1  1.00000000  0.36416077  0.75534332  1
  Ce  Ce213  1  1.00000000  0.69749410  0.08867665  1
  Ce  Ce214  1  1.00000000  0.69749410  0.42200998  1
  Ce  Ce215  1  1.00000000  0.69749410  0.75534332  1
  O  O216  1  0.43917036  -0.00602884  0.16849660  1
  O  O217  1  0.43917036  -0.00602884  0.50182993  1
  O  O218  1  0.43917036  -0.00602884  0.83516327  1
  O  O219  1  0.43917036  0.32730449  0.16849660  1
  O  O220  1  0.43917036  0.32730449  0.50182993  1
  O  O221  1  0.43917036  0.32730449  0.83516327  1
  O  O222  1  0.43917036  0.66063783  0.16849660  1
  O  O223  1  0.43917036  0.66063783  0.50182993  1
  O  O224  1  0.43917036  0.66063783  0.83516327  1
  O  O225  1  0.93917036  -0.00602884  0.16849660  1
  O  O226  1  0.93917036  -0.00602884  0.50182993  1
  O  O227  1  0.93917036  -0.00602884  0.83516327  1
  O  O228  1  0.93917036  0.32730449  0.16849660  1
  O  O229  1  0.93917036  0.32730449  0.50182993  1
  O  O230  1  0.93917036  0.32730449  0.83516327  1
  O  O231  1  0.93917036  0.66063783  0.16849660  1
  O  O232  1  0.93917036  0.66063783  0.50182993  1
  O  O233  1  0.93917036  0.66063783  0.83516327  1
  O  O234  1  0.68917036  0.16063783  0.16849660  1
  O  O235  1  0.68917036  0.16063783  0.50182993  1
  O  O236  1  0.68917036  0.16063783  0.83516327  1
  O  O237  1  0.68917036  0.49397116  0.16849660  1
  O  O238  1  0.68917036  0.49397116  0.50182993  1
  O  O239  1  0.68917036  0.49397116  0.83516327  1
  O  O240  1  0.68917036  0.82730449  0.16849660  1
  O  O241  1  0.68917036  0.82730449  0.50182993  1
  O  O242  1  0.68917036  0.82730449  0.83516327  1
  O  O243  1  1.18917036  0.16063783  0.16849660  1
  O  O244  1  1.18917036  0.16063783  0.50182993  1
  O  O245  1  1.18917036  0.16063783  0.83516327  1
  O  O246  1  1.18917036  0.49397116  0.16849660  1
  O  O247  1  1.18917036  0.49397116  0.50182993  1
  O  O248  1  1.18917036  0.49397116  0.83516327  1
  O  O249  1  1.18917036  0.82730449  0.16849660  1
  O  O250  1  1.18917036  0.82730449  0.50182993  1
  O  O251  1  1.18917036  0.82730449  0.83516327  1
  O  O252  1  0.43917036  0.00602884  0.00182993  1
  O  O253  1  0.43917036  0.00602884  0.33516327  1
  O  O254  1  0.43917036  0.00602884  0.66849660  1
  O  O255  1  0.43917036  0.33936217  0.00182993  1
  O  O256  1  0.43917036  0.33936217  0.33516327  1
  O  O257  1  0.43917036  0.33936217  0.66849660  1
  O  O258  1  0.43917036  0.67269551  0.00182993  1
  O  O259  1  0.43917036  0.67269551  0.33516327  1
  O  O260  1  0.43917036  0.67269551  0.66849660  1
  O  O261  1  0.93917036  0.00602884  0.00182993  1
  O  O262  1  0.93917036  0.00602884  0.33516327  1
  O  O263  1  0.93917036  0.00602884  0.66849660  1
  O  O264  1  0.93917036  0.33936217  0.00182993  1
  O  O265  1  0.93917036  0.33936217  0.33516327  1
  O  O266  1  0.93917036  0.33936217  0.66849660  1
  O  O267  1  0.93917036  0.67269551  0.00182993  1
  O  O268  1  0.93917036  0.67269551  0.33516327  1
  O  O269  1  0.93917036  0.67269551  0.66849660  1
  O  O270  1  0.68917036  0.17269551  0.00182993  1
  O  O271  1  0.68917036  0.17269551  0.33516327  1
  O  O272  1  0.68917036  0.17269551  0.66849660  1
  O  O273  1  0.68917036  0.50602884  0.00182993  1
  O  O274  1  0.68917036  0.50602884  0.33516327  1
  O  O275  1  0.68917036  0.50602884  0.66849660  1
  O  O276  1  0.68917036  0.83936217  0.00182993  1
  O  O277  1  0.68917036  0.83936217  0.33516327  1
  O  O278  1  0.68917036  0.83936217  0.66849660  1
  O  O279  1  1.18917036  0.17269551  0.00182993  1
  O  O280  1  1.18917036  0.17269551  0.33516327  1
  O  O281  1  1.18917036  0.17269551  0.66849660  1
  O  O282  1  1.18917036  0.50602884  0.00182993  1
  O  O283  1  1.18917036  0.50602884  0.33516327  1
  O  O284  1  1.18917036  0.50602884  0.66849660  1
  O  O285  1  1.18917036  0.83936217  0.00182993  1
  O  O286  1  1.18917036  0.83936217  0.33516327  1
  O  O287  1  1.18917036  0.83936217  0.66849660  1
  O  O288  1  0.25000000  -0.04689130  0.11072629  1
  O  O289  1  0.25000000  -0.04689130  0.44405962  1
  O  O290  1  0.25000000  -0.04689130  0.77739296  1
  O  O291  1  0.25000000  0.28644203  0.11072629  1
  O  O292  1  0.25000000  0.28644203  0.44405962  1
  O  O293  1  0.25000000  0.28644203  0.77739296  1
  O  O294  1  0.25000000  0.61977537  0.11072629  1
  O  O295  1  0.25000000  0.61977537  0.44405962  1
  O  O296  1  0.25000000  0.61977537  0.77739296  1
  O  O297  1  0.75000000  -0.04689130  0.11072629  1
  O  O298  1  0.75000000  -0.04689130  0.44405962  1
  O  O299  1  0.75000000  -0.04689130  0.77739296  1
  O  O300  1  0.75000000  0.28644203  0.11072629  1
  O  O301  1  0.75000000  0.28644203  0.44405962  1
  O  O302  1  0.75000000  0.28644203  0.77739296  1
  O  O303  1  0.75000000  0.61977537  0.11072629  1
  O  O304  1  0.75000000  0.61977537  0.44405962  1
  O  O305  1  0.75000000  0.61977537  0.77739296  1
  O  O306  1  0.50000000  0.11977537  0.11072629  1
  O  O307  1  0.50000000  0.11977537  0.44405962  1
  O  O308  1  0.50000000  0.11977537  0.77739296  1
  O  O309  1  0.50000000  0.45310870  0.11072629  1
  O  O310  1  0.50000000  0.45310870  0.44405962  1
  O  O311  1  0.50000000  0.45310870  0.77739296  1
  O  O312  1  0.50000000  0.78644203  0.11072629  1
  O  O313  1  0.50000000  0.78644203  0.44405962  1
  O  O314  1  0.50000000  0.78644203  0.77739296  1
  O  O315  1  1.00000000  0.11977537  0.11072629  1
  O  O316  1  1.00000000  0.11977537  0.44405962  1
  O  O317  1  1.00000000  0.11977537  0.77739296  1
  O  O318  1  1.00000000  0.45310870  0.11072629  1
  O  O319  1  1.00000000  0.45310870  0.44405962  1
  O  O320  1  1.00000000  0.45310870  0.77739296  1
  O  O321  1  1.00000000  0.78644203  0.11072629  1
  O  O322  1  1.00000000  0.78644203  0.44405962  1
  O  O323  1  1.00000000  0.78644203  0.77739296  1
  O  O324  1  0.25000000  0.04689130  0.27739296  1
  O  O325  1  0.25000000  0.04689130  0.61072629  1
  O  O326  1  0.25000000  0.04689130  0.94405962  1
  O  O327  1  0.25000000  0.38022463  0.27739296  1
  O  O328  1  0.25000000  0.38022463  0.61072629  1
  O  O329  1  0.25000000  0.38022463  0.94405962  1
  O  O330  1  0.25000000  0.71355797  0.27739296  1
  O  O331  1  0.25000000  0.71355797  0.61072629  1
  O  O332  1  0.25000000  0.71355797  0.94405962  1
  O  O333  1  0.75000000  0.04689130  0.27739296  1
  O  O334  1  0.75000000  0.04689130  0.61072629  1
  O  O335  1  0.75000000  0.04689130  0.94405962  1
  O  O336  1  0.75000000  0.38022463  0.27739296  1
  O  O337  1  0.75000000  0.38022463  0.61072629  1
  O  O338  1  0.75000000  0.38022463  0.94405962  1
  O  O339  1  0.75000000  0.71355797  0.27739296  1
  O  O340  1  0.75000000  0.71355797  0.61072629  1
  O  O341  1  0.75000000  0.71355797  0.94405962  1
  O  O342  1  0.50000000  0.21355797  0.27739296  1
  O  O343  1  0.50000000  0.21355797  0.61072629  1
  O  O344  1  0.50000000  0.21355797  0.94405962  1
  O  O345  1  0.50000000  0.54689130  0.27739296  1
  O  O346  1  0.50000000  0.54689130  0.61072629  1
  O  O347  1  0.50000000  0.54689130  0.94405962  1
  O  O348  1  0.50000000  0.88022463  0.27739296  1
  O  O349  1  0.50000000  0.88022463  0.61072629  1
  O  O350  1  0.50000000  0.88022463  0.94405962  1
  O  O351  1  1.00000000  0.21355797  0.27739296  1
  O  O352  1  1.00000000  0.21355797  0.61072629  1
  O  O353  1  1.00000000  0.21355797  0.94405962  1
  O  O354  1  1.00000000  0.54689130  0.27739296  1
  O  O355  1  1.00000000  0.54689130  0.61072629  1
  O  O356  1  1.00000000  0.54689130  0.94405962  1
  O  O357  1  1.00000000  0.88022463  0.27739296  1
  O  O358  1  1.00000000  0.88022463  0.61072629  1
  O  O359  1  1.00000000  0.88022463  0.94405962  1
  O  O360  1  0.06082964  0.00602884  0.00182993  1
  O  O361  1  0.06082964  0.00602884  0.33516327  1
  O  O362  1  0.06082964  0.00602884  0.66849660  1
  O  O363  1  0.06082964  0.33936217  0.00182993  1
  O  O364  1  0.06082964  0.33936217  0.33516327  1
  O  O365  1  0.06082964  0.33936217  0.66849660  1
  O  O366  1  0.06082964  0.67269551  0.00182993  1
  O  O367  1  0.06082964  0.67269551  0.33516327  1
  O  O368  1  0.06082964  0.67269551  0.66849660  1
  O  O369  1  0.56082964  0.00602884  0.00182993  1
  O  O370  1  0.56082964  0.00602884  0.33516327  1
  O  O371  1  0.56082964  0.00602884  0.66849660  1
  O  O372  1  0.56082964  0.33936217  0.00182993  1
  O  O373  1  0.56082964  0.33936217  0.33516327  1
  O  O374  1  0.56082964  0.33936217  0.66849660  1
  O  O375  1  0.56082964  0.67269551  0.00182993  1
  O  O376  1  0.56082964  0.67269551  0.33516327  1
  O  O377  1  0.56082964  0.67269551  0.66849660  1
  O  O378  1  0.31082964  0.17269551  0.00182993  1
  O  O379  1  0.31082964  0.17269551  0.33516327  1
  O  O380  1  0.31082964  0.17269551  0.66849660  1
  O  O381  1  0.31082964  0.50602884  0.00182993  1
  O  O382  1  0.31082964  0.50602884  0.33516327  1
  O  O383  1  0.31082964  0.50602884  0.66849660  1
  O  O384  1  0.31082964  0.83936217  0.00182993  1
  O  O385  1  0.31082964  0.83936217  0.33516327  1
  O  O386  1  0.31082964  0.83936217  0.66849660  1
  O  O387  1  0.81082964  0.17269551  0.00182993  1
  O  O388  1  0.81082964  0.17269551  0.33516327  1
  O  O389  1  0.81082964  0.17269551  0.66849660  1
  O  O390  1  0.81082964  0.50602884  0.00182993  1
  O  O391  1  0.81082964  0.50602884  0.33516327  1
  O  O392  1  0.81082964  0.50602884  0.66849660  1
  O  O393  1  0.81082964  0.83936217  0.00182993  1
  O  O394  1  0.81082964  0.83936217  0.33516327  1
  O  O395  1  0.81082964  0.83936217  0.66849660  1
  O  O396  1  0.06082964  -0.00602884  0.16849660  1
  O  O397  1  0.06082964  -0.00602884  0.50182993  1
  O  O398  1  0.06082964  -0.00602884  0.83516327  1
  O  O399  1  0.06082964  0.32730449  0.16849660  1
  O  O400  1  0.06082964  0.32730449  0.50182993  1
  O  O401  1  0.06082964  0.32730449  0.83516327  1
  O  O402  1  0.06082964  0.66063783  0.16849660  1
  O  O403  1  0.06082964  0.66063783  0.50182993  1
  O  O404  1  0.06082964  0.66063783  0.83516327  1
  O  O405  1  0.56082964  -0.00602884  0.16849660  1
  O  O406  1  0.56082964  -0.00602884  0.50182993  1
  O  O407  1  0.56082964  -0.00602884  0.83516327  1
  O  O408  1  0.56082964  0.32730449  0.16849660  1
  O  O409  1  0.56082964  0.32730449  0.50182993  1
  O  O410  1  0.56082964  0.32730449  0.83516327  1
  O  O411  1  0.56082964  0.66063783  0.16849660  1
  O  O412  1  0.56082964  0.66063783  0.50182993  1
  O  O413  1  0.56082964  0.66063783  0.83516327  1
  O  O414  1  0.31082964  0.16063783  0.16849660  1
  O  O415  1  0.31082964  0.16063783  0.50182993  1
  O  O416  1  0.31082964  0.16063783  0.83516327  1
  O  O417  1  0.31082964  0.49397116  0.16849660  1
  O  O418  1  0.31082964  0.49397116  0.50182993  1
  O  O419  1  0.31082964  0.49397116  0.83516327  1
  O  O420  1  0.31082964  0.82730449  0.16849660  1
  O  O421  1  0.31082964  0.82730449  0.50182993  1
  O  O422  1  0.31082964  0.82730449  0.83516327  1
  O  O423  1  0.81082964  0.16063783  0.16849660  1
  O  O424  1  0.81082964  0.16063783  0.50182993  1
  O  O425  1  0.81082964  0.16063783  0.83516327  1
  O  O426  1  0.81082964  0.49397116  0.16849660  1
  O  O427  1  0.81082964  0.49397116  0.50182993  1
  O  O428  1  0.81082964  0.49397116  0.83516327  1
  O  O429  1  0.81082964  0.82730449  0.16849660  1
  O  O430  1  0.81082964  0.82730449  0.50182993  1
  O  O431  1  0.81082964  0.82730449  0.83516327  1
