# generated using pymatgen
data_La2CrO6
_symmetry_space_group_name_H-M   'P 1'
_cell_length_a   14.31762547
_cell_length_b   17.50858212
_cell_length_c   16.72703307
_cell_angle_alpha   90.00000000
_cell_angle_beta   107.27317657
_cell_angle_gamma   90.00000000
_symmetry_Int_Tables_number   1
_chemical_formula_structural   La2CrO6
_chemical_formula_sum   'La64 Cr32 O192'
_cell_volume   4004.04310410
_cell_formula_units_Z   32
loop_
 _symmetry_equiv_pos_site_id
 _symmetry_equiv_pos_as_xyz
  1  'x, y, z'
loop_
 _atom_site_type_symbol
 _atom_site_label
 _atom_site_symmetry_multiplicity
 _atom_site_fract_x
 _atom_site_fract_y
 _atom_site_fract_z
 _atom_site_occupancy
  La  La0  1  0.66951937  0.00210055  0.04231995  1
  La  La1  1  0.66951937  0.00210055  0.54231995  1
  La  La2  1  0.66951937  0.25210055  0.04231995  1
  La  La3  1  0.66951937  0.25210055  0.54231995  1
  La  La4  1  0.66951937  0.50210055  0.04231995  1
  La  La5  1  0.66951937  0.50210055  0.54231995  1
  La  La6  1  0.66951937  0.75210055  0.04231995  1
  La  La7  1  0.66951937  0.75210055  0.54231995  1
  La  La8  1  1.16951937  0.12710055  0.04231995  1
  La  La9  1  1.16951937  0.12710055  0.54231995  1
  La  La10  1  1.16951937  0.37710055  0.04231995  1
  La  La11  1  1.16951937  0.37710055  0.54231995  1
  La  La12  1  1.16951937  0.62710055  0.04231995  1
  La  La13  1  1.16951937  0.62710055  0.54231995  1
  La  La14  1  1.16951937  0.87710055  0.04231995  1
  La  La15  1  1.16951937  0.87710055  0.54231995  1
  La  La16  1  0.33048063  0.00210055  0.20768005  1
  La  La17  1  0.33048063  0.00210055  0.70768005  1
  La  La18  1  0.33048063  0.25210055  0.20768005  1
  La  La19  1  0.33048063  0.25210055  0.70768005  1
  La  La20  1  0.33048063  0.50210055  0.20768005  1
  La  La21  1  0.33048063  0.50210055  0.70768005  1
  La  La22  1  0.33048063  0.75210055  0.20768005  1
  La  La23  1  0.33048063  0.75210055  0.70768005  1
  La  La24  1  0.83048063  0.12710055  0.20768005  1
  La  La25  1  0.83048063  0.12710055  0.70768005  1
  La  La26  1  0.83048063  0.37710055  0.20768005  1
  La  La27  1  0.83048063  0.37710055  0.70768005  1
  La  La28  1  0.83048063  0.62710055  0.20768005  1
  La  La29  1  0.83048063  0.62710055  0.70768005  1
  La  La30  1  0.83048063  0.87710055  0.20768005  1
  La  La31  1  0.83048063  0.87710055  0.70768005  1
  La  La32  1  0.66951937  -0.00210055  0.29231995  1
  La  La33  1  0.66951937  -0.00210055  0.79231995  1
  La  La34  1  0.66951937  0.24789945  0.29231995  1
  La  La35  1  0.66951937  0.24789945  0.79231995  1
  La  La36  1  0.66951937  0.49789945  0.29231995  1
  La  La37  1  0.66951937  0.49789945  0.79231995  1
  La  La38  1  0.66951937  0.74789945  0.29231995  1
  La  La39  1  0.66951937  0.74789945  0.79231995  1
  La  La40  1  1.16951937  0.12289945  0.29231995  1
  La  La41  1  1.16951937  0.12289945  0.79231995  1
  La  La42  1  1.16951937  0.37289945  0.29231995  1
  La  La43  1  1.16951937  0.37289945  0.79231995  1
  La  La44  1  1.16951937  0.62289945  0.29231995  1
  La  La45  1  1.16951937  0.62289945  0.79231995  1
  La  La46  1  1.16951937  0.87289945  0.29231995  1
  La  La47  1  1.16951937  0.87289945  0.79231995  1
  La  La48  1  0.33048063  -0.00210055  0.45768005  1
  La  La49  1  0.33048063  -0.00210055  0.95768005  1
  La  La50  1  0.33048063  0.24789945  0.45768005  1
  La  La51  1  0.33048063  0.24789945  0.95768005  1
  La  La52  1  0.33048063  0.49789945  0.45768005  1
  La  La53  1  0.33048063  0.49789945  0.95768005  1
  La  La54  1  0.33048063  0.74789945  0.45768005  1
  La  La55  1  0.33048063  0.74789945  0.95768005  1
  La  La56  1  0.83048063  0.12289945  0.45768005  1
  La  La57  1  0.83048063  0.12289945  0.95768005  1
  La  La58  1  0.83048063  0.37289945  0.45768005  1
  La  La59  1  0.83048063  0.37289945  0.95768005  1
  La  La60  1  0.83048063  0.62289945  0.45768005  1
  La  La61  1  0.83048063  0.62289945  0.95768005  1
  La  La62  1  0.83048063  0.87289945  0.45768005  1
  La  La63  1  0.83048063  0.87289945  0.95768005  1
  Cr  Cr64  1  0.50000000  0.11522257  0.12500000  1
  Cr  Cr65  1  0.50000000  0.11522257  0.62500000  1
  Cr  Cr66  1  0.50000000  0.36522257  0.12500000  1
  Cr  Cr67  1  0.50000000  0.36522257  0.62500000  1
  Cr  Cr68  1  0.50000000  0.61522257  0.12500000  1
  Cr  Cr69  1  0.50000000  0.61522257  0.62500000  1
  Cr  Cr70  1  0.50000000  0.86522257  0.12500000  1
  Cr  Cr71  1  0.50000000  0.86522257  0.62500000  1
  Cr  Cr72  1  1.00000000  0.24022257  0.12500000  1
  Cr  Cr73  1  1.00000000  0.24022257  0.62500000  1
  Cr  Cr74  1  1.00000000  0.49022257  0.12500000  1
  Cr  Cr75  1  1.00000000  0.49022257  0.62500000  1
  Cr  Cr76  1  1.00000000  0.74022257  0.12500000  1
  Cr  Cr77  1  1.00000000  0.74022257  0.62500000  1
  Cr  Cr78  1  1.00000000  0.99022257  0.12500000  1
  Cr  Cr79  1  1.00000000  0.99022257  0.62500000  1
  Cr  Cr80  1  0.50000000  -0.11522257  0.37500000  1
  Cr  Cr81  1  0.50000000  -0.11522257  0.87500000  1
  Cr  Cr82  1  0.50000000  0.13477743  0.37500000  1
  Cr  Cr83  1  0.50000000  0.13477743  0.87500000  1
  Cr  Cr84  1  0.50000000  0.38477743  0.37500000  1
  Cr  Cr85  1  0.50000000  0.38477743  0.87500000  1
  Cr  Cr86  1  0.50000000  0.63477743  0.37500000  1
  Cr  Cr87  1  0.50000000  0.63477743  0.87500000  1
  Cr  Cr88  1  1.00000000  0.00977743  0.37500000  1
  Cr  Cr89  1  1.00000000  0.00977743  0.87500000  1
  Cr  Cr90  1  1.00000000  0.25977743  0.37500000  1
  Cr  Cr91  1  1.00000000  0.25977743  0.87500000  1
  Cr  Cr92  1  1.00000000  0.50977743  0.37500000  1
  Cr  Cr93  1  1.00000000  0.50977743  0.87500000  1
  Cr  Cr94  1  1.00000000  0.75977743  0.37500000  1
  Cr  Cr95  1  1.00000000  0.75977743  0.87500000  1
  O  O96  1  0.75694872  -0.00536114  0.43919528  1
  O  O97  1  0.75694872  -0.00536114  0.93919528  1
  O  O98  1  0.75694872  0.24463886  0.43919528  1
  O  O99  1  0.75694872  0.24463886  0.93919528  1
  O  O100  1  0.75694872  0.49463886  0.43919528  1
  O  O101  1  0.75694872  0.49463886  0.93919528  1
  O  O102  1  0.75694872  0.74463886  0.43919528  1
  O  O103  1  0.75694872  0.74463886  0.93919528  1
  O  O104  1  1.25694872  0.11963886  0.43919528  1
  O  O105  1  1.25694872  0.11963886  0.93919528  1
  O  O106  1  1.25694872  0.36963886  0.43919528  1
  O  O107  1  1.25694872  0.36963886  0.93919528  1
  O  O108  1  1.25694872  0.61963886  0.43919528  1
  O  O109  1  1.25694872  0.61963886  0.93919528  1
  O  O110  1  1.25694872  0.86963886  0.43919528  1
  O  O111  1  1.25694872  0.86963886  0.93919528  1
  O  O112  1  0.50146888  -0.05891050  0.45524696  1
  O  O113  1  0.50146888  -0.05891050  0.95524696  1
  O  O114  1  0.50146888  0.19108950  0.45524696  1
  O  O115  1  0.50146888  0.19108950  0.95524696  1
  O  O116  1  0.50146888  0.44108950  0.45524696  1
  O  O117  1  0.50146888  0.44108950  0.95524696  1
  O  O118  1  0.50146888  0.69108950  0.45524696  1
  O  O119  1  0.50146888  0.69108950  0.95524696  1
  O  O120  1  1.00146888  0.06608950  0.45524696  1
  O  O121  1  1.00146888  0.06608950  0.95524696  1
  O  O122  1  1.00146888  0.31608950  0.45524696  1
  O  O123  1  1.00146888  0.31608950  0.95524696  1
  O  O124  1  1.00146888  0.56608950  0.45524696  1
  O  O125  1  1.00146888  0.56608950  0.95524696  1
  O  O126  1  1.00146888  0.81608950  0.45524696  1
  O  O127  1  1.00146888  0.81608950  0.95524696  1
  O  O128  1  0.59974634  -0.08163304  0.14919038  1
  O  O129  1  0.59974634  -0.08163304  0.64919038  1
  O  O130  1  0.59974634  0.16836696  0.14919038  1
  O  O131  1  0.59974634  0.16836696  0.64919038  1
  O  O132  1  0.59974634  0.41836696  0.14919038  1
  O  O133  1  0.59974634  0.41836696  0.64919038  1
  O  O134  1  0.59974634  0.66836696  0.14919038  1
  O  O135  1  0.59974634  0.66836696  0.64919038  1
  O  O136  1  1.09974634  0.04336696  0.14919038  1
  O  O137  1  1.09974634  0.04336696  0.64919038  1
  O  O138  1  1.09974634  0.29336696  0.14919038  1
  O  O139  1  1.09974634  0.29336696  0.64919038  1
  O  O140  1  1.09974634  0.54336696  0.14919038  1
  O  O141  1  1.09974634  0.54336696  0.64919038  1
  O  O142  1  1.09974634  0.79336696  0.14919038  1
  O  O143  1  1.09974634  0.79336696  0.64919038  1
  O  O144  1  0.40025366  0.08163304  0.35080962  1
  O  O145  1  0.40025366  0.08163304  0.85080962  1
  O  O146  1  0.40025366  0.33163304  0.35080962  1
  O  O147  1  0.40025366  0.33163304  0.85080962  1
  O  O148  1  0.40025366  0.58163304  0.35080962  1
  O  O149  1  0.40025366  0.58163304  0.85080962  1
  O  O150  1  0.40025366  0.83163304  0.35080962  1
  O  O151  1  0.40025366  0.83163304  0.85080962  1
  O  O152  1  0.90025366  0.20663304  0.35080962  1
  O  O153  1  0.90025366  0.20663304  0.85080962  1
  O  O154  1  0.90025366  0.45663304  0.35080962  1
  O  O155  1  0.90025366  0.45663304  0.85080962  1
  O  O156  1  0.90025366  0.70663304  0.35080962  1
  O  O157  1  0.90025366  0.70663304  0.85080962  1
  O  O158  1  0.90025366  0.95663304  0.35080962  1
  O  O159  1  0.90025366  0.95663304  0.85080962  1
  O  O160  1  0.24305128  -0.00536114  0.31080472  1
  O  O161  1  0.24305128  -0.00536114  0.81080472  1
  O  O162  1  0.24305128  0.24463886  0.31080472  1
  O  O163  1  0.24305128  0.24463886  0.81080472  1
  O  O164  1  0.24305128  0.49463886  0.31080472  1
  O  O165  1  0.24305128  0.49463886  0.81080472  1
  O  O166  1  0.24305128  0.74463886  0.31080472  1
  O  O167  1  0.24305128  0.74463886  0.81080472  1
  O  O168  1  0.74305128  0.11963886  0.31080472  1
  O  O169  1  0.74305128  0.11963886  0.81080472  1
  O  O170  1  0.74305128  0.36963886  0.31080472  1
  O  O171  1  0.74305128  0.36963886  0.81080472  1
  O  O172  1  0.74305128  0.61963886  0.31080472  1
  O  O173  1  0.74305128  0.61963886  0.81080472  1
  O  O174  1  0.74305128  0.86963886  0.31080472  1
  O  O175  1  0.74305128  0.86963886  0.81080472  1
  O  O176  1  0.49853112  -0.05891050  0.29475304  1
  O  O177  1  0.49853112  -0.05891050  0.79475304  1
  O  O178  1  0.49853112  0.19108950  0.29475304  1
  O  O179  1  0.49853112  0.19108950  0.79475304  1
  O  O180  1  0.49853112  0.44108950  0.29475304  1
  O  O181  1  0.49853112  0.44108950  0.79475304  1
  O  O182  1  0.49853112  0.69108950  0.29475304  1
  O  O183  1  0.49853112  0.69108950  0.79475304  1
  O  O184  1  0.99853112  0.06608950  0.29475304  1
  O  O185  1  0.99853112  0.06608950  0.79475304  1
  O  O186  1  0.99853112  0.31608950  0.29475304  1
  O  O187  1  0.99853112  0.31608950  0.79475304  1
  O  O188  1  0.99853112  0.56608950  0.29475304  1
  O  O189  1  0.99853112  0.56608950  0.79475304  1
  O  O190  1  0.99853112  0.81608950  0.29475304  1
  O  O191  1  0.99853112  0.81608950  0.79475304  1
  O  O192  1  0.75694872  0.00536114  0.18919528  1
  O  O193  1  0.75694872  0.00536114  0.68919528  1
  O  O194  1  0.75694872  0.25536114  0.18919528  1
  O  O195  1  0.75694872  0.25536114  0.68919528  1
  O  O196  1  0.75694872  0.50536114  0.18919528  1
  O  O197  1  0.75694872  0.50536114  0.68919528  1
  O  O198  1  0.75694872  0.75536114  0.18919528  1
  O  O199  1  0.75694872  0.75536114  0.68919528  1
  O  O200  1  1.25694872  0.13036114  0.18919528  1
  O  O201  1  1.25694872  0.13036114  0.68919528  1
  O  O202  1  1.25694872  0.38036114  0.18919528  1
  O  O203  1  1.25694872  0.38036114  0.68919528  1
  O  O204  1  1.25694872  0.63036114  0.18919528  1
  O  O205  1  1.25694872  0.63036114  0.68919528  1
  O  O206  1  1.25694872  0.88036114  0.18919528  1
  O  O207  1  1.25694872  0.88036114  0.68919528  1
  O  O208  1  0.49853112  0.05891050  0.04475304  1
  O  O209  1  0.49853112  0.05891050  0.54475304  1
  O  O210  1  0.49853112  0.30891050  0.04475304  1
  O  O211  1  0.49853112  0.30891050  0.54475304  1
  O  O212  1  0.49853112  0.55891050  0.04475304  1
  O  O213  1  0.49853112  0.55891050  0.54475304  1
  O  O214  1  0.49853112  0.80891050  0.04475304  1
  O  O215  1  0.49853112  0.80891050  0.54475304  1
  O  O216  1  0.99853112  0.18391050  0.04475304  1
  O  O217  1  0.99853112  0.18391050  0.54475304  1
  O  O218  1  0.99853112  0.43391050  0.04475304  1
  O  O219  1  0.99853112  0.43391050  0.54475304  1
  O  O220  1  0.99853112  0.68391050  0.04475304  1
  O  O221  1  0.99853112  0.68391050  0.54475304  1
  O  O222  1  0.99853112  0.93391050  0.04475304  1
  O  O223  1  0.99853112  0.93391050  0.54475304  1
  O  O224  1  0.24305128  0.00536114  0.06080472  1
  O  O225  1  0.24305128  0.00536114  0.56080472  1
  O  O226  1  0.24305128  0.25536114  0.06080472  1
  O  O227  1  0.24305128  0.25536114  0.56080472  1
  O  O228  1  0.24305128  0.50536114  0.06080472  1
  O  O229  1  0.24305128  0.50536114  0.56080472  1
  O  O230  1  0.24305128  0.75536114  0.06080472  1
  O  O231  1  0.24305128  0.75536114  0.56080472  1
  O  O232  1  0.74305128  0.13036114  0.06080472  1
  O  O233  1  0.74305128  0.13036114  0.56080472  1
  O  O234  1  0.74305128  0.38036114  0.06080472  1
  O  O235  1  0.74305128  0.38036114  0.56080472  1
  O  O236  1  0.74305128  0.63036114  0.06080472  1
  O  O237  1  0.74305128  0.63036114  0.56080472  1
  O  O238  1  0.74305128  0.88036114  0.06080472  1
  O  O239  1  0.74305128  0.88036114  0.56080472  1
  O  O240  1  0.50146888  0.05891050  0.20524696  1
  O  O241  1  0.50146888  0.05891050  0.70524696  1
  O  O242  1  0.50146888  0.30891050  0.20524696  1
  O  O243  1  0.50146888  0.30891050  0.70524696  1
  O  O244  1  0.50146888  0.55891050  0.20524696  1
  O  O245  1  0.50146888  0.55891050  0.70524696  1
  O  O246  1  0.50146888  0.80891050  0.20524696  1
  O  O247  1  0.50146888  0.80891050  0.70524696  1
  O  O248  1  1.00146888  0.18391050  0.20524696  1
  O  O249  1  1.00146888  0.18391050  0.70524696  1
  O  O250  1  1.00146888  0.43391050  0.20524696  1
  O  O251  1  1.00146888  0.43391050  0.70524696  1
  O  O252  1  1.00146888  0.68391050  0.20524696  1
  O  O253  1  1.00146888  0.68391050  0.70524696  1
  O  O254  1  1.00146888  0.93391050  0.20524696  1
  O  O255  1  1.00146888  0.93391050  0.70524696  1
  O  O256  1  0.59974634  0.08163304  0.39919038  1
  O  O257  1  0.59974634  0.08163304  0.89919038  1
  O  O258  1  0.59974634  0.33163304  0.39919038  1
  O  O259  1  0.59974634  0.33163304  0.89919038  1
  O  O260  1  0.59974634  0.58163304  0.39919038  1
  O  O261  1  0.59974634  0.58163304  0.89919038  1
  O  O262  1  0.59974634  0.83163304  0.39919038  1
  O  O263  1  0.59974634  0.83163304  0.89919038  1
  O  O264  1  1.09974634  0.20663304  0.39919038  1
  O  O265  1  1.09974634  0.20663304  0.89919038  1
  O  O266  1  1.09974634  0.45663304  0.39919038  1
  O  O267  1  1.09974634  0.45663304  0.89919038  1
  O  O268  1  1.09974634  0.70663304  0.39919038  1
  O  O269  1  1.09974634  0.70663304  0.89919038  1
  O  O270  1  1.09974634  0.95663304  0.39919038  1
  O  O271  1  1.09974634  0.95663304  0.89919038  1
  O  O272  1  0.40025366  -0.08163304  0.10080962  1
  O  O273  1  0.40025366  -0.08163304  0.60080962  1
  O  O274  1  0.40025366  0.16836696  0.10080962  1
  O  O275  1  0.40025366  0.16836696  0.60080962  1
  O  O276  1  0.40025366  0.41836696  0.10080962  1
  O  O277  1  0.40025366  0.41836696  0.60080962  1
  O  O278  1  0.40025366  0.66836696  0.10080962  1
  O  O279  1  0.40025366  0.66836696  0.60080962  1
  O  O280  1  0.90025366  0.04336696  0.10080962  1
  O  O281  1  0.90025366  0.04336696  0.60080962  1
  O  O282  1  0.90025366  0.29336696  0.10080962  1
  O  O283  1  0.90025366  0.29336696  0.60080962  1
  O  O284  1  0.90025366  0.54336696  0.10080962  1
  O  O285  1  0.90025366  0.54336696  0.60080962  1
  O  O286  1  0.90025366  0.79336696  0.10080962  1
  O  O287  1  0.90025366  0.79336696  0.60080962  1
