# generated using pymatgen
data_ZrSiO4
_symmetry_space_group_name_H-M   'P 1'
_cell_length_a   13.23577848
_cell_length_b   13.23577848
_cell_length_c   11.97274495
_cell_angle_alpha   90.00000000
_cell_angle_beta   90.00000000
_cell_angle_gamma   90.00000000
_symmetry_Int_Tables_number   1
_chemical_formula_structural   ZrSiO4
_chemical_formula_sum   'Zr32 Si32 O128'
_cell_volume   2097.45528443
_cell_formula_units_Z   32
loop_
 _symmetry_equiv_pos_site_id
 _symmetry_equiv_pos_as_xyz
  1  'x, y, z'
loop_
 _atom_site_type_symbol
 _atom_site_label
 _atom_site_symmetry_multiplicity
 _atom_site_fract_x
 _atom_site_fract_y
 _atom_site_fract_z
 _atom_site_occupancy
  Zr  Zr0  1  0.00000000  0.25000000  0.12500000  1
  Zr  Zr1  1  0.00000000  0.25000000  0.62500000  1
  Zr  Zr2  1  0.50000000  0.25000000  0.12500000  1
  Zr  Zr3  1  0.50000000  0.25000000  0.62500000  1
  Zr  Zr4  1  0.00000000  -0.25000000  0.12500000  1
  Zr  Zr5  1  0.00000000  -0.25000000  0.62500000  1
  Zr  Zr6  1  0.50000000  -0.25000000  0.12500000  1
  Zr  Zr7  1  0.50000000  -0.25000000  0.62500000  1
  Zr  Zr8  1  0.25000000  0.00000000  0.37500000  1
  Zr  Zr9  1  0.25000000  0.00000000  0.87500000  1
  Zr  Zr10  1  0.75000000  0.00000000  0.37500000  1
  Zr  Zr11  1  0.75000000  0.00000000  0.87500000  1
  Zr  Zr12  1  0.25000000  -0.50000000  0.37500000  1
  Zr  Zr13  1  0.25000000  -0.50000000  0.87500000  1
  Zr  Zr14  1  0.75000000  -0.50000000  0.37500000  1
  Zr  Zr15  1  0.75000000  -0.50000000  0.87500000  1
  Zr  Zr16  1  0.00000000  0.50000000  0.25000000  1
  Zr  Zr17  1  0.00000000  0.50000000  0.75000000  1
  Zr  Zr18  1  0.50000000  0.50000000  0.25000000  1
  Zr  Zr19  1  0.50000000  0.50000000  0.75000000  1
  Zr  Zr20  1  0.00000000  0.00000000  0.25000000  1
  Zr  Zr21  1  0.00000000  0.00000000  0.75000000  1
  Zr  Zr22  1  0.50000000  0.00000000  0.25000000  1
  Zr  Zr23  1  0.50000000  0.00000000  0.75000000  1
  Zr  Zr24  1  0.25000000  0.25000000  0.50000000  1
  Zr  Zr25  1  0.25000000  0.25000000  1.00000000  1
  Zr  Zr26  1  0.75000000  0.25000000  0.50000000  1
  Zr  Zr27  1  0.75000000  0.25000000  1.00000000  1
  Zr  Zr28  1  0.25000000  -0.25000000  0.50000000  1
  Zr  Zr29  1  0.25000000  -0.25000000  1.00000000  1
  Zr  Zr30  1  0.75000000  -0.25000000  0.50000000  1
  Zr  Zr31  1  0.75000000  -0.25000000  1.00000000  1
  Si  Si32  1  0.25000000  0.50000000  0.12500000  1
  Si  Si33  1  0.25000000  0.50000000  0.62500000  1
  Si  Si34  1  0.75000000  0.50000000  0.12500000  1
  Si  Si35  1  0.75000000  0.50000000  0.62500000  1
  Si  Si36  1  0.25000000  0.00000000  0.12500000  1
  Si  Si37  1  0.25000000  0.00000000  0.62500000  1
  Si  Si38  1  0.75000000  0.00000000  0.12500000  1
  Si  Si39  1  0.75000000  0.00000000  0.62500000  1
  Si  Si40  1  0.50000000  0.25000000  0.37500000  1
  Si  Si41  1  0.50000000  0.25000000  0.87500000  1
  Si  Si42  1  1.00000000  0.25000000  0.37500000  1
  Si  Si43  1  1.00000000  0.25000000  0.87500000  1
  Si  Si44  1  0.50000000  -0.25000000  0.37500000  1
  Si  Si45  1  0.50000000  -0.25000000  0.87500000  1
  Si  Si46  1  1.00000000  -0.25000000  0.37500000  1
  Si  Si47  1  1.00000000  -0.25000000  0.87500000  1
  Si  Si48  1  0.00000000  0.50000000  0.00000000  1
  Si  Si49  1  0.00000000  0.50000000  0.50000000  1
  Si  Si50  1  0.50000000  0.50000000  0.00000000  1
  Si  Si51  1  0.50000000  0.50000000  0.50000000  1
  Si  Si52  1  0.00000000  0.00000000  0.00000000  1
  Si  Si53  1  0.00000000  0.00000000  0.50000000  1
  Si  Si54  1  0.50000000  0.00000000  0.00000000  1
  Si  Si55  1  0.50000000  0.00000000  0.50000000  1
  Si  Si56  1  0.25000000  0.25000000  0.25000000  1
  Si  Si57  1  0.25000000  0.25000000  0.75000000  1
  Si  Si58  1  0.75000000  0.25000000  0.25000000  1
  Si  Si59  1  0.75000000  0.25000000  0.75000000  1
  Si  Si60  1  0.25000000  -0.25000000  0.25000000  1
  Si  Si61  1  0.25000000  -0.25000000  0.75000000  1
  Si  Si62  1  0.75000000  -0.25000000  0.25000000  1
  Si  Si63  1  0.75000000  -0.25000000  0.75000000  1
  O  O64  1  0.00000000  0.34228146  0.28447291  1
  O  O65  1  0.00000000  0.34228146  0.78447291  1
  O  O66  1  0.50000000  0.34228146  0.28447291  1
  O  O67  1  0.50000000  0.34228146  0.78447291  1
  O  O68  1  0.00000000  -0.15771854  0.28447291  1
  O  O69  1  0.00000000  -0.15771854  0.78447291  1
  O  O70  1  0.50000000  -0.15771854  0.28447291  1
  O  O71  1  0.50000000  -0.15771854  0.78447291  1
  O  O72  1  0.25000000  0.09228146  0.53447291  1
  O  O73  1  0.25000000  0.09228146  1.03447291  1
  O  O74  1  0.75000000  0.09228146  0.53447291  1
  O  O75  1  0.75000000  0.09228146  1.03447291  1
  O  O76  1  0.25000000  -0.40771854  0.53447291  1
  O  O77  1  0.25000000  -0.40771854  1.03447291  1
  O  O78  1  0.75000000  -0.40771854  0.53447291  1
  O  O79  1  0.75000000  -0.40771854  1.03447291  1
  O  O80  1  -0.15771854  0.25000000  0.15947291  1
  O  O81  1  -0.15771854  0.25000000  0.65947291  1
  O  O82  1  0.34228146  0.25000000  0.15947291  1
  O  O83  1  0.34228146  0.25000000  0.65947291  1
  O  O84  1  -0.15771854  -0.25000000  0.15947291  1
  O  O85  1  -0.15771854  -0.25000000  0.65947291  1
  O  O86  1  0.34228146  -0.25000000  0.15947291  1
  O  O87  1  0.34228146  -0.25000000  0.65947291  1
  O  O88  1  0.09228146  0.00000000  0.40947291  1
  O  O89  1  0.09228146  0.00000000  0.90947291  1
  O  O90  1  0.59228146  0.00000000  0.40947291  1
  O  O91  1  0.59228146  0.00000000  0.90947291  1
  O  O92  1  0.09228146  -0.50000000  0.40947291  1
  O  O93  1  0.09228146  -0.50000000  0.90947291  1
  O  O94  1  0.59228146  -0.50000000  0.40947291  1
  O  O95  1  0.59228146  -0.50000000  0.90947291  1
  O  O96  1  0.15771854  0.25000000  0.15947291  1
  O  O97  1  0.15771854  0.25000000  0.65947291  1
  O  O98  1  0.65771854  0.25000000  0.15947291  1
  O  O99  1  0.65771854  0.25000000  0.65947291  1
  O  O100  1  0.15771854  -0.25000000  0.15947291  1
  O  O101  1  0.15771854  -0.25000000  0.65947291  1
  O  O102  1  0.65771854  -0.25000000  0.15947291  1
  O  O103  1  0.65771854  -0.25000000  0.65947291  1
  O  O104  1  0.40771854  0.00000000  0.40947291  1
  O  O105  1  0.40771854  0.00000000  0.90947291  1
  O  O106  1  0.90771854  0.00000000  0.40947291  1
  O  O107  1  0.90771854  0.00000000  0.90947291  1
  O  O108  1  0.40771854  -0.50000000  0.40947291  1
  O  O109  1  0.40771854  -0.50000000  0.90947291  1
  O  O110  1  0.90771854  -0.50000000  0.40947291  1
  O  O111  1  0.90771854  -0.50000000  0.90947291  1
  O  O112  1  0.25000000  0.40771854  0.03447291  1
  O  O113  1  0.25000000  0.40771854  0.53447291  1
  O  O114  1  0.75000000  0.40771854  0.03447291  1
  O  O115  1  0.75000000  0.40771854  0.53447291  1
  O  O116  1  0.25000000  -0.09228146  0.03447291  1
  O  O117  1  0.25000000  -0.09228146  0.53447291  1
  O  O118  1  0.75000000  -0.09228146  0.03447291  1
  O  O119  1  0.75000000  -0.09228146  0.53447291  1
  O  O120  1  0.50000000  0.15771854  0.28447291  1
  O  O121  1  0.50000000  0.15771854  0.78447291  1
  O  O122  1  1.00000000  0.15771854  0.28447291  1
  O  O123  1  1.00000000  0.15771854  0.78447291  1
  O  O124  1  0.50000000  -0.34228146  0.28447291  1
  O  O125  1  0.50000000  -0.34228146  0.78447291  1
  O  O126  1  1.00000000  -0.34228146  0.28447291  1
  O  O127  1  1.00000000  -0.34228146  0.78447291  1
  O  O128  1  0.15771854  0.50000000  0.21552709  1
  O  O129  1  0.15771854  0.50000000  0.71552709  1
  O  O130  1  0.65771854  0.50000000  0.21552709  1
  O  O131  1  0.65771854  0.50000000  0.71552709  1
  O  O132  1  0.15771854  -0.00000000  0.21552709  1
  O  O133  1  0.15771854  -0.00000000  0.71552709  1
  O  O134  1  0.65771854  -0.00000000  0.21552709  1
  O  O135  1  0.65771854  -0.00000000  0.71552709  1
  O  O136  1  0.40771854  0.25000000  0.46552709  1
  O  O137  1  0.40771854  0.25000000  0.96552709  1
  O  O138  1  0.90771854  0.25000000  0.46552709  1
  O  O139  1  0.90771854  0.25000000  0.96552709  1
  O  O140  1  0.40771854  -0.25000000  0.46552709  1
  O  O141  1  0.40771854  -0.25000000  0.96552709  1
  O  O142  1  0.90771854  -0.25000000  0.46552709  1
  O  O143  1  0.90771854  -0.25000000  0.96552709  1
  O  O144  1  0.00000000  0.40771854  0.09052709  1
  O  O145  1  0.00000000  0.40771854  0.59052709  1
  O  O146  1  0.50000000  0.40771854  0.09052709  1
  O  O147  1  0.50000000  0.40771854  0.59052709  1
  O  O148  1  0.00000000  -0.09228146  0.09052709  1
  O  O149  1  0.00000000  -0.09228146  0.59052709  1
  O  O150  1  0.50000000  -0.09228146  0.09052709  1
  O  O151  1  0.50000000  -0.09228146  0.59052709  1
  O  O152  1  0.25000000  0.15771854  0.34052709  1
  O  O153  1  0.25000000  0.15771854  0.84052709  1
  O  O154  1  0.75000000  0.15771854  0.34052709  1
  O  O155  1  0.75000000  0.15771854  0.84052709  1
  O  O156  1  0.25000000  -0.34228146  0.34052709  1
  O  O157  1  0.25000000  -0.34228146  0.84052709  1
  O  O158  1  0.75000000  -0.34228146  0.34052709  1
  O  O159  1  0.75000000  -0.34228146  0.84052709  1
  O  O160  1  -0.00000000  0.09228146  0.09052709  1
  O  O161  1  -0.00000000  0.09228146  0.59052709  1
  O  O162  1  0.50000000  0.09228146  0.09052709  1
  O  O163  1  0.50000000  0.09228146  0.59052709  1
  O  O164  1  -0.00000000  -0.40771854  0.09052709  1
  O  O165  1  -0.00000000  -0.40771854  0.59052709  1
  O  O166  1  0.50000000  -0.40771854  0.09052709  1
  O  O167  1  0.50000000  -0.40771854  0.59052709  1
  O  O168  1  0.25000000  -0.15771854  0.34052709  1
  O  O169  1  0.25000000  -0.15771854  0.84052709  1
  O  O170  1  0.75000000  -0.15771854  0.34052709  1
  O  O171  1  0.75000000  -0.15771854  0.84052709  1
  O  O172  1  0.25000000  -0.65771854  0.34052709  1
  O  O173  1  0.25000000  -0.65771854  0.84052709  1
  O  O174  1  0.75000000  -0.65771854  0.34052709  1
  O  O175  1  0.75000000  -0.65771854  0.84052709  1
  O  O176  1  0.09228146  0.25000000  -0.03447291  1
  O  O177  1  0.09228146  0.25000000  0.46552709  1
  O  O178  1  0.59228146  0.25000000  -0.03447291  1
  O  O179  1  0.59228146  0.25000000  0.46552709  1
  O  O180  1  0.09228146  -0.25000000  -0.03447291  1
  O  O181  1  0.09228146  -0.25000000  0.46552709  1
  O  O182  1  0.59228146  -0.25000000  -0.03447291  1
  O  O183  1  0.59228146  -0.25000000  0.46552709  1
  O  O184  1  0.34228146  0.00000000  0.21552709  1
  O  O185  1  0.34228146  0.00000000  0.71552709  1
  O  O186  1  0.84228146  0.00000000  0.21552709  1
  O  O187  1  0.84228146  0.00000000  0.71552709  1
  O  O188  1  0.34228146  -0.50000000  0.21552709  1
  O  O189  1  0.34228146  -0.50000000  0.71552709  1
  O  O190  1  0.84228146  -0.50000000  0.21552709  1
  O  O191  1  0.84228146  -0.50000000  0.71552709  1
