# generated using pymatgen
data_Na2BeB2O5
_symmetry_space_group_name_H-M   'P 1'
_cell_length_a   17.31495092
_cell_length_b   16.31864847
_cell_length_c   17.63220327
_cell_angle_alpha   90.00000000
_cell_angle_beta   100.15532807
_cell_angle_gamma   90.00000000
_symmetry_Int_Tables_number   1
_chemical_formula_structural   Na2BeB2O5
_chemical_formula_sum   'Na96 Be48 B96 O240'
_cell_volume   4904.04274791
_cell_formula_units_Z   48
loop_
 _symmetry_equiv_pos_site_id
 _symmetry_equiv_pos_as_xyz
  1  'x, y, z'
loop_
 _atom_site_type_symbol
 _atom_site_label
 _atom_site_symmetry_multiplicity
 _atom_site_fract_x
 _atom_site_fract_y
 _atom_site_fract_z
 _atom_site_occupancy
  Na  Na0  1  0.16225401  -0.09799163  0.21300252  1
  Na  Na1  1  0.16225401  -0.09799163  0.71300252  1
  Na  Na2  1  0.16225401  0.40200837  0.21300252  1
  Na  Na3  1  0.16225401  0.40200837  0.71300252  1
  Na  Na4  1  0.49558734  -0.09799163  0.21300252  1
  Na  Na5  1  0.49558734  -0.09799163  0.71300252  1
  Na  Na6  1  0.49558734  0.40200837  0.21300252  1
  Na  Na7  1  0.49558734  0.40200837  0.71300252  1
  Na  Na8  1  0.82892067  -0.09799163  0.21300252  1
  Na  Na9  1  0.82892067  -0.09799163  0.71300252  1
  Na  Na10  1  0.82892067  0.40200837  0.21300252  1
  Na  Na11  1  0.82892067  0.40200837  0.71300252  1
  Na  Na12  1  0.32892067  0.15200837  0.21300252  1
  Na  Na13  1  0.32892067  0.15200837  0.71300252  1
  Na  Na14  1  0.32892067  0.65200837  0.21300252  1
  Na  Na15  1  0.32892067  0.65200837  0.71300252  1
  Na  Na16  1  0.66225401  0.15200837  0.21300252  1
  Na  Na17  1  0.66225401  0.15200837  0.71300252  1
  Na  Na18  1  0.66225401  0.65200837  0.21300252  1
  Na  Na19  1  0.66225401  0.65200837  0.71300252  1
  Na  Na20  1  0.99558734  0.15200837  0.21300252  1
  Na  Na21  1  0.99558734  0.15200837  0.71300252  1
  Na  Na22  1  0.99558734  0.65200837  0.21300252  1
  Na  Na23  1  0.99558734  0.65200837  0.71300252  1
  Na  Na24  1  0.17107933  -0.09799163  0.03699748  1
  Na  Na25  1  0.17107933  -0.09799163  0.53699748  1
  Na  Na26  1  0.17107933  0.40200837  0.03699748  1
  Na  Na27  1  0.17107933  0.40200837  0.53699748  1
  Na  Na28  1  0.50441266  -0.09799163  0.03699748  1
  Na  Na29  1  0.50441266  -0.09799163  0.53699748  1
  Na  Na30  1  0.50441266  0.40200837  0.03699748  1
  Na  Na31  1  0.50441266  0.40200837  0.53699748  1
  Na  Na32  1  0.83774599  -0.09799163  0.03699748  1
  Na  Na33  1  0.83774599  -0.09799163  0.53699748  1
  Na  Na34  1  0.83774599  0.40200837  0.03699748  1
  Na  Na35  1  0.83774599  0.40200837  0.53699748  1
  Na  Na36  1  0.33774599  0.15200837  0.03699748  1
  Na  Na37  1  0.33774599  0.15200837  0.53699748  1
  Na  Na38  1  0.33774599  0.65200837  0.03699748  1
  Na  Na39  1  0.33774599  0.65200837  0.53699748  1
  Na  Na40  1  0.67107933  0.15200837  0.03699748  1
  Na  Na41  1  0.67107933  0.15200837  0.53699748  1
  Na  Na42  1  0.67107933  0.65200837  0.03699748  1
  Na  Na43  1  0.67107933  0.65200837  0.53699748  1
  Na  Na44  1  1.00441266  0.15200837  0.03699748  1
  Na  Na45  1  1.00441266  0.15200837  0.53699748  1
  Na  Na46  1  1.00441266  0.65200837  0.03699748  1
  Na  Na47  1  1.00441266  0.65200837  0.53699748  1
  Na  Na48  1  0.17107933  0.09799163  0.28699748  1
  Na  Na49  1  0.17107933  0.09799163  0.78699748  1
  Na  Na50  1  0.17107933  0.59799163  0.28699748  1
  Na  Na51  1  0.17107933  0.59799163  0.78699748  1
  Na  Na52  1  0.50441266  0.09799163  0.28699748  1
  Na  Na53  1  0.50441266  0.09799163  0.78699748  1
  Na  Na54  1  0.50441266  0.59799163  0.28699748  1
  Na  Na55  1  0.50441266  0.59799163  0.78699748  1
  Na  Na56  1  0.83774599  0.09799163  0.28699748  1
  Na  Na57  1  0.83774599  0.09799163  0.78699748  1
  Na  Na58  1  0.83774599  0.59799163  0.28699748  1
  Na  Na59  1  0.83774599  0.59799163  0.78699748  1
  Na  Na60  1  0.33774599  0.34799163  0.28699748  1
  Na  Na61  1  0.33774599  0.34799163  0.78699748  1
  Na  Na62  1  0.33774599  0.84799163  0.28699748  1
  Na  Na63  1  0.33774599  0.84799163  0.78699748  1
  Na  Na64  1  0.67107933  0.34799163  0.28699748  1
  Na  Na65  1  0.67107933  0.34799163  0.78699748  1
  Na  Na66  1  0.67107933  0.84799163  0.28699748  1
  Na  Na67  1  0.67107933  0.84799163  0.78699748  1
  Na  Na68  1  1.00441266  0.34799163  0.28699748  1
  Na  Na69  1  1.00441266  0.34799163  0.78699748  1
  Na  Na70  1  1.00441266  0.84799163  0.28699748  1
  Na  Na71  1  1.00441266  0.84799163  0.78699748  1
  Na  Na72  1  0.16225401  0.09799163  0.46300252  1
  Na  Na73  1  0.16225401  0.09799163  0.96300252  1
  Na  Na74  1  0.16225401  0.59799163  0.46300252  1
  Na  Na75  1  0.16225401  0.59799163  0.96300252  1
  Na  Na76  1  0.49558734  0.09799163  0.46300252  1
  Na  Na77  1  0.49558734  0.09799163  0.96300252  1
  Na  Na78  1  0.49558734  0.59799163  0.46300252  1
  Na  Na79  1  0.49558734  0.59799163  0.96300252  1
  Na  Na80  1  0.82892067  0.09799163  0.46300252  1
  Na  Na81  1  0.82892067  0.09799163  0.96300252  1
  Na  Na82  1  0.82892067  0.59799163  0.46300252  1
  Na  Na83  1  0.82892067  0.59799163  0.96300252  1
  Na  Na84  1  0.32892067  0.34799163  0.46300252  1
  Na  Na85  1  0.32892067  0.34799163  0.96300252  1
  Na  Na86  1  0.32892067  0.84799163  0.46300252  1
  Na  Na87  1  0.32892067  0.84799163  0.96300252  1
  Na  Na88  1  0.66225401  0.34799163  0.46300252  1
  Na  Na89  1  0.66225401  0.34799163  0.96300252  1
  Na  Na90  1  0.66225401  0.84799163  0.46300252  1
  Na  Na91  1  0.66225401  0.84799163  0.96300252  1
  Na  Na92  1  0.99558734  0.34799163  0.46300252  1
  Na  Na93  1  0.99558734  0.34799163  0.96300252  1
  Na  Na94  1  0.99558734  0.84799163  0.46300252  1
  Na  Na95  1  0.99558734  0.84799163  0.96300252  1
  Be  Be96  1  0.16666667  0.10600631  0.12500000  1
  Be  Be97  1  0.16666667  0.10600631  0.62500000  1
  Be  Be98  1  0.16666667  0.60600631  0.12500000  1
  Be  Be99  1  0.16666667  0.60600631  0.62500000  1
  Be  Be100  1  0.50000000  0.10600631  0.12500000  1
  Be  Be101  1  0.50000000  0.10600631  0.62500000  1
  Be  Be102  1  0.50000000  0.60600631  0.12500000  1
  Be  Be103  1  0.50000000  0.60600631  0.62500000  1
  Be  Be104  1  0.83333333  0.10600631  0.12500000  1
  Be  Be105  1  0.83333333  0.10600631  0.62500000  1
  Be  Be106  1  0.83333333  0.60600631  0.12500000  1
  Be  Be107  1  0.83333333  0.60600631  0.62500000  1
  Be  Be108  1  0.33333333  0.35600631  0.12500000  1
  Be  Be109  1  0.33333333  0.35600631  0.62500000  1
  Be  Be110  1  0.33333333  0.85600631  0.12500000  1
  Be  Be111  1  0.33333333  0.85600631  0.62500000  1
  Be  Be112  1  0.66666667  0.35600631  0.12500000  1
  Be  Be113  1  0.66666667  0.35600631  0.62500000  1
  Be  Be114  1  0.66666667  0.85600631  0.12500000  1
  Be  Be115  1  0.66666667  0.85600631  0.62500000  1
  Be  Be116  1  1.00000000  0.35600631  0.12500000  1
  Be  Be117  1  1.00000000  0.35600631  0.62500000  1
  Be  Be118  1  1.00000000  0.85600631  0.12500000  1
  Be  Be119  1  1.00000000  0.85600631  0.62500000  1
  Be  Be120  1  0.16666667  -0.10600631  0.37500000  1
  Be  Be121  1  0.16666667  -0.10600631  0.87500000  1
  Be  Be122  1  0.16666667  0.39399369  0.37500000  1
  Be  Be123  1  0.16666667  0.39399369  0.87500000  1
  Be  Be124  1  0.50000000  -0.10600631  0.37500000  1
  Be  Be125  1  0.50000000  -0.10600631  0.87500000  1
  Be  Be126  1  0.50000000  0.39399369  0.37500000  1
  Be  Be127  1  0.50000000  0.39399369  0.87500000  1
  Be  Be128  1  0.83333333  -0.10600631  0.37500000  1
  Be  Be129  1  0.83333333  -0.10600631  0.87500000  1
  Be  Be130  1  0.83333333  0.39399369  0.37500000  1
  Be  Be131  1  0.83333333  0.39399369  0.87500000  1
  Be  Be132  1  0.33333333  0.14399369  0.37500000  1
  Be  Be133  1  0.33333333  0.14399369  0.87500000  1
  Be  Be134  1  0.33333333  0.64399369  0.37500000  1
  Be  Be135  1  0.33333333  0.64399369  0.87500000  1
  Be  Be136  1  0.66666667  0.14399369  0.37500000  1
  Be  Be137  1  0.66666667  0.14399369  0.87500000  1
  Be  Be138  1  0.66666667  0.64399369  0.37500000  1
  Be  Be139  1  0.66666667  0.64399369  0.87500000  1
  Be  Be140  1  1.00000000  0.14399369  0.37500000  1
  Be  Be141  1  1.00000000  0.14399369  0.87500000  1
  Be  Be142  1  1.00000000  0.64399369  0.37500000  1
  Be  Be143  1  1.00000000  0.64399369  0.87500000  1
  B  B144  1  0.27787975  -0.00253790  0.16186933  1
  B  B145  1  0.27787975  -0.00253790  0.66186933  1
  B  B146  1  0.27787975  0.49746210  0.16186933  1
  B  B147  1  0.27787975  0.49746210  0.66186933  1
  B  B148  1  0.61121309  -0.00253790  0.16186933  1
  B  B149  1  0.61121309  -0.00253790  0.66186933  1
  B  B150  1  0.61121309  0.49746210  0.16186933  1
  B  B151  1  0.61121309  0.49746210  0.66186933  1
  B  B152  1  0.94454642  -0.00253790  0.16186933  1
  B  B153  1  0.94454642  -0.00253790  0.66186933  1
  B  B154  1  0.94454642  0.49746210  0.16186933  1
  B  B155  1  0.94454642  0.49746210  0.66186933  1
  B  B156  1  0.44454642  0.24746210  0.16186933  1
  B  B157  1  0.44454642  0.24746210  0.66186933  1
  B  B158  1  0.44454642  0.74746210  0.16186933  1
  B  B159  1  0.44454642  0.74746210  0.66186933  1
  B  B160  1  0.77787975  0.24746210  0.16186933  1
  B  B161  1  0.77787975  0.24746210  0.66186933  1
  B  B162  1  0.77787975  0.74746210  0.16186933  1
  B  B163  1  0.77787975  0.74746210  0.66186933  1
  B  B164  1  1.11121309  0.24746210  0.16186933  1
  B  B165  1  1.11121309  0.24746210  0.66186933  1
  B  B166  1  1.11121309  0.74746210  0.16186933  1
  B  B167  1  1.11121309  0.74746210  0.66186933  1
  B  B168  1  0.05545358  -0.00253790  0.08813067  1
  B  B169  1  0.05545358  -0.00253790  0.58813067  1
  B  B170  1  0.05545358  0.49746210  0.08813067  1
  B  B171  1  0.05545358  0.49746210  0.58813067  1
  B  B172  1  0.38878691  -0.00253790  0.08813067  1
  B  B173  1  0.38878691  -0.00253790  0.58813067  1
  B  B174  1  0.38878691  0.49746210  0.08813067  1
  B  B175  1  0.38878691  0.49746210  0.58813067  1
  B  B176  1  0.72212025  -0.00253790  0.08813067  1
  B  B177  1  0.72212025  -0.00253790  0.58813067  1
  B  B178  1  0.72212025  0.49746210  0.08813067  1
  B  B179  1  0.72212025  0.49746210  0.58813067  1
  B  B180  1  0.22212025  0.24746210  0.08813067  1
  B  B181  1  0.22212025  0.24746210  0.58813067  1
  B  B182  1  0.22212025  0.74746210  0.08813067  1
  B  B183  1  0.22212025  0.74746210  0.58813067  1
  B  B184  1  0.55545358  0.24746210  0.08813067  1
  B  B185  1  0.55545358  0.24746210  0.58813067  1
  B  B186  1  0.55545358  0.74746210  0.08813067  1
  B  B187  1  0.55545358  0.74746210  0.58813067  1
  B  B188  1  0.88878691  0.24746210  0.08813067  1
  B  B189  1  0.88878691  0.24746210  0.58813067  1
  B  B190  1  0.88878691  0.74746210  0.08813067  1
  B  B191  1  0.88878691  0.74746210  0.58813067  1
  B  B192  1  0.27787975  0.00253790  0.41186933  1
  B  B193  1  0.27787975  0.00253790  0.91186933  1
  B  B194  1  0.27787975  0.50253790  0.41186933  1
  B  B195  1  0.27787975  0.50253790  0.91186933  1
  B  B196  1  0.61121309  0.00253790  0.41186933  1
  B  B197  1  0.61121309  0.00253790  0.91186933  1
  B  B198  1  0.61121309  0.50253790  0.41186933  1
  B  B199  1  0.61121309  0.50253790  0.91186933  1
  B  B200  1  0.94454642  0.00253790  0.41186933  1
  B  B201  1  0.94454642  0.00253790  0.91186933  1
  B  B202  1  0.94454642  0.50253790  0.41186933  1
  B  B203  1  0.94454642  0.50253790  0.91186933  1
  B  B204  1  0.44454642  0.25253790  0.41186933  1
  B  B205  1  0.44454642  0.25253790  0.91186933  1
  B  B206  1  0.44454642  0.75253790  0.41186933  1
  B  B207  1  0.44454642  0.75253790  0.91186933  1
  B  B208  1  0.77787975  0.25253790  0.41186933  1
  B  B209  1  0.77787975  0.25253790  0.91186933  1
  B  B210  1  0.77787975  0.75253790  0.41186933  1
  B  B211  1  0.77787975  0.75253790  0.91186933  1
  B  B212  1  1.11121309  0.25253790  0.41186933  1
  B  B213  1  1.11121309  0.25253790  0.91186933  1
  B  B214  1  1.11121309  0.75253790  0.41186933  1
  B  B215  1  1.11121309  0.75253790  0.91186933  1
  B  B216  1  0.05545358  0.00253790  0.33813067  1
  B  B217  1  0.05545358  0.00253790  0.83813067  1
  B  B218  1  0.05545358  0.50253790  0.33813067  1
  B  B219  1  0.05545358  0.50253790  0.83813067  1
  B  B220  1  0.38878691  0.00253790  0.33813067  1
  B  B221  1  0.38878691  0.00253790  0.83813067  1
  B  B222  1  0.38878691  0.50253790  0.33813067  1
  B  B223  1  0.38878691  0.50253790  0.83813067  1
  B  B224  1  0.72212025  0.00253790  0.33813067  1
  B  B225  1  0.72212025  0.00253790  0.83813067  1
  B  B226  1  0.72212025  0.50253790  0.33813067  1
  B  B227  1  0.72212025  0.50253790  0.83813067  1
  B  B228  1  0.22212025  0.25253790  0.33813067  1
  B  B229  1  0.22212025  0.25253790  0.83813067  1
  B  B230  1  0.22212025  0.75253790  0.33813067  1
  B  B231  1  0.22212025  0.75253790  0.83813067  1
  B  B232  1  0.55545358  0.25253790  0.33813067  1
  B  B233  1  0.55545358  0.25253790  0.83813067  1
  B  B234  1  0.55545358  0.75253790  0.33813067  1
  B  B235  1  0.55545358  0.75253790  0.83813067  1
  B  B236  1  0.88878691  0.25253790  0.33813067  1
  B  B237  1  0.88878691  0.25253790  0.83813067  1
  B  B238  1  0.88878691  0.75253790  0.33813067  1
  B  B239  1  0.88878691  0.75253790  0.83813067  1
  O  O240  1  0.11403922  -0.16468602  0.42089643  1
  O  O241  1  0.11403922  -0.16468602  0.92089643  1
  O  O242  1  0.11403922  0.33531398  0.42089643  1
  O  O243  1  0.11403922  0.33531398  0.92089643  1
  O  O244  1  0.44737256  -0.16468602  0.42089643  1
  O  O245  1  0.44737256  -0.16468602  0.92089643  1
  O  O246  1  0.44737256  0.33531398  0.42089643  1
  O  O247  1  0.44737256  0.33531398  0.92089643  1
  O  O248  1  0.78070589  -0.16468602  0.42089643  1
  O  O249  1  0.78070589  -0.16468602  0.92089643  1
  O  O250  1  0.78070589  0.33531398  0.42089643  1
  O  O251  1  0.78070589  0.33531398  0.92089643  1
  O  O252  1  0.28070589  0.08531398  0.42089643  1
  O  O253  1  0.28070589  0.08531398  0.92089643  1
  O  O254  1  0.28070589  0.58531398  0.42089643  1
  O  O255  1  0.28070589  0.58531398  0.92089643  1
  O  O256  1  0.61403922  0.08531398  0.42089643  1
  O  O257  1  0.61403922  0.08531398  0.92089643  1
  O  O258  1  0.61403922  0.58531398  0.42089643  1
  O  O259  1  0.61403922  0.58531398  0.92089643  1
  O  O260  1  0.94737256  0.08531398  0.42089643  1
  O  O261  1  0.94737256  0.08531398  0.92089643  1
  O  O262  1  0.94737256  0.58531398  0.42089643  1
  O  O263  1  0.94737256  0.58531398  0.92089643  1
  O  O264  1  0.11403922  0.16468602  0.17089643  1
  O  O265  1  0.11403922  0.16468602  0.67089643  1
  O  O266  1  0.11403922  0.66468602  0.17089643  1
  O  O267  1  0.11403922  0.66468602  0.67089643  1
  O  O268  1  0.44737256  0.16468602  0.17089643  1
  O  O269  1  0.44737256  0.16468602  0.67089643  1
  O  O270  1  0.44737256  0.66468602  0.17089643  1
  O  O271  1  0.44737256  0.66468602  0.67089643  1
  O  O272  1  0.78070589  0.16468602  0.17089643  1
  O  O273  1  0.78070589  0.16468602  0.67089643  1
  O  O274  1  0.78070589  0.66468602  0.17089643  1
  O  O275  1  0.78070589  0.66468602  0.67089643  1
  O  O276  1  0.28070589  0.41468602  0.17089643  1
  O  O277  1  0.28070589  0.41468602  0.67089643  1
  O  O278  1  0.28070589  0.91468602  0.17089643  1
  O  O279  1  0.28070589  0.91468602  0.67089643  1
  O  O280  1  0.61403922  0.41468602  0.17089643  1
  O  O281  1  0.61403922  0.41468602  0.67089643  1
  O  O282  1  0.61403922  0.91468602  0.17089643  1
  O  O283  1  0.61403922  0.91468602  0.67089643  1
  O  O284  1  0.94737256  0.41468602  0.17089643  1
  O  O285  1  0.94737256  0.41468602  0.67089643  1
  O  O286  1  0.94737256  0.91468602  0.17089643  1
  O  O287  1  0.94737256  0.91468602  0.67089643  1
  O  O288  1  0.22270796  -0.04567078  0.43688252  1
  O  O289  1  0.22270796  -0.04567078  0.93688252  1
  O  O290  1  0.22270796  0.45432922  0.43688252  1
  O  O291  1  0.22270796  0.45432922  0.93688252  1
  O  O292  1  0.55604129  -0.04567078  0.43688252  1
  O  O293  1  0.55604129  -0.04567078  0.93688252  1
  O  O294  1  0.55604129  0.45432922  0.43688252  1
  O  O295  1  0.55604129  0.45432922  0.93688252  1
  O  O296  1  0.88937463  -0.04567078  0.43688252  1
  O  O297  1  0.88937463  -0.04567078  0.93688252  1
  O  O298  1  0.88937463  0.45432922  0.43688252  1
  O  O299  1  0.88937463  0.45432922  0.93688252  1
  O  O300  1  0.38937463  0.20432922  0.43688252  1
  O  O301  1  0.38937463  0.20432922  0.93688252  1
  O  O302  1  0.38937463  0.70432922  0.43688252  1
  O  O303  1  0.38937463  0.70432922  0.93688252  1
  O  O304  1  0.72270796  0.20432922  0.43688252  1
  O  O305  1  0.72270796  0.20432922  0.93688252  1
  O  O306  1  0.72270796  0.70432922  0.43688252  1
  O  O307  1  0.72270796  0.70432922  0.93688252  1
  O  O308  1  1.05604129  0.20432922  0.43688252  1
  O  O309  1  1.05604129  0.20432922  0.93688252  1
  O  O310  1  1.05604129  0.70432922  0.43688252  1
  O  O311  1  1.05604129  0.70432922  0.93688252  1
  O  O312  1  0.11062537  -0.04567078  0.31311748  1
  O  O313  1  0.11062537  -0.04567078  0.81311748  1
  O  O314  1  0.11062537  0.45432922  0.31311748  1
  O  O315  1  0.11062537  0.45432922  0.81311748  1
  O  O316  1  0.44395871  -0.04567078  0.31311748  1
  O  O317  1  0.44395871  -0.04567078  0.81311748  1
  O  O318  1  0.44395871  0.45432922  0.31311748  1
  O  O319  1  0.44395871  0.45432922  0.81311748  1
  O  O320  1  0.77729204  -0.04567078  0.31311748  1
  O  O321  1  0.77729204  -0.04567078  0.81311748  1
  O  O322  1  0.77729204  0.45432922  0.31311748  1
  O  O323  1  0.77729204  0.45432922  0.81311748  1
  O  O324  1  0.27729204  0.20432922  0.31311748  1
  O  O325  1  0.27729204  0.20432922  0.81311748  1
  O  O326  1  0.27729204  0.70432922  0.31311748  1
  O  O327  1  0.27729204  0.70432922  0.81311748  1
  O  O328  1  0.61062537  0.20432922  0.31311748  1
  O  O329  1  0.61062537  0.20432922  0.81311748  1
  O  O330  1  0.61062537  0.70432922  0.31311748  1
  O  O331  1  0.61062537  0.70432922  0.81311748  1
  O  O332  1  0.94395871  0.20432922  0.31311748  1
  O  O333  1  0.94395871  0.20432922  0.81311748  1
  O  O334  1  0.94395871  0.70432922  0.31311748  1
  O  O335  1  0.94395871  0.70432922  0.81311748  1
  O  O336  1  0.11062537  0.04567078  0.06311748  1
  O  O337  1  0.11062537  0.04567078  0.56311748  1
  O  O338  1  0.11062537  0.54567078  0.06311748  1
  O  O339  1  0.11062537  0.54567078  0.56311748  1
  O  O340  1  0.44395871  0.04567078  0.06311748  1
  O  O341  1  0.44395871  0.04567078  0.56311748  1
  O  O342  1  0.44395871  0.54567078  0.06311748  1
  O  O343  1  0.44395871  0.54567078  0.56311748  1
  O  O344  1  0.77729204  0.04567078  0.06311748  1
  O  O345  1  0.77729204  0.04567078  0.56311748  1
  O  O346  1  0.77729204  0.54567078  0.06311748  1
  O  O347  1  0.77729204  0.54567078  0.56311748  1
  O  O348  1  0.27729204  0.29567078  0.06311748  1
  O  O349  1  0.27729204  0.29567078  0.56311748  1
  O  O350  1  0.27729204  0.79567078  0.06311748  1
  O  O351  1  0.27729204  0.79567078  0.56311748  1
  O  O352  1  0.61062537  0.29567078  0.06311748  1
  O  O353  1  0.61062537  0.29567078  0.56311748  1
  O  O354  1  0.61062537  0.79567078  0.06311748  1
  O  O355  1  0.61062537  0.79567078  0.56311748  1
  O  O356  1  0.94395871  0.29567078  0.06311748  1
  O  O357  1  0.94395871  0.29567078  0.56311748  1
  O  O358  1  0.94395871  0.79567078  0.06311748  1
  O  O359  1  0.94395871  0.79567078  0.56311748  1
  O  O360  1  0.22270796  0.04567078  0.18688252  1
  O  O361  1  0.22270796  0.04567078  0.68688252  1
  O  O362  1  0.22270796  0.54567078  0.18688252  1
  O  O363  1  0.22270796  0.54567078  0.68688252  1
  O  O364  1  0.55604129  0.04567078  0.18688252  1
  O  O365  1  0.55604129  0.04567078  0.68688252  1
  O  O366  1  0.55604129  0.54567078  0.18688252  1
  O  O367  1  0.55604129  0.54567078  0.68688252  1
  O  O368  1  0.88937463  0.04567078  0.18688252  1
  O  O369  1  0.88937463  0.04567078  0.68688252  1
  O  O370  1  0.88937463  0.54567078  0.18688252  1
  O  O371  1  0.88937463  0.54567078  0.68688252  1
  O  O372  1  0.38937463  0.29567078  0.18688252  1
  O  O373  1  0.38937463  0.29567078  0.68688252  1
  O  O374  1  0.38937463  0.79567078  0.18688252  1
  O  O375  1  0.38937463  0.79567078  0.68688252  1
  O  O376  1  0.72270796  0.29567078  0.18688252  1
  O  O377  1  0.72270796  0.29567078  0.68688252  1
  O  O378  1  0.72270796  0.79567078  0.18688252  1
  O  O379  1  0.72270796  0.79567078  0.68688252  1
  O  O380  1  1.05604129  0.29567078  0.18688252  1
  O  O381  1  1.05604129  0.29567078  0.68688252  1
  O  O382  1  1.05604129  0.79567078  0.18688252  1
  O  O383  1  1.05604129  0.79567078  0.68688252  1
  O  O384  1  0.16666667  0.21209969  0.37500000  1
  O  O385  1  0.16666667  0.21209969  0.87500000  1
  O  O386  1  0.16666667  0.71209969  0.37500000  1
  O  O387  1  0.16666667  0.71209969  0.87500000  1
  O  O388  1  0.50000000  0.21209969  0.37500000  1
  O  O389  1  0.50000000  0.21209969  0.87500000  1
  O  O390  1  0.50000000  0.71209969  0.37500000  1
  O  O391  1  0.50000000  0.71209969  0.87500000  1
  O  O392  1  0.83333333  0.21209969  0.37500000  1
  O  O393  1  0.83333333  0.21209969  0.87500000  1
  O  O394  1  0.83333333  0.71209969  0.37500000  1
  O  O395  1  0.83333333  0.71209969  0.87500000  1
  O  O396  1  0.33333333  0.46209969  0.37500000  1
  O  O397  1  0.33333333  0.46209969  0.87500000  1
  O  O398  1  0.33333333  0.96209969  0.37500000  1
  O  O399  1  0.33333333  0.96209969  0.87500000  1
  O  O400  1  0.66666667  0.46209969  0.37500000  1
  O  O401  1  0.66666667  0.46209969  0.87500000  1
  O  O402  1  0.66666667  0.96209969  0.37500000  1
  O  O403  1  0.66666667  0.96209969  0.87500000  1
  O  O404  1  1.00000000  0.46209969  0.37500000  1
  O  O405  1  1.00000000  0.46209969  0.87500000  1
  O  O406  1  1.00000000  0.96209969  0.37500000  1
  O  O407  1  1.00000000  0.96209969  0.87500000  1
  O  O408  1  0.16666667  -0.21209969  0.12500000  1
  O  O409  1  0.16666667  -0.21209969  0.62500000  1
  O  O410  1  0.16666667  0.28790031  0.12500000  1
  O  O411  1  0.16666667  0.28790031  0.62500000  1
  O  O412  1  0.50000000  -0.21209969  0.12500000  1
  O  O413  1  0.50000000  -0.21209969  0.62500000  1
  O  O414  1  0.50000000  0.28790031  0.12500000  1
  O  O415  1  0.50000000  0.28790031  0.62500000  1
  O  O416  1  0.83333333  -0.21209969  0.12500000  1
  O  O417  1  0.83333333  -0.21209969  0.62500000  1
  O  O418  1  0.83333333  0.28790031  0.12500000  1
  O  O419  1  0.83333333  0.28790031  0.62500000  1
  O  O420  1  0.33333333  0.03790031  0.12500000  1
  O  O421  1  0.33333333  0.03790031  0.62500000  1
  O  O422  1  0.33333333  0.53790031  0.12500000  1
  O  O423  1  0.33333333  0.53790031  0.62500000  1
  O  O424  1  0.66666667  0.03790031  0.12500000  1
  O  O425  1  0.66666667  0.03790031  0.62500000  1
  O  O426  1  0.66666667  0.53790031  0.12500000  1
  O  O427  1  0.66666667  0.53790031  0.62500000  1
  O  O428  1  1.00000000  0.03790031  0.12500000  1
  O  O429  1  1.00000000  0.03790031  0.62500000  1
  O  O430  1  1.00000000  0.53790031  0.12500000  1
  O  O431  1  1.00000000  0.53790031  0.62500000  1
  O  O432  1  0.21929411  0.16468602  0.07910357  1
  O  O433  1  0.21929411  0.16468602  0.57910357  1
  O  O434  1  0.21929411  0.66468602  0.07910357  1
  O  O435  1  0.21929411  0.66468602  0.57910357  1
  O  O436  1  0.55262744  0.16468602  0.07910357  1
  O  O437  1  0.55262744  0.16468602  0.57910357  1
  O  O438  1  0.55262744  0.66468602  0.07910357  1
  O  O439  1  0.55262744  0.66468602  0.57910357  1
  O  O440  1  0.88596078  0.16468602  0.07910357  1
  O  O441  1  0.88596078  0.16468602  0.57910357  1
  O  O442  1  0.88596078  0.66468602  0.07910357  1
  O  O443  1  0.88596078  0.66468602  0.57910357  1
  O  O444  1  0.38596078  0.41468602  0.07910357  1
  O  O445  1  0.38596078  0.41468602  0.57910357  1
  O  O446  1  0.38596078  0.91468602  0.07910357  1
  O  O447  1  0.38596078  0.91468602  0.57910357  1
  O  O448  1  0.71929411  0.41468602  0.07910357  1
  O  O449  1  0.71929411  0.41468602  0.57910357  1
  O  O450  1  0.71929411  0.91468602  0.07910357  1
  O  O451  1  0.71929411  0.91468602  0.57910357  1
  O  O452  1  1.05262744  0.41468602  0.07910357  1
  O  O453  1  1.05262744  0.41468602  0.57910357  1
  O  O454  1  1.05262744  0.91468602  0.07910357  1
  O  O455  1  1.05262744  0.91468602  0.57910357  1
  O  O456  1  0.21929411  -0.16468602  0.32910357  1
  O  O457  1  0.21929411  -0.16468602  0.82910357  1
  O  O458  1  0.21929411  0.33531398  0.32910357  1
  O  O459  1  0.21929411  0.33531398  0.82910357  1
  O  O460  1  0.55262744  -0.16468602  0.32910357  1
  O  O461  1  0.55262744  -0.16468602  0.82910357  1
  O  O462  1  0.55262744  0.33531398  0.32910357  1
  O  O463  1  0.55262744  0.33531398  0.82910357  1
  O  O464  1  0.88596078  -0.16468602  0.32910357  1
  O  O465  1  0.88596078  -0.16468602  0.82910357  1
  O  O466  1  0.88596078  0.33531398  0.32910357  1
  O  O467  1  0.88596078  0.33531398  0.82910357  1
  O  O468  1  0.38596078  0.08531398  0.32910357  1
  O  O469  1  0.38596078  0.08531398  0.82910357  1
  O  O470  1  0.38596078  0.58531398  0.32910357  1
  O  O471  1  0.38596078  0.58531398  0.82910357  1
  O  O472  1  0.71929411  0.08531398  0.32910357  1
  O  O473  1  0.71929411  0.08531398  0.82910357  1
  O  O474  1  0.71929411  0.58531398  0.32910357  1
  O  O475  1  0.71929411  0.58531398  0.82910357  1
  O  O476  1  1.05262744  0.08531398  0.32910357  1
  O  O477  1  1.05262744  0.08531398  0.82910357  1
  O  O478  1  1.05262744  0.58531398  0.32910357  1
  O  O479  1  1.05262744  0.58531398  0.82910357  1
