# generated using pymatgen
data_Ca2VBiO6
_symmetry_space_group_name_H-M   'P 1'
_cell_length_a   8.85593379
_cell_length_b   11.76176826
_cell_length_c   11.05767014
_cell_angle_alpha   90.00000000
_cell_angle_beta   90.00000000
_cell_angle_gamma   90.00000000
_symmetry_Int_Tables_number   1
_chemical_formula_structural   Ca2VBiO6
_chemical_formula_sum   'Ca16 V8 Bi8 O48'
_cell_volume   1151.78285602
_cell_formula_units_Z   8
loop_
 _symmetry_equiv_pos_site_id
 _symmetry_equiv_pos_as_xyz
  1  'x, y, z'
loop_
 _atom_site_type_symbol
 _atom_site_label
 _atom_site_symmetry_multiplicity
 _atom_site_fract_x
 _atom_site_fract_y
 _atom_site_fract_z
 _atom_site_occupancy
  Ca  Ca0  1  0.19617025  0.10535158  0.12062698  1
  Ca  Ca1  1  0.19617025  0.10535158  0.62062698  1
  Ca  Ca2  1  0.69617025  0.60535158  0.12062698  1
  Ca  Ca3  1  0.69617025  0.60535158  0.62062698  1
  Ca  Ca4  1  0.80382975  -0.10535158  0.37062698  1
  Ca  Ca5  1  0.80382975  -0.10535158  0.87062698  1
  Ca  Ca6  1  1.30382975  0.39464842  0.37062698  1
  Ca  Ca7  1  1.30382975  0.39464842  0.87062698  1
  Ca  Ca8  1  0.19617025  -0.10535158  0.37062698  1
  Ca  Ca9  1  0.19617025  -0.10535158  0.87062698  1
  Ca  Ca10  1  0.69617025  0.39464842  0.37062698  1
  Ca  Ca11  1  0.69617025  0.39464842  0.87062698  1
  Ca  Ca12  1  0.80382975  0.10535158  0.12062698  1
  Ca  Ca13  1  0.80382975  0.10535158  0.62062698  1
  Ca  Ca14  1  1.30382975  0.60535158  0.12062698  1
  Ca  Ca15  1  1.30382975  0.60535158  0.62062698  1
  V  V16  1  0.50000000  -0.31525520  0.34707636  1
  V  V17  1  0.50000000  -0.31525520  0.84707636  1
  V  V18  1  1.00000000  0.18474480  0.34707636  1
  V  V19  1  1.00000000  0.18474480  0.84707636  1
  V  V20  1  0.50000000  0.31525520  0.09707636  1
  V  V21  1  0.50000000  0.31525520  0.59707636  1
  V  V22  1  1.00000000  0.81525520  0.09707636  1
  V  V23  1  1.00000000  0.81525520  0.59707636  1
  Bi  Bi24  1  0.50000000  -0.09269820  0.13045009  1
  Bi  Bi25  1  0.50000000  -0.09269820  0.63045009  1
  Bi  Bi26  1  1.00000000  0.40730180  0.13045009  1
  Bi  Bi27  1  1.00000000  0.40730180  0.63045009  1
  Bi  Bi28  1  0.50000000  0.09269820  0.38045009  1
  Bi  Bi29  1  0.50000000  0.09269820  0.88045009  1
  Bi  Bi30  1  1.00000000  0.59269820  0.38045009  1
  Bi  Bi31  1  1.00000000  0.59269820  0.88045009  1
  O  O32  1  0.65462415  -0.00626629  0.49926908  1
  O  O33  1  0.65462415  -0.00626629  0.99926908  1
  O  O34  1  1.15462415  0.49373371  0.49926908  1
  O  O35  1  1.15462415  0.49373371  0.99926908  1
  O  O36  1  0.50000000  -0.31207236  0.00340550  1
  O  O37  1  0.50000000  -0.31207236  0.50340550  1
  O  O38  1  1.00000000  0.18792764  0.00340550  1
  O  O39  1  1.00000000  0.18792764  0.50340550  1
  O  O40  1  0.65604637  -0.25064218  0.28427077  1
  O  O41  1  0.65604637  -0.25064218  0.78427077  1
  O  O42  1  1.15604637  0.24935782  0.28427077  1
  O  O43  1  1.15604637  0.24935782  0.78427077  1
  O  O44  1  0.34395363  0.25064218  0.03427077  1
  O  O45  1  0.34395363  0.25064218  0.53427077  1
  O  O46  1  0.84395363  0.75064218  0.03427077  1
  O  O47  1  0.84395363  0.75064218  0.53427077  1
  O  O48  1  0.65462415  0.00626629  0.24926908  1
  O  O49  1  0.65462415  0.00626629  0.74926908  1
  O  O50  1  1.15462415  0.50626629  0.24926908  1
  O  O51  1  1.15462415  0.50626629  0.74926908  1
  O  O52  1  0.50000000  -0.44996928  0.28473490  1
  O  O53  1  0.50000000  -0.44996928  0.78473490  1
  O  O54  1  1.00000000  0.05003072  0.28473490  1
  O  O55  1  1.00000000  0.05003072  0.78473490  1
  O  O56  1  0.34537585  -0.00626629  0.49926908  1
  O  O57  1  0.34537585  -0.00626629  0.99926908  1
  O  O58  1  0.84537585  0.49373371  0.49926908  1
  O  O59  1  0.84537585  0.49373371  0.99926908  1
  O  O60  1  0.34537585  0.00626629  0.24926908  1
  O  O61  1  0.34537585  0.00626629  0.74926908  1
  O  O62  1  0.84537585  0.50626629  0.24926908  1
  O  O63  1  0.84537585  0.50626629  0.74926908  1
  O  O64  1  0.50000000  0.44996928  0.03473490  1
  O  O65  1  0.50000000  0.44996928  0.53473490  1
  O  O66  1  1.00000000  0.94996928  0.03473490  1
  O  O67  1  1.00000000  0.94996928  0.53473490  1
  O  O68  1  0.50000000  0.31207236  0.25340550  1
  O  O69  1  0.50000000  0.31207236  0.75340550  1
  O  O70  1  1.00000000  0.81207236  0.25340550  1
  O  O71  1  1.00000000  0.81207236  0.75340550  1
  O  O72  1  0.65604637  0.25064218  0.03427077  1
  O  O73  1  0.65604637  0.25064218  0.53427077  1
  O  O74  1  1.15604637  0.75064218  0.03427077  1
  O  O75  1  1.15604637  0.75064218  0.53427077  1
  O  O76  1  0.34395363  -0.25064218  0.28427077  1
  O  O77  1  0.34395363  -0.25064218  0.78427077  1
  O  O78  1  0.84395363  0.24935782  0.28427077  1
  O  O79  1  0.84395363  0.24935782  0.78427077  1
