# generated using pymatgen
data_MgV2O6
_symmetry_space_group_name_H-M   'P 1'
_cell_length_a   18.52826510
_cell_length_b   13.93499070
_cell_length_c   19.97069819
_cell_angle_alpha   90.00000000
_cell_angle_beta   113.85287801
_cell_angle_gamma   90.00000000
_symmetry_Int_Tables_number   1
_chemical_formula_structural   MgV2O6
_chemical_formula_sum   'Mg48 V96 O288'
_cell_volume   4715.84627255
_cell_formula_units_Z   48
loop_
 _symmetry_equiv_pos_site_id
 _symmetry_equiv_pos_as_xyz
  1  'x, y, z'
loop_
 _atom_site_type_symbol
 _atom_site_label
 _atom_site_symmetry_multiplicity
 _atom_site_fract_x
 _atom_site_fract_y
 _atom_site_fract_z
 _atom_site_occupancy
  Mg  Mg0  1  -0.00000000  0.00000000  0.16666667  1
  Mg  Mg1  1  -0.00000000  0.00000000  0.50000000  1
  Mg  Mg2  1  0.00000000  0.00000000  0.83333333  1
  Mg  Mg3  1  -0.00000000  0.25000000  0.16666667  1
  Mg  Mg4  1  -0.00000000  0.25000000  0.50000000  1
  Mg  Mg5  1  0.00000000  0.25000000  0.83333333  1
  Mg  Mg6  1  -0.00000000  0.50000000  0.16666667  1
  Mg  Mg7  1  -0.00000000  0.50000000  0.50000000  1
  Mg  Mg8  1  0.00000000  0.50000000  0.83333333  1
  Mg  Mg9  1  -0.00000000  0.75000000  0.16666667  1
  Mg  Mg10  1  -0.00000000  0.75000000  0.50000000  1
  Mg  Mg11  1  0.00000000  0.75000000  0.83333333  1
  Mg  Mg12  1  0.50000000  0.00000000  0.16666667  1
  Mg  Mg13  1  0.50000000  0.00000000  0.50000000  1
  Mg  Mg14  1  0.50000000  0.00000000  0.83333333  1
  Mg  Mg15  1  0.50000000  0.25000000  0.16666667  1
  Mg  Mg16  1  0.50000000  0.25000000  0.50000000  1
  Mg  Mg17  1  0.50000000  0.25000000  0.83333333  1
  Mg  Mg18  1  0.50000000  0.50000000  0.16666667  1
  Mg  Mg19  1  0.50000000  0.50000000  0.50000000  1
  Mg  Mg20  1  0.50000000  0.50000000  0.83333333  1
  Mg  Mg21  1  0.50000000  0.75000000  0.16666667  1
  Mg  Mg22  1  0.50000000  0.75000000  0.50000000  1
  Mg  Mg23  1  0.50000000  0.75000000  0.83333333  1
  Mg  Mg24  1  0.25000000  0.12500000  0.16666667  1
  Mg  Mg25  1  0.25000000  0.12500000  0.50000000  1
  Mg  Mg26  1  0.25000000  0.12500000  0.83333333  1
  Mg  Mg27  1  0.25000000  0.37500000  0.16666667  1
  Mg  Mg28  1  0.25000000  0.37500000  0.50000000  1
  Mg  Mg29  1  0.25000000  0.37500000  0.83333333  1
  Mg  Mg30  1  0.25000000  0.62500000  0.16666667  1
  Mg  Mg31  1  0.25000000  0.62500000  0.50000000  1
  Mg  Mg32  1  0.25000000  0.62500000  0.83333333  1
  Mg  Mg33  1  0.25000000  0.87500000  0.16666667  1
  Mg  Mg34  1  0.25000000  0.87500000  0.50000000  1
  Mg  Mg35  1  0.25000000  0.87500000  0.83333333  1
  Mg  Mg36  1  0.75000000  0.12500000  0.16666667  1
  Mg  Mg37  1  0.75000000  0.12500000  0.50000000  1
  Mg  Mg38  1  0.75000000  0.12500000  0.83333333  1
  Mg  Mg39  1  0.75000000  0.37500000  0.16666667  1
  Mg  Mg40  1  0.75000000  0.37500000  0.50000000  1
  Mg  Mg41  1  0.75000000  0.37500000  0.83333333  1
  Mg  Mg42  1  0.75000000  0.62500000  0.16666667  1
  Mg  Mg43  1  0.75000000  0.62500000  0.50000000  1
  Mg  Mg44  1  0.75000000  0.62500000  0.83333333  1
  Mg  Mg45  1  0.75000000  0.87500000  0.16666667  1
  Mg  Mg46  1  0.75000000  0.87500000  0.50000000  1
  Mg  Mg47  1  0.75000000  0.87500000  0.83333333  1
  V  V48  1  0.40703885  0.00000000  0.28475725  1
  V  V49  1  0.40703885  0.00000000  0.61809058  1
  V  V50  1  0.40703885  0.00000000  0.95142392  1
  V  V51  1  0.40703885  0.25000000  0.28475725  1
  V  V52  1  0.40703885  0.25000000  0.61809058  1
  V  V53  1  0.40703885  0.25000000  0.95142392  1
  V  V54  1  0.40703885  0.50000000  0.28475725  1
  V  V55  1  0.40703885  0.50000000  0.61809058  1
  V  V56  1  0.40703885  0.50000000  0.95142392  1
  V  V57  1  0.40703885  0.75000000  0.28475725  1
  V  V58  1  0.40703885  0.75000000  0.61809058  1
  V  V59  1  0.40703885  0.75000000  0.95142392  1
  V  V60  1  0.90703885  0.00000000  0.28475725  1
  V  V61  1  0.90703885  0.00000000  0.61809058  1
  V  V62  1  0.90703885  0.00000000  0.95142392  1
  V  V63  1  0.90703885  0.25000000  0.28475725  1
  V  V64  1  0.90703885  0.25000000  0.61809058  1
  V  V65  1  0.90703885  0.25000000  0.95142392  1
  V  V66  1  0.90703885  0.50000000  0.28475725  1
  V  V67  1  0.90703885  0.50000000  0.61809058  1
  V  V68  1  0.90703885  0.50000000  0.95142392  1
  V  V69  1  0.90703885  0.75000000  0.28475725  1
  V  V70  1  0.90703885  0.75000000  0.61809058  1
  V  V71  1  0.90703885  0.75000000  0.95142392  1
  V  V72  1  0.65703885  0.12500000  0.28475725  1
  V  V73  1  0.65703885  0.12500000  0.61809058  1
  V  V74  1  0.65703885  0.12500000  0.95142392  1
  V  V75  1  0.65703885  0.37500000  0.28475725  1
  V  V76  1  0.65703885  0.37500000  0.61809058  1
  V  V77  1  0.65703885  0.37500000  0.95142392  1
  V  V78  1  0.65703885  0.62500000  0.28475725  1
  V  V79  1  0.65703885  0.62500000  0.61809058  1
  V  V80  1  0.65703885  0.62500000  0.95142392  1
  V  V81  1  0.65703885  0.87500000  0.28475725  1
  V  V82  1  0.65703885  0.87500000  0.61809058  1
  V  V83  1  0.65703885  0.87500000  0.95142392  1
  V  V84  1  1.15703885  0.12500000  0.28475725  1
  V  V85  1  1.15703885  0.12500000  0.61809058  1
  V  V86  1  1.15703885  0.12500000  0.95142392  1
  V  V87  1  1.15703885  0.37500000  0.28475725  1
  V  V88  1  1.15703885  0.37500000  0.61809058  1
  V  V89  1  1.15703885  0.37500000  0.95142392  1
  V  V90  1  1.15703885  0.62500000  0.28475725  1
  V  V91  1  1.15703885  0.62500000  0.61809058  1
  V  V92  1  1.15703885  0.62500000  0.95142392  1
  V  V93  1  1.15703885  0.87500000  0.28475725  1
  V  V94  1  1.15703885  0.87500000  0.61809058  1
  V  V95  1  1.15703885  0.87500000  0.95142392  1
  V  V96  1  0.09296115  0.00000000  0.04857608  1
  V  V97  1  0.09296115  0.00000000  0.38190942  1
  V  V98  1  0.09296115  0.00000000  0.71524275  1
  V  V99  1  0.09296115  0.25000000  0.04857608  1
  V  V100  1  0.09296115  0.25000000  0.38190942  1
  V  V101  1  0.09296115  0.25000000  0.71524275  1
  V  V102  1  0.09296115  0.50000000  0.04857608  1
  V  V103  1  0.09296115  0.50000000  0.38190942  1
  V  V104  1  0.09296115  0.50000000  0.71524275  1
  V  V105  1  0.09296115  0.75000000  0.04857608  1
  V  V106  1  0.09296115  0.75000000  0.38190942  1
  V  V107  1  0.09296115  0.75000000  0.71524275  1
  V  V108  1  0.59296115  0.00000000  0.04857608  1
  V  V109  1  0.59296115  0.00000000  0.38190942  1
  V  V110  1  0.59296115  0.00000000  0.71524275  1
  V  V111  1  0.59296115  0.25000000  0.04857608  1
  V  V112  1  0.59296115  0.25000000  0.38190942  1
  V  V113  1  0.59296115  0.25000000  0.71524275  1
  V  V114  1  0.59296115  0.50000000  0.04857608  1
  V  V115  1  0.59296115  0.50000000  0.38190942  1
  V  V116  1  0.59296115  0.50000000  0.71524275  1
  V  V117  1  0.59296115  0.75000000  0.04857608  1
  V  V118  1  0.59296115  0.75000000  0.38190942  1
  V  V119  1  0.59296115  0.75000000  0.71524275  1
  V  V120  1  0.34296115  0.12500000  0.04857608  1
  V  V121  1  0.34296115  0.12500000  0.38190942  1
  V  V122  1  0.34296115  0.12500000  0.71524275  1
  V  V123  1  0.34296115  0.37500000  0.04857608  1
  V  V124  1  0.34296115  0.37500000  0.38190942  1
  V  V125  1  0.34296115  0.37500000  0.71524275  1
  V  V126  1  0.34296115  0.62500000  0.04857608  1
  V  V127  1  0.34296115  0.62500000  0.38190942  1
  V  V128  1  0.34296115  0.62500000  0.71524275  1
  V  V129  1  0.34296115  0.87500000  0.04857608  1
  V  V130  1  0.34296115  0.87500000  0.38190942  1
  V  V131  1  0.34296115  0.87500000  0.71524275  1
  V  V132  1  0.84296115  0.12500000  0.04857608  1
  V  V133  1  0.84296115  0.12500000  0.38190942  1
  V  V134  1  0.84296115  0.12500000  0.71524275  1
  V  V135  1  0.84296115  0.37500000  0.04857608  1
  V  V136  1  0.84296115  0.37500000  0.38190942  1
  V  V137  1  0.84296115  0.37500000  0.71524275  1
  V  V138  1  0.84296115  0.62500000  0.04857608  1
  V  V139  1  0.84296115  0.62500000  0.38190942  1
  V  V140  1  0.84296115  0.62500000  0.71524275  1
  V  V141  1  0.84296115  0.87500000  0.04857608  1
  V  V142  1  0.84296115  0.87500000  0.38190942  1
  V  V143  1  0.84296115  0.87500000  0.71524275  1
  O  O144  1  0.15472119  -0.00000000  0.31309938  1
  O  O145  1  0.15472119  -0.00000000  0.64643271  1
  O  O146  1  0.15472119  -0.00000000  0.97976605  1
  O  O147  1  0.15472119  0.25000000  0.31309938  1
  O  O148  1  0.15472119  0.25000000  0.64643271  1
  O  O149  1  0.15472119  0.25000000  0.97976605  1
  O  O150  1  0.15472119  0.50000000  0.31309938  1
  O  O151  1  0.15472119  0.50000000  0.64643271  1
  O  O152  1  0.15472119  0.50000000  0.97976605  1
  O  O153  1  0.15472119  0.75000000  0.31309938  1
  O  O154  1  0.15472119  0.75000000  0.64643271  1
  O  O155  1  0.15472119  0.75000000  0.97976605  1
  O  O156  1  0.65472119  -0.00000000  0.31309938  1
  O  O157  1  0.65472119  -0.00000000  0.64643271  1
  O  O158  1  0.65472119  -0.00000000  0.97976605  1
  O  O159  1  0.65472119  0.25000000  0.31309938  1
  O  O160  1  0.65472119  0.25000000  0.64643271  1
  O  O161  1  0.65472119  0.25000000  0.97976605  1
  O  O162  1  0.65472119  0.50000000  0.31309938  1
  O  O163  1  0.65472119  0.50000000  0.64643271  1
  O  O164  1  0.65472119  0.50000000  0.97976605  1
  O  O165  1  0.65472119  0.75000000  0.31309938  1
  O  O166  1  0.65472119  0.75000000  0.64643271  1
  O  O167  1  0.65472119  0.75000000  0.97976605  1
  O  O168  1  0.40472119  0.12500000  0.31309938  1
  O  O169  1  0.40472119  0.12500000  0.64643271  1
  O  O170  1  0.40472119  0.12500000  0.97976605  1
  O  O171  1  0.40472119  0.37500000  0.31309938  1
  O  O172  1  0.40472119  0.37500000  0.64643271  1
  O  O173  1  0.40472119  0.37500000  0.97976605  1
  O  O174  1  0.40472119  0.62500000  0.31309938  1
  O  O175  1  0.40472119  0.62500000  0.64643271  1
  O  O176  1  0.40472119  0.62500000  0.97976605  1
  O  O177  1  0.40472119  0.87500000  0.31309938  1
  O  O178  1  0.40472119  0.87500000  0.64643271  1
  O  O179  1  0.40472119  0.87500000  0.97976605  1
  O  O180  1  0.90472119  0.12500000  0.31309938  1
  O  O181  1  0.90472119  0.12500000  0.64643271  1
  O  O182  1  0.90472119  0.12500000  0.97976605  1
  O  O183  1  0.90472119  0.37500000  0.31309938  1
  O  O184  1  0.90472119  0.37500000  0.64643271  1
  O  O185  1  0.90472119  0.37500000  0.97976605  1
  O  O186  1  0.90472119  0.62500000  0.31309938  1
  O  O187  1  0.90472119  0.62500000  0.64643271  1
  O  O188  1  0.90472119  0.62500000  0.97976605  1
  O  O189  1  0.90472119  0.87500000  0.31309938  1
  O  O190  1  0.90472119  0.87500000  0.64643271  1
  O  O191  1  0.90472119  0.87500000  0.97976605  1
  O  O192  1  0.34527881  0.00000000  0.02023395  1
  O  O193  1  0.34527881  0.00000000  0.35356729  1
  O  O194  1  0.34527881  0.00000000  0.68690062  1
  O  O195  1  0.34527881  0.25000000  0.02023395  1
  O  O196  1  0.34527881  0.25000000  0.35356729  1
  O  O197  1  0.34527881  0.25000000  0.68690062  1
  O  O198  1  0.34527881  0.50000000  0.02023395  1
  O  O199  1  0.34527881  0.50000000  0.35356729  1
  O  O200  1  0.34527881  0.50000000  0.68690062  1
  O  O201  1  0.34527881  0.75000000  0.02023395  1
  O  O202  1  0.34527881  0.75000000  0.35356729  1
  O  O203  1  0.34527881  0.75000000  0.68690062  1
  O  O204  1  0.84527881  0.00000000  0.02023395  1
  O  O205  1  0.84527881  0.00000000  0.35356729  1
  O  O206  1  0.84527881  0.00000000  0.68690062  1
  O  O207  1  0.84527881  0.25000000  0.02023395  1
  O  O208  1  0.84527881  0.25000000  0.35356729  1
  O  O209  1  0.84527881  0.25000000  0.68690062  1
  O  O210  1  0.84527881  0.50000000  0.02023395  1
  O  O211  1  0.84527881  0.50000000  0.35356729  1
  O  O212  1  0.84527881  0.50000000  0.68690062  1
  O  O213  1  0.84527881  0.75000000  0.02023395  1
  O  O214  1  0.84527881  0.75000000  0.35356729  1
  O  O215  1  0.84527881  0.75000000  0.68690062  1
  O  O216  1  0.59527881  0.12500000  0.02023395  1
  O  O217  1  0.59527881  0.12500000  0.35356729  1
  O  O218  1  0.59527881  0.12500000  0.68690062  1
  O  O219  1  0.59527881  0.37500000  0.02023395  1
  O  O220  1  0.59527881  0.37500000  0.35356729  1
  O  O221  1  0.59527881  0.37500000  0.68690062  1
  O  O222  1  0.59527881  0.62500000  0.02023395  1
  O  O223  1  0.59527881  0.62500000  0.35356729  1
  O  O224  1  0.59527881  0.62500000  0.68690062  1
  O  O225  1  0.59527881  0.87500000  0.02023395  1
  O  O226  1  0.59527881  0.87500000  0.35356729  1
  O  O227  1  0.59527881  0.87500000  0.68690062  1
  O  O228  1  1.09527881  0.12500000  0.02023395  1
  O  O229  1  1.09527881  0.12500000  0.35356729  1
  O  O230  1  1.09527881  0.12500000  0.68690062  1
  O  O231  1  1.09527881  0.37500000  0.02023395  1
  O  O232  1  1.09527881  0.37500000  0.35356729  1
  O  O233  1  1.09527881  0.37500000  0.68690062  1
  O  O234  1  1.09527881  0.62500000  0.02023395  1
  O  O235  1  1.09527881  0.62500000  0.35356729  1
  O  O236  1  1.09527881  0.62500000  0.68690062  1
  O  O237  1  1.09527881  0.87500000  0.02023395  1
  O  O238  1  1.09527881  0.87500000  0.35356729  1
  O  O239  1  1.09527881  0.87500000  0.68690062  1
  O  O240  1  0.01413695  0.00000000  0.07090739  1
  O  O241  1  0.01413695  0.00000000  0.40424072  1
  O  O242  1  0.01413695  0.00000000  0.73757406  1
  O  O243  1  0.01413695  0.25000000  0.07090739  1
  O  O244  1  0.01413695  0.25000000  0.40424072  1
  O  O245  1  0.01413695  0.25000000  0.73757406  1
  O  O246  1  0.01413695  0.50000000  0.07090739  1
  O  O247  1  0.01413695  0.50000000  0.40424072  1
  O  O248  1  0.01413695  0.50000000  0.73757406  1
  O  O249  1  0.01413695  0.75000000  0.07090739  1
  O  O250  1  0.01413695  0.75000000  0.40424072  1
  O  O251  1  0.01413695  0.75000000  0.73757406  1
  O  O252  1  0.51413695  0.00000000  0.07090739  1
  O  O253  1  0.51413695  0.00000000  0.40424072  1
  O  O254  1  0.51413695  0.00000000  0.73757406  1
  O  O255  1  0.51413695  0.25000000  0.07090739  1
  O  O256  1  0.51413695  0.25000000  0.40424072  1
  O  O257  1  0.51413695  0.25000000  0.73757406  1
  O  O258  1  0.51413695  0.50000000  0.07090739  1
  O  O259  1  0.51413695  0.50000000  0.40424072  1
  O  O260  1  0.51413695  0.50000000  0.73757406  1
  O  O261  1  0.51413695  0.75000000  0.07090739  1
  O  O262  1  0.51413695  0.75000000  0.40424072  1
  O  O263  1  0.51413695  0.75000000  0.73757406  1
  O  O264  1  0.26413695  0.12500000  0.07090739  1
  O  O265  1  0.26413695  0.12500000  0.40424072  1
  O  O266  1  0.26413695  0.12500000  0.73757406  1
  O  O267  1  0.26413695  0.37500000  0.07090739  1
  O  O268  1  0.26413695  0.37500000  0.40424072  1
  O  O269  1  0.26413695  0.37500000  0.73757406  1
  O  O270  1  0.26413695  0.62500000  0.07090739  1
  O  O271  1  0.26413695  0.62500000  0.40424072  1
  O  O272  1  0.26413695  0.62500000  0.73757406  1
  O  O273  1  0.26413695  0.87500000  0.07090739  1
  O  O274  1  0.26413695  0.87500000  0.40424072  1
  O  O275  1  0.26413695  0.87500000  0.73757406  1
  O  O276  1  0.76413695  0.12500000  0.07090739  1
  O  O277  1  0.76413695  0.12500000  0.40424072  1
  O  O278  1  0.76413695  0.12500000  0.73757406  1
  O  O279  1  0.76413695  0.37500000  0.07090739  1
  O  O280  1  0.76413695  0.37500000  0.40424072  1
  O  O281  1  0.76413695  0.37500000  0.73757406  1
  O  O282  1  0.76413695  0.62500000  0.07090739  1
  O  O283  1  0.76413695  0.62500000  0.40424072  1
  O  O284  1  0.76413695  0.62500000  0.73757406  1
  O  O285  1  0.76413695  0.87500000  0.07090739  1
  O  O286  1  0.76413695  0.87500000  0.40424072  1
  O  O287  1  0.76413695  0.87500000  0.73757406  1
  O  O288  1  0.32715958  0.00000000  0.20423853  1
  O  O289  1  0.32715958  0.00000000  0.53757186  1
  O  O290  1  0.32715958  0.00000000  0.87090519  1
  O  O291  1  0.32715958  0.25000000  0.20423853  1
  O  O292  1  0.32715958  0.25000000  0.53757186  1
  O  O293  1  0.32715958  0.25000000  0.87090519  1
  O  O294  1  0.32715958  0.50000000  0.20423853  1
  O  O295  1  0.32715958  0.50000000  0.53757186  1
  O  O296  1  0.32715958  0.50000000  0.87090519  1
  O  O297  1  0.32715958  0.75000000  0.20423853  1
  O  O298  1  0.32715958  0.75000000  0.53757186  1
  O  O299  1  0.32715958  0.75000000  0.87090519  1
  O  O300  1  0.82715958  0.00000000  0.20423853  1
  O  O301  1  0.82715958  0.00000000  0.53757186  1
  O  O302  1  0.82715958  0.00000000  0.87090519  1
  O  O303  1  0.82715958  0.25000000  0.20423853  1
  O  O304  1  0.82715958  0.25000000  0.53757186  1
  O  O305  1  0.82715958  0.25000000  0.87090519  1
  O  O306  1  0.82715958  0.50000000  0.20423853  1
  O  O307  1  0.82715958  0.50000000  0.53757186  1
  O  O308  1  0.82715958  0.50000000  0.87090519  1
  O  O309  1  0.82715958  0.75000000  0.20423853  1
  O  O310  1  0.82715958  0.75000000  0.53757186  1
  O  O311  1  0.82715958  0.75000000  0.87090519  1
  O  O312  1  0.57715958  0.12500000  0.20423853  1
  O  O313  1  0.57715958  0.12500000  0.53757186  1
  O  O314  1  0.57715958  0.12500000  0.87090519  1
  O  O315  1  0.57715958  0.37500000  0.20423853  1
  O  O316  1  0.57715958  0.37500000  0.53757186  1
  O  O317  1  0.57715958  0.37500000  0.87090519  1
  O  O318  1  0.57715958  0.62500000  0.20423853  1
  O  O319  1  0.57715958  0.62500000  0.53757186  1
  O  O320  1  0.57715958  0.62500000  0.87090519  1
  O  O321  1  0.57715958  0.87500000  0.20423853  1
  O  O322  1  0.57715958  0.87500000  0.53757186  1
  O  O323  1  0.57715958  0.87500000  0.87090519  1
  O  O324  1  1.07715958  0.12500000  0.20423853  1
  O  O325  1  1.07715958  0.12500000  0.53757186  1
  O  O326  1  1.07715958  0.12500000  0.87090519  1
  O  O327  1  1.07715958  0.37500000  0.20423853  1
  O  O328  1  1.07715958  0.37500000  0.53757186  1
  O  O329  1  1.07715958  0.37500000  0.87090519  1
  O  O330  1  1.07715958  0.62500000  0.20423853  1
  O  O331  1  1.07715958  0.62500000  0.53757186  1
  O  O332  1  1.07715958  0.62500000  0.87090519  1
  O  O333  1  1.07715958  0.87500000  0.20423853  1
  O  O334  1  1.07715958  0.87500000  0.53757186  1
  O  O335  1  1.07715958  0.87500000  0.87090519  1
  O  O336  1  0.48586305  -0.00000000  0.26242594  1
  O  O337  1  0.48586305  -0.00000000  0.59575928  1
  O  O338  1  0.48586305  -0.00000000  0.92909261  1
  O  O339  1  0.48586305  0.25000000  0.26242594  1
  O  O340  1  0.48586305  0.25000000  0.59575928  1
  O  O341  1  0.48586305  0.25000000  0.92909261  1
  O  O342  1  0.48586305  0.50000000  0.26242594  1
  O  O343  1  0.48586305  0.50000000  0.59575928  1
  O  O344  1  0.48586305  0.50000000  0.92909261  1
  O  O345  1  0.48586305  0.75000000  0.26242594  1
  O  O346  1  0.48586305  0.75000000  0.59575928  1
  O  O347  1  0.48586305  0.75000000  0.92909261  1
  O  O348  1  0.98586305  -0.00000000  0.26242594  1
  O  O349  1  0.98586305  -0.00000000  0.59575928  1
  O  O350  1  0.98586305  -0.00000000  0.92909261  1
  O  O351  1  0.98586305  0.25000000  0.26242594  1
  O  O352  1  0.98586305  0.25000000  0.59575928  1
  O  O353  1  0.98586305  0.25000000  0.92909261  1
  O  O354  1  0.98586305  0.50000000  0.26242594  1
  O  O355  1  0.98586305  0.50000000  0.59575928  1
  O  O356  1  0.98586305  0.50000000  0.92909261  1
  O  O357  1  0.98586305  0.75000000  0.26242594  1
  O  O358  1  0.98586305  0.75000000  0.59575928  1
  O  O359  1  0.98586305  0.75000000  0.92909261  1
  O  O360  1  0.73586305  0.12500000  0.26242594  1
  O  O361  1  0.73586305  0.12500000  0.59575928  1
  O  O362  1  0.73586305  0.12500000  0.92909261  1
  O  O363  1  0.73586305  0.37500000  0.26242594  1
  O  O364  1  0.73586305  0.37500000  0.59575928  1
  O  O365  1  0.73586305  0.37500000  0.92909261  1
  O  O366  1  0.73586305  0.62500000  0.26242594  1
  O  O367  1  0.73586305  0.62500000  0.59575928  1
  O  O368  1  0.73586305  0.62500000  0.92909261  1
  O  O369  1  0.73586305  0.87500000  0.26242594  1
  O  O370  1  0.73586305  0.87500000  0.59575928  1
  O  O371  1  0.73586305  0.87500000  0.92909261  1
  O  O372  1  1.23586305  0.12500000  0.26242594  1
  O  O373  1  1.23586305  0.12500000  0.59575928  1
  O  O374  1  1.23586305  0.12500000  0.92909261  1
  O  O375  1  1.23586305  0.37500000  0.26242594  1
  O  O376  1  1.23586305  0.37500000  0.59575928  1
  O  O377  1  1.23586305  0.37500000  0.92909261  1
  O  O378  1  1.23586305  0.62500000  0.26242594  1
  O  O379  1  1.23586305  0.62500000  0.59575928  1
  O  O380  1  1.23586305  0.62500000  0.92909261  1
  O  O381  1  1.23586305  0.87500000  0.26242594  1
  O  O382  1  1.23586305  0.87500000  0.59575928  1
  O  O383  1  1.23586305  0.87500000  0.92909261  1
  O  O384  1  0.17284042  -0.00000000  0.12909481  1
  O  O385  1  0.17284042  -0.00000000  0.46242814  1
  O  O386  1  0.17284042  -0.00000000  0.79576147  1
  O  O387  1  0.17284042  0.25000000  0.12909481  1
  O  O388  1  0.17284042  0.25000000  0.46242814  1
  O  O389  1  0.17284042  0.25000000  0.79576147  1
  O  O390  1  0.17284042  0.50000000  0.12909481  1
  O  O391  1  0.17284042  0.50000000  0.46242814  1
  O  O392  1  0.17284042  0.50000000  0.79576147  1
  O  O393  1  0.17284042  0.75000000  0.12909481  1
  O  O394  1  0.17284042  0.75000000  0.46242814  1
  O  O395  1  0.17284042  0.75000000  0.79576147  1
  O  O396  1  0.67284042  -0.00000000  0.12909481  1
  O  O397  1  0.67284042  -0.00000000  0.46242814  1
  O  O398  1  0.67284042  -0.00000000  0.79576147  1
  O  O399  1  0.67284042  0.25000000  0.12909481  1
  O  O400  1  0.67284042  0.25000000  0.46242814  1
  O  O401  1  0.67284042  0.25000000  0.79576147  1
  O  O402  1  0.67284042  0.50000000  0.12909481  1
  O  O403  1  0.67284042  0.50000000  0.46242814  1
  O  O404  1  0.67284042  0.50000000  0.79576147  1
  O  O405  1  0.67284042  0.75000000  0.12909481  1
  O  O406  1  0.67284042  0.75000000  0.46242814  1
  O  O407  1  0.67284042  0.75000000  0.79576147  1
  O  O408  1  0.42284042  0.12500000  0.12909481  1
  O  O409  1  0.42284042  0.12500000  0.46242814  1
  O  O410  1  0.42284042  0.12500000  0.79576147  1
  O  O411  1  0.42284042  0.37500000  0.12909481  1
  O  O412  1  0.42284042  0.37500000  0.46242814  1
  O  O413  1  0.42284042  0.37500000  0.79576147  1
  O  O414  1  0.42284042  0.62500000  0.12909481  1
  O  O415  1  0.42284042  0.62500000  0.46242814  1
  O  O416  1  0.42284042  0.62500000  0.79576147  1
  O  O417  1  0.42284042  0.87500000  0.12909481  1
  O  O418  1  0.42284042  0.87500000  0.46242814  1
  O  O419  1  0.42284042  0.87500000  0.79576147  1
  O  O420  1  0.92284042  0.12500000  0.12909481  1
  O  O421  1  0.92284042  0.12500000  0.46242814  1
  O  O422  1  0.92284042  0.12500000  0.79576147  1
  O  O423  1  0.92284042  0.37500000  0.12909481  1
  O  O424  1  0.92284042  0.37500000  0.46242814  1
  O  O425  1  0.92284042  0.37500000  0.79576147  1
  O  O426  1  0.92284042  0.62500000  0.12909481  1
  O  O427  1  0.92284042  0.62500000  0.46242814  1
  O  O428  1  0.92284042  0.62500000  0.79576147  1
  O  O429  1  0.92284042  0.87500000  0.12909481  1
  O  O430  1  0.92284042  0.87500000  0.46242814  1
  O  O431  1  0.92284042  0.87500000  0.79576147  1
