# generated using pymatgen
data_Ba3NaNbO6
_symmetry_space_group_name_H-M   'P 1'
_cell_length_a   10.26855543
_cell_length_b   10.26855543
_cell_length_c   11.91832572
_cell_angle_alpha   90.00000000
_cell_angle_beta   90.00000000
_cell_angle_gamma   120.00000000
_symmetry_Int_Tables_number   1
_chemical_formula_structural   Ba3NaNbO6
_chemical_formula_sum   'Ba18 Na6 Nb6 O36'
_cell_volume   1088.33998631
_cell_formula_units_Z   6
loop_
 _symmetry_equiv_pos_site_id
 _symmetry_equiv_pos_as_xyz
  1  'x, y, z'
loop_
 _atom_site_type_symbol
 _atom_site_label
 _atom_site_symmetry_multiplicity
 _atom_site_fract_x
 _atom_site_fract_y
 _atom_site_fract_z
 _atom_site_occupancy
  Ba  Ba0  1  0.31318001  0.33333333  0.58333333  1
  Ba  Ba1  1  0.97984667  0.66666667  0.91666667  1
  Ba  Ba2  1  0.64651334  1.00000000  1.25000000  1
  Ba  Ba3  1  -0.33333333  -0.02015333  0.58333333  1
  Ba  Ba4  1  0.33333333  0.31318001  0.91666667  1
  Ba  Ba5  1  0.00000000  0.64651334  1.25000000  1
  Ba  Ba6  1  0.02015333  -0.31318001  0.58333333  1
  Ba  Ba7  1  0.68681999  0.02015333  0.91666667  1
  Ba  Ba8  1  0.35348666  0.35348666  1.25000000  1
  Ba  Ba9  1  -0.31318001  -0.33333333  0.41666667  1
  Ba  Ba10  1  0.35348666  0.00000000  0.75000000  1
  Ba  Ba11  1  0.02015333  0.33333333  1.08333333  1
  Ba  Ba12  1  0.33333333  0.02015333  0.41666667  1
  Ba  Ba13  1  1.00000000  0.35348666  0.75000000  1
  Ba  Ba14  1  0.66666667  0.68681999  1.08333333  1
  Ba  Ba15  1  -0.02015333  0.31318001  0.41666667  1
  Ba  Ba16  1  0.64651334  0.64651334  0.75000000  1
  Ba  Ba17  1  0.31318001  0.97984667  1.08333333  1
  Na  Na18  1  0.00000000  0.00000000  0.75000000  1
  Na  Na19  1  0.66666667  0.33333333  1.08333333  1
  Na  Na20  1  0.33333333  0.66666667  1.41666667  1
  Na  Na21  1  -0.00000000  -0.00000000  0.25000000  1
  Na  Na22  1  0.66666667  0.33333333  0.58333333  1
  Na  Na23  1  0.33333333  0.66666667  0.91666667  1
  Nb  Nb24  1  0.00000000  0.00000000  0.50000000  1
  Nb  Nb25  1  0.66666667  0.33333333  0.83333333  1
  Nb  Nb26  1  0.33333333  0.66666667  1.16666667  1
  Nb  Nb27  1  -0.00000000  -0.00000000  -0.00000000  1
  Nb  Nb28  1  0.66666667  0.33333333  0.33333333  1
  Nb  Nb29  1  0.33333333  0.66666667  0.66666667  1
  O  O30  1  0.16342811  0.51690984  0.56735336  1
  O  O31  1  0.83009477  0.85024318  0.90068669  1
  O  O32  1  0.49676144  1.18357651  1.23402003  1
  O  O33  1  -0.51690984  -0.35348173  0.56735336  1
  O  O34  1  0.14975682  -0.02014840  0.90068669  1
  O  O35  1  -0.18357651  0.31318493  1.23402003  1
  O  O36  1  0.35348173  -0.16342811  0.56735336  1
  O  O37  1  1.02014840  0.16990523  0.90068669  1
  O  O38  1  0.68681507  0.50323856  1.23402003  1
  O  O39  1  -0.02014840  0.14975682  0.59931331  1
  O  O40  1  0.64651827  0.48309016  0.93264664  1
  O  O41  1  0.31318493  0.81642349  1.26597997  1
  O  O42  1  -0.14975682  -0.16990523  0.59931331  1
  O  O43  1  0.51690984  0.16342811  0.93264664  1
  O  O44  1  0.18357651  0.49676144  1.26597997  1
  O  O45  1  0.16990523  0.02014840  0.59931331  1
  O  O46  1  0.83657189  0.35348173  0.93264664  1
  O  O47  1  0.50323856  0.68681507  1.26597997  1
  O  O48  1  -0.16342811  -0.51690984  0.43264664  1
  O  O49  1  0.50323856  -0.18357651  0.76597997  1
  O  O50  1  0.16990523  0.14975682  1.09931331  1
  O  O51  1  0.51690984  0.35348173  0.43264664  1
  O  O52  1  1.18357651  0.68681507  0.76597997  1
  O  O53  1  0.85024318  1.02014840  1.09931331  1
  O  O54  1  -0.35348173  0.16342811  0.43264664  1
  O  O55  1  0.31318493  0.49676144  0.76597997  1
  O  O56  1  -0.02014840  0.83009477  1.09931331  1
  O  O57  1  0.02014840  -0.14975682  0.40068669  1
  O  O58  1  0.68681507  0.18357651  0.73402003  1
  O  O59  1  0.35348173  0.51690984  1.06735336  1
  O  O60  1  -0.16990523  -0.02014840  0.40068669  1
  O  O61  1  0.49676144  0.31318493  0.73402003  1
  O  O62  1  0.16342811  0.64651827  1.06735336  1
  O  O63  1  0.14975682  0.16990523  0.40068669  1
  O  O64  1  0.81642349  0.50323856  0.73402003  1
  O  O65  1  0.48309016  0.83657189  1.06735336  1
