# generated using pymatgen
data_Li3AsO4
_symmetry_space_group_name_H-M   'P 1'
_cell_length_a   12.56703748
_cell_length_b   10.79871452
_cell_length_c   9.93395702
_cell_angle_alpha   90.00000000
_cell_angle_beta   90.00000000
_cell_angle_gamma   90.00000000
_symmetry_Int_Tables_number   1
_chemical_formula_structural   Li3AsO4
_chemical_formula_sum   'Li48 As16 O64'
_cell_volume   1348.11594970
_cell_formula_units_Z   16
loop_
 _symmetry_equiv_pos_site_id
 _symmetry_equiv_pos_as_xyz
  1  'x, y, z'
loop_
 _atom_site_type_symbol
 _atom_site_label
 _atom_site_symmetry_multiplicity
 _atom_site_fract_x
 _atom_site_fract_y
 _atom_site_fract_z
 _atom_site_occupancy
  Li  Li0  1  0.25000000  0.08252356  0.00254536  1
  Li  Li1  1  0.25000000  0.08252356  0.50254536  1
  Li  Li2  1  0.25000000  0.58252356  0.00254536  1
  Li  Li3  1  0.25000000  0.58252356  0.50254536  1
  Li  Li4  1  0.75000000  0.08252356  0.00254536  1
  Li  Li5  1  0.75000000  0.08252356  0.50254536  1
  Li  Li6  1  0.75000000  0.58252356  0.00254536  1
  Li  Li7  1  0.75000000  0.58252356  0.50254536  1
  Li  Li8  1  0.00000000  0.41747644  0.25254536  1
  Li  Li9  1  0.00000000  0.41747644  0.75254536  1
  Li  Li10  1  0.00000000  0.91747644  0.25254536  1
  Li  Li11  1  0.00000000  0.91747644  0.75254536  1
  Li  Li12  1  0.50000000  0.41747644  0.25254536  1
  Li  Li13  1  0.50000000  0.41747644  0.75254536  1
  Li  Li14  1  0.50000000  0.91747644  0.25254536  1
  Li  Li15  1  0.50000000  0.91747644  0.75254536  1
  Li  Li16  1  0.37611031  0.33460080  0.00252468  1
  Li  Li17  1  0.37611031  0.33460080  0.50252468  1
  Li  Li18  1  0.37611031  0.83460080  0.00252468  1
  Li  Li19  1  0.37611031  0.83460080  0.50252468  1
  Li  Li20  1  0.87611031  0.33460080  0.00252468  1
  Li  Li21  1  0.87611031  0.33460080  0.50252468  1
  Li  Li22  1  0.87611031  0.83460080  0.00252468  1
  Li  Li23  1  0.87611031  0.83460080  0.50252468  1
  Li  Li24  1  0.37388969  0.16539920  0.25252468  1
  Li  Li25  1  0.37388969  0.16539920  0.75252468  1
  Li  Li26  1  0.37388969  0.66539920  0.25252468  1
  Li  Li27  1  0.37388969  0.66539920  0.75252468  1
  Li  Li28  1  0.87388969  0.16539920  0.25252468  1
  Li  Li29  1  0.87388969  0.16539920  0.75252468  1
  Li  Li30  1  0.87388969  0.66539920  0.25252468  1
  Li  Li31  1  0.87388969  0.66539920  0.75252468  1
  Li  Li32  1  0.12611031  0.16539920  0.25252468  1
  Li  Li33  1  0.12611031  0.16539920  0.75252468  1
  Li  Li34  1  0.12611031  0.66539920  0.25252468  1
  Li  Li35  1  0.12611031  0.66539920  0.75252468  1
  Li  Li36  1  0.62611031  0.16539920  0.25252468  1
  Li  Li37  1  0.62611031  0.16539920  0.75252468  1
  Li  Li38  1  0.62611031  0.66539920  0.25252468  1
  Li  Li39  1  0.62611031  0.66539920  0.75252468  1
  Li  Li40  1  0.12388969  0.33460080  0.00252468  1
  Li  Li41  1  0.12388969  0.33460080  0.50252468  1
  Li  Li42  1  0.12388969  0.83460080  0.00252468  1
  Li  Li43  1  0.12388969  0.83460080  0.50252468  1
  Li  Li44  1  0.62388969  0.33460080  0.00252468  1
  Li  Li45  1  0.62388969  0.33460080  0.50252468  1
  Li  Li46  1  0.62388969  0.83460080  0.00252468  1
  Li  Li47  1  0.62388969  0.83460080  0.50252468  1
  As  As48  1  0.25000000  0.41488737  0.24875428  1
  As  As49  1  0.25000000  0.41488737  0.74875428  1
  As  As50  1  0.25000000  0.91488737  0.24875428  1
  As  As51  1  0.25000000  0.91488737  0.74875428  1
  As  As52  1  0.75000000  0.41488737  0.24875428  1
  As  As53  1  0.75000000  0.41488737  0.74875428  1
  As  As54  1  0.75000000  0.91488737  0.24875428  1
  As  As55  1  0.75000000  0.91488737  0.74875428  1
  As  As56  1  0.00000000  0.08511263  0.49875428  1
  As  As57  1  0.00000000  0.08511263  0.99875428  1
  As  As58  1  0.00000000  0.58511263  0.49875428  1
  As  As59  1  0.00000000  0.58511263  0.99875428  1
  As  As60  1  0.50000000  0.08511263  0.49875428  1
  As  As61  1  0.50000000  0.08511263  0.99875428  1
  As  As62  1  0.50000000  0.58511263  0.49875428  1
  As  As63  1  0.50000000  0.58511263  0.99875428  1
  O  O64  1  0.00000000  0.08766669  0.32604842  1
  O  O65  1  0.00000000  0.08766669  0.82604842  1
  O  O66  1  0.00000000  0.58766669  0.32604842  1
  O  O67  1  0.00000000  0.58766669  0.82604842  1
  O  O68  1  0.50000000  0.08766669  0.32604842  1
  O  O69  1  0.50000000  0.08766669  0.82604842  1
  O  O70  1  0.50000000  0.58766669  0.32604842  1
  O  O71  1  0.50000000  0.58766669  0.82604842  1
  O  O72  1  0.25000000  0.41233331  0.07604842  1
  O  O73  1  0.25000000  0.41233331  0.57604842  1
  O  O74  1  0.25000000  0.91233331  0.07604842  1
  O  O75  1  0.25000000  0.91233331  0.57604842  1
  O  O76  1  0.75000000  0.41233331  0.07604842  1
  O  O77  1  0.75000000  0.41233331  0.57604842  1
  O  O78  1  0.75000000  0.91233331  0.07604842  1
  O  O79  1  0.75000000  0.91233331  0.57604842  1
  O  O80  1  0.38818077  0.16032007  0.05510068  1
  O  O81  1  0.38818077  0.16032007  0.55510068  1
  O  O82  1  0.38818077  0.66032007  0.05510068  1
  O  O83  1  0.38818077  0.66032007  0.55510068  1
  O  O84  1  0.88818077  0.16032007  0.05510068  1
  O  O85  1  0.88818077  0.16032007  0.55510068  1
  O  O86  1  0.88818077  0.66032007  0.05510068  1
  O  O87  1  0.88818077  0.66032007  0.55510068  1
  O  O88  1  0.36181923  0.33967993  0.30510068  1
  O  O89  1  0.36181923  0.33967993  0.80510068  1
  O  O90  1  0.36181923  0.83967993  0.30510068  1
  O  O91  1  0.36181923  0.83967993  0.80510068  1
  O  O92  1  0.86181923  0.33967993  0.30510068  1
  O  O93  1  0.86181923  0.33967993  0.80510068  1
  O  O94  1  0.86181923  0.83967993  0.30510068  1
  O  O95  1  0.86181923  0.83967993  0.80510068  1
  O  O96  1  0.13818077  0.33967993  0.30510068  1
  O  O97  1  0.13818077  0.33967993  0.80510068  1
  O  O98  1  0.13818077  0.83967993  0.30510068  1
  O  O99  1  0.13818077  0.83967993  0.80510068  1
  O  O100  1  0.63818077  0.33967993  0.30510068  1
  O  O101  1  0.63818077  0.33967993  0.80510068  1
  O  O102  1  0.63818077  0.83967993  0.30510068  1
  O  O103  1  0.63818077  0.83967993  0.80510068  1
  O  O104  1  0.11181923  0.16032007  0.05510068  1
  O  O105  1  0.11181923  0.16032007  0.55510068  1
  O  O106  1  0.11181923  0.66032007  0.05510068  1
  O  O107  1  0.11181923  0.66032007  0.55510068  1
  O  O108  1  0.61181923  0.16032007  0.05510068  1
  O  O109  1  0.61181923  0.16032007  0.55510068  1
  O  O110  1  0.61181923  0.66032007  0.05510068  1
  O  O111  1  0.61181923  0.66032007  0.55510068  1
  O  O112  1  0.00000000  0.43469976  0.05400073  1
  O  O113  1  0.00000000  0.43469976  0.55400073  1
  O  O114  1  0.00000000  0.93469976  0.05400073  1
  O  O115  1  0.00000000  0.93469976  0.55400073  1
  O  O116  1  0.50000000  0.43469976  0.05400073  1
  O  O117  1  0.50000000  0.43469976  0.55400073  1
  O  O118  1  0.50000000  0.93469976  0.05400073  1
  O  O119  1  0.50000000  0.93469976  0.55400073  1
  O  O120  1  0.25000000  0.06530024  0.30400073  1
  O  O121  1  0.25000000  0.06530024  0.80400073  1
  O  O122  1  0.25000000  0.56530024  0.30400073  1
  O  O123  1  0.25000000  0.56530024  0.80400073  1
  O  O124  1  0.75000000  0.06530024  0.30400073  1
  O  O125  1  0.75000000  0.06530024  0.80400073  1
  O  O126  1  0.75000000  0.56530024  0.30400073  1
  O  O127  1  0.75000000  0.56530024  0.80400073  1
