# generated using pymatgen
data_LiYO2
_symmetry_space_group_name_H-M   'P 1'
_cell_length_a   12.28910070
_cell_length_b   12.21139070
_cell_length_c   12.46993235
_cell_angle_alpha   90.00000000
_cell_angle_beta   119.33128292
_cell_angle_gamma   90.00000000
_symmetry_Int_Tables_number   1
_chemical_formula_structural   LiYO2
_chemical_formula_sum   'Li32 Y32 O64'
_cell_volume   1631.42517694
_cell_formula_units_Z   32
loop_
 _symmetry_equiv_pos_site_id
 _symmetry_equiv_pos_as_xyz
  1  'x, y, z'
loop_
 _atom_site_type_symbol
 _atom_site_label
 _atom_site_symmetry_multiplicity
 _atom_site_fract_x
 _atom_site_fract_y
 _atom_site_fract_z
 _atom_site_occupancy
  Li  Li0  1  0.14570915  0.17229983  0.03250292  1
  Li  Li1  1  0.14570915  0.17229983  0.53250292  1
  Li  Li2  1  0.14570915  0.67229983  0.03250292  1
  Li  Li3  1  0.14570915  0.67229983  0.53250292  1
  Li  Li4  1  0.64570915  0.17229983  0.03250292  1
  Li  Li5  1  0.64570915  0.17229983  0.53250292  1
  Li  Li6  1  0.64570915  0.67229983  0.03250292  1
  Li  Li7  1  0.64570915  0.67229983  0.53250292  1
  Li  Li8  1  0.35429085  0.42229983  0.21749708  1
  Li  Li9  1  0.35429085  0.42229983  0.71749708  1
  Li  Li10  1  0.35429085  0.92229983  0.21749708  1
  Li  Li11  1  0.35429085  0.92229983  0.71749708  1
  Li  Li12  1  0.85429085  0.42229983  0.21749708  1
  Li  Li13  1  0.85429085  0.42229983  0.71749708  1
  Li  Li14  1  0.85429085  0.92229983  0.21749708  1
  Li  Li15  1  0.85429085  0.92229983  0.71749708  1
  Li  Li16  1  0.35429085  0.32770017  0.46749708  1
  Li  Li17  1  0.35429085  0.32770017  0.96749708  1
  Li  Li18  1  0.35429085  0.82770017  0.46749708  1
  Li  Li19  1  0.35429085  0.82770017  0.96749708  1
  Li  Li20  1  0.85429085  0.32770017  0.46749708  1
  Li  Li21  1  0.85429085  0.32770017  0.96749708  1
  Li  Li22  1  0.85429085  0.82770017  0.46749708  1
  Li  Li23  1  0.85429085  0.82770017  0.96749708  1
  Li  Li24  1  0.14570915  0.07770017  0.28250292  1
  Li  Li25  1  0.14570915  0.07770017  0.78250292  1
  Li  Li26  1  0.14570915  0.57770017  0.28250292  1
  Li  Li27  1  0.14570915  0.57770017  0.78250292  1
  Li  Li28  1  0.64570915  0.07770017  0.28250292  1
  Li  Li29  1  0.64570915  0.07770017  0.78250292  1
  Li  Li30  1  0.64570915  0.57770017  0.28250292  1
  Li  Li31  1  0.64570915  0.57770017  0.78250292  1
  Y  Y32  1  0.11669605  0.43461586  0.48905888  1
  Y  Y33  1  0.11669605  0.43461586  0.98905888  1
  Y  Y34  1  0.11669605  0.93461586  0.48905888  1
  Y  Y35  1  0.11669605  0.93461586  0.98905888  1
  Y  Y36  1  0.61669605  0.43461586  0.48905888  1
  Y  Y37  1  0.61669605  0.43461586  0.98905888  1
  Y  Y38  1  0.61669605  0.93461586  0.48905888  1
  Y  Y39  1  0.61669605  0.93461586  0.98905888  1
  Y  Y40  1  0.11669605  0.31538414  0.23905888  1
  Y  Y41  1  0.11669605  0.31538414  0.73905888  1
  Y  Y42  1  0.11669605  0.81538414  0.23905888  1
  Y  Y43  1  0.11669605  0.81538414  0.73905888  1
  Y  Y44  1  0.61669605  0.31538414  0.23905888  1
  Y  Y45  1  0.61669605  0.31538414  0.73905888  1
  Y  Y46  1  0.61669605  0.81538414  0.23905888  1
  Y  Y47  1  0.61669605  0.81538414  0.73905888  1
  Y  Y48  1  0.38330395  0.06538414  0.01094112  1
  Y  Y49  1  0.38330395  0.06538414  0.51094112  1
  Y  Y50  1  0.38330395  0.56538414  0.01094112  1
  Y  Y51  1  0.38330395  0.56538414  0.51094112  1
  Y  Y52  1  0.88330395  0.06538414  0.01094112  1
  Y  Y53  1  0.88330395  0.06538414  0.51094112  1
  Y  Y54  1  0.88330395  0.56538414  0.01094112  1
  Y  Y55  1  0.88330395  0.56538414  0.51094112  1
  Y  Y56  1  0.38330395  0.18461586  0.26094112  1
  Y  Y57  1  0.38330395  0.18461586  0.76094112  1
  Y  Y58  1  0.38330395  0.68461586  0.26094112  1
  Y  Y59  1  0.38330395  0.68461586  0.76094112  1
  Y  Y60  1  0.88330395  0.18461586  0.26094112  1
  Y  Y61  1  0.88330395  0.18461586  0.76094112  1
  Y  Y62  1  0.88330395  0.68461586  0.26094112  1
  Y  Y63  1  0.88330395  0.68461586  0.76094112  1
  O  O64  1  0.22679715  0.30425324  0.13199684  1
  O  O65  1  0.22679715  0.30425324  0.63199684  1
  O  O66  1  0.22679715  0.80425324  0.13199684  1
  O  O67  1  0.22679715  0.80425324  0.63199684  1
  O  O68  1  0.72679715  0.30425324  0.13199684  1
  O  O69  1  0.72679715  0.30425324  0.63199684  1
  O  O70  1  0.72679715  0.80425324  0.13199684  1
  O  O71  1  0.72679715  0.80425324  0.63199684  1
  O  O72  1  0.49417391  0.41379128  0.07692147  1
  O  O73  1  0.49417391  0.41379128  0.57692147  1
  O  O74  1  0.49417391  0.91379128  0.07692147  1
  O  O75  1  0.49417391  0.91379128  0.57692147  1
  O  O76  1  0.99417391  0.41379128  0.07692147  1
  O  O77  1  0.99417391  0.41379128  0.57692147  1
  O  O78  1  0.99417391  0.91379128  0.07692147  1
  O  O79  1  0.99417391  0.91379128  0.57692147  1
  O  O80  1  0.27320285  0.05425324  0.11800316  1
  O  O81  1  0.27320285  0.05425324  0.61800316  1
  O  O82  1  0.27320285  0.55425324  0.11800316  1
  O  O83  1  0.27320285  0.55425324  0.61800316  1
  O  O84  1  0.77320285  0.05425324  0.11800316  1
  O  O85  1  0.77320285  0.05425324  0.61800316  1
  O  O86  1  0.77320285  0.55425324  0.11800316  1
  O  O87  1  0.77320285  0.55425324  0.61800316  1
  O  O88  1  0.27320285  0.19574676  0.36800316  1
  O  O89  1  0.27320285  0.19574676  0.86800316  1
  O  O90  1  0.27320285  0.69574676  0.36800316  1
  O  O91  1  0.27320285  0.69574676  0.86800316  1
  O  O92  1  0.77320285  0.19574676  0.36800316  1
  O  O93  1  0.77320285  0.19574676  0.86800316  1
  O  O94  1  0.77320285  0.69574676  0.36800316  1
  O  O95  1  0.77320285  0.69574676  0.86800316  1
  O  O96  1  0.00582609  0.08620872  0.42307853  1
  O  O97  1  0.00582609  0.08620872  0.92307853  1
  O  O98  1  0.00582609  0.58620872  0.42307853  1
  O  O99  1  0.00582609  0.58620872  0.92307853  1
  O  O100  1  0.50582609  0.08620872  0.42307853  1
  O  O101  1  0.50582609  0.08620872  0.92307853  1
  O  O102  1  0.50582609  0.58620872  0.42307853  1
  O  O103  1  0.50582609  0.58620872  0.92307853  1
  O  O104  1  0.00582609  0.16379128  0.17307853  1
  O  O105  1  0.00582609  0.16379128  0.67307853  1
  O  O106  1  0.00582609  0.66379128  0.17307853  1
  O  O107  1  0.00582609  0.66379128  0.67307853  1
  O  O108  1  0.50582609  0.16379128  0.17307853  1
  O  O109  1  0.50582609  0.16379128  0.67307853  1
  O  O110  1  0.50582609  0.66379128  0.17307853  1
  O  O111  1  0.50582609  0.66379128  0.67307853  1
  O  O112  1  0.49417391  0.33620872  0.32692147  1
  O  O113  1  0.49417391  0.33620872  0.82692147  1
  O  O114  1  0.49417391  0.83620872  0.32692147  1
  O  O115  1  0.49417391  0.83620872  0.82692147  1
  O  O116  1  0.99417391  0.33620872  0.32692147  1
  O  O117  1  0.99417391  0.33620872  0.82692147  1
  O  O118  1  0.99417391  0.83620872  0.32692147  1
  O  O119  1  0.99417391  0.83620872  0.82692147  1
  O  O120  1  0.22679715  0.44574676  0.38199684  1
  O  O121  1  0.22679715  0.44574676  0.88199684  1
  O  O122  1  0.22679715  0.94574676  0.38199684  1
  O  O123  1  0.22679715  0.94574676  0.88199684  1
  O  O124  1  0.72679715  0.44574676  0.38199684  1
  O  O125  1  0.72679715  0.44574676  0.88199684  1
  O  O126  1  0.72679715  0.94574676  0.38199684  1
  O  O127  1  0.72679715  0.94574676  0.88199684  1
