# generated using pymatgen
data_CdIn2O4
_symmetry_space_group_name_H-M   'P 1'
_cell_length_a   18.51246474
_cell_length_b   18.51246474
_cell_length_c   18.51246474
_cell_angle_alpha   90.00000000
_cell_angle_beta   90.00000000
_cell_angle_gamma   90.00000000
_symmetry_Int_Tables_number   1
_chemical_formula_structural   CdIn2O4
_chemical_formula_sum   'Cd64 In128 O256'
_cell_volume   6344.43179482
_cell_formula_units_Z   64
loop_
 _symmetry_equiv_pos_site_id
 _symmetry_equiv_pos_as_xyz
  1  'x, y, z'
loop_
 _atom_site_type_symbol
 _atom_site_label
 _atom_site_symmetry_multiplicity
 _atom_site_fract_x
 _atom_site_fract_y
 _atom_site_fract_z
 _atom_site_occupancy
  Cd  Cd0  1  0.00000000  0.00000000  0.00000000  1
  Cd  Cd1  1  0.00000000  0.00000000  0.50000000  1
  Cd  Cd2  1  0.00000000  0.50000000  0.00000000  1
  Cd  Cd3  1  0.00000000  0.50000000  0.50000000  1
  Cd  Cd4  1  0.50000000  0.00000000  0.00000000  1
  Cd  Cd5  1  0.50000000  0.00000000  0.50000000  1
  Cd  Cd6  1  0.50000000  0.50000000  0.00000000  1
  Cd  Cd7  1  0.50000000  0.50000000  0.50000000  1
  Cd  Cd8  1  0.25000000  0.25000000  0.00000000  1
  Cd  Cd9  1  0.25000000  0.25000000  0.50000000  1
  Cd  Cd10  1  0.25000000  0.75000000  0.00000000  1
  Cd  Cd11  1  0.25000000  0.75000000  0.50000000  1
  Cd  Cd12  1  0.75000000  0.25000000  0.00000000  1
  Cd  Cd13  1  0.75000000  0.25000000  0.50000000  1
  Cd  Cd14  1  0.75000000  0.75000000  0.00000000  1
  Cd  Cd15  1  0.75000000  0.75000000  0.50000000  1
  Cd  Cd16  1  0.25000000  0.00000000  0.25000000  1
  Cd  Cd17  1  0.25000000  0.00000000  0.75000000  1
  Cd  Cd18  1  0.25000000  0.50000000  0.25000000  1
  Cd  Cd19  1  0.25000000  0.50000000  0.75000000  1
  Cd  Cd20  1  0.75000000  0.00000000  0.25000000  1
  Cd  Cd21  1  0.75000000  0.00000000  0.75000000  1
  Cd  Cd22  1  0.75000000  0.50000000  0.25000000  1
  Cd  Cd23  1  0.75000000  0.50000000  0.75000000  1
  Cd  Cd24  1  0.00000000  0.25000000  0.25000000  1
  Cd  Cd25  1  0.00000000  0.25000000  0.75000000  1
  Cd  Cd26  1  0.00000000  0.75000000  0.25000000  1
  Cd  Cd27  1  0.00000000  0.75000000  0.75000000  1
  Cd  Cd28  1  0.50000000  0.25000000  0.25000000  1
  Cd  Cd29  1  0.50000000  0.25000000  0.75000000  1
  Cd  Cd30  1  0.50000000  0.75000000  0.25000000  1
  Cd  Cd31  1  0.50000000  0.75000000  0.75000000  1
  Cd  Cd32  1  0.12500000  0.12500000  0.12500000  1
  Cd  Cd33  1  0.12500000  0.12500000  0.62500000  1
  Cd  Cd34  1  0.12500000  0.62500000  0.12500000  1
  Cd  Cd35  1  0.12500000  0.62500000  0.62500000  1
  Cd  Cd36  1  0.62500000  0.12500000  0.12500000  1
  Cd  Cd37  1  0.62500000  0.12500000  0.62500000  1
  Cd  Cd38  1  0.62500000  0.62500000  0.12500000  1
  Cd  Cd39  1  0.62500000  0.62500000  0.62500000  1
  Cd  Cd40  1  0.37500000  0.37500000  0.12500000  1
  Cd  Cd41  1  0.37500000  0.37500000  0.62500000  1
  Cd  Cd42  1  0.37500000  0.87500000  0.12500000  1
  Cd  Cd43  1  0.37500000  0.87500000  0.62500000  1
  Cd  Cd44  1  0.87500000  0.37500000  0.12500000  1
  Cd  Cd45  1  0.87500000  0.37500000  0.62500000  1
  Cd  Cd46  1  0.87500000  0.87500000  0.12500000  1
  Cd  Cd47  1  0.87500000  0.87500000  0.62500000  1
  Cd  Cd48  1  0.37500000  0.12500000  0.37500000  1
  Cd  Cd49  1  0.37500000  0.12500000  0.87500000  1
  Cd  Cd50  1  0.37500000  0.62500000  0.37500000  1
  Cd  Cd51  1  0.37500000  0.62500000  0.87500000  1
  Cd  Cd52  1  0.87500000  0.12500000  0.37500000  1
  Cd  Cd53  1  0.87500000  0.12500000  0.87500000  1
  Cd  Cd54  1  0.87500000  0.62500000  0.37500000  1
  Cd  Cd55  1  0.87500000  0.62500000  0.87500000  1
  Cd  Cd56  1  0.12500000  0.37500000  0.37500000  1
  Cd  Cd57  1  0.12500000  0.37500000  0.87500000  1
  Cd  Cd58  1  0.12500000  0.87500000  0.37500000  1
  Cd  Cd59  1  0.12500000  0.87500000  0.87500000  1
  Cd  Cd60  1  0.62500000  0.37500000  0.37500000  1
  Cd  Cd61  1  0.62500000  0.37500000  0.87500000  1
  Cd  Cd62  1  0.62500000  0.87500000  0.37500000  1
  Cd  Cd63  1  0.62500000  0.87500000  0.87500000  1
  In  In64  1  0.18750000  0.18750000  0.31250000  1
  In  In65  1  0.18750000  0.18750000  0.81250000  1
  In  In66  1  0.18750000  0.68750000  0.31250000  1
  In  In67  1  0.18750000  0.68750000  0.81250000  1
  In  In68  1  0.68750000  0.18750000  0.31250000  1
  In  In69  1  0.68750000  0.18750000  0.81250000  1
  In  In70  1  0.68750000  0.68750000  0.31250000  1
  In  In71  1  0.68750000  0.68750000  0.81250000  1
  In  In72  1  0.43750000  0.43750000  0.31250000  1
  In  In73  1  0.43750000  0.43750000  0.81250000  1
  In  In74  1  0.43750000  0.93750000  0.31250000  1
  In  In75  1  0.43750000  0.93750000  0.81250000  1
  In  In76  1  0.93750000  0.43750000  0.31250000  1
  In  In77  1  0.93750000  0.43750000  0.81250000  1
  In  In78  1  0.93750000  0.93750000  0.31250000  1
  In  In79  1  0.93750000  0.93750000  0.81250000  1
  In  In80  1  0.43750000  0.18750000  0.56250000  1
  In  In81  1  0.43750000  0.18750000  1.06250000  1
  In  In82  1  0.43750000  0.68750000  0.56250000  1
  In  In83  1  0.43750000  0.68750000  1.06250000  1
  In  In84  1  0.93750000  0.18750000  0.56250000  1
  In  In85  1  0.93750000  0.18750000  1.06250000  1
  In  In86  1  0.93750000  0.68750000  0.56250000  1
  In  In87  1  0.93750000  0.68750000  1.06250000  1
  In  In88  1  0.18750000  0.43750000  0.56250000  1
  In  In89  1  0.18750000  0.43750000  1.06250000  1
  In  In90  1  0.18750000  0.93750000  0.56250000  1
  In  In91  1  0.18750000  0.93750000  1.06250000  1
  In  In92  1  0.68750000  0.43750000  0.56250000  1
  In  In93  1  0.68750000  0.43750000  1.06250000  1
  In  In94  1  0.68750000  0.93750000  0.56250000  1
  In  In95  1  0.68750000  0.93750000  1.06250000  1
  In  In96  1  0.18750000  0.31250000  0.18750000  1
  In  In97  1  0.18750000  0.31250000  0.68750000  1
  In  In98  1  0.18750000  0.81250000  0.18750000  1
  In  In99  1  0.18750000  0.81250000  0.68750000  1
  In  In100  1  0.68750000  0.31250000  0.18750000  1
  In  In101  1  0.68750000  0.31250000  0.68750000  1
  In  In102  1  0.68750000  0.81250000  0.18750000  1
  In  In103  1  0.68750000  0.81250000  0.68750000  1
  In  In104  1  0.43750000  0.56250000  0.18750000  1
  In  In105  1  0.43750000  0.56250000  0.68750000  1
  In  In106  1  0.43750000  1.06250000  0.18750000  1
  In  In107  1  0.43750000  1.06250000  0.68750000  1
  In  In108  1  0.93750000  0.56250000  0.18750000  1
  In  In109  1  0.93750000  0.56250000  0.68750000  1
  In  In110  1  0.93750000  1.06250000  0.18750000  1
  In  In111  1  0.93750000  1.06250000  0.68750000  1
  In  In112  1  0.43750000  0.31250000  0.43750000  1
  In  In113  1  0.43750000  0.31250000  0.93750000  1
  In  In114  1  0.43750000  0.81250000  0.43750000  1
  In  In115  1  0.43750000  0.81250000  0.93750000  1
  In  In116  1  0.93750000  0.31250000  0.43750000  1
  In  In117  1  0.93750000  0.31250000  0.93750000  1
  In  In118  1  0.93750000  0.81250000  0.43750000  1
  In  In119  1  0.93750000  0.81250000  0.93750000  1
  In  In120  1  0.18750000  0.56250000  0.43750000  1
  In  In121  1  0.18750000  0.56250000  0.93750000  1
  In  In122  1  0.18750000  1.06250000  0.43750000  1
  In  In123  1  0.18750000  1.06250000  0.93750000  1
  In  In124  1  0.68750000  0.56250000  0.43750000  1
  In  In125  1  0.68750000  0.56250000  0.93750000  1
  In  In126  1  0.68750000  1.06250000  0.43750000  1
  In  In127  1  0.68750000  1.06250000  0.93750000  1
  In  In128  1  0.31250000  0.18750000  0.18750000  1
  In  In129  1  0.31250000  0.18750000  0.68750000  1
  In  In130  1  0.31250000  0.68750000  0.18750000  1
  In  In131  1  0.31250000  0.68750000  0.68750000  1
  In  In132  1  0.81250000  0.18750000  0.18750000  1
  In  In133  1  0.81250000  0.18750000  0.68750000  1
  In  In134  1  0.81250000  0.68750000  0.18750000  1
  In  In135  1  0.81250000  0.68750000  0.68750000  1
  In  In136  1  0.56250000  0.43750000  0.18750000  1
  In  In137  1  0.56250000  0.43750000  0.68750000  1
  In  In138  1  0.56250000  0.93750000  0.18750000  1
  In  In139  1  0.56250000  0.93750000  0.68750000  1
  In  In140  1  1.06250000  0.43750000  0.18750000  1
  In  In141  1  1.06250000  0.43750000  0.68750000  1
  In  In142  1  1.06250000  0.93750000  0.18750000  1
  In  In143  1  1.06250000  0.93750000  0.68750000  1
  In  In144  1  0.56250000  0.18750000  0.43750000  1
  In  In145  1  0.56250000  0.18750000  0.93750000  1
  In  In146  1  0.56250000  0.68750000  0.43750000  1
  In  In147  1  0.56250000  0.68750000  0.93750000  1
  In  In148  1  1.06250000  0.18750000  0.43750000  1
  In  In149  1  1.06250000  0.18750000  0.93750000  1
  In  In150  1  1.06250000  0.68750000  0.43750000  1
  In  In151  1  1.06250000  0.68750000  0.93750000  1
  In  In152  1  0.31250000  0.43750000  0.43750000  1
  In  In153  1  0.31250000  0.43750000  0.93750000  1
  In  In154  1  0.31250000  0.93750000  0.43750000  1
  In  In155  1  0.31250000  0.93750000  0.93750000  1
  In  In156  1  0.81250000  0.43750000  0.43750000  1
  In  In157  1  0.81250000  0.43750000  0.93750000  1
  In  In158  1  0.81250000  0.93750000  0.43750000  1
  In  In159  1  0.81250000  0.93750000  0.93750000  1
  In  In160  1  0.31250000  0.31250000  0.31250000  1
  In  In161  1  0.31250000  0.31250000  0.81250000  1
  In  In162  1  0.31250000  0.81250000  0.31250000  1
  In  In163  1  0.31250000  0.81250000  0.81250000  1
  In  In164  1  0.81250000  0.31250000  0.31250000  1
  In  In165  1  0.81250000  0.31250000  0.81250000  1
  In  In166  1  0.81250000  0.81250000  0.31250000  1
  In  In167  1  0.81250000  0.81250000  0.81250000  1
  In  In168  1  0.56250000  0.56250000  0.31250000  1
  In  In169  1  0.56250000  0.56250000  0.81250000  1
  In  In170  1  0.56250000  1.06250000  0.31250000  1
  In  In171  1  0.56250000  1.06250000  0.81250000  1
  In  In172  1  1.06250000  0.56250000  0.31250000  1
  In  In173  1  1.06250000  0.56250000  0.81250000  1
  In  In174  1  1.06250000  1.06250000  0.31250000  1
  In  In175  1  1.06250000  1.06250000  0.81250000  1
  In  In176  1  0.56250000  0.31250000  0.56250000  1
  In  In177  1  0.56250000  0.31250000  1.06250000  1
  In  In178  1  0.56250000  0.81250000  0.56250000  1
  In  In179  1  0.56250000  0.81250000  1.06250000  1
  In  In180  1  1.06250000  0.31250000  0.56250000  1
  In  In181  1  1.06250000  0.31250000  1.06250000  1
  In  In182  1  1.06250000  0.81250000  0.56250000  1
  In  In183  1  1.06250000  0.81250000  1.06250000  1
  In  In184  1  0.31250000  0.56250000  0.56250000  1
  In  In185  1  0.31250000  0.56250000  1.06250000  1
  In  In186  1  0.31250000  1.06250000  0.56250000  1
  In  In187  1  0.31250000  1.06250000  1.06250000  1
  In  In188  1  0.81250000  0.56250000  0.56250000  1
  In  In189  1  0.81250000  0.56250000  1.06250000  1
  In  In190  1  0.81250000  1.06250000  0.56250000  1
  In  In191  1  0.81250000  1.06250000  1.06250000  1
  O  O192  1  0.30639986  0.19360014  0.30639986  1
  O  O193  1  0.30639986  0.19360014  0.80639986  1
  O  O194  1  0.30639986  0.69360014  0.30639986  1
  O  O195  1  0.30639986  0.69360014  0.80639986  1
  O  O196  1  0.80639986  0.19360014  0.30639986  1
  O  O197  1  0.80639986  0.19360014  0.80639986  1
  O  O198  1  0.80639986  0.69360014  0.30639986  1
  O  O199  1  0.80639986  0.69360014  0.80639986  1
  O  O200  1  0.55639986  0.44360014  0.30639986  1
  O  O201  1  0.55639986  0.44360014  0.80639986  1
  O  O202  1  0.55639986  0.94360014  0.30639986  1
  O  O203  1  0.55639986  0.94360014  0.80639986  1
  O  O204  1  1.05639986  0.44360014  0.30639986  1
  O  O205  1  1.05639986  0.44360014  0.80639986  1
  O  O206  1  1.05639986  0.94360014  0.30639986  1
  O  O207  1  1.05639986  0.94360014  0.80639986  1
  O  O208  1  0.55639986  0.19360014  0.55639986  1
  O  O209  1  0.55639986  0.19360014  1.05639986  1
  O  O210  1  0.55639986  0.69360014  0.55639986  1
  O  O211  1  0.55639986  0.69360014  1.05639986  1
  O  O212  1  1.05639986  0.19360014  0.55639986  1
  O  O213  1  1.05639986  0.19360014  1.05639986  1
  O  O214  1  1.05639986  0.69360014  0.55639986  1
  O  O215  1  1.05639986  0.69360014  1.05639986  1
  O  O216  1  0.30639986  0.44360014  0.55639986  1
  O  O217  1  0.30639986  0.44360014  1.05639986  1
  O  O218  1  0.30639986  0.94360014  0.55639986  1
  O  O219  1  0.30639986  0.94360014  1.05639986  1
  O  O220  1  0.80639986  0.44360014  0.55639986  1
  O  O221  1  0.80639986  0.44360014  1.05639986  1
  O  O222  1  0.80639986  0.94360014  0.55639986  1
  O  O223  1  0.80639986  0.94360014  1.05639986  1
  O  O224  1  0.31860014  0.31860014  0.43139986  1
  O  O225  1  0.31860014  0.31860014  0.93139986  1
  O  O226  1  0.31860014  0.81860014  0.43139986  1
  O  O227  1  0.31860014  0.81860014  0.93139986  1
  O  O228  1  0.81860014  0.31860014  0.43139986  1
  O  O229  1  0.81860014  0.31860014  0.93139986  1
  O  O230  1  0.81860014  0.81860014  0.43139986  1
  O  O231  1  0.81860014  0.81860014  0.93139986  1
  O  O232  1  0.56860014  0.56860014  0.43139986  1
  O  O233  1  0.56860014  0.56860014  0.93139986  1
  O  O234  1  0.56860014  1.06860014  0.43139986  1
  O  O235  1  0.56860014  1.06860014  0.93139986  1
  O  O236  1  1.06860014  0.56860014  0.43139986  1
  O  O237  1  1.06860014  0.56860014  0.93139986  1
  O  O238  1  1.06860014  1.06860014  0.43139986  1
  O  O239  1  1.06860014  1.06860014  0.93139986  1
  O  O240  1  0.56860014  0.31860014  0.68139986  1
  O  O241  1  0.56860014  0.31860014  1.18139986  1
  O  O242  1  0.56860014  0.81860014  0.68139986  1
  O  O243  1  0.56860014  0.81860014  1.18139986  1
  O  O244  1  1.06860014  0.31860014  0.68139986  1
  O  O245  1  1.06860014  0.31860014  1.18139986  1
  O  O246  1  1.06860014  0.81860014  0.68139986  1
  O  O247  1  1.06860014  0.81860014  1.18139986  1
  O  O248  1  0.31860014  0.56860014  0.68139986  1
  O  O249  1  0.31860014  0.56860014  1.18139986  1
  O  O250  1  0.31860014  1.06860014  0.68139986  1
  O  O251  1  0.31860014  1.06860014  1.18139986  1
  O  O252  1  0.81860014  0.56860014  0.68139986  1
  O  O253  1  0.81860014  0.56860014  1.18139986  1
  O  O254  1  0.81860014  1.06860014  0.68139986  1
  O  O255  1  0.81860014  1.06860014  1.18139986  1
  O  O256  1  0.43139986  0.43139986  0.43139986  1
  O  O257  1  0.43139986  0.43139986  0.93139986  1
  O  O258  1  0.43139986  0.93139986  0.43139986  1
  O  O259  1  0.43139986  0.93139986  0.93139986  1
  O  O260  1  0.93139986  0.43139986  0.43139986  1
  O  O261  1  0.93139986  0.43139986  0.93139986  1
  O  O262  1  0.93139986  0.93139986  0.43139986  1
  O  O263  1  0.93139986  0.93139986  0.93139986  1
  O  O264  1  0.68139986  0.68139986  0.43139986  1
  O  O265  1  0.68139986  0.68139986  0.93139986  1
  O  O266  1  0.68139986  1.18139986  0.43139986  1
  O  O267  1  0.68139986  1.18139986  0.93139986  1
  O  O268  1  1.18139986  0.68139986  0.43139986  1
  O  O269  1  1.18139986  0.68139986  0.93139986  1
  O  O270  1  1.18139986  1.18139986  0.43139986  1
  O  O271  1  1.18139986  1.18139986  0.93139986  1
  O  O272  1  0.68139986  0.43139986  0.68139986  1
  O  O273  1  0.68139986  0.43139986  1.18139986  1
  O  O274  1  0.68139986  0.93139986  0.68139986  1
  O  O275  1  0.68139986  0.93139986  1.18139986  1
  O  O276  1  1.18139986  0.43139986  0.68139986  1
  O  O277  1  1.18139986  0.43139986  1.18139986  1
  O  O278  1  1.18139986  0.93139986  0.68139986  1
  O  O279  1  1.18139986  0.93139986  1.18139986  1
  O  O280  1  0.43139986  0.68139986  0.68139986  1
  O  O281  1  0.43139986  0.68139986  1.18139986  1
  O  O282  1  0.43139986  1.18139986  0.68139986  1
  O  O283  1  0.43139986  1.18139986  1.18139986  1
  O  O284  1  0.93139986  0.68139986  0.68139986  1
  O  O285  1  0.93139986  0.68139986  1.18139986  1
  O  O286  1  0.93139986  1.18139986  0.68139986  1
  O  O287  1  0.93139986  1.18139986  1.18139986  1
  O  O288  1  0.43139986  0.31860014  0.31860014  1
  O  O289  1  0.43139986  0.31860014  0.81860014  1
  O  O290  1  0.43139986  0.81860014  0.31860014  1
  O  O291  1  0.43139986  0.81860014  0.81860014  1
  O  O292  1  0.93139986  0.31860014  0.31860014  1
  O  O293  1  0.93139986  0.31860014  0.81860014  1
  O  O294  1  0.93139986  0.81860014  0.31860014  1
  O  O295  1  0.93139986  0.81860014  0.81860014  1
  O  O296  1  0.68139986  0.56860014  0.31860014  1
  O  O297  1  0.68139986  0.56860014  0.81860014  1
  O  O298  1  0.68139986  1.06860014  0.31860014  1
  O  O299  1  0.68139986  1.06860014  0.81860014  1
  O  O300  1  1.18139986  0.56860014  0.31860014  1
  O  O301  1  1.18139986  0.56860014  0.81860014  1
  O  O302  1  1.18139986  1.06860014  0.31860014  1
  O  O303  1  1.18139986  1.06860014  0.81860014  1
  O  O304  1  0.68139986  0.31860014  0.56860014  1
  O  O305  1  0.68139986  0.31860014  1.06860014  1
  O  O306  1  0.68139986  0.81860014  0.56860014  1
  O  O307  1  0.68139986  0.81860014  1.06860014  1
  O  O308  1  1.18139986  0.31860014  0.56860014  1
  O  O309  1  1.18139986  0.31860014  1.06860014  1
  O  O310  1  1.18139986  0.81860014  0.56860014  1
  O  O311  1  1.18139986  0.81860014  1.06860014  1
  O  O312  1  0.43139986  0.56860014  0.56860014  1
  O  O313  1  0.43139986  0.56860014  1.06860014  1
  O  O314  1  0.43139986  1.06860014  0.56860014  1
  O  O315  1  0.43139986  1.06860014  1.06860014  1
  O  O316  1  0.93139986  0.56860014  0.56860014  1
  O  O317  1  0.93139986  0.56860014  1.06860014  1
  O  O318  1  0.93139986  1.06860014  0.56860014  1
  O  O319  1  0.93139986  1.06860014  1.06860014  1
  O  O320  1  0.19360014  0.19360014  0.19360014  1
  O  O321  1  0.19360014  0.19360014  0.69360014  1
  O  O322  1  0.19360014  0.69360014  0.19360014  1
  O  O323  1  0.19360014  0.69360014  0.69360014  1
  O  O324  1  0.69360014  0.19360014  0.19360014  1
  O  O325  1  0.69360014  0.19360014  0.69360014  1
  O  O326  1  0.69360014  0.69360014  0.19360014  1
  O  O327  1  0.69360014  0.69360014  0.69360014  1
  O  O328  1  0.44360014  0.44360014  0.19360014  1
  O  O329  1  0.44360014  0.44360014  0.69360014  1
  O  O330  1  0.44360014  0.94360014  0.19360014  1
  O  O331  1  0.44360014  0.94360014  0.69360014  1
  O  O332  1  0.94360014  0.44360014  0.19360014  1
  O  O333  1  0.94360014  0.44360014  0.69360014  1
  O  O334  1  0.94360014  0.94360014  0.19360014  1
  O  O335  1  0.94360014  0.94360014  0.69360014  1
  O  O336  1  0.44360014  0.19360014  0.44360014  1
  O  O337  1  0.44360014  0.19360014  0.94360014  1
  O  O338  1  0.44360014  0.69360014  0.44360014  1
  O  O339  1  0.44360014  0.69360014  0.94360014  1
  O  O340  1  0.94360014  0.19360014  0.44360014  1
  O  O341  1  0.94360014  0.19360014  0.94360014  1
  O  O342  1  0.94360014  0.69360014  0.44360014  1
  O  O343  1  0.94360014  0.69360014  0.94360014  1
  O  O344  1  0.19360014  0.44360014  0.44360014  1
  O  O345  1  0.19360014  0.44360014  0.94360014  1
  O  O346  1  0.19360014  0.94360014  0.44360014  1
  O  O347  1  0.19360014  0.94360014  0.94360014  1
  O  O348  1  0.69360014  0.44360014  0.44360014  1
  O  O349  1  0.69360014  0.44360014  0.94360014  1
  O  O350  1  0.69360014  0.94360014  0.44360014  1
  O  O351  1  0.69360014  0.94360014  0.94360014  1
  O  O352  1  0.19360014  0.30639986  0.30639986  1
  O  O353  1  0.19360014  0.30639986  0.80639986  1
  O  O354  1  0.19360014  0.80639986  0.30639986  1
  O  O355  1  0.19360014  0.80639986  0.80639986  1
  O  O356  1  0.69360014  0.30639986  0.30639986  1
  O  O357  1  0.69360014  0.30639986  0.80639986  1
  O  O358  1  0.69360014  0.80639986  0.30639986  1
  O  O359  1  0.69360014  0.80639986  0.80639986  1
  O  O360  1  0.44360014  0.55639986  0.30639986  1
  O  O361  1  0.44360014  0.55639986  0.80639986  1
  O  O362  1  0.44360014  1.05639986  0.30639986  1
  O  O363  1  0.44360014  1.05639986  0.80639986  1
  O  O364  1  0.94360014  0.55639986  0.30639986  1
  O  O365  1  0.94360014  0.55639986  0.80639986  1
  O  O366  1  0.94360014  1.05639986  0.30639986  1
  O  O367  1  0.94360014  1.05639986  0.80639986  1
  O  O368  1  0.44360014  0.30639986  0.55639986  1
  O  O369  1  0.44360014  0.30639986  1.05639986  1
  O  O370  1  0.44360014  0.80639986  0.55639986  1
  O  O371  1  0.44360014  0.80639986  1.05639986  1
  O  O372  1  0.94360014  0.30639986  0.55639986  1
  O  O373  1  0.94360014  0.30639986  1.05639986  1
  O  O374  1  0.94360014  0.80639986  0.55639986  1
  O  O375  1  0.94360014  0.80639986  1.05639986  1
  O  O376  1  0.19360014  0.55639986  0.55639986  1
  O  O377  1  0.19360014  0.55639986  1.05639986  1
  O  O378  1  0.19360014  1.05639986  0.55639986  1
  O  O379  1  0.19360014  1.05639986  1.05639986  1
  O  O380  1  0.69360014  0.55639986  0.55639986  1
  O  O381  1  0.69360014  0.55639986  1.05639986  1
  O  O382  1  0.69360014  1.05639986  0.55639986  1
  O  O383  1  0.69360014  1.05639986  1.05639986  1
  O  O384  1  0.31860014  0.43139986  0.31860014  1
  O  O385  1  0.31860014  0.43139986  0.81860014  1
  O  O386  1  0.31860014  0.93139986  0.31860014  1
  O  O387  1  0.31860014  0.93139986  0.81860014  1
  O  O388  1  0.81860014  0.43139986  0.31860014  1
  O  O389  1  0.81860014  0.43139986  0.81860014  1
  O  O390  1  0.81860014  0.93139986  0.31860014  1
  O  O391  1  0.81860014  0.93139986  0.81860014  1
  O  O392  1  0.56860014  0.68139986  0.31860014  1
  O  O393  1  0.56860014  0.68139986  0.81860014  1
  O  O394  1  0.56860014  1.18139986  0.31860014  1
  O  O395  1  0.56860014  1.18139986  0.81860014  1
  O  O396  1  1.06860014  0.68139986  0.31860014  1
  O  O397  1  1.06860014  0.68139986  0.81860014  1
  O  O398  1  1.06860014  1.18139986  0.31860014  1
  O  O399  1  1.06860014  1.18139986  0.81860014  1
  O  O400  1  0.56860014  0.43139986  0.56860014  1
  O  O401  1  0.56860014  0.43139986  1.06860014  1
  O  O402  1  0.56860014  0.93139986  0.56860014  1
  O  O403  1  0.56860014  0.93139986  1.06860014  1
  O  O404  1  1.06860014  0.43139986  0.56860014  1
  O  O405  1  1.06860014  0.43139986  1.06860014  1
  O  O406  1  1.06860014  0.93139986  0.56860014  1
  O  O407  1  1.06860014  0.93139986  1.06860014  1
  O  O408  1  0.31860014  0.68139986  0.56860014  1
  O  O409  1  0.31860014  0.68139986  1.06860014  1
  O  O410  1  0.31860014  1.18139986  0.56860014  1
  O  O411  1  0.31860014  1.18139986  1.06860014  1
  O  O412  1  0.81860014  0.68139986  0.56860014  1
  O  O413  1  0.81860014  0.68139986  1.06860014  1
  O  O414  1  0.81860014  1.18139986  0.56860014  1
  O  O415  1  0.81860014  1.18139986  1.06860014  1
  O  O416  1  0.30639986  0.30639986  0.19360014  1
  O  O417  1  0.30639986  0.30639986  0.69360014  1
  O  O418  1  0.30639986  0.80639986  0.19360014  1
  O  O419  1  0.30639986  0.80639986  0.69360014  1
  O  O420  1  0.80639986  0.30639986  0.19360014  1
  O  O421  1  0.80639986  0.30639986  0.69360014  1
  O  O422  1  0.80639986  0.80639986  0.19360014  1
  O  O423  1  0.80639986  0.80639986  0.69360014  1
  O  O424  1  0.55639986  0.55639986  0.19360014  1
  O  O425  1  0.55639986  0.55639986  0.69360014  1
  O  O426  1  0.55639986  1.05639986  0.19360014  1
  O  O427  1  0.55639986  1.05639986  0.69360014  1
  O  O428  1  1.05639986  0.55639986  0.19360014  1
  O  O429  1  1.05639986  0.55639986  0.69360014  1
  O  O430  1  1.05639986  1.05639986  0.19360014  1
  O  O431  1  1.05639986  1.05639986  0.69360014  1
  O  O432  1  0.55639986  0.30639986  0.44360014  1
  O  O433  1  0.55639986  0.30639986  0.94360014  1
  O  O434  1  0.55639986  0.80639986  0.44360014  1
  O  O435  1  0.55639986  0.80639986  0.94360014  1
  O  O436  1  1.05639986  0.30639986  0.44360014  1
  O  O437  1  1.05639986  0.30639986  0.94360014  1
  O  O438  1  1.05639986  0.80639986  0.44360014  1
  O  O439  1  1.05639986  0.80639986  0.94360014  1
  O  O440  1  0.30639986  0.55639986  0.44360014  1
  O  O441  1  0.30639986  0.55639986  0.94360014  1
  O  O442  1  0.30639986  1.05639986  0.44360014  1
  O  O443  1  0.30639986  1.05639986  0.94360014  1
  O  O444  1  0.80639986  0.55639986  0.44360014  1
  O  O445  1  0.80639986  0.55639986  0.94360014  1
  O  O446  1  0.80639986  1.05639986  0.44360014  1
  O  O447  1  0.80639986  1.05639986  0.94360014  1
