# generated using pymatgen
data_Na4TiO4
_symmetry_space_group_name_H-M   'P 1'
_cell_length_a   17.10079003
_cell_length_b   17.13610671
_cell_length_c   17.23857383
_cell_angle_alpha   81.84199235
_cell_angle_beta   71.38821525
_cell_angle_gamma   68.47103268
_symmetry_Int_Tables_number   1
_chemical_formula_structural   Na4TiO4
_chemical_formula_sum   'Na144 Ti36 O144'
_cell_volume   4451.65496767
_cell_formula_units_Z   36
loop_
 _symmetry_equiv_pos_site_id
 _symmetry_equiv_pos_as_xyz
  1  'x, y, z'
loop_
 _atom_site_type_symbol
 _atom_site_label
 _atom_site_symmetry_multiplicity
 _atom_site_fract_x
 _atom_site_fract_y
 _atom_site_fract_z
 _atom_site_occupancy
  Na  Na0  1  0.24734757  0.08545710  0.24479363  1
  Na  Na1  1  0.24734757  0.08545710  0.74479363  1
  Na  Na2  1  0.24734757  0.41879044  0.24479363  1
  Na  Na3  1  0.24734757  0.41879044  0.74479363  1
  Na  Na4  1  0.24734757  0.75212377  0.24479363  1
  Na  Na5  1  0.24734757  0.75212377  0.74479363  1
  Na  Na6  1  0.58068090  0.08545710  0.24479363  1
  Na  Na7  1  0.58068090  0.08545710  0.74479363  1
  Na  Na8  1  0.58068090  0.41879044  0.24479363  1
  Na  Na9  1  0.58068090  0.41879044  0.74479363  1
  Na  Na10  1  0.58068090  0.75212377  0.24479363  1
  Na  Na11  1  0.58068090  0.75212377  0.74479363  1
  Na  Na12  1  0.91401424  0.08545710  0.24479363  1
  Na  Na13  1  0.91401424  0.08545710  0.74479363  1
  Na  Na14  1  0.91401424  0.41879044  0.24479363  1
  Na  Na15  1  0.91401424  0.41879044  0.74479363  1
  Na  Na16  1  0.91401424  0.75212377  0.24479363  1
  Na  Na17  1  0.91401424  0.75212377  0.74479363  1
  Na  Na18  1  0.08598576  0.24787623  0.25520637  1
  Na  Na19  1  0.08598576  0.24787623  0.75520637  1
  Na  Na20  1  0.08598576  0.58120956  0.25520637  1
  Na  Na21  1  0.08598576  0.58120956  0.75520637  1
  Na  Na22  1  0.08598576  0.91454290  0.25520637  1
  Na  Na23  1  0.08598576  0.91454290  0.75520637  1
  Na  Na24  1  0.41931910  0.24787623  0.25520637  1
  Na  Na25  1  0.41931910  0.24787623  0.75520637  1
  Na  Na26  1  0.41931910  0.58120956  0.25520637  1
  Na  Na27  1  0.41931910  0.58120956  0.75520637  1
  Na  Na28  1  0.41931910  0.91454290  0.25520637  1
  Na  Na29  1  0.41931910  0.91454290  0.75520637  1
  Na  Na30  1  0.75265243  0.24787623  0.25520637  1
  Na  Na31  1  0.75265243  0.24787623  0.75520637  1
  Na  Na32  1  0.75265243  0.58120956  0.25520637  1
  Na  Na33  1  0.75265243  0.58120956  0.75520637  1
  Na  Na34  1  0.75265243  0.91454290  0.25520637  1
  Na  Na35  1  0.75265243  0.91454290  0.75520637  1
  Na  Na36  1  0.14752166  0.24830290  0.04990726  1
  Na  Na37  1  0.14752166  0.24830290  0.54990726  1
  Na  Na38  1  0.14752166  0.58163623  0.04990726  1
  Na  Na39  1  0.14752166  0.58163623  0.54990726  1
  Na  Na40  1  0.14752166  0.91496957  0.04990726  1
  Na  Na41  1  0.14752166  0.91496957  0.54990726  1
  Na  Na42  1  0.48085500  0.24830290  0.04990726  1
  Na  Na43  1  0.48085500  0.24830290  0.54990726  1
  Na  Na44  1  0.48085500  0.58163623  0.04990726  1
  Na  Na45  1  0.48085500  0.58163623  0.54990726  1
  Na  Na46  1  0.48085500  0.91496957  0.04990726  1
  Na  Na47  1  0.48085500  0.91496957  0.54990726  1
  Na  Na48  1  0.81418833  0.24830290  0.04990726  1
  Na  Na49  1  0.81418833  0.24830290  0.54990726  1
  Na  Na50  1  0.81418833  0.58163623  0.04990726  1
  Na  Na51  1  0.81418833  0.58163623  0.54990726  1
  Na  Na52  1  0.81418833  0.91496957  0.04990726  1
  Na  Na53  1  0.81418833  0.91496957  0.54990726  1
  Na  Na54  1  0.18581167  0.08503043  0.45009274  1
  Na  Na55  1  0.18581167  0.08503043  0.95009274  1
  Na  Na56  1  0.18581167  0.41836377  0.45009274  1
  Na  Na57  1  0.18581167  0.41836377  0.95009274  1
  Na  Na58  1  0.18581167  0.75169710  0.45009274  1
  Na  Na59  1  0.18581167  0.75169710  0.95009274  1
  Na  Na60  1  0.51914500  0.08503043  0.45009274  1
  Na  Na61  1  0.51914500  0.08503043  0.95009274  1
  Na  Na62  1  0.51914500  0.41836377  0.45009274  1
  Na  Na63  1  0.51914500  0.41836377  0.95009274  1
  Na  Na64  1  0.51914500  0.75169710  0.45009274  1
  Na  Na65  1  0.51914500  0.75169710  0.95009274  1
  Na  Na66  1  0.85247834  0.08503043  0.45009274  1
  Na  Na67  1  0.85247834  0.08503043  0.95009274  1
  Na  Na68  1  0.85247834  0.41836377  0.45009274  1
  Na  Na69  1  0.85247834  0.41836377  0.95009274  1
  Na  Na70  1  0.85247834  0.75169710  0.45009274  1
  Na  Na71  1  0.85247834  0.75169710  0.95009274  1
  Na  Na72  1  0.32624784  0.07808810  0.03312971  1
  Na  Na73  1  0.32624784  0.07808810  0.53312971  1
  Na  Na74  1  0.32624784  0.41142143  0.03312971  1
  Na  Na75  1  0.32624784  0.41142143  0.53312971  1
  Na  Na76  1  0.32624784  0.74475476  0.03312971  1
  Na  Na77  1  0.32624784  0.74475476  0.53312971  1
  Na  Na78  1  0.65958117  0.07808810  0.03312971  1
  Na  Na79  1  0.65958117  0.07808810  0.53312971  1
  Na  Na80  1  0.65958117  0.41142143  0.03312971  1
  Na  Na81  1  0.65958117  0.41142143  0.53312971  1
  Na  Na82  1  0.65958117  0.74475476  0.03312971  1
  Na  Na83  1  0.65958117  0.74475476  0.53312971  1
  Na  Na84  1  0.99291451  0.07808810  0.03312971  1
  Na  Na85  1  0.99291451  0.07808810  0.53312971  1
  Na  Na86  1  0.99291451  0.41142143  0.03312971  1
  Na  Na87  1  0.99291451  0.41142143  0.53312971  1
  Na  Na88  1  0.99291451  0.74475476  0.03312971  1
  Na  Na89  1  0.99291451  0.74475476  0.53312971  1
  Na  Na90  1  0.00708549  0.25524524  0.46687029  1
  Na  Na91  1  0.00708549  0.25524524  0.96687029  1
  Na  Na92  1  0.00708549  0.58857857  0.46687029  1
  Na  Na93  1  0.00708549  0.58857857  0.96687029  1
  Na  Na94  1  0.00708549  0.92191190  0.46687029  1
  Na  Na95  1  0.00708549  0.92191190  0.96687029  1
  Na  Na96  1  0.34041883  0.25524524  0.46687029  1
  Na  Na97  1  0.34041883  0.25524524  0.96687029  1
  Na  Na98  1  0.34041883  0.58857857  0.46687029  1
  Na  Na99  1  0.34041883  0.58857857  0.96687029  1
  Na  Na100  1  0.34041883  0.92191190  0.46687029  1
  Na  Na101  1  0.34041883  0.92191190  0.96687029  1
  Na  Na102  1  0.67375216  0.25524524  0.46687029  1
  Na  Na103  1  0.67375216  0.25524524  0.96687029  1
  Na  Na104  1  0.67375216  0.58857857  0.46687029  1
  Na  Na105  1  0.67375216  0.58857857  0.96687029  1
  Na  Na106  1  0.67375216  0.92191190  0.46687029  1
  Na  Na107  1  0.67375216  0.92191190  0.96687029  1
  Na  Na108  1  0.29614471  0.25754805  0.15689216  1
  Na  Na109  1  0.29614471  0.25754805  0.65689216  1
  Na  Na110  1  0.29614471  0.59088139  0.15689216  1
  Na  Na111  1  0.29614471  0.59088139  0.65689216  1
  Na  Na112  1  0.29614471  0.92421472  0.15689216  1
  Na  Na113  1  0.29614471  0.92421472  0.65689216  1
  Na  Na114  1  0.62947804  0.25754805  0.15689216  1
  Na  Na115  1  0.62947804  0.25754805  0.65689216  1
  Na  Na116  1  0.62947804  0.59088139  0.15689216  1
  Na  Na117  1  0.62947804  0.59088139  0.65689216  1
  Na  Na118  1  0.62947804  0.92421472  0.15689216  1
  Na  Na119  1  0.62947804  0.92421472  0.65689216  1
  Na  Na120  1  0.96281138  0.25754805  0.15689216  1
  Na  Na121  1  0.96281138  0.25754805  0.65689216  1
  Na  Na122  1  0.96281138  0.59088139  0.15689216  1
  Na  Na123  1  0.96281138  0.59088139  0.65689216  1
  Na  Na124  1  0.96281138  0.92421472  0.15689216  1
  Na  Na125  1  0.96281138  0.92421472  0.65689216  1
  Na  Na126  1  0.03718862  0.07578528  0.34310784  1
  Na  Na127  1  0.03718862  0.07578528  0.84310784  1
  Na  Na128  1  0.03718862  0.40911861  0.34310784  1
  Na  Na129  1  0.03718862  0.40911861  0.84310784  1
  Na  Na130  1  0.03718862  0.74245195  0.34310784  1
  Na  Na131  1  0.03718862  0.74245195  0.84310784  1
  Na  Na132  1  0.37052196  0.07578528  0.34310784  1
  Na  Na133  1  0.37052196  0.07578528  0.84310784  1
  Na  Na134  1  0.37052196  0.40911861  0.34310784  1
  Na  Na135  1  0.37052196  0.40911861  0.84310784  1
  Na  Na136  1  0.37052196  0.74245195  0.34310784  1
  Na  Na137  1  0.37052196  0.74245195  0.84310784  1
  Na  Na138  1  0.70385529  0.07578528  0.34310784  1
  Na  Na139  1  0.70385529  0.07578528  0.84310784  1
  Na  Na140  1  0.70385529  0.40911861  0.34310784  1
  Na  Na141  1  0.70385529  0.40911861  0.84310784  1
  Na  Na142  1  0.70385529  0.74245195  0.34310784  1
  Na  Na143  1  0.70385529  0.74245195  0.84310784  1
  Ti  Ti144  1  0.21943734  0.26001794  0.37071433  1
  Ti  Ti145  1  0.21943734  0.26001794  0.87071433  1
  Ti  Ti146  1  0.21943734  0.59335127  0.37071433  1
  Ti  Ti147  1  0.21943734  0.59335127  0.87071433  1
  Ti  Ti148  1  0.21943734  0.92668460  0.37071433  1
  Ti  Ti149  1  0.21943734  0.92668460  0.87071433  1
  Ti  Ti150  1  0.55277067  0.26001794  0.37071433  1
  Ti  Ti151  1  0.55277067  0.26001794  0.87071433  1
  Ti  Ti152  1  0.55277067  0.59335127  0.37071433  1
  Ti  Ti153  1  0.55277067  0.59335127  0.87071433  1
  Ti  Ti154  1  0.55277067  0.92668460  0.37071433  1
  Ti  Ti155  1  0.55277067  0.92668460  0.87071433  1
  Ti  Ti156  1  0.88610401  0.26001794  0.37071433  1
  Ti  Ti157  1  0.88610401  0.26001794  0.87071433  1
  Ti  Ti158  1  0.88610401  0.59335127  0.37071433  1
  Ti  Ti159  1  0.88610401  0.59335127  0.87071433  1
  Ti  Ti160  1  0.88610401  0.92668460  0.37071433  1
  Ti  Ti161  1  0.88610401  0.92668460  0.87071433  1
  Ti  Ti162  1  0.11389599  0.07331540  0.12928567  1
  Ti  Ti163  1  0.11389599  0.07331540  0.62928567  1
  Ti  Ti164  1  0.11389599  0.40664873  0.12928567  1
  Ti  Ti165  1  0.11389599  0.40664873  0.62928567  1
  Ti  Ti166  1  0.11389599  0.73998206  0.12928567  1
  Ti  Ti167  1  0.11389599  0.73998206  0.62928567  1
  Ti  Ti168  1  0.44722933  0.07331540  0.12928567  1
  Ti  Ti169  1  0.44722933  0.07331540  0.62928567  1
  Ti  Ti170  1  0.44722933  0.40664873  0.12928567  1
  Ti  Ti171  1  0.44722933  0.40664873  0.62928567  1
  Ti  Ti172  1  0.44722933  0.73998206  0.12928567  1
  Ti  Ti173  1  0.44722933  0.73998206  0.62928567  1
  Ti  Ti174  1  0.78056266  0.07331540  0.12928567  1
  Ti  Ti175  1  0.78056266  0.07331540  0.62928567  1
  Ti  Ti176  1  0.78056266  0.40664873  0.12928567  1
  Ti  Ti177  1  0.78056266  0.40664873  0.62928567  1
  Ti  Ti178  1  0.78056266  0.73998206  0.12928567  1
  Ti  Ti179  1  0.78056266  0.73998206  0.62928567  1
  O  O180  1  0.28933868  0.32558382  0.34761280  1
  O  O181  1  0.28933868  0.32558382  0.84761280  1
  O  O182  1  0.28933868  0.65891715  0.34761280  1
  O  O183  1  0.28933868  0.65891715  0.84761280  1
  O  O184  1  0.28933868  0.99225049  0.34761280  1
  O  O185  1  0.28933868  0.99225049  0.84761280  1
  O  O186  1  0.62267201  0.32558382  0.34761280  1
  O  O187  1  0.62267201  0.32558382  0.84761280  1
  O  O188  1  0.62267201  0.65891715  0.34761280  1
  O  O189  1  0.62267201  0.65891715  0.84761280  1
  O  O190  1  0.62267201  0.99225049  0.34761280  1
  O  O191  1  0.62267201  0.99225049  0.84761280  1
  O  O192  1  0.95600535  0.32558382  0.34761280  1
  O  O193  1  0.95600535  0.32558382  0.84761280  1
  O  O194  1  0.95600535  0.65891715  0.34761280  1
  O  O195  1  0.95600535  0.65891715  0.84761280  1
  O  O196  1  0.95600535  0.99225049  0.34761280  1
  O  O197  1  0.95600535  0.99225049  0.84761280  1
  O  O198  1  0.04399465  0.00774951  0.15238720  1
  O  O199  1  0.04399465  0.00774951  0.65238720  1
  O  O200  1  0.04399465  0.34108285  0.15238720  1
  O  O201  1  0.04399465  0.34108285  0.65238720  1
  O  O202  1  0.04399465  0.67441618  0.15238720  1
  O  O203  1  0.04399465  0.67441618  0.65238720  1
  O  O204  1  0.37732799  0.00774951  0.15238720  1
  O  O205  1  0.37732799  0.00774951  0.65238720  1
  O  O206  1  0.37732799  0.34108285  0.15238720  1
  O  O207  1  0.37732799  0.34108285  0.65238720  1
  O  O208  1  0.37732799  0.67441618  0.15238720  1
  O  O209  1  0.37732799  0.67441618  0.65238720  1
  O  O210  1  0.71066132  0.00774951  0.15238720  1
  O  O211  1  0.71066132  0.00774951  0.65238720  1
  O  O212  1  0.71066132  0.34108285  0.15238720  1
  O  O213  1  0.71066132  0.34108285  0.65238720  1
  O  O214  1  0.71066132  0.67441618  0.15238720  1
  O  O215  1  0.71066132  0.67441618  0.65238720  1
  O  O216  1  0.22332852  0.00839345  0.06695488  1
  O  O217  1  0.22332852  0.00839345  0.56695488  1
  O  O218  1  0.22332852  0.34172679  0.06695488  1
  O  O219  1  0.22332852  0.34172679  0.56695488  1
  O  O220  1  0.22332852  0.67506012  0.06695488  1
  O  O221  1  0.22332852  0.67506012  0.56695488  1
  O  O222  1  0.55666186  0.00839345  0.06695488  1
  O  O223  1  0.55666186  0.00839345  0.56695488  1
  O  O224  1  0.55666186  0.34172679  0.06695488  1
  O  O225  1  0.55666186  0.34172679  0.56695488  1
  O  O226  1  0.55666186  0.67506012  0.06695488  1
  O  O227  1  0.55666186  0.67506012  0.56695488  1
  O  O228  1  0.88999519  0.00839345  0.06695488  1
  O  O229  1  0.88999519  0.00839345  0.56695488  1
  O  O230  1  0.88999519  0.34172679  0.06695488  1
  O  O231  1  0.88999519  0.34172679  0.56695488  1
  O  O232  1  0.88999519  0.67506012  0.06695488  1
  O  O233  1  0.88999519  0.67506012  0.56695488  1
  O  O234  1  0.11000481  0.32493988  0.43304512  1
  O  O235  1  0.11000481  0.32493988  0.93304512  1
  O  O236  1  0.11000481  0.65827321  0.43304512  1
  O  O237  1  0.11000481  0.65827321  0.93304512  1
  O  O238  1  0.11000481  0.99160655  0.43304512  1
  O  O239  1  0.11000481  0.99160655  0.93304512  1
  O  O240  1  0.44333814  0.32493988  0.43304512  1
  O  O241  1  0.44333814  0.32493988  0.93304512  1
  O  O242  1  0.44333814  0.65827321  0.43304512  1
  O  O243  1  0.44333814  0.65827321  0.93304512  1
  O  O244  1  0.44333814  0.99160655  0.43304512  1
  O  O245  1  0.44333814  0.99160655  0.93304512  1
  O  O246  1  0.77667148  0.32493988  0.43304512  1
  O  O247  1  0.77667148  0.32493988  0.93304512  1
  O  O248  1  0.77667148  0.65827321  0.43304512  1
  O  O249  1  0.77667148  0.65827321  0.93304512  1
  O  O250  1  0.77667148  0.99160655  0.43304512  1
  O  O251  1  0.77667148  0.99160655  0.93304512  1
  O  O252  1  0.06816550  0.15947775  0.06076557  1
  O  O253  1  0.06816550  0.15947775  0.56076557  1
  O  O254  1  0.06816550  0.49281109  0.06076557  1
  O  O255  1  0.06816550  0.49281109  0.56076557  1
  O  O256  1  0.06816550  0.82614442  0.06076557  1
  O  O257  1  0.06816550  0.82614442  0.56076557  1
  O  O258  1  0.40149884  0.15947775  0.06076557  1
  O  O259  1  0.40149884  0.15947775  0.56076557  1
  O  O260  1  0.40149884  0.49281109  0.06076557  1
  O  O261  1  0.40149884  0.49281109  0.56076557  1
  O  O262  1  0.40149884  0.82614442  0.06076557  1
  O  O263  1  0.40149884  0.82614442  0.56076557  1
  O  O264  1  0.73483217  0.15947775  0.06076557  1
  O  O265  1  0.73483217  0.15947775  0.56076557  1
  O  O266  1  0.73483217  0.49281109  0.06076557  1
  O  O267  1  0.73483217  0.49281109  0.56076557  1
  O  O268  1  0.73483217  0.82614442  0.06076557  1
  O  O269  1  0.73483217  0.82614442  0.56076557  1
  O  O270  1  0.26516783  0.17385558  0.43923443  1
  O  O271  1  0.26516783  0.17385558  0.93923443  1
  O  O272  1  0.26516783  0.50718891  0.43923443  1
  O  O273  1  0.26516783  0.50718891  0.93923443  1
  O  O274  1  0.26516783  0.84052225  0.43923443  1
  O  O275  1  0.26516783  0.84052225  0.93923443  1
  O  O276  1  0.59850116  0.17385558  0.43923443  1
  O  O277  1  0.59850116  0.17385558  0.93923443  1
  O  O278  1  0.59850116  0.50718891  0.43923443  1
  O  O279  1  0.59850116  0.50718891  0.93923443  1
  O  O280  1  0.59850116  0.84052225  0.43923443  1
  O  O281  1  0.59850116  0.84052225  0.93923443  1
  O  O282  1  0.93183450  0.17385558  0.43923443  1
  O  O283  1  0.93183450  0.17385558  0.93923443  1
  O  O284  1  0.93183450  0.50718891  0.43923443  1
  O  O285  1  0.93183450  0.50718891  0.93923443  1
  O  O286  1  0.93183450  0.84052225  0.43923443  1
  O  O287  1  0.93183450  0.84052225  0.93923443  1
  O  O288  1  0.11669193  0.11420818  0.22052015  1
  O  O289  1  0.11669193  0.11420818  0.72052015  1
  O  O290  1  0.11669193  0.44754152  0.22052015  1
  O  O291  1  0.11669193  0.44754152  0.72052015  1
  O  O292  1  0.11669193  0.78087485  0.22052015  1
  O  O293  1  0.11669193  0.78087485  0.72052015  1
  O  O294  1  0.45002526  0.11420818  0.22052015  1
  O  O295  1  0.45002526  0.11420818  0.72052015  1
  O  O296  1  0.45002526  0.44754152  0.22052015  1
  O  O297  1  0.45002526  0.44754152  0.72052015  1
  O  O298  1  0.45002526  0.78087485  0.22052015  1
  O  O299  1  0.45002526  0.78087485  0.72052015  1
  O  O300  1  0.78335860  0.11420818  0.22052015  1
  O  O301  1  0.78335860  0.11420818  0.72052015  1
  O  O302  1  0.78335860  0.44754152  0.22052015  1
  O  O303  1  0.78335860  0.44754152  0.72052015  1
  O  O304  1  0.78335860  0.78087485  0.22052015  1
  O  O305  1  0.78335860  0.78087485  0.72052015  1
  O  O306  1  0.21664140  0.21912515  0.27947985  1
  O  O307  1  0.21664140  0.21912515  0.77947985  1
  O  O308  1  0.21664140  0.55245848  0.27947985  1
  O  O309  1  0.21664140  0.55245848  0.77947985  1
  O  O310  1  0.21664140  0.88579182  0.27947985  1
  O  O311  1  0.21664140  0.88579182  0.77947985  1
  O  O312  1  0.54997474  0.21912515  0.27947985  1
  O  O313  1  0.54997474  0.21912515  0.77947985  1
  O  O314  1  0.54997474  0.55245848  0.27947985  1
  O  O315  1  0.54997474  0.55245848  0.77947985  1
  O  O316  1  0.54997474  0.88579182  0.27947985  1
  O  O317  1  0.54997474  0.88579182  0.77947985  1
  O  O318  1  0.88330807  0.21912515  0.27947985  1
  O  O319  1  0.88330807  0.21912515  0.77947985  1
  O  O320  1  0.88330807  0.55245848  0.27947985  1
  O  O321  1  0.88330807  0.55245848  0.77947985  1
  O  O322  1  0.88330807  0.88579182  0.27947985  1
  O  O323  1  0.88330807  0.88579182  0.77947985  1
