# generated using pymatgen
data_Na3BiO3
_symmetry_space_group_name_H-M   'P 1'
_cell_length_a   19.11021370
_cell_length_b   19.11021370
_cell_length_c   19.11021370
_cell_angle_alpha   90.00000000
_cell_angle_beta   90.00000000
_cell_angle_gamma   90.00000000
_symmetry_Int_Tables_number   1
_chemical_formula_structural   Na3BiO3
_chemical_formula_sum   'Na192 Bi64 O192'
_cell_volume   6979.05516142
_cell_formula_units_Z   64
loop_
 _symmetry_equiv_pos_site_id
 _symmetry_equiv_pos_as_xyz
  1  'x, y, z'
loop_
 _atom_site_type_symbol
 _atom_site_label
 _atom_site_symmetry_multiplicity
 _atom_site_fract_x
 _atom_site_fract_y
 _atom_site_fract_z
 _atom_site_occupancy
  Na  Na0  1  0.29887317  0.06178647  0.06178647  1
  Na  Na1  1  0.29887317  0.06178647  0.56178647  1
  Na  Na2  1  0.29887317  0.56178647  0.06178647  1
  Na  Na3  1  0.29887317  0.56178647  0.56178647  1
  Na  Na4  1  0.79887317  0.06178647  0.06178647  1
  Na  Na5  1  0.79887317  0.06178647  0.56178647  1
  Na  Na6  1  0.79887317  0.56178647  0.06178647  1
  Na  Na7  1  0.79887317  0.56178647  0.56178647  1
  Na  Na8  1  0.54887317  0.31178647  0.31178647  1
  Na  Na9  1  0.54887317  0.31178647  0.81178647  1
  Na  Na10  1  0.54887317  0.81178647  0.31178647  1
  Na  Na11  1  0.54887317  0.81178647  0.81178647  1
  Na  Na12  1  1.04887317  0.31178647  0.31178647  1
  Na  Na13  1  1.04887317  0.31178647  0.81178647  1
  Na  Na14  1  1.04887317  0.81178647  0.31178647  1
  Na  Na15  1  1.04887317  0.81178647  0.81178647  1
  Na  Na16  1  0.06178647  0.06178647  0.29887317  1
  Na  Na17  1  0.06178647  0.06178647  0.79887317  1
  Na  Na18  1  0.06178647  0.56178647  0.29887317  1
  Na  Na19  1  0.06178647  0.56178647  0.79887317  1
  Na  Na20  1  0.56178647  0.06178647  0.29887317  1
  Na  Na21  1  0.56178647  0.06178647  0.79887317  1
  Na  Na22  1  0.56178647  0.56178647  0.29887317  1
  Na  Na23  1  0.56178647  0.56178647  0.79887317  1
  Na  Na24  1  0.31178647  0.31178647  0.54887317  1
  Na  Na25  1  0.31178647  0.31178647  1.04887317  1
  Na  Na26  1  0.31178647  0.81178647  0.54887317  1
  Na  Na27  1  0.31178647  0.81178647  1.04887317  1
  Na  Na28  1  0.81178647  0.31178647  0.54887317  1
  Na  Na29  1  0.81178647  0.31178647  1.04887317  1
  Na  Na30  1  0.81178647  0.81178647  0.54887317  1
  Na  Na31  1  0.81178647  0.81178647  1.04887317  1
  Na  Na32  1  0.06178647  0.29887317  0.06178647  1
  Na  Na33  1  0.06178647  0.29887317  0.56178647  1
  Na  Na34  1  0.06178647  0.79887317  0.06178647  1
  Na  Na35  1  0.06178647  0.79887317  0.56178647  1
  Na  Na36  1  0.56178647  0.29887317  0.06178647  1
  Na  Na37  1  0.56178647  0.29887317  0.56178647  1
  Na  Na38  1  0.56178647  0.79887317  0.06178647  1
  Na  Na39  1  0.56178647  0.79887317  0.56178647  1
  Na  Na40  1  0.31178647  0.54887317  0.31178647  1
  Na  Na41  1  0.31178647  0.54887317  0.81178647  1
  Na  Na42  1  0.31178647  1.04887317  0.31178647  1
  Na  Na43  1  0.31178647  1.04887317  0.81178647  1
  Na  Na44  1  0.81178647  0.54887317  0.31178647  1
  Na  Na45  1  0.81178647  0.54887317  0.81178647  1
  Na  Na46  1  0.81178647  1.04887317  0.31178647  1
  Na  Na47  1  0.81178647  1.04887317  0.81178647  1
  Na  Na48  1  0.20112683  -0.06178647  0.06178647  1
  Na  Na49  1  0.20112683  -0.06178647  0.56178647  1
  Na  Na50  1  0.20112683  0.43821353  0.06178647  1
  Na  Na51  1  0.20112683  0.43821353  0.56178647  1
  Na  Na52  1  0.70112683  -0.06178647  0.06178647  1
  Na  Na53  1  0.70112683  -0.06178647  0.56178647  1
  Na  Na54  1  0.70112683  0.43821353  0.06178647  1
  Na  Na55  1  0.70112683  0.43821353  0.56178647  1
  Na  Na56  1  0.45112683  0.18821353  0.31178647  1
  Na  Na57  1  0.45112683  0.18821353  0.81178647  1
  Na  Na58  1  0.45112683  0.68821353  0.31178647  1
  Na  Na59  1  0.45112683  0.68821353  0.81178647  1
  Na  Na60  1  0.95112683  0.18821353  0.31178647  1
  Na  Na61  1  0.95112683  0.18821353  0.81178647  1
  Na  Na62  1  0.95112683  0.68821353  0.31178647  1
  Na  Na63  1  0.95112683  0.68821353  0.81178647  1
  Na  Na64  1  0.20112683  0.06178647  -0.06178647  1
  Na  Na65  1  0.20112683  0.06178647  0.43821353  1
  Na  Na66  1  0.20112683  0.56178647  -0.06178647  1
  Na  Na67  1  0.20112683  0.56178647  0.43821353  1
  Na  Na68  1  0.70112683  0.06178647  -0.06178647  1
  Na  Na69  1  0.70112683  0.06178647  0.43821353  1
  Na  Na70  1  0.70112683  0.56178647  -0.06178647  1
  Na  Na71  1  0.70112683  0.56178647  0.43821353  1
  Na  Na72  1  0.45112683  0.31178647  0.18821353  1
  Na  Na73  1  0.45112683  0.31178647  0.68821353  1
  Na  Na74  1  0.45112683  0.81178647  0.18821353  1
  Na  Na75  1  0.45112683  0.81178647  0.68821353  1
  Na  Na76  1  0.95112683  0.31178647  0.18821353  1
  Na  Na77  1  0.95112683  0.31178647  0.68821353  1
  Na  Na78  1  0.95112683  0.81178647  0.18821353  1
  Na  Na79  1  0.95112683  0.81178647  0.68821353  1
  Na  Na80  1  0.04887317  0.18821353  0.18821353  1
  Na  Na81  1  0.04887317  0.18821353  0.68821353  1
  Na  Na82  1  0.04887317  0.68821353  0.18821353  1
  Na  Na83  1  0.04887317  0.68821353  0.68821353  1
  Na  Na84  1  0.54887317  0.18821353  0.18821353  1
  Na  Na85  1  0.54887317  0.18821353  0.68821353  1
  Na  Na86  1  0.54887317  0.68821353  0.18821353  1
  Na  Na87  1  0.54887317  0.68821353  0.68821353  1
  Na  Na88  1  0.29887317  0.43821353  0.43821353  1
  Na  Na89  1  0.29887317  0.43821353  0.93821353  1
  Na  Na90  1  0.29887317  0.93821353  0.43821353  1
  Na  Na91  1  0.29887317  0.93821353  0.93821353  1
  Na  Na92  1  0.79887317  0.43821353  0.43821353  1
  Na  Na93  1  0.79887317  0.43821353  0.93821353  1
  Na  Na94  1  0.79887317  0.93821353  0.43821353  1
  Na  Na95  1  0.79887317  0.93821353  0.93821353  1
  Na  Na96  1  0.18821353  0.18821353  0.04887317  1
  Na  Na97  1  0.18821353  0.18821353  0.54887317  1
  Na  Na98  1  0.18821353  0.68821353  0.04887317  1
  Na  Na99  1  0.18821353  0.68821353  0.54887317  1
  Na  Na100  1  0.68821353  0.18821353  0.04887317  1
  Na  Na101  1  0.68821353  0.18821353  0.54887317  1
  Na  Na102  1  0.68821353  0.68821353  0.04887317  1
  Na  Na103  1  0.68821353  0.68821353  0.54887317  1
  Na  Na104  1  0.43821353  0.43821353  0.29887317  1
  Na  Na105  1  0.43821353  0.43821353  0.79887317  1
  Na  Na106  1  0.43821353  0.93821353  0.29887317  1
  Na  Na107  1  0.43821353  0.93821353  0.79887317  1
  Na  Na108  1  0.93821353  0.43821353  0.29887317  1
  Na  Na109  1  0.93821353  0.43821353  0.79887317  1
  Na  Na110  1  0.93821353  0.93821353  0.29887317  1
  Na  Na111  1  0.93821353  0.93821353  0.79887317  1
  Na  Na112  1  -0.06178647  0.06178647  0.20112683  1
  Na  Na113  1  -0.06178647  0.06178647  0.70112683  1
  Na  Na114  1  -0.06178647  0.56178647  0.20112683  1
  Na  Na115  1  -0.06178647  0.56178647  0.70112683  1
  Na  Na116  1  0.43821353  0.06178647  0.20112683  1
  Na  Na117  1  0.43821353  0.06178647  0.70112683  1
  Na  Na118  1  0.43821353  0.56178647  0.20112683  1
  Na  Na119  1  0.43821353  0.56178647  0.70112683  1
  Na  Na120  1  0.18821353  0.31178647  0.45112683  1
  Na  Na121  1  0.18821353  0.31178647  0.95112683  1
  Na  Na122  1  0.18821353  0.81178647  0.45112683  1
  Na  Na123  1  0.18821353  0.81178647  0.95112683  1
  Na  Na124  1  0.68821353  0.31178647  0.45112683  1
  Na  Na125  1  0.68821353  0.31178647  0.95112683  1
  Na  Na126  1  0.68821353  0.81178647  0.45112683  1
  Na  Na127  1  0.68821353  0.81178647  0.95112683  1
  Na  Na128  1  0.06178647  0.20112683  -0.06178647  1
  Na  Na129  1  0.06178647  0.20112683  0.43821353  1
  Na  Na130  1  0.06178647  0.70112683  -0.06178647  1
  Na  Na131  1  0.06178647  0.70112683  0.43821353  1
  Na  Na132  1  0.56178647  0.20112683  -0.06178647  1
  Na  Na133  1  0.56178647  0.20112683  0.43821353  1
  Na  Na134  1  0.56178647  0.70112683  -0.06178647  1
  Na  Na135  1  0.56178647  0.70112683  0.43821353  1
  Na  Na136  1  0.31178647  0.45112683  0.18821353  1
  Na  Na137  1  0.31178647  0.45112683  0.68821353  1
  Na  Na138  1  0.31178647  0.95112683  0.18821353  1
  Na  Na139  1  0.31178647  0.95112683  0.68821353  1
  Na  Na140  1  0.81178647  0.45112683  0.18821353  1
  Na  Na141  1  0.81178647  0.45112683  0.68821353  1
  Na  Na142  1  0.81178647  0.95112683  0.18821353  1
  Na  Na143  1  0.81178647  0.95112683  0.68821353  1
  Na  Na144  1  -0.06178647  0.20112683  0.06178647  1
  Na  Na145  1  -0.06178647  0.20112683  0.56178647  1
  Na  Na146  1  -0.06178647  0.70112683  0.06178647  1
  Na  Na147  1  -0.06178647  0.70112683  0.56178647  1
  Na  Na148  1  0.43821353  0.20112683  0.06178647  1
  Na  Na149  1  0.43821353  0.20112683  0.56178647  1
  Na  Na150  1  0.43821353  0.70112683  0.06178647  1
  Na  Na151  1  0.43821353  0.70112683  0.56178647  1
  Na  Na152  1  0.18821353  0.45112683  0.31178647  1
  Na  Na153  1  0.18821353  0.45112683  0.81178647  1
  Na  Na154  1  0.18821353  0.95112683  0.31178647  1
  Na  Na155  1  0.18821353  0.95112683  0.81178647  1
  Na  Na156  1  0.68821353  0.45112683  0.31178647  1
  Na  Na157  1  0.68821353  0.45112683  0.81178647  1
  Na  Na158  1  0.68821353  0.95112683  0.31178647  1
  Na  Na159  1  0.68821353  0.95112683  0.81178647  1
  Na  Na160  1  0.18821353  0.04887317  0.18821353  1
  Na  Na161  1  0.18821353  0.04887317  0.68821353  1
  Na  Na162  1  0.18821353  0.54887317  0.18821353  1
  Na  Na163  1  0.18821353  0.54887317  0.68821353  1
  Na  Na164  1  0.68821353  0.04887317  0.18821353  1
  Na  Na165  1  0.68821353  0.04887317  0.68821353  1
  Na  Na166  1  0.68821353  0.54887317  0.18821353  1
  Na  Na167  1  0.68821353  0.54887317  0.68821353  1
  Na  Na168  1  0.43821353  0.29887317  0.43821353  1
  Na  Na169  1  0.43821353  0.29887317  0.93821353  1
  Na  Na170  1  0.43821353  0.79887317  0.43821353  1
  Na  Na171  1  0.43821353  0.79887317  0.93821353  1
  Na  Na172  1  0.93821353  0.29887317  0.43821353  1
  Na  Na173  1  0.93821353  0.29887317  0.93821353  1
  Na  Na174  1  0.93821353  0.79887317  0.43821353  1
  Na  Na175  1  0.93821353  0.79887317  0.93821353  1
  Na  Na176  1  0.06178647  -0.06178647  0.20112683  1
  Na  Na177  1  0.06178647  -0.06178647  0.70112683  1
  Na  Na178  1  0.06178647  0.43821353  0.20112683  1
  Na  Na179  1  0.06178647  0.43821353  0.70112683  1
  Na  Na180  1  0.56178647  -0.06178647  0.20112683  1
  Na  Na181  1  0.56178647  -0.06178647  0.70112683  1
  Na  Na182  1  0.56178647  0.43821353  0.20112683  1
  Na  Na183  1  0.56178647  0.43821353  0.70112683  1
  Na  Na184  1  0.31178647  0.18821353  0.45112683  1
  Na  Na185  1  0.31178647  0.18821353  0.95112683  1
  Na  Na186  1  0.31178647  0.68821353  0.45112683  1
  Na  Na187  1  0.31178647  0.68821353  0.95112683  1
  Na  Na188  1  0.81178647  0.18821353  0.45112683  1
  Na  Na189  1  0.81178647  0.18821353  0.95112683  1
  Na  Na190  1  0.81178647  0.68821353  0.45112683  1
  Na  Na191  1  0.81178647  0.68821353  0.95112683  1
  Bi  Bi192  1  0.17960515  -0.17960515  0.17960515  1
  Bi  Bi193  1  0.17960515  -0.17960515  0.67960515  1
  Bi  Bi194  1  0.17960515  0.32039485  0.17960515  1
  Bi  Bi195  1  0.17960515  0.32039485  0.67960515  1
  Bi  Bi196  1  0.67960515  -0.17960515  0.17960515  1
  Bi  Bi197  1  0.67960515  -0.17960515  0.67960515  1
  Bi  Bi198  1  0.67960515  0.32039485  0.17960515  1
  Bi  Bi199  1  0.67960515  0.32039485  0.67960515  1
  Bi  Bi200  1  0.42960515  0.07039485  0.42960515  1
  Bi  Bi201  1  0.42960515  0.07039485  0.92960515  1
  Bi  Bi202  1  0.42960515  0.57039485  0.42960515  1
  Bi  Bi203  1  0.42960515  0.57039485  0.92960515  1
  Bi  Bi204  1  0.92960515  0.07039485  0.42960515  1
  Bi  Bi205  1  0.92960515  0.07039485  0.92960515  1
  Bi  Bi206  1  0.92960515  0.57039485  0.42960515  1
  Bi  Bi207  1  0.92960515  0.57039485  0.92960515  1
  Bi  Bi208  1  0.17960515  0.17960515  -0.17960515  1
  Bi  Bi209  1  0.17960515  0.17960515  0.32039485  1
  Bi  Bi210  1  0.17960515  0.67960515  -0.17960515  1
  Bi  Bi211  1  0.17960515  0.67960515  0.32039485  1
  Bi  Bi212  1  0.67960515  0.17960515  -0.17960515  1
  Bi  Bi213  1  0.67960515  0.17960515  0.32039485  1
  Bi  Bi214  1  0.67960515  0.67960515  -0.17960515  1
  Bi  Bi215  1  0.67960515  0.67960515  0.32039485  1
  Bi  Bi216  1  0.42960515  0.42960515  0.07039485  1
  Bi  Bi217  1  0.42960515  0.42960515  0.57039485  1
  Bi  Bi218  1  0.42960515  0.92960515  0.07039485  1
  Bi  Bi219  1  0.42960515  0.92960515  0.57039485  1
  Bi  Bi220  1  0.92960515  0.42960515  0.07039485  1
  Bi  Bi221  1  0.92960515  0.42960515  0.57039485  1
  Bi  Bi222  1  0.92960515  0.92960515  0.07039485  1
  Bi  Bi223  1  0.92960515  0.92960515  0.57039485  1
  Bi  Bi224  1  0.07039485  0.07039485  0.07039485  1
  Bi  Bi225  1  0.07039485  0.07039485  0.57039485  1
  Bi  Bi226  1  0.07039485  0.57039485  0.07039485  1
  Bi  Bi227  1  0.07039485  0.57039485  0.57039485  1
  Bi  Bi228  1  0.57039485  0.07039485  0.07039485  1
  Bi  Bi229  1  0.57039485  0.07039485  0.57039485  1
  Bi  Bi230  1  0.57039485  0.57039485  0.07039485  1
  Bi  Bi231  1  0.57039485  0.57039485  0.57039485  1
  Bi  Bi232  1  0.32039485  0.32039485  0.32039485  1
  Bi  Bi233  1  0.32039485  0.32039485  0.82039485  1
  Bi  Bi234  1  0.32039485  0.82039485  0.32039485  1
  Bi  Bi235  1  0.32039485  0.82039485  0.82039485  1
  Bi  Bi236  1  0.82039485  0.32039485  0.32039485  1
  Bi  Bi237  1  0.82039485  0.32039485  0.82039485  1
  Bi  Bi238  1  0.82039485  0.82039485  0.32039485  1
  Bi  Bi239  1  0.82039485  0.82039485  0.82039485  1
  Bi  Bi240  1  -0.17960515  0.17960515  0.17960515  1
  Bi  Bi241  1  -0.17960515  0.17960515  0.67960515  1
  Bi  Bi242  1  -0.17960515  0.67960515  0.17960515  1
  Bi  Bi243  1  -0.17960515  0.67960515  0.67960515  1
  Bi  Bi244  1  0.32039485  0.17960515  0.17960515  1
  Bi  Bi245  1  0.32039485  0.17960515  0.67960515  1
  Bi  Bi246  1  0.32039485  0.67960515  0.17960515  1
  Bi  Bi247  1  0.32039485  0.67960515  0.67960515  1
  Bi  Bi248  1  0.07039485  0.42960515  0.42960515  1
  Bi  Bi249  1  0.07039485  0.42960515  0.92960515  1
  Bi  Bi250  1  0.07039485  0.92960515  0.42960515  1
  Bi  Bi251  1  0.07039485  0.92960515  0.92960515  1
  Bi  Bi252  1  0.57039485  0.42960515  0.42960515  1
  Bi  Bi253  1  0.57039485  0.42960515  0.92960515  1
  Bi  Bi254  1  0.57039485  0.92960515  0.42960515  1
  Bi  Bi255  1  0.57039485  0.92960515  0.92960515  1
  O  O256  1  0.06369835  0.17890501  0.06369835  1
  O  O257  1  0.06369835  0.17890501  0.56369835  1
  O  O258  1  0.06369835  0.67890501  0.06369835  1
  O  O259  1  0.06369835  0.67890501  0.56369835  1
  O  O260  1  0.56369835  0.17890501  0.06369835  1
  O  O261  1  0.56369835  0.17890501  0.56369835  1
  O  O262  1  0.56369835  0.67890501  0.06369835  1
  O  O263  1  0.56369835  0.67890501  0.56369835  1
  O  O264  1  0.31369835  0.42890501  0.31369835  1
  O  O265  1  0.31369835  0.42890501  0.81369835  1
  O  O266  1  0.31369835  0.92890501  0.31369835  1
  O  O267  1  0.31369835  0.92890501  0.81369835  1
  O  O268  1  0.81369835  0.42890501  0.31369835  1
  O  O269  1  0.81369835  0.42890501  0.81369835  1
  O  O270  1  0.81369835  0.92890501  0.31369835  1
  O  O271  1  0.81369835  0.92890501  0.81369835  1
  O  O272  1  0.17890501  0.06369835  0.06369835  1
  O  O273  1  0.17890501  0.06369835  0.56369835  1
  O  O274  1  0.17890501  0.56369835  0.06369835  1
  O  O275  1  0.17890501  0.56369835  0.56369835  1
  O  O276  1  0.67890501  0.06369835  0.06369835  1
  O  O277  1  0.67890501  0.06369835  0.56369835  1
  O  O278  1  0.67890501  0.56369835  0.06369835  1
  O  O279  1  0.67890501  0.56369835  0.56369835  1
  O  O280  1  0.42890501  0.31369835  0.31369835  1
  O  O281  1  0.42890501  0.31369835  0.81369835  1
  O  O282  1  0.42890501  0.81369835  0.31369835  1
  O  O283  1  0.42890501  0.81369835  0.81369835  1
  O  O284  1  0.92890501  0.31369835  0.31369835  1
  O  O285  1  0.92890501  0.31369835  0.81369835  1
  O  O286  1  0.92890501  0.81369835  0.31369835  1
  O  O287  1  0.92890501  0.81369835  0.81369835  1
  O  O288  1  0.06369835  0.06369835  0.17890501  1
  O  O289  1  0.06369835  0.06369835  0.67890501  1
  O  O290  1  0.06369835  0.56369835  0.17890501  1
  O  O291  1  0.06369835  0.56369835  0.67890501  1
  O  O292  1  0.56369835  0.06369835  0.17890501  1
  O  O293  1  0.56369835  0.06369835  0.67890501  1
  O  O294  1  0.56369835  0.56369835  0.17890501  1
  O  O295  1  0.56369835  0.56369835  0.67890501  1
  O  O296  1  0.31369835  0.31369835  0.42890501  1
  O  O297  1  0.31369835  0.31369835  0.92890501  1
  O  O298  1  0.31369835  0.81369835  0.42890501  1
  O  O299  1  0.31369835  0.81369835  0.92890501  1
  O  O300  1  0.81369835  0.31369835  0.42890501  1
  O  O301  1  0.81369835  0.31369835  0.92890501  1
  O  O302  1  0.81369835  0.81369835  0.42890501  1
  O  O303  1  0.81369835  0.81369835  0.92890501  1
  O  O304  1  0.06369835  -0.06369835  0.32109499  1
  O  O305  1  0.06369835  -0.06369835  0.82109499  1
  O  O306  1  0.06369835  0.43630165  0.32109499  1
  O  O307  1  0.06369835  0.43630165  0.82109499  1
  O  O308  1  0.56369835  -0.06369835  0.32109499  1
  O  O309  1  0.56369835  -0.06369835  0.82109499  1
  O  O310  1  0.56369835  0.43630165  0.32109499  1
  O  O311  1  0.56369835  0.43630165  0.82109499  1
  O  O312  1  0.31369835  0.18630165  0.57109499  1
  O  O313  1  0.31369835  0.18630165  1.07109499  1
  O  O314  1  0.31369835  0.68630165  0.57109499  1
  O  O315  1  0.31369835  0.68630165  1.07109499  1
  O  O316  1  0.81369835  0.18630165  0.57109499  1
  O  O317  1  0.81369835  0.18630165  1.07109499  1
  O  O318  1  0.81369835  0.68630165  0.57109499  1
  O  O319  1  0.81369835  0.68630165  1.07109499  1
  O  O320  1  -0.06369835  0.32109499  0.06369835  1
  O  O321  1  -0.06369835  0.32109499  0.56369835  1
  O  O322  1  -0.06369835  0.82109499  0.06369835  1
  O  O323  1  -0.06369835  0.82109499  0.56369835  1
  O  O324  1  0.43630165  0.32109499  0.06369835  1
  O  O325  1  0.43630165  0.32109499  0.56369835  1
  O  O326  1  0.43630165  0.82109499  0.06369835  1
  O  O327  1  0.43630165  0.82109499  0.56369835  1
  O  O328  1  0.18630165  0.57109499  0.31369835  1
  O  O329  1  0.18630165  0.57109499  0.81369835  1
  O  O330  1  0.18630165  1.07109499  0.31369835  1
  O  O331  1  0.18630165  1.07109499  0.81369835  1
  O  O332  1  0.68630165  0.57109499  0.31369835  1
  O  O333  1  0.68630165  0.57109499  0.81369835  1
  O  O334  1  0.68630165  1.07109499  0.31369835  1
  O  O335  1  0.68630165  1.07109499  0.81369835  1
  O  O336  1  0.06369835  0.32109499  -0.06369835  1
  O  O337  1  0.06369835  0.32109499  0.43630165  1
  O  O338  1  0.06369835  0.82109499  -0.06369835  1
  O  O339  1  0.06369835  0.82109499  0.43630165  1
  O  O340  1  0.56369835  0.32109499  -0.06369835  1
  O  O341  1  0.56369835  0.32109499  0.43630165  1
  O  O342  1  0.56369835  0.82109499  -0.06369835  1
  O  O343  1  0.56369835  0.82109499  0.43630165  1
  O  O344  1  0.31369835  0.57109499  0.18630165  1
  O  O345  1  0.31369835  0.57109499  0.68630165  1
  O  O346  1  0.31369835  1.07109499  0.18630165  1
  O  O347  1  0.31369835  1.07109499  0.68630165  1
  O  O348  1  0.81369835  0.57109499  0.18630165  1
  O  O349  1  0.81369835  0.57109499  0.68630165  1
  O  O350  1  0.81369835  1.07109499  0.18630165  1
  O  O351  1  0.81369835  1.07109499  0.68630165  1
  O  O352  1  0.18630165  -0.07109499  0.18630165  1
  O  O353  1  0.18630165  -0.07109499  0.68630165  1
  O  O354  1  0.18630165  0.42890501  0.18630165  1
  O  O355  1  0.18630165  0.42890501  0.68630165  1
  O  O356  1  0.68630165  -0.07109499  0.18630165  1
  O  O357  1  0.68630165  -0.07109499  0.68630165  1
  O  O358  1  0.68630165  0.42890501  0.18630165  1
  O  O359  1  0.68630165  0.42890501  0.68630165  1
  O  O360  1  0.43630165  0.17890501  0.43630165  1
  O  O361  1  0.43630165  0.17890501  0.93630165  1
  O  O362  1  0.43630165  0.67890501  0.43630165  1
  O  O363  1  0.43630165  0.67890501  0.93630165  1
  O  O364  1  0.93630165  0.17890501  0.43630165  1
  O  O365  1  0.93630165  0.17890501  0.93630165  1
  O  O366  1  0.93630165  0.67890501  0.43630165  1
  O  O367  1  0.93630165  0.67890501  0.93630165  1
  O  O368  1  -0.06369835  0.06369835  0.32109499  1
  O  O369  1  -0.06369835  0.06369835  0.82109499  1
  O  O370  1  -0.06369835  0.56369835  0.32109499  1
  O  O371  1  -0.06369835  0.56369835  0.82109499  1
  O  O372  1  0.43630165  0.06369835  0.32109499  1
  O  O373  1  0.43630165  0.06369835  0.82109499  1
  O  O374  1  0.43630165  0.56369835  0.32109499  1
  O  O375  1  0.43630165  0.56369835  0.82109499  1
  O  O376  1  0.18630165  0.31369835  0.57109499  1
  O  O377  1  0.18630165  0.31369835  1.07109499  1
  O  O378  1  0.18630165  0.81369835  0.57109499  1
  O  O379  1  0.18630165  0.81369835  1.07109499  1
  O  O380  1  0.68630165  0.31369835  0.57109499  1
  O  O381  1  0.68630165  0.31369835  1.07109499  1
  O  O382  1  0.68630165  0.81369835  0.57109499  1
  O  O383  1  0.68630165  0.81369835  1.07109499  1
  O  O384  1  0.32109499  0.06369835  -0.06369835  1
  O  O385  1  0.32109499  0.06369835  0.43630165  1
  O  O386  1  0.32109499  0.56369835  -0.06369835  1
  O  O387  1  0.32109499  0.56369835  0.43630165  1
  O  O388  1  0.82109499  0.06369835  -0.06369835  1
  O  O389  1  0.82109499  0.06369835  0.43630165  1
  O  O390  1  0.82109499  0.56369835  -0.06369835  1
  O  O391  1  0.82109499  0.56369835  0.43630165  1
  O  O392  1  0.57109499  0.31369835  0.18630165  1
  O  O393  1  0.57109499  0.31369835  0.68630165  1
  O  O394  1  0.57109499  0.81369835  0.18630165  1
  O  O395  1  0.57109499  0.81369835  0.68630165  1
  O  O396  1  1.07109499  0.31369835  0.18630165  1
  O  O397  1  1.07109499  0.31369835  0.68630165  1
  O  O398  1  1.07109499  0.81369835  0.18630165  1
  O  O399  1  1.07109499  0.81369835  0.68630165  1
  O  O400  1  0.18630165  0.18630165  -0.07109499  1
  O  O401  1  0.18630165  0.18630165  0.42890501  1
  O  O402  1  0.18630165  0.68630165  -0.07109499  1
  O  O403  1  0.18630165  0.68630165  0.42890501  1
  O  O404  1  0.68630165  0.18630165  -0.07109499  1
  O  O405  1  0.68630165  0.18630165  0.42890501  1
  O  O406  1  0.68630165  0.68630165  -0.07109499  1
  O  O407  1  0.68630165  0.68630165  0.42890501  1
  O  O408  1  0.43630165  0.43630165  0.17890501  1
  O  O409  1  0.43630165  0.43630165  0.67890501  1
  O  O410  1  0.43630165  0.93630165  0.17890501  1
  O  O411  1  0.43630165  0.93630165  0.67890501  1
  O  O412  1  0.93630165  0.43630165  0.17890501  1
  O  O413  1  0.93630165  0.43630165  0.67890501  1
  O  O414  1  0.93630165  0.93630165  0.17890501  1
  O  O415  1  0.93630165  0.93630165  0.67890501  1
  O  O416  1  -0.07109499  0.18630165  0.18630165  1
  O  O417  1  -0.07109499  0.18630165  0.68630165  1
  O  O418  1  -0.07109499  0.68630165  0.18630165  1
  O  O419  1  -0.07109499  0.68630165  0.68630165  1
  O  O420  1  0.42890501  0.18630165  0.18630165  1
  O  O421  1  0.42890501  0.18630165  0.68630165  1
  O  O422  1  0.42890501  0.68630165  0.18630165  1
  O  O423  1  0.42890501  0.68630165  0.68630165  1
  O  O424  1  0.17890501  0.43630165  0.43630165  1
  O  O425  1  0.17890501  0.43630165  0.93630165  1
  O  O426  1  0.17890501  0.93630165  0.43630165  1
  O  O427  1  0.17890501  0.93630165  0.93630165  1
  O  O428  1  0.67890501  0.43630165  0.43630165  1
  O  O429  1  0.67890501  0.43630165  0.93630165  1
  O  O430  1  0.67890501  0.93630165  0.43630165  1
  O  O431  1  0.67890501  0.93630165  0.93630165  1
  O  O432  1  0.32109499  -0.06369835  0.06369835  1
  O  O433  1  0.32109499  -0.06369835  0.56369835  1
  O  O434  1  0.32109499  0.43630165  0.06369835  1
  O  O435  1  0.32109499  0.43630165  0.56369835  1
  O  O436  1  0.82109499  -0.06369835  0.06369835  1
  O  O437  1  0.82109499  -0.06369835  0.56369835  1
  O  O438  1  0.82109499  0.43630165  0.06369835  1
  O  O439  1  0.82109499  0.43630165  0.56369835  1
  O  O440  1  0.57109499  0.18630165  0.31369835  1
  O  O441  1  0.57109499  0.18630165  0.81369835  1
  O  O442  1  0.57109499  0.68630165  0.31369835  1
  O  O443  1  0.57109499  0.68630165  0.81369835  1
  O  O444  1  1.07109499  0.18630165  0.31369835  1
  O  O445  1  1.07109499  0.18630165  0.81369835  1
  O  O446  1  1.07109499  0.68630165  0.31369835  1
  O  O447  1  1.07109499  0.68630165  0.81369835  1
