# generated using pymatgen
data_TlPt3O4
_symmetry_space_group_name_H-M   'P 1'
_cell_length_a   9.64859187
_cell_length_b   9.64859187
_cell_length_c   9.64859187
_cell_angle_alpha   90.00000000
_cell_angle_beta   90.00000000
_cell_angle_gamma   90.00000000
_symmetry_Int_Tables_number   1
_chemical_formula_structural   TlPt3O4
_chemical_formula_sum   'Tl8 Pt24 O32'
_cell_volume   898.23879620
_cell_formula_units_Z   8
loop_
 _symmetry_equiv_pos_site_id
 _symmetry_equiv_pos_as_xyz
  1  'x, y, z'
loop_
 _atom_site_type_symbol
 _atom_site_label
 _atom_site_symmetry_multiplicity
 _atom_site_fract_x
 _atom_site_fract_y
 _atom_site_fract_z
 _atom_site_occupancy
  Tl  Tl0  1  0.50000000  0.50000000  0.50000000  1
  Tl  Tl1  1  1.00000000  1.00000000  0.50000000  1
  Tl  Tl2  1  1.00000000  0.50000000  1.00000000  1
  Tl  Tl3  1  0.50000000  1.00000000  1.00000000  1
  Tl  Tl4  1  0.00000000  0.00000000  0.00000000  1
  Tl  Tl5  1  0.50000000  0.50000000  0.00000000  1
  Tl  Tl6  1  0.50000000  0.00000000  0.50000000  1
  Tl  Tl7  1  0.00000000  0.50000000  0.50000000  1
  Pt  Pt8  1  0.00000000  0.25000000  0.25000000  1
  Pt  Pt9  1  0.50000000  0.75000000  0.25000000  1
  Pt  Pt10  1  0.50000000  0.25000000  0.75000000  1
  Pt  Pt11  1  0.00000000  0.75000000  0.75000000  1
  Pt  Pt12  1  0.50000000  0.25000000  0.25000000  1
  Pt  Pt13  1  1.00000000  0.75000000  0.25000000  1
  Pt  Pt14  1  1.00000000  0.25000000  0.75000000  1
  Pt  Pt15  1  0.50000000  0.75000000  0.75000000  1
  Pt  Pt16  1  0.25000000  0.00000000  0.25000000  1
  Pt  Pt17  1  0.75000000  0.50000000  0.25000000  1
  Pt  Pt18  1  0.75000000  0.00000000  0.75000000  1
  Pt  Pt19  1  0.25000000  0.50000000  0.75000000  1
  Pt  Pt20  1  0.25000000  0.50000000  0.25000000  1
  Pt  Pt21  1  0.75000000  1.00000000  0.25000000  1
  Pt  Pt22  1  0.75000000  0.50000000  0.75000000  1
  Pt  Pt23  1  0.25000000  1.00000000  0.75000000  1
  Pt  Pt24  1  0.25000000  0.25000000  0.00000000  1
  Pt  Pt25  1  0.75000000  0.75000000  0.00000000  1
  Pt  Pt26  1  0.75000000  0.25000000  0.50000000  1
  Pt  Pt27  1  0.25000000  0.75000000  0.50000000  1
  Pt  Pt28  1  0.25000000  0.25000000  0.50000000  1
  Pt  Pt29  1  0.75000000  0.75000000  0.50000000  1
  Pt  Pt30  1  0.75000000  0.25000000  1.00000000  1
  Pt  Pt31  1  0.25000000  0.75000000  1.00000000  1
  O  O32  1  0.14289189  0.14289189  0.14289189  1
  O  O33  1  0.64289189  0.64289189  0.14289189  1
  O  O34  1  0.64289189  0.14289189  0.64289189  1
  O  O35  1  0.14289189  0.64289189  0.64289189  1
  O  O36  1  0.85710811  0.85710811  0.85710811  1
  O  O37  1  1.35710811  1.35710811  0.85710811  1
  O  O38  1  1.35710811  0.85710811  1.35710811  1
  O  O39  1  0.85710811  1.35710811  1.35710811  1
  O  O40  1  0.35710811  0.35710811  0.14289189  1
  O  O41  1  0.85710811  0.85710811  0.14289189  1
  O  O42  1  0.85710811  0.35710811  0.64289189  1
  O  O43  1  0.35710811  0.85710811  0.64289189  1
  O  O44  1  0.35710811  0.14289189  0.35710811  1
  O  O45  1  0.85710811  0.64289189  0.35710811  1
  O  O46  1  0.85710811  0.14289189  0.85710811  1
  O  O47  1  0.35710811  0.64289189  0.85710811  1
  O  O48  1  0.64289189  0.64289189  0.85710811  1
  O  O49  1  1.14289189  1.14289189  0.85710811  1
  O  O50  1  1.14289189  0.64289189  1.35710811  1
  O  O51  1  0.64289189  1.14289189  1.35710811  1
  O  O52  1  0.64289189  0.85710811  0.64289189  1
  O  O53  1  1.14289189  1.35710811  0.64289189  1
  O  O54  1  1.14289189  0.85710811  1.14289189  1
  O  O55  1  0.64289189  1.35710811  1.14289189  1
  O  O56  1  0.14289189  0.35710811  0.35710811  1
  O  O57  1  0.64289189  0.85710811  0.35710811  1
  O  O58  1  0.64289189  0.35710811  0.85710811  1
  O  O59  1  0.14289189  0.85710811  0.85710811  1
  O  O60  1  0.85710811  0.64289189  0.64289189  1
  O  O61  1  1.35710811  1.14289189  0.64289189  1
  O  O62  1  1.35710811  0.64289189  1.14289189  1
  O  O63  1  0.85710811  1.14289189  1.14289189  1
