# generated using pymatgen
data_K2SrTa2O7
_symmetry_space_group_name_H-M   'P 1'
_cell_length_a   16.88915079
_cell_length_b   16.88915079
_cell_length_c   21.81661250
_cell_angle_alpha   90.00000000
_cell_angle_beta   90.00000000
_cell_angle_gamma   90.00000000
_symmetry_Int_Tables_number   1
_chemical_formula_structural   K2SrTa2O7
_chemical_formula_sum   'K72 Sr36 Ta72 O252'
_cell_volume   6223.04503955
_cell_formula_units_Z   36
loop_
 _symmetry_equiv_pos_site_id
 _symmetry_equiv_pos_as_xyz
  1  'x, y, z'
loop_
 _atom_site_type_symbol
 _atom_site_label
 _atom_site_symmetry_multiplicity
 _atom_site_fract_x
 _atom_site_fract_y
 _atom_site_fract_z
 _atom_site_occupancy
  K  K0  1  -0.00000000  0.66666667  0.80714919  1
  K  K1  1  0.16666667  0.83333333  0.80714919  1
  K  K2  1  -0.00000000  0.33333333  0.80714919  1
  K  K3  1  0.16666667  0.50000000  0.80714919  1
  K  K4  1  0.33333333  0.66666667  0.80714919  1
  K  K5  1  0.50000000  0.83333333  0.80714919  1
  K  K6  1  -0.00000000  0.00000000  0.80714919  1
  K  K7  1  0.16666667  0.16666667  0.80714919  1
  K  K8  1  0.33333333  0.33333333  0.80714919  1
  K  K9  1  0.50000000  0.50000000  0.80714919  1
  K  K10  1  0.66666667  0.66666667  0.80714919  1
  K  K11  1  0.83333333  0.83333333  0.80714919  1
  K  K12  1  0.33333333  0.00000000  0.80714919  1
  K  K13  1  0.50000000  0.16666667  0.80714919  1
  K  K14  1  0.66666667  0.33333333  0.80714919  1
  K  K15  1  0.83333333  0.50000000  0.80714919  1
  K  K16  1  0.66666667  0.00000000  0.80714919  1
  K  K17  1  0.83333333  0.16666667  0.80714919  1
  K  K18  1  0.16666667  0.66666667  1.30714919  1
  K  K19  1  0.33333333  0.83333333  1.30714919  1
  K  K20  1  0.16666667  0.33333333  1.30714919  1
  K  K21  1  0.33333333  0.50000000  1.30714919  1
  K  K22  1  0.50000000  0.66666667  1.30714919  1
  K  K23  1  0.66666667  0.83333333  1.30714919  1
  K  K24  1  0.16666667  0.00000000  1.30714919  1
  K  K25  1  0.33333333  0.16666667  1.30714919  1
  K  K26  1  0.50000000  0.33333333  1.30714919  1
  K  K27  1  0.66666667  0.50000000  1.30714919  1
  K  K28  1  0.83333333  0.66666667  1.30714919  1
  K  K29  1  1.00000000  0.83333333  1.30714919  1
  K  K30  1  0.50000000  0.00000000  1.30714919  1
  K  K31  1  0.66666667  0.16666667  1.30714919  1
  K  K32  1  0.83333333  0.33333333  1.30714919  1
  K  K33  1  1.00000000  0.50000000  1.30714919  1
  K  K34  1  0.83333333  0.00000000  1.30714919  1
  K  K35  1  1.00000000  0.16666667  1.30714919  1
  K  K36  1  -0.00000000  0.66666667  0.19285081  1
  K  K37  1  0.16666667  0.83333333  0.19285081  1
  K  K38  1  -0.00000000  0.33333333  0.19285081  1
  K  K39  1  0.16666667  0.50000000  0.19285081  1
  K  K40  1  0.33333333  0.66666667  0.19285081  1
  K  K41  1  0.50000000  0.83333333  0.19285081  1
  K  K42  1  -0.00000000  0.00000000  0.19285081  1
  K  K43  1  0.16666667  0.16666667  0.19285081  1
  K  K44  1  0.33333333  0.33333333  0.19285081  1
  K  K45  1  0.50000000  0.50000000  0.19285081  1
  K  K46  1  0.66666667  0.66666667  0.19285081  1
  K  K47  1  0.83333333  0.83333333  0.19285081  1
  K  K48  1  0.33333333  0.00000000  0.19285081  1
  K  K49  1  0.50000000  0.16666667  0.19285081  1
  K  K50  1  0.66666667  0.33333333  0.19285081  1
  K  K51  1  0.83333333  0.50000000  0.19285081  1
  K  K52  1  0.66666667  0.00000000  0.19285081  1
  K  K53  1  0.83333333  0.16666667  0.19285081  1
  K  K54  1  0.16666667  0.66666667  0.69285081  1
  K  K55  1  0.33333333  0.83333333  0.69285081  1
  K  K56  1  0.16666667  0.33333333  0.69285081  1
  K  K57  1  0.33333333  0.50000000  0.69285081  1
  K  K58  1  0.50000000  0.66666667  0.69285081  1
  K  K59  1  0.66666667  0.83333333  0.69285081  1
  K  K60  1  0.16666667  0.00000000  0.69285081  1
  K  K61  1  0.33333333  0.16666667  0.69285081  1
  K  K62  1  0.50000000  0.33333333  0.69285081  1
  K  K63  1  0.66666667  0.50000000  0.69285081  1
  K  K64  1  0.83333333  0.66666667  0.69285081  1
  K  K65  1  1.00000000  0.83333333  0.69285081  1
  K  K66  1  0.50000000  0.00000000  0.69285081  1
  K  K67  1  0.66666667  0.16666667  0.69285081  1
  K  K68  1  0.83333333  0.33333333  0.69285081  1
  K  K69  1  1.00000000  0.50000000  0.69285081  1
  K  K70  1  0.83333333  0.00000000  0.69285081  1
  K  K71  1  1.00000000  0.16666667  0.69285081  1
  Sr  Sr72  1  -0.00000000  0.66666667  0.00000000  1
  Sr  Sr73  1  0.16666667  0.83333333  0.00000000  1
  Sr  Sr74  1  -0.00000000  0.33333333  0.00000000  1
  Sr  Sr75  1  0.16666667  0.50000000  0.00000000  1
  Sr  Sr76  1  0.33333333  0.66666667  0.00000000  1
  Sr  Sr77  1  0.50000000  0.83333333  0.00000000  1
  Sr  Sr78  1  0.00000000  0.00000000  0.00000000  1
  Sr  Sr79  1  0.16666667  0.16666667  0.00000000  1
  Sr  Sr80  1  0.33333333  0.33333333  0.00000000  1
  Sr  Sr81  1  0.50000000  0.50000000  0.00000000  1
  Sr  Sr82  1  0.66666667  0.66666667  0.00000000  1
  Sr  Sr83  1  0.83333333  0.83333333  0.00000000  1
  Sr  Sr84  1  0.33333333  0.00000000  0.00000000  1
  Sr  Sr85  1  0.50000000  0.16666667  0.00000000  1
  Sr  Sr86  1  0.66666667  0.33333333  0.00000000  1
  Sr  Sr87  1  0.83333333  0.50000000  0.00000000  1
  Sr  Sr88  1  0.66666667  0.00000000  0.00000000  1
  Sr  Sr89  1  0.83333333  0.16666667  0.00000000  1
  Sr  Sr90  1  0.16666667  0.66666667  0.50000000  1
  Sr  Sr91  1  0.33333333  0.83333333  0.50000000  1
  Sr  Sr92  1  0.16666667  0.33333333  0.50000000  1
  Sr  Sr93  1  0.33333333  0.50000000  0.50000000  1
  Sr  Sr94  1  0.50000000  0.66666667  0.50000000  1
  Sr  Sr95  1  0.66666667  0.83333333  0.50000000  1
  Sr  Sr96  1  0.16666667  0.00000000  0.50000000  1
  Sr  Sr97  1  0.33333333  0.16666667  0.50000000  1
  Sr  Sr98  1  0.50000000  0.33333333  0.50000000  1
  Sr  Sr99  1  0.66666667  0.50000000  0.50000000  1
  Sr  Sr100  1  0.83333333  0.66666667  0.50000000  1
  Sr  Sr101  1  1.00000000  0.83333333  0.50000000  1
  Sr  Sr102  1  0.50000000  0.00000000  0.50000000  1
  Sr  Sr103  1  0.66666667  0.16666667  0.50000000  1
  Sr  Sr104  1  0.83333333  0.33333333  0.50000000  1
  Sr  Sr105  1  1.00000000  0.50000000  0.50000000  1
  Sr  Sr106  1  0.83333333  0.00000000  0.50000000  1
  Sr  Sr107  1  1.00000000  0.16666667  0.50000000  1
  Ta  Ta108  1  -0.00000000  0.66666667  0.59587987  1
  Ta  Ta109  1  0.16666667  0.83333333  0.59587987  1
  Ta  Ta110  1  -0.00000000  0.33333333  0.59587987  1
  Ta  Ta111  1  0.16666667  0.50000000  0.59587987  1
  Ta  Ta112  1  0.33333333  0.66666667  0.59587987  1
  Ta  Ta113  1  0.50000000  0.83333333  0.59587987  1
  Ta  Ta114  1  0.00000000  -0.00000000  0.59587987  1
  Ta  Ta115  1  0.16666667  0.16666667  0.59587987  1
  Ta  Ta116  1  0.33333333  0.33333333  0.59587987  1
  Ta  Ta117  1  0.50000000  0.50000000  0.59587987  1
  Ta  Ta118  1  0.66666667  0.66666667  0.59587987  1
  Ta  Ta119  1  0.83333333  0.83333333  0.59587987  1
  Ta  Ta120  1  0.33333333  0.00000000  0.59587987  1
  Ta  Ta121  1  0.50000000  0.16666667  0.59587987  1
  Ta  Ta122  1  0.66666667  0.33333333  0.59587987  1
  Ta  Ta123  1  0.83333333  0.50000000  0.59587987  1
  Ta  Ta124  1  0.66666667  0.00000000  0.59587987  1
  Ta  Ta125  1  0.83333333  0.16666667  0.59587987  1
  Ta  Ta126  1  0.16666667  0.66666667  1.09587987  1
  Ta  Ta127  1  0.33333333  0.83333333  1.09587987  1
  Ta  Ta128  1  0.16666667  0.33333333  1.09587987  1
  Ta  Ta129  1  0.33333333  0.50000000  1.09587987  1
  Ta  Ta130  1  0.50000000  0.66666667  1.09587987  1
  Ta  Ta131  1  0.66666667  0.83333333  1.09587987  1
  Ta  Ta132  1  0.16666667  0.00000000  1.09587987  1
  Ta  Ta133  1  0.33333333  0.16666667  1.09587987  1
  Ta  Ta134  1  0.50000000  0.33333333  1.09587987  1
  Ta  Ta135  1  0.66666667  0.50000000  1.09587987  1
  Ta  Ta136  1  0.83333333  0.66666667  1.09587987  1
  Ta  Ta137  1  1.00000000  0.83333333  1.09587987  1
  Ta  Ta138  1  0.50000000  0.00000000  1.09587987  1
  Ta  Ta139  1  0.66666667  0.16666667  1.09587987  1
  Ta  Ta140  1  0.83333333  0.33333333  1.09587987  1
  Ta  Ta141  1  1.00000000  0.50000000  1.09587987  1
  Ta  Ta142  1  0.83333333  0.00000000  1.09587987  1
  Ta  Ta143  1  1.00000000  0.16666667  1.09587987  1
  Ta  Ta144  1  -0.00000000  0.66666667  0.40412013  1
  Ta  Ta145  1  0.16666667  0.83333333  0.40412013  1
  Ta  Ta146  1  -0.00000000  0.33333333  0.40412013  1
  Ta  Ta147  1  0.16666667  0.50000000  0.40412013  1
  Ta  Ta148  1  0.33333333  0.66666667  0.40412013  1
  Ta  Ta149  1  0.50000000  0.83333333  0.40412013  1
  Ta  Ta150  1  -0.00000000  0.00000000  0.40412013  1
  Ta  Ta151  1  0.16666667  0.16666667  0.40412013  1
  Ta  Ta152  1  0.33333333  0.33333333  0.40412013  1
  Ta  Ta153  1  0.50000000  0.50000000  0.40412013  1
  Ta  Ta154  1  0.66666667  0.66666667  0.40412013  1
  Ta  Ta155  1  0.83333333  0.83333333  0.40412013  1
  Ta  Ta156  1  0.33333333  0.00000000  0.40412013  1
  Ta  Ta157  1  0.50000000  0.16666667  0.40412013  1
  Ta  Ta158  1  0.66666667  0.33333333  0.40412013  1
  Ta  Ta159  1  0.83333333  0.50000000  0.40412013  1
  Ta  Ta160  1  0.66666667  0.00000000  0.40412013  1
  Ta  Ta161  1  0.83333333  0.16666667  0.40412013  1
  Ta  Ta162  1  0.16666667  0.66666667  0.90412013  1
  Ta  Ta163  1  0.33333333  0.83333333  0.90412013  1
  Ta  Ta164  1  0.16666667  0.33333333  0.90412013  1
  Ta  Ta165  1  0.33333333  0.50000000  0.90412013  1
  Ta  Ta166  1  0.50000000  0.66666667  0.90412013  1
  Ta  Ta167  1  0.66666667  0.83333333  0.90412013  1
  Ta  Ta168  1  0.16666667  0.00000000  0.90412013  1
  Ta  Ta169  1  0.33333333  0.16666667  0.90412013  1
  Ta  Ta170  1  0.50000000  0.33333333  0.90412013  1
  Ta  Ta171  1  0.66666667  0.50000000  0.90412013  1
  Ta  Ta172  1  0.83333333  0.66666667  0.90412013  1
  Ta  Ta173  1  1.00000000  0.83333333  0.90412013  1
  Ta  Ta174  1  0.50000000  0.00000000  0.90412013  1
  Ta  Ta175  1  0.66666667  0.16666667  0.90412013  1
  Ta  Ta176  1  0.83333333  0.33333333  0.90412013  1
  Ta  Ta177  1  1.00000000  0.50000000  0.90412013  1
  Ta  Ta178  1  0.83333333  0.00000000  0.90412013  1
  Ta  Ta179  1  1.00000000  0.16666667  0.90412013  1
  O  O180  1  -0.00000000  0.66666667  0.50000000  1
  O  O181  1  0.16666667  0.83333333  0.50000000  1
  O  O182  1  -0.00000000  0.33333333  0.50000000  1
  O  O183  1  0.16666667  0.50000000  0.50000000  1
  O  O184  1  0.33333333  0.66666667  0.50000000  1
  O  O185  1  0.50000000  0.83333333  0.50000000  1
  O  O186  1  0.00000000  0.00000000  0.50000000  1
  O  O187  1  0.16666667  0.16666667  0.50000000  1
  O  O188  1  0.33333333  0.33333333  0.50000000  1
  O  O189  1  0.50000000  0.50000000  0.50000000  1
  O  O190  1  0.66666667  0.66666667  0.50000000  1
  O  O191  1  0.83333333  0.83333333  0.50000000  1
  O  O192  1  0.33333333  0.00000000  0.50000000  1
  O  O193  1  0.50000000  0.16666667  0.50000000  1
  O  O194  1  0.66666667  0.33333333  0.50000000  1
  O  O195  1  0.83333333  0.50000000  0.50000000  1
  O  O196  1  0.66666667  0.00000000  0.50000000  1
  O  O197  1  0.83333333  0.16666667  0.50000000  1
  O  O198  1  0.16666667  0.66666667  1.00000000  1
  O  O199  1  0.33333333  0.83333333  1.00000000  1
  O  O200  1  0.16666667  0.33333333  1.00000000  1
  O  O201  1  0.33333333  0.50000000  1.00000000  1
  O  O202  1  0.50000000  0.66666667  1.00000000  1
  O  O203  1  0.66666667  0.83333333  1.00000000  1
  O  O204  1  0.16666667  0.00000000  1.00000000  1
  O  O205  1  0.33333333  0.16666667  1.00000000  1
  O  O206  1  0.50000000  0.33333333  1.00000000  1
  O  O207  1  0.66666667  0.50000000  1.00000000  1
  O  O208  1  0.83333333  0.66666667  1.00000000  1
  O  O209  1  1.00000000  0.83333333  1.00000000  1
  O  O210  1  0.50000000  0.00000000  1.00000000  1
  O  O211  1  0.66666667  0.16666667  1.00000000  1
  O  O212  1  0.83333333  0.33333333  1.00000000  1
  O  O213  1  1.00000000  0.50000000  1.00000000  1
  O  O214  1  0.83333333  0.00000000  1.00000000  1
  O  O215  1  1.00000000  0.16666667  1.00000000  1
  O  O216  1  -0.00000000  0.66666667  0.31871585  1
  O  O217  1  0.16666667  0.83333333  0.31871585  1
  O  O218  1  -0.00000000  0.33333333  0.31871585  1
  O  O219  1  0.16666667  0.50000000  0.31871585  1
  O  O220  1  0.33333333  0.66666667  0.31871585  1
  O  O221  1  0.50000000  0.83333333  0.31871585  1
  O  O222  1  0.00000000  -0.00000000  0.31871585  1
  O  O223  1  0.16666667  0.16666667  0.31871585  1
  O  O224  1  0.33333333  0.33333333  0.31871585  1
  O  O225  1  0.50000000  0.50000000  0.31871585  1
  O  O226  1  0.66666667  0.66666667  0.31871585  1
  O  O227  1  0.83333333  0.83333333  0.31871585  1
  O  O228  1  0.33333333  0.00000000  0.31871585  1
  O  O229  1  0.50000000  0.16666667  0.31871585  1
  O  O230  1  0.66666667  0.33333333  0.31871585  1
  O  O231  1  0.83333333  0.50000000  0.31871585  1
  O  O232  1  0.66666667  0.00000000  0.31871585  1
  O  O233  1  0.83333333  0.16666667  0.31871585  1
  O  O234  1  0.16666667  0.66666667  0.81871585  1
  O  O235  1  0.33333333  0.83333333  0.81871585  1
  O  O236  1  0.16666667  0.33333333  0.81871585  1
  O  O237  1  0.33333333  0.50000000  0.81871585  1
  O  O238  1  0.50000000  0.66666667  0.81871585  1
  O  O239  1  0.66666667  0.83333333  0.81871585  1
  O  O240  1  0.16666667  0.00000000  0.81871585  1
  O  O241  1  0.33333333  0.16666667  0.81871585  1
  O  O242  1  0.50000000  0.33333333  0.81871585  1
  O  O243  1  0.66666667  0.50000000  0.81871585  1
  O  O244  1  0.83333333  0.66666667  0.81871585  1
  O  O245  1  1.00000000  0.83333333  0.81871585  1
  O  O246  1  0.50000000  0.00000000  0.81871585  1
  O  O247  1  0.66666667  0.16666667  0.81871585  1
  O  O248  1  0.83333333  0.33333333  0.81871585  1
  O  O249  1  1.00000000  0.50000000  0.81871585  1
  O  O250  1  0.83333333  0.00000000  0.81871585  1
  O  O251  1  1.00000000  0.16666667  0.81871585  1
  O  O252  1  -0.00000000  0.66666667  0.68128415  1
  O  O253  1  0.16666667  0.83333333  0.68128415  1
  O  O254  1  -0.00000000  0.33333333  0.68128415  1
  O  O255  1  0.16666667  0.50000000  0.68128415  1
  O  O256  1  0.33333333  0.66666667  0.68128415  1
  O  O257  1  0.50000000  0.83333333  0.68128415  1
  O  O258  1  -0.00000000  0.00000000  0.68128415  1
  O  O259  1  0.16666667  0.16666667  0.68128415  1
  O  O260  1  0.33333333  0.33333333  0.68128415  1
  O  O261  1  0.50000000  0.50000000  0.68128415  1
  O  O262  1  0.66666667  0.66666667  0.68128415  1
  O  O263  1  0.83333333  0.83333333  0.68128415  1
  O  O264  1  0.33333333  0.00000000  0.68128415  1
  O  O265  1  0.50000000  0.16666667  0.68128415  1
  O  O266  1  0.66666667  0.33333333  0.68128415  1
  O  O267  1  0.83333333  0.50000000  0.68128415  1
  O  O268  1  0.66666667  0.00000000  0.68128415  1
  O  O269  1  0.83333333  0.16666667  0.68128415  1
  O  O270  1  0.16666667  0.66666667  1.18128415  1
  O  O271  1  0.33333333  0.83333333  1.18128415  1
  O  O272  1  0.16666667  0.33333333  1.18128415  1
  O  O273  1  0.33333333  0.50000000  1.18128415  1
  O  O274  1  0.50000000  0.66666667  1.18128415  1
  O  O275  1  0.66666667  0.83333333  1.18128415  1
  O  O276  1  0.16666667  0.00000000  1.18128415  1
  O  O277  1  0.33333333  0.16666667  1.18128415  1
  O  O278  1  0.50000000  0.33333333  1.18128415  1
  O  O279  1  0.66666667  0.50000000  1.18128415  1
  O  O280  1  0.83333333  0.66666667  1.18128415  1
  O  O281  1  1.00000000  0.83333333  1.18128415  1
  O  O282  1  0.50000000  0.00000000  1.18128415  1
  O  O283  1  0.66666667  0.16666667  1.18128415  1
  O  O284  1  0.83333333  0.33333333  1.18128415  1
  O  O285  1  1.00000000  0.50000000  1.18128415  1
  O  O286  1  0.83333333  0.00000000  1.18128415  1
  O  O287  1  1.00000000  0.16666667  1.18128415  1
  O  O288  1  0.08333333  0.75000000  0.41307859  1
  O  O289  1  0.25000000  0.91666667  0.41307859  1
  O  O290  1  0.08333333  0.41666667  0.41307859  1
  O  O291  1  0.25000000  0.58333333  0.41307859  1
  O  O292  1  0.41666667  0.75000000  0.41307859  1
  O  O293  1  0.58333333  0.91666667  0.41307859  1
  O  O294  1  0.08333333  0.08333333  0.41307859  1
  O  O295  1  0.25000000  0.25000000  0.41307859  1
  O  O296  1  0.41666667  0.41666667  0.41307859  1
  O  O297  1  0.58333333  0.58333333  0.41307859  1
  O  O298  1  0.75000000  0.75000000  0.41307859  1
  O  O299  1  0.91666667  0.91666667  0.41307859  1
  O  O300  1  0.41666667  0.08333333  0.41307859  1
  O  O301  1  0.58333333  0.25000000  0.41307859  1
  O  O302  1  0.75000000  0.41666667  0.41307859  1
  O  O303  1  0.91666667  0.58333333  0.41307859  1
  O  O304  1  0.75000000  0.08333333  0.41307859  1
  O  O305  1  0.91666667  0.25000000  0.41307859  1
  O  O306  1  0.25000000  0.75000000  0.91307859  1
  O  O307  1  0.41666667  0.91666667  0.91307859  1
  O  O308  1  0.25000000  0.41666667  0.91307859  1
  O  O309  1  0.41666667  0.58333333  0.91307859  1
  O  O310  1  0.58333333  0.75000000  0.91307859  1
  O  O311  1  0.75000000  0.91666667  0.91307859  1
  O  O312  1  0.25000000  0.08333333  0.91307859  1
  O  O313  1  0.41666667  0.25000000  0.91307859  1
  O  O314  1  0.58333333  0.41666667  0.91307859  1
  O  O315  1  0.75000000  0.58333333  0.91307859  1
  O  O316  1  0.91666667  0.75000000  0.91307859  1
  O  O317  1  1.08333333  0.91666667  0.91307859  1
  O  O318  1  0.58333333  0.08333333  0.91307859  1
  O  O319  1  0.75000000  0.25000000  0.91307859  1
  O  O320  1  0.91666667  0.41666667  0.91307859  1
  O  O321  1  1.08333333  0.58333333  0.91307859  1
  O  O322  1  0.91666667  0.08333333  0.91307859  1
  O  O323  1  1.08333333  0.25000000  0.91307859  1
  O  O324  1  0.08333333  0.58333333  0.41307859  1
  O  O325  1  0.25000000  0.75000000  0.41307859  1
  O  O326  1  0.08333333  0.25000000  0.41307859  1
  O  O327  1  0.25000000  0.41666667  0.41307859  1
  O  O328  1  0.41666667  0.58333333  0.41307859  1
  O  O329  1  0.58333333  0.75000000  0.41307859  1
  O  O330  1  0.08333333  -0.08333333  0.41307859  1
  O  O331  1  0.25000000  0.08333333  0.41307859  1
  O  O332  1  0.41666667  0.25000000  0.41307859  1
  O  O333  1  0.58333333  0.41666667  0.41307859  1
  O  O334  1  0.75000000  0.58333333  0.41307859  1
  O  O335  1  0.91666667  0.75000000  0.41307859  1
  O  O336  1  0.41666667  -0.08333333  0.41307859  1
  O  O337  1  0.58333333  0.08333333  0.41307859  1
  O  O338  1  0.75000000  0.25000000  0.41307859  1
  O  O339  1  0.91666667  0.41666667  0.41307859  1
  O  O340  1  0.75000000  -0.08333333  0.41307859  1
  O  O341  1  0.91666667  0.08333333  0.41307859  1
  O  O342  1  0.25000000  0.58333333  0.91307859  1
  O  O343  1  0.41666667  0.75000000  0.91307859  1
  O  O344  1  0.25000000  0.25000000  0.91307859  1
  O  O345  1  0.41666667  0.41666667  0.91307859  1
  O  O346  1  0.58333333  0.58333333  0.91307859  1
  O  O347  1  0.75000000  0.75000000  0.91307859  1
  O  O348  1  0.25000000  -0.08333333  0.91307859  1
  O  O349  1  0.41666667  0.08333333  0.91307859  1
  O  O350  1  0.58333333  0.25000000  0.91307859  1
  O  O351  1  0.75000000  0.41666667  0.91307859  1
  O  O352  1  0.91666667  0.58333333  0.91307859  1
  O  O353  1  1.08333333  0.75000000  0.91307859  1
  O  O354  1  0.58333333  -0.08333333  0.91307859  1
  O  O355  1  0.75000000  0.08333333  0.91307859  1
  O  O356  1  0.91666667  0.25000000  0.91307859  1
  O  O357  1  1.08333333  0.41666667  0.91307859  1
  O  O358  1  0.91666667  -0.08333333  0.91307859  1
  O  O359  1  1.08333333  0.08333333  0.91307859  1
  O  O360  1  0.08333333  0.75000000  0.08692141  1
  O  O361  1  0.25000000  0.91666667  0.08692141  1
  O  O362  1  0.08333333  0.41666667  0.08692141  1
  O  O363  1  0.25000000  0.58333333  0.08692141  1
  O  O364  1  0.41666667  0.75000000  0.08692141  1
  O  O365  1  0.58333333  0.91666667  0.08692141  1
  O  O366  1  0.08333333  0.08333333  0.08692141  1
  O  O367  1  0.25000000  0.25000000  0.08692141  1
  O  O368  1  0.41666667  0.41666667  0.08692141  1
  O  O369  1  0.58333333  0.58333333  0.08692141  1
  O  O370  1  0.75000000  0.75000000  0.08692141  1
  O  O371  1  0.91666667  0.91666667  0.08692141  1
  O  O372  1  0.41666667  0.08333333  0.08692141  1
  O  O373  1  0.58333333  0.25000000  0.08692141  1
  O  O374  1  0.75000000  0.41666667  0.08692141  1
  O  O375  1  0.91666667  0.58333333  0.08692141  1
  O  O376  1  0.75000000  0.08333333  0.08692141  1
  O  O377  1  0.91666667  0.25000000  0.08692141  1
  O  O378  1  0.25000000  0.75000000  0.58692141  1
  O  O379  1  0.41666667  0.91666667  0.58692141  1
  O  O380  1  0.25000000  0.41666667  0.58692141  1
  O  O381  1  0.41666667  0.58333333  0.58692141  1
  O  O382  1  0.58333333  0.75000000  0.58692141  1
  O  O383  1  0.75000000  0.91666667  0.58692141  1
  O  O384  1  0.25000000  0.08333333  0.58692141  1
  O  O385  1  0.41666667  0.25000000  0.58692141  1
  O  O386  1  0.58333333  0.41666667  0.58692141  1
  O  O387  1  0.75000000  0.58333333  0.58692141  1
  O  O388  1  0.91666667  0.75000000  0.58692141  1
  O  O389  1  1.08333333  0.91666667  0.58692141  1
  O  O390  1  0.58333333  0.08333333  0.58692141  1
  O  O391  1  0.75000000  0.25000000  0.58692141  1
  O  O392  1  0.91666667  0.41666667  0.58692141  1
  O  O393  1  1.08333333  0.58333333  0.58692141  1
  O  O394  1  0.91666667  0.08333333  0.58692141  1
  O  O395  1  1.08333333  0.25000000  0.58692141  1
  O  O396  1  0.08333333  0.58333333  0.08692141  1
  O  O397  1  0.25000000  0.75000000  0.08692141  1
  O  O398  1  0.08333333  0.25000000  0.08692141  1
  O  O399  1  0.25000000  0.41666667  0.08692141  1
  O  O400  1  0.41666667  0.58333333  0.08692141  1
  O  O401  1  0.58333333  0.75000000  0.08692141  1
  O  O402  1  0.08333333  -0.08333333  0.08692141  1
  O  O403  1  0.25000000  0.08333333  0.08692141  1
  O  O404  1  0.41666667  0.25000000  0.08692141  1
  O  O405  1  0.58333333  0.41666667  0.08692141  1
  O  O406  1  0.75000000  0.58333333  0.08692141  1
  O  O407  1  0.91666667  0.75000000  0.08692141  1
  O  O408  1  0.41666667  -0.08333333  0.08692141  1
  O  O409  1  0.58333333  0.08333333  0.08692141  1
  O  O410  1  0.75000000  0.25000000  0.08692141  1
  O  O411  1  0.91666667  0.41666667  0.08692141  1
  O  O412  1  0.75000000  -0.08333333  0.08692141  1
  O  O413  1  0.91666667  0.08333333  0.08692141  1
  O  O414  1  0.25000000  0.58333333  0.58692141  1
  O  O415  1  0.41666667  0.75000000  0.58692141  1
  O  O416  1  0.25000000  0.25000000  0.58692141  1
  O  O417  1  0.41666667  0.41666667  0.58692141  1
  O  O418  1  0.58333333  0.58333333  0.58692141  1
  O  O419  1  0.75000000  0.75000000  0.58692141  1
  O  O420  1  0.25000000  -0.08333333  0.58692141  1
  O  O421  1  0.41666667  0.08333333  0.58692141  1
  O  O422  1  0.58333333  0.25000000  0.58692141  1
  O  O423  1  0.75000000  0.41666667  0.58692141  1
  O  O424  1  0.91666667  0.58333333  0.58692141  1
  O  O425  1  1.08333333  0.75000000  0.58692141  1
  O  O426  1  0.58333333  -0.08333333  0.58692141  1
  O  O427  1  0.75000000  0.08333333  0.58692141  1
  O  O428  1  0.91666667  0.25000000  0.58692141  1
  O  O429  1  1.08333333  0.41666667  0.58692141  1
  O  O430  1  0.91666667  -0.08333333  0.58692141  1
  O  O431  1  1.08333333  0.08333333  0.58692141  1
