# generated using pymatgen
data_Na2HgO2
_symmetry_space_group_name_H-M   'P 1'
_cell_length_a   13.44677438
_cell_length_b   13.44677438
_cell_length_c   13.27208234
_cell_angle_alpha   90.00000000
_cell_angle_beta   90.00000000
_cell_angle_gamma   90.00000000
_symmetry_Int_Tables_number   1
_chemical_formula_structural   Na2HgO2
_chemical_formula_sum   'Na64 Hg32 O64'
_cell_volume   2399.80140816
_cell_formula_units_Z   32
loop_
 _symmetry_equiv_pos_site_id
 _symmetry_equiv_pos_as_xyz
  1  'x, y, z'
loop_
 _atom_site_type_symbol
 _atom_site_label
 _atom_site_symmetry_multiplicity
 _atom_site_fract_x
 _atom_site_fract_y
 _atom_site_fract_z
 _atom_site_occupancy
  Na  Na0  1  0.75000000  0.75000000  0.67681942  1
  Na  Na1  1  0.75000000  0.50000000  0.67681942  1
  Na  Na2  1  0.75000000  0.25000000  0.67681942  1
  Na  Na3  1  0.75000000  -0.00000000  0.67681942  1
  Na  Na4  1  0.50000000  0.75000000  0.67681942  1
  Na  Na5  1  0.50000000  0.50000000  0.67681942  1
  Na  Na6  1  0.50000000  0.25000000  0.67681942  1
  Na  Na7  1  0.50000000  -0.00000000  0.67681942  1
  Na  Na8  1  0.25000000  0.75000000  0.67681942  1
  Na  Na9  1  0.25000000  0.50000000  0.67681942  1
  Na  Na10  1  0.25000000  0.25000000  0.67681942  1
  Na  Na11  1  0.25000000  -0.00000000  0.67681942  1
  Na  Na12  1  -0.00000000  0.75000000  0.67681942  1
  Na  Na13  1  -0.00000000  0.50000000  0.67681942  1
  Na  Na14  1  -0.00000000  0.25000000  0.67681942  1
  Na  Na15  1  -0.00000000  -0.00000000  0.67681942  1
  Na  Na16  1  0.62500000  0.62500000  1.17681942  1
  Na  Na17  1  0.62500000  0.37500000  1.17681942  1
  Na  Na18  1  0.62500000  0.12500000  1.17681942  1
  Na  Na19  1  0.62500000  -0.12500000  1.17681942  1
  Na  Na20  1  0.37500000  0.62500000  1.17681942  1
  Na  Na21  1  0.37500000  0.37500000  1.17681942  1
  Na  Na22  1  0.37500000  0.12500000  1.17681942  1
  Na  Na23  1  0.37500000  -0.12500000  1.17681942  1
  Na  Na24  1  0.12500000  0.62500000  1.17681942  1
  Na  Na25  1  0.12500000  0.37500000  1.17681942  1
  Na  Na26  1  0.12500000  0.12500000  1.17681942  1
  Na  Na27  1  0.12500000  -0.12500000  1.17681942  1
  Na  Na28  1  -0.12500000  0.62500000  1.17681942  1
  Na  Na29  1  -0.12500000  0.37500000  1.17681942  1
  Na  Na30  1  -0.12500000  0.12500000  1.17681942  1
  Na  Na31  1  -0.12500000  -0.12500000  1.17681942  1
  Na  Na32  1  0.75000000  0.75000000  0.32318058  1
  Na  Na33  1  0.75000000  0.50000000  0.32318058  1
  Na  Na34  1  0.75000000  0.25000000  0.32318058  1
  Na  Na35  1  0.75000000  -0.00000000  0.32318058  1
  Na  Na36  1  0.50000000  0.75000000  0.32318058  1
  Na  Na37  1  0.50000000  0.50000000  0.32318058  1
  Na  Na38  1  0.50000000  0.25000000  0.32318058  1
  Na  Na39  1  0.50000000  -0.00000000  0.32318058  1
  Na  Na40  1  0.25000000  0.75000000  0.32318058  1
  Na  Na41  1  0.25000000  0.50000000  0.32318058  1
  Na  Na42  1  0.25000000  0.25000000  0.32318058  1
  Na  Na43  1  0.25000000  -0.00000000  0.32318058  1
  Na  Na44  1  -0.00000000  0.75000000  0.32318058  1
  Na  Na45  1  -0.00000000  0.50000000  0.32318058  1
  Na  Na46  1  -0.00000000  0.25000000  0.32318058  1
  Na  Na47  1  -0.00000000  -0.00000000  0.32318058  1
  Na  Na48  1  0.62500000  0.62500000  0.82318058  1
  Na  Na49  1  0.62500000  0.37500000  0.82318058  1
  Na  Na50  1  0.62500000  0.12500000  0.82318058  1
  Na  Na51  1  0.62500000  -0.12500000  0.82318058  1
  Na  Na52  1  0.37500000  0.62500000  0.82318058  1
  Na  Na53  1  0.37500000  0.37500000  0.82318058  1
  Na  Na54  1  0.37500000  0.12500000  0.82318058  1
  Na  Na55  1  0.37500000  -0.12500000  0.82318058  1
  Na  Na56  1  0.12500000  0.62500000  0.82318058  1
  Na  Na57  1  0.12500000  0.37500000  0.82318058  1
  Na  Na58  1  0.12500000  0.12500000  0.82318058  1
  Na  Na59  1  0.12500000  -0.12500000  0.82318058  1
  Na  Na60  1  -0.12500000  0.62500000  0.82318058  1
  Na  Na61  1  -0.12500000  0.37500000  0.82318058  1
  Na  Na62  1  -0.12500000  0.12500000  0.82318058  1
  Na  Na63  1  -0.12500000  -0.12500000  0.82318058  1
  Hg  Hg64  1  0.75000000  0.75000000  -0.00000000  1
  Hg  Hg65  1  0.75000000  0.50000000  -0.00000000  1
  Hg  Hg66  1  0.75000000  0.25000000  -0.00000000  1
  Hg  Hg67  1  0.75000000  -0.00000000  -0.00000000  1
  Hg  Hg68  1  0.50000000  0.75000000  -0.00000000  1
  Hg  Hg69  1  0.50000000  0.50000000  -0.00000000  1
  Hg  Hg70  1  0.50000000  0.25000000  -0.00000000  1
  Hg  Hg71  1  0.50000000  -0.00000000  -0.00000000  1
  Hg  Hg72  1  0.25000000  0.75000000  -0.00000000  1
  Hg  Hg73  1  0.25000000  0.50000000  -0.00000000  1
  Hg  Hg74  1  0.25000000  0.25000000  -0.00000000  1
  Hg  Hg75  1  0.25000000  -0.00000000  -0.00000000  1
  Hg  Hg76  1  -0.00000000  0.75000000  -0.00000000  1
  Hg  Hg77  1  -0.00000000  0.50000000  -0.00000000  1
  Hg  Hg78  1  -0.00000000  0.25000000  -0.00000000  1
  Hg  Hg79  1  -0.00000000  -0.00000000  -0.00000000  1
  Hg  Hg80  1  0.62500000  0.62500000  0.50000000  1
  Hg  Hg81  1  0.62500000  0.37500000  0.50000000  1
  Hg  Hg82  1  0.62500000  0.12500000  0.50000000  1
  Hg  Hg83  1  0.62500000  -0.12500000  0.50000000  1
  Hg  Hg84  1  0.37500000  0.62500000  0.50000000  1
  Hg  Hg85  1  0.37500000  0.37500000  0.50000000  1
  Hg  Hg86  1  0.37500000  0.12500000  0.50000000  1
  Hg  Hg87  1  0.37500000  -0.12500000  0.50000000  1
  Hg  Hg88  1  0.12500000  0.62500000  0.50000000  1
  Hg  Hg89  1  0.12500000  0.37500000  0.50000000  1
  Hg  Hg90  1  0.12500000  0.12500000  0.50000000  1
  Hg  Hg91  1  0.12500000  -0.12500000  0.50000000  1
  Hg  Hg92  1  -0.12500000  0.62500000  0.50000000  1
  Hg  Hg93  1  -0.12500000  0.37500000  0.50000000  1
  Hg  Hg94  1  -0.12500000  0.12500000  0.50000000  1
  Hg  Hg95  1  -0.12500000  -0.12500000  0.50000000  1
  O  O96  1  0.75000000  0.75000000  0.85008314  1
  O  O97  1  0.75000000  0.50000000  0.85008314  1
  O  O98  1  0.75000000  0.25000000  0.85008314  1
  O  O99  1  0.75000000  -0.00000000  0.85008314  1
  O  O100  1  0.50000000  0.75000000  0.85008314  1
  O  O101  1  0.50000000  0.50000000  0.85008314  1
  O  O102  1  0.50000000  0.25000000  0.85008314  1
  O  O103  1  0.50000000  -0.00000000  0.85008314  1
  O  O104  1  0.25000000  0.75000000  0.85008314  1
  O  O105  1  0.25000000  0.50000000  0.85008314  1
  O  O106  1  0.25000000  0.25000000  0.85008314  1
  O  O107  1  0.25000000  -0.00000000  0.85008314  1
  O  O108  1  -0.00000000  0.75000000  0.85008314  1
  O  O109  1  -0.00000000  0.50000000  0.85008314  1
  O  O110  1  -0.00000000  0.25000000  0.85008314  1
  O  O111  1  -0.00000000  -0.00000000  0.85008314  1
  O  O112  1  0.62500000  0.62500000  1.35008314  1
  O  O113  1  0.62500000  0.37500000  1.35008314  1
  O  O114  1  0.62500000  0.12500000  1.35008314  1
  O  O115  1  0.62500000  -0.12500000  1.35008314  1
  O  O116  1  0.37500000  0.62500000  1.35008314  1
  O  O117  1  0.37500000  0.37500000  1.35008314  1
  O  O118  1  0.37500000  0.12500000  1.35008314  1
  O  O119  1  0.37500000  -0.12500000  1.35008314  1
  O  O120  1  0.12500000  0.62500000  1.35008314  1
  O  O121  1  0.12500000  0.37500000  1.35008314  1
  O  O122  1  0.12500000  0.12500000  1.35008314  1
  O  O123  1  0.12500000  -0.12500000  1.35008314  1
  O  O124  1  -0.12500000  0.62500000  1.35008314  1
  O  O125  1  -0.12500000  0.37500000  1.35008314  1
  O  O126  1  -0.12500000  0.12500000  1.35008314  1
  O  O127  1  -0.12500000  -0.12500000  1.35008314  1
  O  O128  1  0.75000000  0.75000000  0.14991686  1
  O  O129  1  0.75000000  0.50000000  0.14991686  1
  O  O130  1  0.75000000  0.25000000  0.14991686  1
  O  O131  1  0.75000000  -0.00000000  0.14991686  1
  O  O132  1  0.50000000  0.75000000  0.14991686  1
  O  O133  1  0.50000000  0.50000000  0.14991686  1
  O  O134  1  0.50000000  0.25000000  0.14991686  1
  O  O135  1  0.50000000  -0.00000000  0.14991686  1
  O  O136  1  0.25000000  0.75000000  0.14991686  1
  O  O137  1  0.25000000  0.50000000  0.14991686  1
  O  O138  1  0.25000000  0.25000000  0.14991686  1
  O  O139  1  0.25000000  -0.00000000  0.14991686  1
  O  O140  1  -0.00000000  0.75000000  0.14991686  1
  O  O141  1  -0.00000000  0.50000000  0.14991686  1
  O  O142  1  -0.00000000  0.25000000  0.14991686  1
  O  O143  1  -0.00000000  -0.00000000  0.14991686  1
  O  O144  1  0.62500000  0.62500000  0.64991686  1
  O  O145  1  0.62500000  0.37500000  0.64991686  1
  O  O146  1  0.62500000  0.12500000  0.64991686  1
  O  O147  1  0.62500000  -0.12500000  0.64991686  1
  O  O148  1  0.37500000  0.62500000  0.64991686  1
  O  O149  1  0.37500000  0.37500000  0.64991686  1
  O  O150  1  0.37500000  0.12500000  0.64991686  1
  O  O151  1  0.37500000  -0.12500000  0.64991686  1
  O  O152  1  0.12500000  0.62500000  0.64991686  1
  O  O153  1  0.12500000  0.37500000  0.64991686  1
  O  O154  1  0.12500000  0.12500000  0.64991686  1
  O  O155  1  0.12500000  -0.12500000  0.64991686  1
  O  O156  1  -0.12500000  0.62500000  0.64991686  1
  O  O157  1  -0.12500000  0.37500000  0.64991686  1
  O  O158  1  -0.12500000  0.12500000  0.64991686  1
  O  O159  1  -0.12500000  -0.12500000  0.64991686  1
