# generated using pymatgen
data_Ca3CdO4
_symmetry_space_group_name_H-M   'P 1'
_cell_length_a   20.03430075
_cell_length_b   18.98551091
_cell_length_c   16.84770087
_cell_angle_alpha   90.00000000
_cell_angle_beta   90.00000000
_cell_angle_gamma   90.00000000
_symmetry_Int_Tables_number   1
_chemical_formula_structural   Ca3CdO4
_chemical_formula_sum   'Ca180 Cd60 O240'
_cell_volume   6408.21568927
_cell_formula_units_Z   60
loop_
 _symmetry_equiv_pos_site_id
 _symmetry_equiv_pos_as_xyz
  1  'x, y, z'
loop_
 _atom_site_type_symbol
 _atom_site_label
 _atom_site_symmetry_multiplicity
 _atom_site_fract_x
 _atom_site_fract_y
 _atom_site_fract_z
 _atom_site_occupancy
  Ca  Ca0  1  0.16666667  0.00000000  0.00000000  1
  Ca  Ca1  1  0.16666667  0.00000000  0.20000000  1
  Ca  Ca2  1  0.16666667  0.00000000  0.40000000  1
  Ca  Ca3  1  0.16666667  0.00000000  0.60000000  1
  Ca  Ca4  1  0.16666667  0.00000000  0.80000000  1
  Ca  Ca5  1  0.16666667  0.50000000  0.00000000  1
  Ca  Ca6  1  0.16666667  0.50000000  0.20000000  1
  Ca  Ca7  1  0.16666667  0.50000000  0.40000000  1
  Ca  Ca8  1  0.16666667  0.50000000  0.60000000  1
  Ca  Ca9  1  0.16666667  0.50000000  0.80000000  1
  Ca  Ca10  1  0.50000000  0.00000000  0.00000000  1
  Ca  Ca11  1  0.50000000  0.00000000  0.20000000  1
  Ca  Ca12  1  0.50000000  0.00000000  0.40000000  1
  Ca  Ca13  1  0.50000000  0.00000000  0.60000000  1
  Ca  Ca14  1  0.50000000  0.00000000  0.80000000  1
  Ca  Ca15  1  0.50000000  0.50000000  0.00000000  1
  Ca  Ca16  1  0.50000000  0.50000000  0.20000000  1
  Ca  Ca17  1  0.50000000  0.50000000  0.40000000  1
  Ca  Ca18  1  0.50000000  0.50000000  0.60000000  1
  Ca  Ca19  1  0.50000000  0.50000000  0.80000000  1
  Ca  Ca20  1  0.83333333  0.00000000  0.00000000  1
  Ca  Ca21  1  0.83333333  0.00000000  0.20000000  1
  Ca  Ca22  1  0.83333333  0.00000000  0.40000000  1
  Ca  Ca23  1  0.83333333  0.00000000  0.60000000  1
  Ca  Ca24  1  0.83333333  0.00000000  0.80000000  1
  Ca  Ca25  1  0.83333333  0.50000000  0.00000000  1
  Ca  Ca26  1  0.83333333  0.50000000  0.20000000  1
  Ca  Ca27  1  0.83333333  0.50000000  0.40000000  1
  Ca  Ca28  1  0.83333333  0.50000000  0.60000000  1
  Ca  Ca29  1  0.83333333  0.50000000  0.80000000  1
  Ca  Ca30  1  0.33333333  0.25000000  0.00000000  1
  Ca  Ca31  1  0.33333333  0.25000000  0.20000000  1
  Ca  Ca32  1  0.33333333  0.25000000  0.40000000  1
  Ca  Ca33  1  0.33333333  0.25000000  0.60000000  1
  Ca  Ca34  1  0.33333333  0.25000000  0.80000000  1
  Ca  Ca35  1  0.33333333  0.75000000  0.00000000  1
  Ca  Ca36  1  0.33333333  0.75000000  0.20000000  1
  Ca  Ca37  1  0.33333333  0.75000000  0.40000000  1
  Ca  Ca38  1  0.33333333  0.75000000  0.60000000  1
  Ca  Ca39  1  0.33333333  0.75000000  0.80000000  1
  Ca  Ca40  1  0.66666667  0.25000000  0.00000000  1
  Ca  Ca41  1  0.66666667  0.25000000  0.20000000  1
  Ca  Ca42  1  0.66666667  0.25000000  0.40000000  1
  Ca  Ca43  1  0.66666667  0.25000000  0.60000000  1
  Ca  Ca44  1  0.66666667  0.25000000  0.80000000  1
  Ca  Ca45  1  0.66666667  0.75000000  0.00000000  1
  Ca  Ca46  1  0.66666667  0.75000000  0.20000000  1
  Ca  Ca47  1  0.66666667  0.75000000  0.40000000  1
  Ca  Ca48  1  0.66666667  0.75000000  0.60000000  1
  Ca  Ca49  1  0.66666667  0.75000000  0.80000000  1
  Ca  Ca50  1  1.00000000  0.25000000  0.00000000  1
  Ca  Ca51  1  1.00000000  0.25000000  0.20000000  1
  Ca  Ca52  1  1.00000000  0.25000000  0.40000000  1
  Ca  Ca53  1  1.00000000  0.25000000  0.60000000  1
  Ca  Ca54  1  1.00000000  0.25000000  0.80000000  1
  Ca  Ca55  1  1.00000000  0.75000000  0.00000000  1
  Ca  Ca56  1  1.00000000  0.75000000  0.20000000  1
  Ca  Ca57  1  1.00000000  0.75000000  0.40000000  1
  Ca  Ca58  1  1.00000000  0.75000000  0.60000000  1
  Ca  Ca59  1  1.00000000  0.75000000  0.80000000  1
  Ca  Ca60  1  0.08333333  0.12500000  0.10000000  1
  Ca  Ca61  1  0.08333333  0.12500000  0.30000000  1
  Ca  Ca62  1  0.08333333  0.12500000  0.50000000  1
  Ca  Ca63  1  0.08333333  0.12500000  0.70000000  1
  Ca  Ca64  1  0.08333333  0.12500000  0.90000000  1
  Ca  Ca65  1  0.08333333  0.62500000  0.10000000  1
  Ca  Ca66  1  0.08333333  0.62500000  0.30000000  1
  Ca  Ca67  1  0.08333333  0.62500000  0.50000000  1
  Ca  Ca68  1  0.08333333  0.62500000  0.70000000  1
  Ca  Ca69  1  0.08333333  0.62500000  0.90000000  1
  Ca  Ca70  1  0.41666667  0.12500000  0.10000000  1
  Ca  Ca71  1  0.41666667  0.12500000  0.30000000  1
  Ca  Ca72  1  0.41666667  0.12500000  0.50000000  1
  Ca  Ca73  1  0.41666667  0.12500000  0.70000000  1
  Ca  Ca74  1  0.41666667  0.12500000  0.90000000  1
  Ca  Ca75  1  0.41666667  0.62500000  0.10000000  1
  Ca  Ca76  1  0.41666667  0.62500000  0.30000000  1
  Ca  Ca77  1  0.41666667  0.62500000  0.50000000  1
  Ca  Ca78  1  0.41666667  0.62500000  0.70000000  1
  Ca  Ca79  1  0.41666667  0.62500000  0.90000000  1
  Ca  Ca80  1  0.75000000  0.12500000  0.10000000  1
  Ca  Ca81  1  0.75000000  0.12500000  0.30000000  1
  Ca  Ca82  1  0.75000000  0.12500000  0.50000000  1
  Ca  Ca83  1  0.75000000  0.12500000  0.70000000  1
  Ca  Ca84  1  0.75000000  0.12500000  0.90000000  1
  Ca  Ca85  1  0.75000000  0.62500000  0.10000000  1
  Ca  Ca86  1  0.75000000  0.62500000  0.30000000  1
  Ca  Ca87  1  0.75000000  0.62500000  0.50000000  1
  Ca  Ca88  1  0.75000000  0.62500000  0.70000000  1
  Ca  Ca89  1  0.75000000  0.62500000  0.90000000  1
  Ca  Ca90  1  0.25000000  0.37500000  0.10000000  1
  Ca  Ca91  1  0.25000000  0.37500000  0.30000000  1
  Ca  Ca92  1  0.25000000  0.37500000  0.50000000  1
  Ca  Ca93  1  0.25000000  0.37500000  0.70000000  1
  Ca  Ca94  1  0.25000000  0.37500000  0.90000000  1
  Ca  Ca95  1  0.25000000  0.87500000  0.10000000  1
  Ca  Ca96  1  0.25000000  0.87500000  0.30000000  1
  Ca  Ca97  1  0.25000000  0.87500000  0.50000000  1
  Ca  Ca98  1  0.25000000  0.87500000  0.70000000  1
  Ca  Ca99  1  0.25000000  0.87500000  0.90000000  1
  Ca  Ca100  1  0.58333333  0.37500000  0.10000000  1
  Ca  Ca101  1  0.58333333  0.37500000  0.30000000  1
  Ca  Ca102  1  0.58333333  0.37500000  0.50000000  1
  Ca  Ca103  1  0.58333333  0.37500000  0.70000000  1
  Ca  Ca104  1  0.58333333  0.37500000  0.90000000  1
  Ca  Ca105  1  0.58333333  0.87500000  0.10000000  1
  Ca  Ca106  1  0.58333333  0.87500000  0.30000000  1
  Ca  Ca107  1  0.58333333  0.87500000  0.50000000  1
  Ca  Ca108  1  0.58333333  0.87500000  0.70000000  1
  Ca  Ca109  1  0.58333333  0.87500000  0.90000000  1
  Ca  Ca110  1  0.91666667  0.37500000  0.10000000  1
  Ca  Ca111  1  0.91666667  0.37500000  0.30000000  1
  Ca  Ca112  1  0.91666667  0.37500000  0.50000000  1
  Ca  Ca113  1  0.91666667  0.37500000  0.70000000  1
  Ca  Ca114  1  0.91666667  0.37500000  0.90000000  1
  Ca  Ca115  1  0.91666667  0.87500000  0.10000000  1
  Ca  Ca116  1  0.91666667  0.87500000  0.30000000  1
  Ca  Ca117  1  0.91666667  0.87500000  0.50000000  1
  Ca  Ca118  1  0.91666667  0.87500000  0.70000000  1
  Ca  Ca119  1  0.91666667  0.87500000  0.90000000  1
  Ca  Ca120  1  0.08333333  -0.12500000  0.10000000  1
  Ca  Ca121  1  0.08333333  -0.12500000  0.30000000  1
  Ca  Ca122  1  0.08333333  -0.12500000  0.50000000  1
  Ca  Ca123  1  0.08333333  -0.12500000  0.70000000  1
  Ca  Ca124  1  0.08333333  -0.12500000  0.90000000  1
  Ca  Ca125  1  0.08333333  0.37500000  0.10000000  1
  Ca  Ca126  1  0.08333333  0.37500000  0.30000000  1
  Ca  Ca127  1  0.08333333  0.37500000  0.50000000  1
  Ca  Ca128  1  0.08333333  0.37500000  0.70000000  1
  Ca  Ca129  1  0.08333333  0.37500000  0.90000000  1
  Ca  Ca130  1  0.41666667  -0.12500000  0.10000000  1
  Ca  Ca131  1  0.41666667  -0.12500000  0.30000000  1
  Ca  Ca132  1  0.41666667  -0.12500000  0.50000000  1
  Ca  Ca133  1  0.41666667  -0.12500000  0.70000000  1
  Ca  Ca134  1  0.41666667  -0.12500000  0.90000000  1
  Ca  Ca135  1  0.41666667  0.37500000  0.10000000  1
  Ca  Ca136  1  0.41666667  0.37500000  0.30000000  1
  Ca  Ca137  1  0.41666667  0.37500000  0.50000000  1
  Ca  Ca138  1  0.41666667  0.37500000  0.70000000  1
  Ca  Ca139  1  0.41666667  0.37500000  0.90000000  1
  Ca  Ca140  1  0.75000000  -0.12500000  0.10000000  1
  Ca  Ca141  1  0.75000000  -0.12500000  0.30000000  1
  Ca  Ca142  1  0.75000000  -0.12500000  0.50000000  1
  Ca  Ca143  1  0.75000000  -0.12500000  0.70000000  1
  Ca  Ca144  1  0.75000000  -0.12500000  0.90000000  1
  Ca  Ca145  1  0.75000000  0.37500000  0.10000000  1
  Ca  Ca146  1  0.75000000  0.37500000  0.30000000  1
  Ca  Ca147  1  0.75000000  0.37500000  0.50000000  1
  Ca  Ca148  1  0.75000000  0.37500000  0.70000000  1
  Ca  Ca149  1  0.75000000  0.37500000  0.90000000  1
  Ca  Ca150  1  0.25000000  0.12500000  0.10000000  1
  Ca  Ca151  1  0.25000000  0.12500000  0.30000000  1
  Ca  Ca152  1  0.25000000  0.12500000  0.50000000  1
  Ca  Ca153  1  0.25000000  0.12500000  0.70000000  1
  Ca  Ca154  1  0.25000000  0.12500000  0.90000000  1
  Ca  Ca155  1  0.25000000  0.62500000  0.10000000  1
  Ca  Ca156  1  0.25000000  0.62500000  0.30000000  1
  Ca  Ca157  1  0.25000000  0.62500000  0.50000000  1
  Ca  Ca158  1  0.25000000  0.62500000  0.70000000  1
  Ca  Ca159  1  0.25000000  0.62500000  0.90000000  1
  Ca  Ca160  1  0.58333333  0.12500000  0.10000000  1
  Ca  Ca161  1  0.58333333  0.12500000  0.30000000  1
  Ca  Ca162  1  0.58333333  0.12500000  0.50000000  1
  Ca  Ca163  1  0.58333333  0.12500000  0.70000000  1
  Ca  Ca164  1  0.58333333  0.12500000  0.90000000  1
  Ca  Ca165  1  0.58333333  0.62500000  0.10000000  1
  Ca  Ca166  1  0.58333333  0.62500000  0.30000000  1
  Ca  Ca167  1  0.58333333  0.62500000  0.50000000  1
  Ca  Ca168  1  0.58333333  0.62500000  0.70000000  1
  Ca  Ca169  1  0.58333333  0.62500000  0.90000000  1
  Ca  Ca170  1  0.91666667  0.12500000  0.10000000  1
  Ca  Ca171  1  0.91666667  0.12500000  0.30000000  1
  Ca  Ca172  1  0.91666667  0.12500000  0.50000000  1
  Ca  Ca173  1  0.91666667  0.12500000  0.70000000  1
  Ca  Ca174  1  0.91666667  0.12500000  0.90000000  1
  Ca  Ca175  1  0.91666667  0.62500000  0.10000000  1
  Ca  Ca176  1  0.91666667  0.62500000  0.30000000  1
  Ca  Ca177  1  0.91666667  0.62500000  0.50000000  1
  Ca  Ca178  1  0.91666667  0.62500000  0.70000000  1
  Ca  Ca179  1  0.91666667  0.62500000  0.90000000  1
  Cd  Cd180  1  0.00000000  0.00000000  0.00000000  1
  Cd  Cd181  1  0.00000000  0.00000000  0.20000000  1
  Cd  Cd182  1  0.00000000  0.00000000  0.40000000  1
  Cd  Cd183  1  0.00000000  0.00000000  0.60000000  1
  Cd  Cd184  1  0.00000000  0.00000000  0.80000000  1
  Cd  Cd185  1  0.00000000  0.50000000  0.00000000  1
  Cd  Cd186  1  0.00000000  0.50000000  0.20000000  1
  Cd  Cd187  1  0.00000000  0.50000000  0.40000000  1
  Cd  Cd188  1  0.00000000  0.50000000  0.60000000  1
  Cd  Cd189  1  0.00000000  0.50000000  0.80000000  1
  Cd  Cd190  1  0.33333333  0.00000000  0.00000000  1
  Cd  Cd191  1  0.33333333  0.00000000  0.20000000  1
  Cd  Cd192  1  0.33333333  0.00000000  0.40000000  1
  Cd  Cd193  1  0.33333333  0.00000000  0.60000000  1
  Cd  Cd194  1  0.33333333  0.00000000  0.80000000  1
  Cd  Cd195  1  0.33333333  0.50000000  0.00000000  1
  Cd  Cd196  1  0.33333333  0.50000000  0.20000000  1
  Cd  Cd197  1  0.33333333  0.50000000  0.40000000  1
  Cd  Cd198  1  0.33333333  0.50000000  0.60000000  1
  Cd  Cd199  1  0.33333333  0.50000000  0.80000000  1
  Cd  Cd200  1  0.66666667  0.00000000  0.00000000  1
  Cd  Cd201  1  0.66666667  0.00000000  0.20000000  1
  Cd  Cd202  1  0.66666667  0.00000000  0.40000000  1
  Cd  Cd203  1  0.66666667  0.00000000  0.60000000  1
  Cd  Cd204  1  0.66666667  0.00000000  0.80000000  1
  Cd  Cd205  1  0.66666667  0.50000000  0.00000000  1
  Cd  Cd206  1  0.66666667  0.50000000  0.20000000  1
  Cd  Cd207  1  0.66666667  0.50000000  0.40000000  1
  Cd  Cd208  1  0.66666667  0.50000000  0.60000000  1
  Cd  Cd209  1  0.66666667  0.50000000  0.80000000  1
  Cd  Cd210  1  0.16666667  0.25000000  0.00000000  1
  Cd  Cd211  1  0.16666667  0.25000000  0.20000000  1
  Cd  Cd212  1  0.16666667  0.25000000  0.40000000  1
  Cd  Cd213  1  0.16666667  0.25000000  0.60000000  1
  Cd  Cd214  1  0.16666667  0.25000000  0.80000000  1
  Cd  Cd215  1  0.16666667  0.75000000  0.00000000  1
  Cd  Cd216  1  0.16666667  0.75000000  0.20000000  1
  Cd  Cd217  1  0.16666667  0.75000000  0.40000000  1
  Cd  Cd218  1  0.16666667  0.75000000  0.60000000  1
  Cd  Cd219  1  0.16666667  0.75000000  0.80000000  1
  Cd  Cd220  1  0.50000000  0.25000000  0.00000000  1
  Cd  Cd221  1  0.50000000  0.25000000  0.20000000  1
  Cd  Cd222  1  0.50000000  0.25000000  0.40000000  1
  Cd  Cd223  1  0.50000000  0.25000000  0.60000000  1
  Cd  Cd224  1  0.50000000  0.25000000  0.80000000  1
  Cd  Cd225  1  0.50000000  0.75000000  0.00000000  1
  Cd  Cd226  1  0.50000000  0.75000000  0.20000000  1
  Cd  Cd227  1  0.50000000  0.75000000  0.40000000  1
  Cd  Cd228  1  0.50000000  0.75000000  0.60000000  1
  Cd  Cd229  1  0.50000000  0.75000000  0.80000000  1
  Cd  Cd230  1  0.83333333  0.25000000  0.00000000  1
  Cd  Cd231  1  0.83333333  0.25000000  0.20000000  1
  Cd  Cd232  1  0.83333333  0.25000000  0.40000000  1
  Cd  Cd233  1  0.83333333  0.25000000  0.60000000  1
  Cd  Cd234  1  0.83333333  0.25000000  0.80000000  1
  Cd  Cd235  1  0.83333333  0.75000000  0.00000000  1
  Cd  Cd236  1  0.83333333  0.75000000  0.20000000  1
  Cd  Cd237  1  0.83333333  0.75000000  0.40000000  1
  Cd  Cd238  1  0.83333333  0.75000000  0.60000000  1
  Cd  Cd239  1  0.83333333  0.75000000  0.80000000  1
  O  O240  1  0.16666667  0.12313548  0.00000000  1
  O  O241  1  0.16666667  0.12313548  0.20000000  1
  O  O242  1  0.16666667  0.12313548  0.40000000  1
  O  O243  1  0.16666667  0.12313548  0.60000000  1
  O  O244  1  0.16666667  0.12313548  0.80000000  1
  O  O245  1  0.16666667  0.62313548  0.00000000  1
  O  O246  1  0.16666667  0.62313548  0.20000000  1
  O  O247  1  0.16666667  0.62313548  0.40000000  1
  O  O248  1  0.16666667  0.62313548  0.60000000  1
  O  O249  1  0.16666667  0.62313548  0.80000000  1
  O  O250  1  0.50000000  0.12313548  0.00000000  1
  O  O251  1  0.50000000  0.12313548  0.20000000  1
  O  O252  1  0.50000000  0.12313548  0.40000000  1
  O  O253  1  0.50000000  0.12313548  0.60000000  1
  O  O254  1  0.50000000  0.12313548  0.80000000  1
  O  O255  1  0.50000000  0.62313548  0.00000000  1
  O  O256  1  0.50000000  0.62313548  0.20000000  1
  O  O257  1  0.50000000  0.62313548  0.40000000  1
  O  O258  1  0.50000000  0.62313548  0.60000000  1
  O  O259  1  0.50000000  0.62313548  0.80000000  1
  O  O260  1  0.83333333  0.12313548  0.00000000  1
  O  O261  1  0.83333333  0.12313548  0.20000000  1
  O  O262  1  0.83333333  0.12313548  0.40000000  1
  O  O263  1  0.83333333  0.12313548  0.60000000  1
  O  O264  1  0.83333333  0.12313548  0.80000000  1
  O  O265  1  0.83333333  0.62313548  0.00000000  1
  O  O266  1  0.83333333  0.62313548  0.20000000  1
  O  O267  1  0.83333333  0.62313548  0.40000000  1
  O  O268  1  0.83333333  0.62313548  0.60000000  1
  O  O269  1  0.83333333  0.62313548  0.80000000  1
  O  O270  1  0.33333333  0.37313548  0.00000000  1
  O  O271  1  0.33333333  0.37313548  0.20000000  1
  O  O272  1  0.33333333  0.37313548  0.40000000  1
  O  O273  1  0.33333333  0.37313548  0.60000000  1
  O  O274  1  0.33333333  0.37313548  0.80000000  1
  O  O275  1  0.33333333  0.87313548  0.00000000  1
  O  O276  1  0.33333333  0.87313548  0.20000000  1
  O  O277  1  0.33333333  0.87313548  0.40000000  1
  O  O278  1  0.33333333  0.87313548  0.60000000  1
  O  O279  1  0.33333333  0.87313548  0.80000000  1
  O  O280  1  0.66666667  0.37313548  0.00000000  1
  O  O281  1  0.66666667  0.37313548  0.20000000  1
  O  O282  1  0.66666667  0.37313548  0.40000000  1
  O  O283  1  0.66666667  0.37313548  0.60000000  1
  O  O284  1  0.66666667  0.37313548  0.80000000  1
  O  O285  1  0.66666667  0.87313548  0.00000000  1
  O  O286  1  0.66666667  0.87313548  0.20000000  1
  O  O287  1  0.66666667  0.87313548  0.40000000  1
  O  O288  1  0.66666667  0.87313548  0.60000000  1
  O  O289  1  0.66666667  0.87313548  0.80000000  1
  O  O290  1  1.00000000  0.37313548  0.00000000  1
  O  O291  1  1.00000000  0.37313548  0.20000000  1
  O  O292  1  1.00000000  0.37313548  0.40000000  1
  O  O293  1  1.00000000  0.37313548  0.60000000  1
  O  O294  1  1.00000000  0.37313548  0.80000000  1
  O  O295  1  1.00000000  0.87313548  0.00000000  1
  O  O296  1  1.00000000  0.87313548  0.20000000  1
  O  O297  1  1.00000000  0.87313548  0.40000000  1
  O  O298  1  1.00000000  0.87313548  0.60000000  1
  O  O299  1  1.00000000  0.87313548  0.80000000  1
  O  O300  1  0.24874993  0.00000000  0.10000000  1
  O  O301  1  0.24874993  0.00000000  0.30000000  1
  O  O302  1  0.24874993  0.00000000  0.50000000  1
  O  O303  1  0.24874993  0.00000000  0.70000000  1
  O  O304  1  0.24874993  0.00000000  0.90000000  1
  O  O305  1  0.24874993  0.50000000  0.10000000  1
  O  O306  1  0.24874993  0.50000000  0.30000000  1
  O  O307  1  0.24874993  0.50000000  0.50000000  1
  O  O308  1  0.24874993  0.50000000  0.70000000  1
  O  O309  1  0.24874993  0.50000000  0.90000000  1
  O  O310  1  0.58208326  0.00000000  0.10000000  1
  O  O311  1  0.58208326  0.00000000  0.30000000  1
  O  O312  1  0.58208326  0.00000000  0.50000000  1
  O  O313  1  0.58208326  0.00000000  0.70000000  1
  O  O314  1  0.58208326  0.00000000  0.90000000  1
  O  O315  1  0.58208326  0.50000000  0.10000000  1
  O  O316  1  0.58208326  0.50000000  0.30000000  1
  O  O317  1  0.58208326  0.50000000  0.50000000  1
  O  O318  1  0.58208326  0.50000000  0.70000000  1
  O  O319  1  0.58208326  0.50000000  0.90000000  1
  O  O320  1  0.91541659  0.00000000  0.10000000  1
  O  O321  1  0.91541659  0.00000000  0.30000000  1
  O  O322  1  0.91541659  0.00000000  0.50000000  1
  O  O323  1  0.91541659  0.00000000  0.70000000  1
  O  O324  1  0.91541659  0.00000000  0.90000000  1
  O  O325  1  0.91541659  0.50000000  0.10000000  1
  O  O326  1  0.91541659  0.50000000  0.30000000  1
  O  O327  1  0.91541659  0.50000000  0.50000000  1
  O  O328  1  0.91541659  0.50000000  0.70000000  1
  O  O329  1  0.91541659  0.50000000  0.90000000  1
  O  O330  1  0.41541659  0.25000000  0.10000000  1
  O  O331  1  0.41541659  0.25000000  0.30000000  1
  O  O332  1  0.41541659  0.25000000  0.50000000  1
  O  O333  1  0.41541659  0.25000000  0.70000000  1
  O  O334  1  0.41541659  0.25000000  0.90000000  1
  O  O335  1  0.41541659  0.75000000  0.10000000  1
  O  O336  1  0.41541659  0.75000000  0.30000000  1
  O  O337  1  0.41541659  0.75000000  0.50000000  1
  O  O338  1  0.41541659  0.75000000  0.70000000  1
  O  O339  1  0.41541659  0.75000000  0.90000000  1
  O  O340  1  0.74874993  0.25000000  0.10000000  1
  O  O341  1  0.74874993  0.25000000  0.30000000  1
  O  O342  1  0.74874993  0.25000000  0.50000000  1
  O  O343  1  0.74874993  0.25000000  0.70000000  1
  O  O344  1  0.74874993  0.25000000  0.90000000  1
  O  O345  1  0.74874993  0.75000000  0.10000000  1
  O  O346  1  0.74874993  0.75000000  0.30000000  1
  O  O347  1  0.74874993  0.75000000  0.50000000  1
  O  O348  1  0.74874993  0.75000000  0.70000000  1
  O  O349  1  0.74874993  0.75000000  0.90000000  1
  O  O350  1  1.08208326  0.25000000  0.10000000  1
  O  O351  1  1.08208326  0.25000000  0.30000000  1
  O  O352  1  1.08208326  0.25000000  0.50000000  1
  O  O353  1  1.08208326  0.25000000  0.70000000  1
  O  O354  1  1.08208326  0.25000000  0.90000000  1
  O  O355  1  1.08208326  0.75000000  0.10000000  1
  O  O356  1  1.08208326  0.75000000  0.30000000  1
  O  O357  1  1.08208326  0.75000000  0.50000000  1
  O  O358  1  1.08208326  0.75000000  0.70000000  1
  O  O359  1  1.08208326  0.75000000  0.90000000  1
  O  O360  1  0.08458341  -0.00000000  0.10000000  1
  O  O361  1  0.08458341  -0.00000000  0.30000000  1
  O  O362  1  0.08458341  -0.00000000  0.50000000  1
  O  O363  1  0.08458341  -0.00000000  0.70000000  1
  O  O364  1  0.08458341  -0.00000000  0.90000000  1
  O  O365  1  0.08458341  0.50000000  0.10000000  1
  O  O366  1  0.08458341  0.50000000  0.30000000  1
  O  O367  1  0.08458341  0.50000000  0.50000000  1
  O  O368  1  0.08458341  0.50000000  0.70000000  1
  O  O369  1  0.08458341  0.50000000  0.90000000  1
  O  O370  1  0.41791674  -0.00000000  0.10000000  1
  O  O371  1  0.41791674  -0.00000000  0.30000000  1
  O  O372  1  0.41791674  -0.00000000  0.50000000  1
  O  O373  1  0.41791674  -0.00000000  0.70000000  1
  O  O374  1  0.41791674  -0.00000000  0.90000000  1
  O  O375  1  0.41791674  0.50000000  0.10000000  1
  O  O376  1  0.41791674  0.50000000  0.30000000  1
  O  O377  1  0.41791674  0.50000000  0.50000000  1
  O  O378  1  0.41791674  0.50000000  0.70000000  1
  O  O379  1  0.41791674  0.50000000  0.90000000  1
  O  O380  1  0.75125007  -0.00000000  0.10000000  1
  O  O381  1  0.75125007  -0.00000000  0.30000000  1
  O  O382  1  0.75125007  -0.00000000  0.50000000  1
  O  O383  1  0.75125007  -0.00000000  0.70000000  1
  O  O384  1  0.75125007  -0.00000000  0.90000000  1
  O  O385  1  0.75125007  0.50000000  0.10000000  1
  O  O386  1  0.75125007  0.50000000  0.30000000  1
  O  O387  1  0.75125007  0.50000000  0.50000000  1
  O  O388  1  0.75125007  0.50000000  0.70000000  1
  O  O389  1  0.75125007  0.50000000  0.90000000  1
  O  O390  1  0.25125007  0.25000000  0.10000000  1
  O  O391  1  0.25125007  0.25000000  0.30000000  1
  O  O392  1  0.25125007  0.25000000  0.50000000  1
  O  O393  1  0.25125007  0.25000000  0.70000000  1
  O  O394  1  0.25125007  0.25000000  0.90000000  1
  O  O395  1  0.25125007  0.75000000  0.10000000  1
  O  O396  1  0.25125007  0.75000000  0.30000000  1
  O  O397  1  0.25125007  0.75000000  0.50000000  1
  O  O398  1  0.25125007  0.75000000  0.70000000  1
  O  O399  1  0.25125007  0.75000000  0.90000000  1
  O  O400  1  0.58458341  0.25000000  0.10000000  1
  O  O401  1  0.58458341  0.25000000  0.30000000  1
  O  O402  1  0.58458341  0.25000000  0.50000000  1
  O  O403  1  0.58458341  0.25000000  0.70000000  1
  O  O404  1  0.58458341  0.25000000  0.90000000  1
  O  O405  1  0.58458341  0.75000000  0.10000000  1
  O  O406  1  0.58458341  0.75000000  0.30000000  1
  O  O407  1  0.58458341  0.75000000  0.50000000  1
  O  O408  1  0.58458341  0.75000000  0.70000000  1
  O  O409  1  0.58458341  0.75000000  0.90000000  1
  O  O410  1  0.91791674  0.25000000  0.10000000  1
  O  O411  1  0.91791674  0.25000000  0.30000000  1
  O  O412  1  0.91791674  0.25000000  0.50000000  1
  O  O413  1  0.91791674  0.25000000  0.70000000  1
  O  O414  1  0.91791674  0.25000000  0.90000000  1
  O  O415  1  0.91791674  0.75000000  0.10000000  1
  O  O416  1  0.91791674  0.75000000  0.30000000  1
  O  O417  1  0.91791674  0.75000000  0.50000000  1
  O  O418  1  0.91791674  0.75000000  0.70000000  1
  O  O419  1  0.91791674  0.75000000  0.90000000  1
  O  O420  1  0.16666667  -0.12313548  0.00000000  1
  O  O421  1  0.16666667  -0.12313548  0.20000000  1
  O  O422  1  0.16666667  -0.12313548  0.40000000  1
  O  O423  1  0.16666667  -0.12313548  0.60000000  1
  O  O424  1  0.16666667  -0.12313548  0.80000000  1
  O  O425  1  0.16666667  0.37686452  0.00000000  1
  O  O426  1  0.16666667  0.37686452  0.20000000  1
  O  O427  1  0.16666667  0.37686452  0.40000000  1
  O  O428  1  0.16666667  0.37686452  0.60000000  1
  O  O429  1  0.16666667  0.37686452  0.80000000  1
  O  O430  1  0.50000000  -0.12313548  0.00000000  1
  O  O431  1  0.50000000  -0.12313548  0.20000000  1
  O  O432  1  0.50000000  -0.12313548  0.40000000  1
  O  O433  1  0.50000000  -0.12313548  0.60000000  1
  O  O434  1  0.50000000  -0.12313548  0.80000000  1
  O  O435  1  0.50000000  0.37686452  0.00000000  1
  O  O436  1  0.50000000  0.37686452  0.20000000  1
  O  O437  1  0.50000000  0.37686452  0.40000000  1
  O  O438  1  0.50000000  0.37686452  0.60000000  1
  O  O439  1  0.50000000  0.37686452  0.80000000  1
  O  O440  1  0.83333333  -0.12313548  0.00000000  1
  O  O441  1  0.83333333  -0.12313548  0.20000000  1
  O  O442  1  0.83333333  -0.12313548  0.40000000  1
  O  O443  1  0.83333333  -0.12313548  0.60000000  1
  O  O444  1  0.83333333  -0.12313548  0.80000000  1
  O  O445  1  0.83333333  0.37686452  0.00000000  1
  O  O446  1  0.83333333  0.37686452  0.20000000  1
  O  O447  1  0.83333333  0.37686452  0.40000000  1
  O  O448  1  0.83333333  0.37686452  0.60000000  1
  O  O449  1  0.83333333  0.37686452  0.80000000  1
  O  O450  1  0.33333333  0.12686452  0.00000000  1
  O  O451  1  0.33333333  0.12686452  0.20000000  1
  O  O452  1  0.33333333  0.12686452  0.40000000  1
  O  O453  1  0.33333333  0.12686452  0.60000000  1
  O  O454  1  0.33333333  0.12686452  0.80000000  1
  O  O455  1  0.33333333  0.62686452  0.00000000  1
  O  O456  1  0.33333333  0.62686452  0.20000000  1
  O  O457  1  0.33333333  0.62686452  0.40000000  1
  O  O458  1  0.33333333  0.62686452  0.60000000  1
  O  O459  1  0.33333333  0.62686452  0.80000000  1
  O  O460  1  0.66666667  0.12686452  0.00000000  1
  O  O461  1  0.66666667  0.12686452  0.20000000  1
  O  O462  1  0.66666667  0.12686452  0.40000000  1
  O  O463  1  0.66666667  0.12686452  0.60000000  1
  O  O464  1  0.66666667  0.12686452  0.80000000  1
  O  O465  1  0.66666667  0.62686452  0.00000000  1
  O  O466  1  0.66666667  0.62686452  0.20000000  1
  O  O467  1  0.66666667  0.62686452  0.40000000  1
  O  O468  1  0.66666667  0.62686452  0.60000000  1
  O  O469  1  0.66666667  0.62686452  0.80000000  1
  O  O470  1  1.00000000  0.12686452  0.00000000  1
  O  O471  1  1.00000000  0.12686452  0.20000000  1
  O  O472  1  1.00000000  0.12686452  0.40000000  1
  O  O473  1  1.00000000  0.12686452  0.60000000  1
  O  O474  1  1.00000000  0.12686452  0.80000000  1
  O  O475  1  1.00000000  0.62686452  0.00000000  1
  O  O476  1  1.00000000  0.62686452  0.20000000  1
  O  O477  1  1.00000000  0.62686452  0.40000000  1
  O  O478  1  1.00000000  0.62686452  0.60000000  1
  O  O479  1  1.00000000  0.62686452  0.80000000  1
