# generated using pymatgen
data_Na2TiSiO5
_symmetry_space_group_name_H-M   'P 1'
_cell_length_a   9.14412482
_cell_length_b   9.14412482
_cell_length_c   10.09951205
_cell_angle_alpha   90.00000000
_cell_angle_beta   90.00000000
_cell_angle_gamma   90.00000000
_symmetry_Int_Tables_number   1
_chemical_formula_structural   Na2TiSiO5
_chemical_formula_sum   'Na16 Ti8 Si8 O40'
_cell_volume   844.47089029
_cell_formula_units_Z   8
loop_
 _symmetry_equiv_pos_site_id
 _symmetry_equiv_pos_as_xyz
  1  'x, y, z'
loop_
 _atom_site_type_symbol
 _atom_site_label
 _atom_site_symmetry_multiplicity
 _atom_site_fract_x
 _atom_site_fract_y
 _atom_site_fract_z
 _atom_site_occupancy
  Na  Na0  1  0.25000000  0.00000000  0.25000000  1
  Na  Na1  1  0.25000000  0.00000000  0.75000000  1
  Na  Na2  1  0.75000000  0.50000000  0.25000000  1
  Na  Na3  1  0.75000000  0.50000000  0.75000000  1
  Na  Na4  1  0.50000000  -0.25000000  0.25000000  1
  Na  Na5  1  0.50000000  -0.25000000  0.75000000  1
  Na  Na6  1  1.00000000  0.25000000  0.25000000  1
  Na  Na7  1  1.00000000  0.25000000  0.75000000  1
  Na  Na8  1  0.50000000  0.25000000  0.25000000  1
  Na  Na9  1  0.50000000  0.25000000  0.75000000  1
  Na  Na10  1  1.00000000  0.75000000  0.25000000  1
  Na  Na11  1  1.00000000  0.75000000  0.75000000  1
  Na  Na12  1  0.75000000  0.00000000  0.25000000  1
  Na  Na13  1  0.75000000  0.00000000  0.75000000  1
  Na  Na14  1  1.25000000  0.50000000  0.25000000  1
  Na  Na15  1  1.25000000  0.50000000  0.75000000  1
  Ti  Ti16  1  0.25000000  0.25000000  0.03345624  1
  Ti  Ti17  1  0.25000000  0.25000000  0.53345624  1
  Ti  Ti18  1  0.75000000  0.75000000  0.03345624  1
  Ti  Ti19  1  0.75000000  0.75000000  0.53345624  1
  Ti  Ti20  1  0.25000000  -0.25000000  0.46654376  1
  Ti  Ti21  1  0.25000000  -0.25000000  0.96654376  1
  Ti  Ti22  1  0.75000000  0.25000000  0.46654376  1
  Ti  Ti23  1  0.75000000  0.25000000  0.96654376  1
  Si  Si24  1  0.00000000  0.00000000  0.00000000  1
  Si  Si25  1  0.00000000  0.00000000  0.50000000  1
  Si  Si26  1  0.50000000  0.50000000  0.00000000  1
  Si  Si27  1  0.50000000  0.50000000  0.50000000  1
  Si  Si28  1  0.50000000  0.00000000  0.00000000  1
  Si  Si29  1  0.50000000  0.00000000  0.50000000  1
  Si  Si30  1  1.00000000  0.50000000  0.00000000  1
  Si  Si31  1  1.00000000  0.50000000  0.50000000  1
  O  O32  1  0.25000000  0.25000000  0.36065449  1
  O  O33  1  0.25000000  0.25000000  0.86065449  1
  O  O34  1  0.75000000  0.75000000  0.36065449  1
  O  O35  1  0.75000000  0.75000000  0.86065449  1
  O  O36  1  0.25000000  -0.25000000  0.13934551  1
  O  O37  1  0.25000000  -0.25000000  0.63934551  1
  O  O38  1  0.75000000  0.25000000  0.13934551  1
  O  O39  1  0.75000000  0.25000000  0.63934551  1
  O  O40  1  0.39620328  0.10379672  0.09368317  1
  O  O41  1  0.39620328  0.10379672  0.59368317  1
  O  O42  1  0.89620328  0.60379672  0.09368317  1
  O  O43  1  0.89620328  0.60379672  0.59368317  1
  O  O44  1  0.60379672  -0.10379672  0.09368317  1
  O  O45  1  0.60379672  -0.10379672  0.59368317  1
  O  O46  1  1.10379672  0.39620328  0.09368317  1
  O  O47  1  1.10379672  0.39620328  0.59368317  1
  O  O48  1  0.39620328  0.39620328  0.09368317  1
  O  O49  1  0.39620328  0.39620328  0.59368317  1
  O  O50  1  0.89620328  0.89620328  0.09368317  1
  O  O51  1  0.89620328  0.89620328  0.59368317  1
  O  O52  1  0.10379672  0.10379672  0.09368317  1
  O  O53  1  0.10379672  0.10379672  0.59368317  1
  O  O54  1  0.60379672  0.60379672  0.09368317  1
  O  O55  1  0.60379672  0.60379672  0.59368317  1
  O  O56  1  0.39620328  -0.10379672  0.40631683  1
  O  O57  1  0.39620328  -0.10379672  0.90631683  1
  O  O58  1  0.89620328  0.39620328  0.40631683  1
  O  O59  1  0.89620328  0.39620328  0.90631683  1
  O  O60  1  0.39620328  -0.39620328  0.40631683  1
  O  O61  1  0.39620328  -0.39620328  0.90631683  1
  O  O62  1  0.89620328  0.10379672  0.40631683  1
  O  O63  1  0.89620328  0.10379672  0.90631683  1
  O  O64  1  0.60379672  0.10379672  0.40631683  1
  O  O65  1  0.60379672  0.10379672  0.90631683  1
  O  O66  1  1.10379672  0.60379672  0.40631683  1
  O  O67  1  1.10379672  0.60379672  0.90631683  1
  O  O68  1  0.10379672  -0.10379672  0.40631683  1
  O  O69  1  0.10379672  -0.10379672  0.90631683  1
  O  O70  1  0.60379672  0.39620328  0.40631683  1
  O  O71  1  0.60379672  0.39620328  0.90631683  1
