# generated using pymatgen
data_Cs2PbO2
_symmetry_space_group_name_H-M   'P 1'
_cell_length_a   23.44518128
_cell_length_b   24.14923221
_cell_length_c   21.70474662
_cell_angle_alpha   84.03497024
_cell_angle_beta   70.05063959
_cell_angle_gamma   61.13841988
_symmetry_Int_Tables_number   1
_chemical_formula_structural   Cs2PbO2
_chemical_formula_sum   'Cs144 Pb72 O144'
_cell_volume   10089.03645166
_cell_formula_units_Z   72
loop_
 _symmetry_equiv_pos_site_id
 _symmetry_equiv_pos_as_xyz
  1  'x, y, z'
loop_
 _atom_site_type_symbol
 _atom_site_label
 _atom_site_symmetry_multiplicity
 _atom_site_fract_x
 _atom_site_fract_y
 _atom_site_fract_z
 _atom_site_occupancy
  Cs  Cs0  1  0.08216731  0.08503344  0.24845868  1
  Cs  Cs1  1  0.08216731  0.08503344  0.74845868  1
  Cs  Cs2  1  0.08216731  0.41836677  0.24845868  1
  Cs  Cs3  1  0.08216731  0.41836677  0.74845868  1
  Cs  Cs4  1  0.08216731  0.75170010  0.24845868  1
  Cs  Cs5  1  0.08216731  0.75170010  0.74845868  1
  Cs  Cs6  1  0.41550065  0.08503344  0.24845868  1
  Cs  Cs7  1  0.41550065  0.08503344  0.74845868  1
  Cs  Cs8  1  0.41550065  0.41836677  0.24845868  1
  Cs  Cs9  1  0.41550065  0.41836677  0.74845868  1
  Cs  Cs10  1  0.41550065  0.75170010  0.24845868  1
  Cs  Cs11  1  0.41550065  0.75170010  0.74845868  1
  Cs  Cs12  1  0.74883398  0.08503344  0.24845868  1
  Cs  Cs13  1  0.74883398  0.08503344  0.74845868  1
  Cs  Cs14  1  0.74883398  0.41836677  0.24845868  1
  Cs  Cs15  1  0.74883398  0.41836677  0.74845868  1
  Cs  Cs16  1  0.74883398  0.75170010  0.24845868  1
  Cs  Cs17  1  0.74883398  0.75170010  0.74845868  1
  Cs  Cs18  1  0.02140383  0.31386150  0.09136645  1
  Cs  Cs19  1  0.02140383  0.31386150  0.59136645  1
  Cs  Cs20  1  0.02140383  0.64719483  0.09136645  1
  Cs  Cs21  1  0.02140383  0.64719483  0.59136645  1
  Cs  Cs22  1  0.02140383  0.98052816  0.09136645  1
  Cs  Cs23  1  0.02140383  0.98052816  0.59136645  1
  Cs  Cs24  1  0.35473717  0.31386150  0.09136645  1
  Cs  Cs25  1  0.35473717  0.31386150  0.59136645  1
  Cs  Cs26  1  0.35473717  0.64719483  0.09136645  1
  Cs  Cs27  1  0.35473717  0.64719483  0.59136645  1
  Cs  Cs28  1  0.35473717  0.98052816  0.09136645  1
  Cs  Cs29  1  0.35473717  0.98052816  0.59136645  1
  Cs  Cs30  1  0.68807050  0.31386150  0.09136645  1
  Cs  Cs31  1  0.68807050  0.31386150  0.59136645  1
  Cs  Cs32  1  0.68807050  0.64719483  0.09136645  1
  Cs  Cs33  1  0.68807050  0.64719483  0.59136645  1
  Cs  Cs34  1  0.68807050  0.98052816  0.09136645  1
  Cs  Cs35  1  0.68807050  0.98052816  0.59136645  1
  Cs  Cs36  1  0.31183441  0.18384796  0.41300743  1
  Cs  Cs37  1  0.31183441  0.18384796  0.91300743  1
  Cs  Cs38  1  0.31183441  0.51718130  0.41300743  1
  Cs  Cs39  1  0.31183441  0.51718130  0.91300743  1
  Cs  Cs40  1  0.31183441  0.85051463  0.41300743  1
  Cs  Cs41  1  0.31183441  0.85051463  0.91300743  1
  Cs  Cs42  1  0.64516775  0.18384796  0.41300743  1
  Cs  Cs43  1  0.64516775  0.18384796  0.91300743  1
  Cs  Cs44  1  0.64516775  0.51718130  0.41300743  1
  Cs  Cs45  1  0.64516775  0.51718130  0.91300743  1
  Cs  Cs46  1  0.64516775  0.85051463  0.41300743  1
  Cs  Cs47  1  0.64516775  0.85051463  0.91300743  1
  Cs  Cs48  1  0.97850108  0.18384796  0.41300743  1
  Cs  Cs49  1  0.97850108  0.18384796  0.91300743  1
  Cs  Cs50  1  0.97850108  0.51718130  0.41300743  1
  Cs  Cs51  1  0.97850108  0.51718130  0.91300743  1
  Cs  Cs52  1  0.97850108  0.85051463  0.41300743  1
  Cs  Cs53  1  0.97850108  0.85051463  0.91300743  1
  Cs  Cs54  1  0.31192950  0.01947184  0.40863355  1
  Cs  Cs55  1  0.31192950  0.01947184  0.90863355  1
  Cs  Cs56  1  0.31192950  0.35280517  0.40863355  1
  Cs  Cs57  1  0.31192950  0.35280517  0.90863355  1
  Cs  Cs58  1  0.31192950  0.68613850  0.40863355  1
  Cs  Cs59  1  0.31192950  0.68613850  0.90863355  1
  Cs  Cs60  1  0.64526283  0.01947184  0.40863355  1
  Cs  Cs61  1  0.64526283  0.01947184  0.90863355  1
  Cs  Cs62  1  0.64526283  0.35280517  0.40863355  1
  Cs  Cs63  1  0.64526283  0.35280517  0.90863355  1
  Cs  Cs64  1  0.64526283  0.68613850  0.40863355  1
  Cs  Cs65  1  0.64526283  0.68613850  0.90863355  1
  Cs  Cs66  1  0.97859617  0.01947184  0.40863355  1
  Cs  Cs67  1  0.97859617  0.01947184  0.90863355  1
  Cs  Cs68  1  0.97859617  0.35280517  0.40863355  1
  Cs  Cs69  1  0.97859617  0.35280517  0.90863355  1
  Cs  Cs70  1  0.97859617  0.68613850  0.40863355  1
  Cs  Cs71  1  0.97859617  0.68613850  0.90863355  1
  Cs  Cs72  1  0.20035397  0.14420000  0.07050855  1
  Cs  Cs73  1  0.20035397  0.14420000  0.57050855  1
  Cs  Cs74  1  0.20035397  0.47753334  0.07050855  1
  Cs  Cs75  1  0.20035397  0.47753334  0.57050855  1
  Cs  Cs76  1  0.20035397  0.81086667  0.07050855  1
  Cs  Cs77  1  0.20035397  0.81086667  0.57050855  1
  Cs  Cs78  1  0.53368730  0.14420000  0.07050855  1
  Cs  Cs79  1  0.53368730  0.14420000  0.57050855  1
  Cs  Cs80  1  0.53368730  0.47753334  0.07050855  1
  Cs  Cs81  1  0.53368730  0.47753334  0.57050855  1
  Cs  Cs82  1  0.53368730  0.81086667  0.07050855  1
  Cs  Cs83  1  0.53368730  0.81086667  0.57050855  1
  Cs  Cs84  1  0.86702064  0.14420000  0.07050855  1
  Cs  Cs85  1  0.86702064  0.14420000  0.57050855  1
  Cs  Cs86  1  0.86702064  0.47753334  0.07050855  1
  Cs  Cs87  1  0.86702064  0.47753334  0.57050855  1
  Cs  Cs88  1  0.86702064  0.81086667  0.07050855  1
  Cs  Cs89  1  0.86702064  0.81086667  0.57050855  1
  Cs  Cs90  1  0.02149892  0.14948537  0.08699257  1
  Cs  Cs91  1  0.02149892  0.14948537  0.58699257  1
  Cs  Cs92  1  0.02149892  0.48281870  0.08699257  1
  Cs  Cs93  1  0.02149892  0.48281870  0.58699257  1
  Cs  Cs94  1  0.02149892  0.81615204  0.08699257  1
  Cs  Cs95  1  0.02149892  0.81615204  0.58699257  1
  Cs  Cs96  1  0.35483225  0.14948537  0.08699257  1
  Cs  Cs97  1  0.35483225  0.14948537  0.58699257  1
  Cs  Cs98  1  0.35483225  0.48281870  0.08699257  1
  Cs  Cs99  1  0.35483225  0.48281870  0.58699257  1
  Cs  Cs100  1  0.35483225  0.81615204  0.08699257  1
  Cs  Cs101  1  0.35483225  0.81615204  0.58699257  1
  Cs  Cs102  1  0.68816559  0.14948537  0.08699257  1
  Cs  Cs103  1  0.68816559  0.14948537  0.58699257  1
  Cs  Cs104  1  0.68816559  0.48281870  0.08699257  1
  Cs  Cs105  1  0.68816559  0.48281870  0.58699257  1
  Cs  Cs106  1  0.68816559  0.81615204  0.08699257  1
  Cs  Cs107  1  0.68816559  0.81615204  0.58699257  1
  Cs  Cs108  1  0.13297936  0.18913333  0.42949145  1
  Cs  Cs109  1  0.13297936  0.18913333  0.92949145  1
  Cs  Cs110  1  0.13297936  0.52246666  0.42949145  1
  Cs  Cs111  1  0.13297936  0.52246666  0.92949145  1
  Cs  Cs112  1  0.13297936  0.85580000  0.42949145  1
  Cs  Cs113  1  0.13297936  0.85580000  0.92949145  1
  Cs  Cs114  1  0.46631270  0.18913333  0.42949145  1
  Cs  Cs115  1  0.46631270  0.18913333  0.92949145  1
  Cs  Cs116  1  0.46631270  0.52246666  0.42949145  1
  Cs  Cs117  1  0.46631270  0.52246666  0.92949145  1
  Cs  Cs118  1  0.46631270  0.85580000  0.42949145  1
  Cs  Cs119  1  0.46631270  0.85580000  0.92949145  1
  Cs  Cs120  1  0.79964603  0.18913333  0.42949145  1
  Cs  Cs121  1  0.79964603  0.18913333  0.92949145  1
  Cs  Cs122  1  0.79964603  0.52246666  0.42949145  1
  Cs  Cs123  1  0.79964603  0.52246666  0.92949145  1
  Cs  Cs124  1  0.79964603  0.85580000  0.42949145  1
  Cs  Cs125  1  0.79964603  0.85580000  0.92949145  1
  Cs  Cs126  1  0.25116602  0.24829990  0.25154132  1
  Cs  Cs127  1  0.25116602  0.24829990  0.75154132  1
  Cs  Cs128  1  0.25116602  0.58163323  0.25154132  1
  Cs  Cs129  1  0.25116602  0.58163323  0.75154132  1
  Cs  Cs130  1  0.25116602  0.91496656  0.25154132  1
  Cs  Cs131  1  0.25116602  0.91496656  0.75154132  1
  Cs  Cs132  1  0.58449935  0.24829990  0.25154132  1
  Cs  Cs133  1  0.58449935  0.24829990  0.75154132  1
  Cs  Cs134  1  0.58449935  0.58163323  0.25154132  1
  Cs  Cs135  1  0.58449935  0.58163323  0.75154132  1
  Cs  Cs136  1  0.58449935  0.91496656  0.25154132  1
  Cs  Cs137  1  0.58449935  0.91496656  0.75154132  1
  Cs  Cs138  1  0.91783269  0.24829990  0.25154132  1
  Cs  Cs139  1  0.91783269  0.24829990  0.75154132  1
  Cs  Cs140  1  0.91783269  0.58163323  0.25154132  1
  Cs  Cs141  1  0.91783269  0.58163323  0.75154132  1
  Cs  Cs142  1  0.91783269  0.91496656  0.25154132  1
  Cs  Cs143  1  0.91783269  0.91496656  0.75154132  1
  Pb  Pb144  1  0.19810399  0.31415786  0.06160662  1
  Pb  Pb145  1  0.19810399  0.31415786  0.56160662  1
  Pb  Pb146  1  0.19810399  0.64749120  0.06160662  1
  Pb  Pb147  1  0.19810399  0.64749120  0.56160662  1
  Pb  Pb148  1  0.19810399  0.98082453  0.06160662  1
  Pb  Pb149  1  0.19810399  0.98082453  0.56160662  1
  Pb  Pb150  1  0.53143732  0.31415786  0.06160662  1
  Pb  Pb151  1  0.53143732  0.31415786  0.56160662  1
  Pb  Pb152  1  0.53143732  0.64749120  0.06160662  1
  Pb  Pb153  1  0.53143732  0.64749120  0.56160662  1
  Pb  Pb154  1  0.53143732  0.98082453  0.06160662  1
  Pb  Pb155  1  0.53143732  0.98082453  0.56160662  1
  Pb  Pb156  1  0.86477065  0.31415786  0.06160662  1
  Pb  Pb157  1  0.86477065  0.31415786  0.56160662  1
  Pb  Pb158  1  0.86477065  0.64749120  0.06160662  1
  Pb  Pb159  1  0.86477065  0.64749120  0.56160662  1
  Pb  Pb160  1  0.86477065  0.98082453  0.06160662  1
  Pb  Pb161  1  0.86477065  0.98082453  0.56160662  1
  Pb  Pb162  1  0.10283398  0.23252356  0.23528179  1
  Pb  Pb163  1  0.10283398  0.23252356  0.73528179  1
  Pb  Pb164  1  0.10283398  0.56585689  0.23528179  1
  Pb  Pb165  1  0.10283398  0.56585689  0.73528179  1
  Pb  Pb166  1  0.10283398  0.89919022  0.23528179  1
  Pb  Pb167  1  0.10283398  0.89919022  0.73528179  1
  Pb  Pb168  1  0.43616731  0.23252356  0.23528179  1
  Pb  Pb169  1  0.43616731  0.23252356  0.73528179  1
  Pb  Pb170  1  0.43616731  0.56585689  0.23528179  1
  Pb  Pb171  1  0.43616731  0.56585689  0.73528179  1
  Pb  Pb172  1  0.43616731  0.89919022  0.23528179  1
  Pb  Pb173  1  0.43616731  0.89919022  0.73528179  1
  Pb  Pb174  1  0.76950065  0.23252356  0.23528179  1
  Pb  Pb175  1  0.76950065  0.23252356  0.73528179  1
  Pb  Pb176  1  0.76950065  0.56585689  0.23528179  1
  Pb  Pb177  1  0.76950065  0.56585689  0.73528179  1
  Pb  Pb178  1  0.76950065  0.89919022  0.23528179  1
  Pb  Pb179  1  0.76950065  0.89919022  0.73528179  1
  Pb  Pb180  1  0.23049935  0.10080978  0.26471821  1
  Pb  Pb181  1  0.23049935  0.10080978  0.76471821  1
  Pb  Pb182  1  0.23049935  0.43414311  0.26471821  1
  Pb  Pb183  1  0.23049935  0.43414311  0.76471821  1
  Pb  Pb184  1  0.23049935  0.76747644  0.26471821  1
  Pb  Pb185  1  0.23049935  0.76747644  0.76471821  1
  Pb  Pb186  1  0.56383269  0.10080978  0.26471821  1
  Pb  Pb187  1  0.56383269  0.10080978  0.76471821  1
  Pb  Pb188  1  0.56383269  0.43414311  0.26471821  1
  Pb  Pb189  1  0.56383269  0.43414311  0.76471821  1
  Pb  Pb190  1  0.56383269  0.76747644  0.26471821  1
  Pb  Pb191  1  0.56383269  0.76747644  0.76471821  1
  Pb  Pb192  1  0.89716602  0.10080978  0.26471821  1
  Pb  Pb193  1  0.89716602  0.10080978  0.76471821  1
  Pb  Pb194  1  0.89716602  0.43414311  0.26471821  1
  Pb  Pb195  1  0.89716602  0.43414311  0.76471821  1
  Pb  Pb196  1  0.89716602  0.76747644  0.26471821  1
  Pb  Pb197  1  0.89716602  0.76747644  0.76471821  1
  Pb  Pb198  1  0.13522935  0.01917547  0.43839338  1
  Pb  Pb199  1  0.13522935  0.01917547  0.93839338  1
  Pb  Pb200  1  0.13522935  0.35250880  0.43839338  1
  Pb  Pb201  1  0.13522935  0.35250880  0.93839338  1
  Pb  Pb202  1  0.13522935  0.68584214  0.43839338  1
  Pb  Pb203  1  0.13522935  0.68584214  0.93839338  1
  Pb  Pb204  1  0.46856268  0.01917547  0.43839338  1
  Pb  Pb205  1  0.46856268  0.01917547  0.93839338  1
  Pb  Pb206  1  0.46856268  0.35250880  0.43839338  1
  Pb  Pb207  1  0.46856268  0.35250880  0.93839338  1
  Pb  Pb208  1  0.46856268  0.68584214  0.43839338  1
  Pb  Pb209  1  0.46856268  0.68584214  0.93839338  1
  Pb  Pb210  1  0.80189601  0.01917547  0.43839338  1
  Pb  Pb211  1  0.80189601  0.01917547  0.93839338  1
  Pb  Pb212  1  0.80189601  0.35250880  0.43839338  1
  Pb  Pb213  1  0.80189601  0.35250880  0.93839338  1
  Pb  Pb214  1  0.80189601  0.68584214  0.43839338  1
  Pb  Pb215  1  0.80189601  0.68584214  0.93839338  1
  O  O216  1  0.16386974  0.27122671  0.00436579  1
  O  O217  1  0.16386974  0.27122671  0.50436579  1
  O  O218  1  0.16386974  0.60456005  0.00436579  1
  O  O219  1  0.16386974  0.60456005  0.50436579  1
  O  O220  1  0.16386974  0.93789338  0.00436579  1
  O  O221  1  0.16386974  0.93789338  0.50436579  1
  O  O222  1  0.49720307  0.27122671  0.00436579  1
  O  O223  1  0.49720307  0.27122671  0.50436579  1
  O  O224  1  0.49720307  0.60456005  0.00436579  1
  O  O225  1  0.49720307  0.60456005  0.50436579  1
  O  O226  1  0.49720307  0.93789338  0.00436579  1
  O  O227  1  0.49720307  0.93789338  0.50436579  1
  O  O228  1  0.83053640  0.27122671  0.00436579  1
  O  O229  1  0.83053640  0.27122671  0.50436579  1
  O  O230  1  0.83053640  0.60456005  0.00436579  1
  O  O231  1  0.83053640  0.60456005  0.50436579  1
  O  O232  1  0.83053640  0.93789338  0.00436579  1
  O  O233  1  0.83053640  0.93789338  0.50436579  1
  O  O234  1  0.26622555  0.13833562  0.32055705  1
  O  O235  1  0.26622555  0.13833562  0.82055705  1
  O  O236  1  0.26622555  0.47166896  0.32055705  1
  O  O237  1  0.26622555  0.47166896  0.82055705  1
  O  O238  1  0.26622555  0.80500229  0.32055705  1
  O  O239  1  0.26622555  0.80500229  0.82055705  1
  O  O240  1  0.59955889  0.13833562  0.32055705  1
  O  O241  1  0.59955889  0.13833562  0.82055705  1
  O  O242  1  0.59955889  0.47166896  0.32055705  1
  O  O243  1  0.59955889  0.47166896  0.82055705  1
  O  O244  1  0.59955889  0.80500229  0.32055705  1
  O  O245  1  0.59955889  0.80500229  0.82055705  1
  O  O246  1  0.93289222  0.13833562  0.32055705  1
  O  O247  1  0.93289222  0.13833562  0.82055705  1
  O  O248  1  0.93289222  0.47166896  0.32055705  1
  O  O249  1  0.93289222  0.47166896  0.82055705  1
  O  O250  1  0.93289222  0.80500229  0.32055705  1
  O  O251  1  0.93289222  0.80500229  0.82055705  1
  O  O252  1  0.30756575  0.26319130  0.01185811  1
  O  O253  1  0.30756575  0.26319130  0.51185811  1
  O  O254  1  0.30756575  0.59652463  0.01185811  1
  O  O255  1  0.30756575  0.59652463  0.51185811  1
  O  O256  1  0.30756575  0.92985797  0.01185811  1
  O  O257  1  0.30756575  0.92985797  0.51185811  1
  O  O258  1  0.64089908  0.26319130  0.01185811  1
  O  O259  1  0.64089908  0.26319130  0.51185811  1
  O  O260  1  0.64089908  0.59652463  0.01185811  1
  O  O261  1  0.64089908  0.59652463  0.51185811  1
  O  O262  1  0.64089908  0.92985797  0.01185811  1
  O  O263  1  0.64089908  0.92985797  0.51185811  1
  O  O264  1  0.97423241  0.26319130  0.01185811  1
  O  O265  1  0.97423241  0.26319130  0.51185811  1
  O  O266  1  0.97423241  0.59652463  0.01185811  1
  O  O267  1  0.97423241  0.59652463  0.51185811  1
  O  O268  1  0.97423241  0.92985797  0.01185811  1
  O  O269  1  0.97423241  0.92985797  0.51185811  1
  O  O270  1  0.16946360  0.06210662  0.49563421  1
  O  O271  1  0.16946360  0.06210662  0.99563421  1
  O  O272  1  0.16946360  0.39543995  0.49563421  1
  O  O273  1  0.16946360  0.39543995  0.99563421  1
  O  O274  1  0.16946360  0.72877329  0.49563421  1
  O  O275  1  0.16946360  0.72877329  0.99563421  1
  O  O276  1  0.50279693  0.06210662  0.49563421  1
  O  O277  1  0.50279693  0.06210662  0.99563421  1
  O  O278  1  0.50279693  0.39543995  0.49563421  1
  O  O279  1  0.50279693  0.39543995  0.99563421  1
  O  O280  1  0.50279693  0.72877329  0.49563421  1
  O  O281  1  0.50279693  0.72877329  0.99563421  1
  O  O282  1  0.83613026  0.06210662  0.49563421  1
  O  O283  1  0.83613026  0.06210662  0.99563421  1
  O  O284  1  0.83613026  0.39543995  0.49563421  1
  O  O285  1  0.83613026  0.39543995  0.99563421  1
  O  O286  1  0.83613026  0.72877329  0.49563421  1
  O  O287  1  0.83613026  0.72877329  0.99563421  1
  O  O288  1  0.02576759  0.07014203  0.48814189  1
  O  O289  1  0.02576759  0.07014203  0.98814189  1
  O  O290  1  0.02576759  0.40347537  0.48814189  1
  O  O291  1  0.02576759  0.40347537  0.98814189  1
  O  O292  1  0.02576759  0.73680870  0.48814189  1
  O  O293  1  0.02576759  0.73680870  0.98814189  1
  O  O294  1  0.35910092  0.07014203  0.48814189  1
  O  O295  1  0.35910092  0.07014203  0.98814189  1
  O  O296  1  0.35910092  0.40347537  0.48814189  1
  O  O297  1  0.35910092  0.40347537  0.98814189  1
  O  O298  1  0.35910092  0.73680870  0.48814189  1
  O  O299  1  0.35910092  0.73680870  0.98814189  1
  O  O300  1  0.69243425  0.07014203  0.48814189  1
  O  O301  1  0.69243425  0.07014203  0.98814189  1
  O  O302  1  0.69243425  0.40347537  0.48814189  1
  O  O303  1  0.69243425  0.40347537  0.98814189  1
  O  O304  1  0.69243425  0.73680870  0.48814189  1
  O  O305  1  0.69243425  0.73680870  0.98814189  1
  O  O306  1  0.06710778  0.19499771  0.17944295  1
  O  O307  1  0.06710778  0.19499771  0.67944295  1
  O  O308  1  0.06710778  0.52833104  0.17944295  1
  O  O309  1  0.06710778  0.52833104  0.67944295  1
  O  O310  1  0.06710778  0.86166438  0.17944295  1
  O  O311  1  0.06710778  0.86166438  0.67944295  1
  O  O312  1  0.40044111  0.19499771  0.17944295  1
  O  O313  1  0.40044111  0.19499771  0.67944295  1
  O  O314  1  0.40044111  0.52833104  0.17944295  1
  O  O315  1  0.40044111  0.52833104  0.67944295  1
  O  O316  1  0.40044111  0.86166438  0.17944295  1
  O  O317  1  0.40044111  0.86166438  0.67944295  1
  O  O318  1  0.73377445  0.19499771  0.17944295  1
  O  O319  1  0.73377445  0.19499771  0.67944295  1
  O  O320  1  0.73377445  0.52833104  0.17944295  1
  O  O321  1  0.73377445  0.52833104  0.67944295  1
  O  O322  1  0.73377445  0.86166438  0.17944295  1
  O  O323  1  0.73377445  0.86166438  0.67944295  1
  O  O324  1  0.21772704  0.17133963  0.18794597  1
  O  O325  1  0.21772704  0.17133963  0.68794597  1
  O  O326  1  0.21772704  0.50467296  0.18794597  1
  O  O327  1  0.21772704  0.50467296  0.68794597  1
  O  O328  1  0.21772704  0.83800629  0.18794597  1
  O  O329  1  0.21772704  0.83800629  0.68794597  1
  O  O330  1  0.55106037  0.17133963  0.18794597  1
  O  O331  1  0.55106037  0.17133963  0.68794597  1
  O  O332  1  0.55106037  0.50467296  0.18794597  1
  O  O333  1  0.55106037  0.50467296  0.68794597  1
  O  O334  1  0.55106037  0.83800629  0.18794597  1
  O  O335  1  0.55106037  0.83800629  0.68794597  1
  O  O336  1  0.88439370  0.17133963  0.18794597  1
  O  O337  1  0.88439370  0.17133963  0.68794597  1
  O  O338  1  0.88439370  0.50467296  0.18794597  1
  O  O339  1  0.88439370  0.50467296  0.68794597  1
  O  O340  1  0.88439370  0.83800629  0.18794597  1
  O  O341  1  0.88439370  0.83800629  0.68794597  1
  O  O342  1  0.11560630  0.16199371  0.31205403  1
  O  O343  1  0.11560630  0.16199371  0.81205403  1
  O  O344  1  0.11560630  0.49532704  0.31205403  1
  O  O345  1  0.11560630  0.49532704  0.81205403  1
  O  O346  1  0.11560630  0.82866037  0.31205403  1
  O  O347  1  0.11560630  0.82866037  0.81205403  1
  O  O348  1  0.44893963  0.16199371  0.31205403  1
  O  O349  1  0.44893963  0.16199371  0.81205403  1
  O  O350  1  0.44893963  0.49532704  0.31205403  1
  O  O351  1  0.44893963  0.49532704  0.81205403  1
  O  O352  1  0.44893963  0.82866037  0.31205403  1
  O  O353  1  0.44893963  0.82866037  0.81205403  1
  O  O354  1  0.78227296  0.16199371  0.31205403  1
  O  O355  1  0.78227296  0.16199371  0.81205403  1
  O  O356  1  0.78227296  0.49532704  0.31205403  1
  O  O357  1  0.78227296  0.49532704  0.81205403  1
  O  O358  1  0.78227296  0.82866037  0.31205403  1
  O  O359  1  0.78227296  0.82866037  0.81205403  1
