# generated using pymatgen
data_Sr(BO2)2
_symmetry_space_group_name_H-M   'P 1'
_cell_length_a   11.98775342
_cell_length_b   13.04454966
_cell_length_c   13.13291779
_cell_angle_alpha   90.00000000
_cell_angle_beta   90.00000000
_cell_angle_gamma   90.00000000
_symmetry_Int_Tables_number   1
_chemical_formula_structural   Sr(BO2)2
_chemical_formula_sum   'Sr24 B48 O96'
_cell_volume   2053.65798071
_cell_formula_units_Z   24
loop_
 _symmetry_equiv_pos_site_id
 _symmetry_equiv_pos_as_xyz
  1  'x, y, z'
loop_
 _atom_site_type_symbol
 _atom_site_label
 _atom_site_symmetry_multiplicity
 _atom_site_fract_x
 _atom_site_fract_y
 _atom_site_fract_z
 _atom_site_occupancy
  Sr  Sr0  1  0.00000000  0.07911307  0.12500000  1
  Sr  Sr1  1  0.00000000  0.07911307  0.62500000  1
  Sr  Sr2  1  0.00000000  0.41244640  0.12500000  1
  Sr  Sr3  1  0.00000000  0.41244640  0.62500000  1
  Sr  Sr4  1  0.00000000  0.74577973  0.12500000  1
  Sr  Sr5  1  0.00000000  0.74577973  0.62500000  1
  Sr  Sr6  1  0.50000000  0.08755360  0.37500000  1
  Sr  Sr7  1  0.50000000  0.08755360  0.87500000  1
  Sr  Sr8  1  0.50000000  0.42088693  0.37500000  1
  Sr  Sr9  1  0.50000000  0.42088693  0.87500000  1
  Sr  Sr10  1  0.50000000  0.75422027  0.37500000  1
  Sr  Sr11  1  0.50000000  0.75422027  0.87500000  1
  Sr  Sr12  1  0.00000000  0.25422027  0.37500000  1
  Sr  Sr13  1  0.00000000  0.25422027  0.87500000  1
  Sr  Sr14  1  0.00000000  0.58755360  0.37500000  1
  Sr  Sr15  1  0.00000000  0.58755360  0.87500000  1
  Sr  Sr16  1  0.00000000  0.92088693  0.37500000  1
  Sr  Sr17  1  0.00000000  0.92088693  0.87500000  1
  Sr  Sr18  1  0.50000000  0.24577973  0.12500000  1
  Sr  Sr19  1  0.50000000  0.24577973  0.62500000  1
  Sr  Sr20  1  0.50000000  0.57911307  0.12500000  1
  Sr  Sr21  1  0.50000000  0.57911307  0.62500000  1
  Sr  Sr22  1  0.50000000  0.91244640  0.12500000  1
  Sr  Sr23  1  0.50000000  0.91244640  0.62500000  1
  B  B24  1  0.80614231  0.22308473  0.18653822  1
  B  B25  1  0.80614231  0.22308473  0.68653822  1
  B  B26  1  0.80614231  0.55641806  0.18653822  1
  B  B27  1  0.80614231  0.55641806  0.68653822  1
  B  B28  1  0.80614231  0.88975140  0.18653822  1
  B  B29  1  0.80614231  0.88975140  0.68653822  1
  B  B30  1  0.19385769  0.22308473  0.06346178  1
  B  B31  1  0.19385769  0.22308473  0.56346178  1
  B  B32  1  0.19385769  0.55641806  0.06346178  1
  B  B33  1  0.19385769  0.55641806  0.56346178  1
  B  B34  1  0.19385769  0.88975140  0.06346178  1
  B  B35  1  0.19385769  0.88975140  0.56346178  1
  B  B36  1  0.69385769  0.27691527  0.43653822  1
  B  B37  1  0.69385769  0.27691527  0.93653822  1
  B  B38  1  0.69385769  0.61024860  0.43653822  1
  B  B39  1  0.69385769  0.61024860  0.93653822  1
  B  B40  1  0.69385769  0.94358194  0.43653822  1
  B  B41  1  0.69385769  0.94358194  0.93653822  1
  B  B42  1  0.30614231  0.27691527  0.31346178  1
  B  B43  1  0.30614231  0.27691527  0.81346178  1
  B  B44  1  0.30614231  0.61024860  0.31346178  1
  B  B45  1  0.30614231  0.61024860  0.81346178  1
  B  B46  1  0.30614231  0.94358194  0.31346178  1
  B  B47  1  0.30614231  0.94358194  0.81346178  1
  B  B48  1  0.30614231  0.05641806  0.06346178  1
  B  B49  1  0.30614231  0.05641806  0.56346178  1
  B  B50  1  0.30614231  0.38975140  0.06346178  1
  B  B51  1  0.30614231  0.38975140  0.56346178  1
  B  B52  1  0.30614231  0.72308473  0.06346178  1
  B  B53  1  0.30614231  0.72308473  0.56346178  1
  B  B54  1  0.69385769  0.05641806  0.18653822  1
  B  B55  1  0.69385769  0.05641806  0.68653822  1
  B  B56  1  0.69385769  0.38975140  0.18653822  1
  B  B57  1  0.69385769  0.38975140  0.68653822  1
  B  B58  1  0.69385769  0.72308473  0.18653822  1
  B  B59  1  0.69385769  0.72308473  0.68653822  1
  B  B60  1  0.19385769  0.11024860  0.31346178  1
  B  B61  1  0.19385769  0.11024860  0.81346178  1
  B  B62  1  0.19385769  0.44358194  0.31346178  1
  B  B63  1  0.19385769  0.44358194  0.81346178  1
  B  B64  1  0.19385769  0.77691527  0.31346178  1
  B  B65  1  0.19385769  0.77691527  0.81346178  1
  B  B66  1  0.80614231  0.11024860  0.43653822  1
  B  B67  1  0.80614231  0.11024860  0.93653822  1
  B  B68  1  0.80614231  0.44358194  0.43653822  1
  B  B69  1  0.80614231  0.44358194  0.93653822  1
  B  B70  1  0.80614231  0.77691527  0.43653822  1
  B  B71  1  0.80614231  0.77691527  0.93653822  1
  O  O72  1  0.08968399  0.07864552  0.29710708  1
  O  O73  1  0.08968399  0.07864552  0.79710708  1
  O  O74  1  0.08968399  0.41197885  0.29710708  1
  O  O75  1  0.08968399  0.41197885  0.79710708  1
  O  O76  1  0.08968399  0.74531218  0.29710708  1
  O  O77  1  0.08968399  0.74531218  0.79710708  1
  O  O78  1  0.58968399  0.24531218  0.45289292  1
  O  O79  1  0.58968399  0.24531218  0.95289292  1
  O  O80  1  0.58968399  0.57864552  0.45289292  1
  O  O81  1  0.58968399  0.57864552  0.95289292  1
  O  O82  1  0.58968399  0.91197885  0.45289292  1
  O  O83  1  0.58968399  0.91197885  0.95289292  1
  O  O84  1  0.08968399  0.25468782  0.04710708  1
  O  O85  1  0.08968399  0.25468782  0.54710708  1
  O  O86  1  0.08968399  0.58802115  0.04710708  1
  O  O87  1  0.08968399  0.58802115  0.54710708  1
  O  O88  1  0.08968399  0.92135448  0.04710708  1
  O  O89  1  0.08968399  0.92135448  0.54710708  1
  O  O90  1  0.41031601  0.24531218  0.29710708  1
  O  O91  1  0.41031601  0.24531218  0.79710708  1
  O  O92  1  0.41031601  0.57864552  0.29710708  1
  O  O93  1  0.41031601  0.57864552  0.79710708  1
  O  O94  1  0.41031601  0.91197885  0.29710708  1
  O  O95  1  0.41031601  0.91197885  0.79710708  1
  O  O96  1  0.71063947  0.28314514  0.17577052  1
  O  O97  1  0.71063947  0.28314514  0.67577052  1
  O  O98  1  0.71063947  0.61647847  0.17577052  1
  O  O99  1  0.71063947  0.61647847  0.67577052  1
  O  O100  1  0.71063947  0.94981180  0.17577052  1
  O  O101  1  0.71063947  0.94981180  0.67577052  1
  O  O102  1  0.28936053  0.28314514  0.07422948  1
  O  O103  1  0.28936053  0.28314514  0.57422948  1
  O  O104  1  0.28936053  0.61647847  0.07422948  1
  O  O105  1  0.28936053  0.61647847  0.57422948  1
  O  O106  1  0.28936053  0.94981180  0.07422948  1
  O  O107  1  0.28936053  0.94981180  0.57422948  1
  O  O108  1  0.78936053  0.21685486  0.42577052  1
  O  O109  1  0.78936053  0.21685486  0.92577052  1
  O  O110  1  0.78936053  0.55018820  0.42577052  1
  O  O111  1  0.78936053  0.55018820  0.92577052  1
  O  O112  1  0.78936053  0.88352153  0.42577052  1
  O  O113  1  0.78936053  0.88352153  0.92577052  1
  O  O114  1  0.21063947  0.21685486  0.32422948  1
  O  O115  1  0.21063947  0.21685486  0.82422948  1
  O  O116  1  0.21063947  0.55018820  0.32422948  1
  O  O117  1  0.21063947  0.55018820  0.82422948  1
  O  O118  1  0.21063947  0.88352153  0.32422948  1
  O  O119  1  0.21063947  0.88352153  0.82422948  1
  O  O120  1  0.28936053  0.05018820  0.32422948  1
  O  O121  1  0.28936053  0.05018820  0.82422948  1
  O  O122  1  0.28936053  0.38352153  0.32422948  1
  O  O123  1  0.28936053  0.38352153  0.82422948  1
  O  O124  1  0.28936053  0.71685486  0.32422948  1
  O  O125  1  0.28936053  0.71685486  0.82422948  1
  O  O126  1  0.71063947  0.05018820  0.42577052  1
  O  O127  1  0.71063947  0.05018820  0.92577052  1
  O  O128  1  0.71063947  0.38352153  0.42577052  1
  O  O129  1  0.71063947  0.38352153  0.92577052  1
  O  O130  1  0.71063947  0.71685486  0.42577052  1
  O  O131  1  0.71063947  0.71685486  0.92577052  1
  O  O132  1  0.21063947  0.11647847  0.07422948  1
  O  O133  1  0.21063947  0.11647847  0.57422948  1
  O  O134  1  0.21063947  0.44981180  0.07422948  1
  O  O135  1  0.21063947  0.44981180  0.57422948  1
  O  O136  1  0.21063947  0.78314514  0.07422948  1
  O  O137  1  0.21063947  0.78314514  0.57422948  1
  O  O138  1  0.78936053  0.11647847  0.17577052  1
  O  O139  1  0.78936053  0.11647847  0.67577052  1
  O  O140  1  0.78936053  0.44981180  0.17577052  1
  O  O141  1  0.78936053  0.44981180  0.67577052  1
  O  O142  1  0.78936053  0.78314514  0.17577052  1
  O  O143  1  0.78936053  0.78314514  0.67577052  1
  O  O144  1  0.41031601  0.08802115  0.04710708  1
  O  O145  1  0.41031601  0.08802115  0.54710708  1
  O  O146  1  0.41031601  0.42135448  0.04710708  1
  O  O147  1  0.41031601  0.42135448  0.54710708  1
  O  O148  1  0.41031601  0.75468782  0.04710708  1
  O  O149  1  0.41031601  0.75468782  0.54710708  1
  O  O150  1  0.58968399  0.08802115  0.20289292  1
  O  O151  1  0.58968399  0.08802115  0.70289292  1
  O  O152  1  0.58968399  0.42135448  0.20289292  1
  O  O153  1  0.58968399  0.42135448  0.70289292  1
  O  O154  1  0.58968399  0.75468782  0.20289292  1
  O  O155  1  0.58968399  0.75468782  0.70289292  1
  O  O156  1  0.91031601  0.25468782  0.20289292  1
  O  O157  1  0.91031601  0.25468782  0.70289292  1
  O  O158  1  0.91031601  0.58802115  0.20289292  1
  O  O159  1  0.91031601  0.58802115  0.70289292  1
  O  O160  1  0.91031601  0.92135448  0.20289292  1
  O  O161  1  0.91031601  0.92135448  0.70289292  1
  O  O162  1  0.91031601  0.07864552  0.45289292  1
  O  O163  1  0.91031601  0.07864552  0.95289292  1
  O  O164  1  0.91031601  0.41197885  0.45289292  1
  O  O165  1  0.91031601  0.41197885  0.95289292  1
  O  O166  1  0.91031601  0.74531218  0.45289292  1
  O  O167  1  0.91031601  0.74531218  0.95289292  1
