# generated using pymatgen
data_BaCdO2
_symmetry_space_group_name_H-M   'P 1'
_cell_length_a   12.28643685
_cell_length_b   10.99427424
_cell_length_c   11.96342913
_cell_angle_alpha   90.00000000
_cell_angle_beta   90.00000000
_cell_angle_gamma   90.00000000
_symmetry_Int_Tables_number   1
_chemical_formula_structural   BaCdO2
_chemical_formula_sum   'Ba24 Cd24 O48'
_cell_volume   1616.02546408
_cell_formula_units_Z   24
loop_
 _symmetry_equiv_pos_site_id
 _symmetry_equiv_pos_as_xyz
  1  'x, y, z'
loop_
 _atom_site_type_symbol
 _atom_site_label
 _atom_site_symmetry_multiplicity
 _atom_site_fract_x
 _atom_site_fract_y
 _atom_site_fract_z
 _atom_site_occupancy
  Ba  Ba0  1  0.19807251  0.08333333  0.35741659  1
  Ba  Ba1  1  0.19807251  0.41666667  0.35741659  1
  Ba  Ba2  1  0.19807251  0.75000000  0.35741659  1
  Ba  Ba3  1  0.69807251  0.08333333  0.35741659  1
  Ba  Ba4  1  0.69807251  0.41666667  0.35741659  1
  Ba  Ba5  1  0.69807251  0.75000000  0.35741659  1
  Ba  Ba6  1  0.30192749  0.25000000  0.64258341  1
  Ba  Ba7  1  0.30192749  0.58333333  0.64258341  1
  Ba  Ba8  1  0.30192749  0.91666667  0.64258341  1
  Ba  Ba9  1  0.80192749  0.25000000  0.64258341  1
  Ba  Ba10  1  0.80192749  0.58333333  0.64258341  1
  Ba  Ba11  1  0.80192749  0.91666667  0.64258341  1
  Ba  Ba12  1  0.44807251  0.08333333  0.14258341  1
  Ba  Ba13  1  0.44807251  0.41666667  0.14258341  1
  Ba  Ba14  1  0.44807251  0.75000000  0.14258341  1
  Ba  Ba15  1  0.94807251  0.08333333  0.14258341  1
  Ba  Ba16  1  0.94807251  0.41666667  0.14258341  1
  Ba  Ba17  1  0.94807251  0.75000000  0.14258341  1
  Ba  Ba18  1  0.05192749  0.25000000  0.85741659  1
  Ba  Ba19  1  0.05192749  0.58333333  0.85741659  1
  Ba  Ba20  1  0.05192749  0.91666667  0.85741659  1
  Ba  Ba21  1  0.55192749  0.25000000  0.85741659  1
  Ba  Ba22  1  0.55192749  0.58333333  0.85741659  1
  Ba  Ba23  1  0.55192749  0.91666667  0.85741659  1
  Cd  Cd24  1  0.45305436  0.25000000  0.39340195  1
  Cd  Cd25  1  0.45305436  0.58333333  0.39340195  1
  Cd  Cd26  1  0.45305436  0.91666667  0.39340195  1
  Cd  Cd27  1  0.95305436  0.25000000  0.39340195  1
  Cd  Cd28  1  0.95305436  0.58333333  0.39340195  1
  Cd  Cd29  1  0.95305436  0.91666667  0.39340195  1
  Cd  Cd30  1  0.20305436  0.25000000  0.10659805  1
  Cd  Cd31  1  0.20305436  0.58333333  0.10659805  1
  Cd  Cd32  1  0.20305436  0.91666667  0.10659805  1
  Cd  Cd33  1  0.70305436  0.25000000  0.10659805  1
  Cd  Cd34  1  0.70305436  0.58333333  0.10659805  1
  Cd  Cd35  1  0.70305436  0.91666667  0.10659805  1
  Cd  Cd36  1  0.04694564  0.08333333  0.60659805  1
  Cd  Cd37  1  0.04694564  0.41666667  0.60659805  1
  Cd  Cd38  1  0.04694564  0.75000000  0.60659805  1
  Cd  Cd39  1  0.54694564  0.08333333  0.60659805  1
  Cd  Cd40  1  0.54694564  0.41666667  0.60659805  1
  Cd  Cd41  1  0.54694564  0.75000000  0.60659805  1
  Cd  Cd42  1  0.29694564  0.08333333  0.89340195  1
  Cd  Cd43  1  0.29694564  0.41666667  0.89340195  1
  Cd  Cd44  1  0.29694564  0.75000000  0.89340195  1
  Cd  Cd45  1  0.79694564  0.08333333  0.89340195  1
  Cd  Cd46  1  0.79694564  0.41666667  0.89340195  1
  Cd  Cd47  1  0.79694564  0.75000000  0.89340195  1
  O  O48  1  0.13935974  0.08333333  0.01737416  1
  O  O49  1  0.13935974  0.41666667  0.01737416  1
  O  O50  1  0.13935974  0.75000000  0.01737416  1
  O  O51  1  0.63935974  0.08333333  0.01737416  1
  O  O52  1  0.63935974  0.41666667  0.01737416  1
  O  O53  1  0.63935974  0.75000000  0.01737416  1
  O  O54  1  0.36064026  0.25000000  0.98262584  1
  O  O55  1  0.36064026  0.58333333  0.98262584  1
  O  O56  1  0.36064026  0.91666667  0.98262584  1
  O  O57  1  0.86064026  0.25000000  0.98262584  1
  O  O58  1  0.86064026  0.58333333  0.98262584  1
  O  O59  1  0.86064026  0.91666667  0.98262584  1
  O  O60  1  0.38935974  0.08333333  0.48262584  1
  O  O61  1  0.38935974  0.41666667  0.48262584  1
  O  O62  1  0.38935974  0.75000000  0.48262584  1
  O  O63  1  0.88935974  0.08333333  0.48262584  1
  O  O64  1  0.88935974  0.41666667  0.48262584  1
  O  O65  1  0.88935974  0.75000000  0.48262584  1
  O  O66  1  0.11064026  0.25000000  0.51737416  1
  O  O67  1  0.11064026  0.58333333  0.51737416  1
  O  O68  1  0.11064026  0.91666667  0.51737416  1
  O  O69  1  0.61064026  0.25000000  0.51737416  1
  O  O70  1  0.61064026  0.58333333  0.51737416  1
  O  O71  1  0.61064026  0.91666667  0.51737416  1
  O  O72  1  0.42776846  0.08333333  0.74881239  1
  O  O73  1  0.42776846  0.41666667  0.74881239  1
  O  O74  1  0.42776846  0.75000000  0.74881239  1
  O  O75  1  0.92776846  0.08333333  0.74881239  1
  O  O76  1  0.92776846  0.41666667  0.74881239  1
  O  O77  1  0.92776846  0.75000000  0.74881239  1
  O  O78  1  0.32223154  0.25000000  0.24881239  1
  O  O79  1  0.32223154  0.58333333  0.24881239  1
  O  O80  1  0.32223154  0.91666667  0.24881239  1
  O  O81  1  0.82223154  0.25000000  0.24881239  1
  O  O82  1  0.82223154  0.58333333  0.24881239  1
  O  O83  1  0.82223154  0.91666667  0.24881239  1
  O  O84  1  0.17776846  0.08333333  0.75118761  1
  O  O85  1  0.17776846  0.41666667  0.75118761  1
  O  O86  1  0.17776846  0.75000000  0.75118761  1
  O  O87  1  0.67776846  0.08333333  0.75118761  1
  O  O88  1  0.67776846  0.41666667  0.75118761  1
  O  O89  1  0.67776846  0.75000000  0.75118761  1
  O  O90  1  0.07223154  0.25000000  0.25118761  1
  O  O91  1  0.07223154  0.58333333  0.25118761  1
  O  O92  1  0.07223154  0.91666667  0.25118761  1
  O  O93  1  0.57223154  0.25000000  0.25118761  1
  O  O94  1  0.57223154  0.58333333  0.25118761  1
  O  O95  1  0.57223154  0.91666667  0.25118761  1
