# generated using pymatgen
data_Rb4PbO4
_symmetry_space_group_name_H-M   'P 1'
_cell_length_a   20.52870815
_cell_length_b   20.56790832
_cell_length_c   20.48522759
_cell_angle_alpha   71.54401436
_cell_angle_beta   79.23423639
_cell_angle_gamma   67.11999635
_symmetry_Int_Tables_number   1
_chemical_formula_structural   Rb4PbO4
_chemical_formula_sum   'Rb144 Pb36 O144'
_cell_volume   7539.01499501
_cell_formula_units_Z   36
loop_
 _symmetry_equiv_pos_site_id
 _symmetry_equiv_pos_as_xyz
  1  'x, y, z'
loop_
 _atom_site_type_symbol
 _atom_site_label
 _atom_site_symmetry_multiplicity
 _atom_site_fract_x
 _atom_site_fract_y
 _atom_site_fract_z
 _atom_site_occupancy
  Rb  Rb0  1  0.08070524  0.25412413  0.01314519  1
  Rb  Rb1  1  0.08070524  0.25412413  0.51314519  1
  Rb  Rb2  1  0.08070524  0.58745747  0.01314519  1
  Rb  Rb3  1  0.08070524  0.58745747  0.51314519  1
  Rb  Rb4  1  0.08070524  0.92079080  0.01314519  1
  Rb  Rb5  1  0.08070524  0.92079080  0.51314519  1
  Rb  Rb6  1  0.41403857  0.25412413  0.01314519  1
  Rb  Rb7  1  0.41403857  0.25412413  0.51314519  1
  Rb  Rb8  1  0.41403857  0.58745747  0.01314519  1
  Rb  Rb9  1  0.41403857  0.58745747  0.51314519  1
  Rb  Rb10  1  0.41403857  0.92079080  0.01314519  1
  Rb  Rb11  1  0.41403857  0.92079080  0.51314519  1
  Rb  Rb12  1  0.74737190  0.25412413  0.01314519  1
  Rb  Rb13  1  0.74737190  0.25412413  0.51314519  1
  Rb  Rb14  1  0.74737190  0.58745747  0.01314519  1
  Rb  Rb15  1  0.74737190  0.58745747  0.51314519  1
  Rb  Rb16  1  0.74737190  0.92079080  0.01314519  1
  Rb  Rb17  1  0.74737190  0.92079080  0.51314519  1
  Rb  Rb18  1  0.09175331  0.16995472  0.21967920  1
  Rb  Rb19  1  0.09175331  0.16995472  0.71967920  1
  Rb  Rb20  1  0.09175331  0.50328806  0.21967920  1
  Rb  Rb21  1  0.09175331  0.50328806  0.71967920  1
  Rb  Rb22  1  0.09175331  0.83662139  0.21967920  1
  Rb  Rb23  1  0.09175331  0.83662139  0.71967920  1
  Rb  Rb24  1  0.42508664  0.16995472  0.21967920  1
  Rb  Rb25  1  0.42508664  0.16995472  0.71967920  1
  Rb  Rb26  1  0.42508664  0.50328806  0.21967920  1
  Rb  Rb27  1  0.42508664  0.50328806  0.71967920  1
  Rb  Rb28  1  0.42508664  0.83662139  0.21967920  1
  Rb  Rb29  1  0.42508664  0.83662139  0.71967920  1
  Rb  Rb30  1  0.75841997  0.16995472  0.21967920  1
  Rb  Rb31  1  0.75841997  0.16995472  0.71967920  1
  Rb  Rb32  1  0.75841997  0.50328806  0.21967920  1
  Rb  Rb33  1  0.75841997  0.50328806  0.71967920  1
  Rb  Rb34  1  0.75841997  0.83662139  0.21967920  1
  Rb  Rb35  1  0.75841997  0.83662139  0.71967920  1
  Rb  Rb36  1  0.08414367  0.13780303  0.41524553  1
  Rb  Rb37  1  0.08414367  0.13780303  0.91524553  1
  Rb  Rb38  1  0.08414367  0.47113636  0.41524553  1
  Rb  Rb39  1  0.08414367  0.47113636  0.91524553  1
  Rb  Rb40  1  0.08414367  0.80446969  0.41524553  1
  Rb  Rb41  1  0.08414367  0.80446969  0.91524553  1
  Rb  Rb42  1  0.41747701  0.13780303  0.41524553  1
  Rb  Rb43  1  0.41747701  0.13780303  0.91524553  1
  Rb  Rb44  1  0.41747701  0.47113636  0.41524553  1
  Rb  Rb45  1  0.41747701  0.47113636  0.91524553  1
  Rb  Rb46  1  0.41747701  0.80446969  0.41524553  1
  Rb  Rb47  1  0.41747701  0.80446969  0.91524553  1
  Rb  Rb48  1  0.75081034  0.13780303  0.41524553  1
  Rb  Rb49  1  0.75081034  0.13780303  0.91524553  1
  Rb  Rb50  1  0.75081034  0.47113636  0.41524553  1
  Rb  Rb51  1  0.75081034  0.47113636  0.91524553  1
  Rb  Rb52  1  0.75081034  0.80446969  0.41524553  1
  Rb  Rb53  1  0.75081034  0.80446969  0.91524553  1
  Rb  Rb54  1  0.07382924  0.32033339  0.30771204  1
  Rb  Rb55  1  0.07382924  0.32033339  0.80771204  1
  Rb  Rb56  1  0.07382924  0.65366672  0.30771204  1
  Rb  Rb57  1  0.07382924  0.65366672  0.80771204  1
  Rb  Rb58  1  0.07382924  0.98700005  0.30771204  1
  Rb  Rb59  1  0.07382924  0.98700005  0.80771204  1
  Rb  Rb60  1  0.40716257  0.32033339  0.30771204  1
  Rb  Rb61  1  0.40716257  0.32033339  0.80771204  1
  Rb  Rb62  1  0.40716257  0.65366672  0.30771204  1
  Rb  Rb63  1  0.40716257  0.65366672  0.80771204  1
  Rb  Rb64  1  0.40716257  0.98700005  0.30771204  1
  Rb  Rb65  1  0.40716257  0.98700005  0.80771204  1
  Rb  Rb66  1  0.74049591  0.32033339  0.30771204  1
  Rb  Rb67  1  0.74049591  0.32033339  0.80771204  1
  Rb  Rb68  1  0.74049591  0.65366672  0.30771204  1
  Rb  Rb69  1  0.74049591  0.65366672  0.80771204  1
  Rb  Rb70  1  0.74049591  0.98700005  0.30771204  1
  Rb  Rb71  1  0.74049591  0.98700005  0.80771204  1
  Rb  Rb72  1  0.25950409  0.01299995  0.19228796  1
  Rb  Rb73  1  0.25950409  0.01299995  0.69228796  1
  Rb  Rb74  1  0.25950409  0.34633328  0.19228796  1
  Rb  Rb75  1  0.25950409  0.34633328  0.69228796  1
  Rb  Rb76  1  0.25950409  0.67966661  0.19228796  1
  Rb  Rb77  1  0.25950409  0.67966661  0.69228796  1
  Rb  Rb78  1  0.59283743  0.01299995  0.19228796  1
  Rb  Rb79  1  0.59283743  0.01299995  0.69228796  1
  Rb  Rb80  1  0.59283743  0.34633328  0.19228796  1
  Rb  Rb81  1  0.59283743  0.34633328  0.69228796  1
  Rb  Rb82  1  0.59283743  0.67966661  0.19228796  1
  Rb  Rb83  1  0.59283743  0.67966661  0.69228796  1
  Rb  Rb84  1  0.92617076  0.01299995  0.19228796  1
  Rb  Rb85  1  0.92617076  0.01299995  0.69228796  1
  Rb  Rb86  1  0.92617076  0.34633328  0.19228796  1
  Rb  Rb87  1  0.92617076  0.34633328  0.69228796  1
  Rb  Rb88  1  0.92617076  0.67966661  0.19228796  1
  Rb  Rb89  1  0.92617076  0.67966661  0.69228796  1
  Rb  Rb90  1  0.24918966  0.19553031  0.08475447  1
  Rb  Rb91  1  0.24918966  0.19553031  0.58475447  1
  Rb  Rb92  1  0.24918966  0.52886364  0.08475447  1
  Rb  Rb93  1  0.24918966  0.52886364  0.58475447  1
  Rb  Rb94  1  0.24918966  0.86219697  0.08475447  1
  Rb  Rb95  1  0.24918966  0.86219697  0.58475447  1
  Rb  Rb96  1  0.58252299  0.19553031  0.08475447  1
  Rb  Rb97  1  0.58252299  0.19553031  0.58475447  1
  Rb  Rb98  1  0.58252299  0.52886364  0.08475447  1
  Rb  Rb99  1  0.58252299  0.52886364  0.58475447  1
  Rb  Rb100  1  0.58252299  0.86219697  0.08475447  1
  Rb  Rb101  1  0.58252299  0.86219697  0.58475447  1
  Rb  Rb102  1  0.91585633  0.19553031  0.08475447  1
  Rb  Rb103  1  0.91585633  0.19553031  0.58475447  1
  Rb  Rb104  1  0.91585633  0.52886364  0.08475447  1
  Rb  Rb105  1  0.91585633  0.52886364  0.58475447  1
  Rb  Rb106  1  0.91585633  0.86219697  0.08475447  1
  Rb  Rb107  1  0.91585633  0.86219697  0.58475447  1
  Rb  Rb108  1  0.24158003  0.16337861  0.28032080  1
  Rb  Rb109  1  0.24158003  0.16337861  0.78032080  1
  Rb  Rb110  1  0.24158003  0.49671194  0.28032080  1
  Rb  Rb111  1  0.24158003  0.49671194  0.78032080  1
  Rb  Rb112  1  0.24158003  0.83004528  0.28032080  1
  Rb  Rb113  1  0.24158003  0.83004528  0.78032080  1
  Rb  Rb114  1  0.57491336  0.16337861  0.28032080  1
  Rb  Rb115  1  0.57491336  0.16337861  0.78032080  1
  Rb  Rb116  1  0.57491336  0.49671194  0.28032080  1
  Rb  Rb117  1  0.57491336  0.49671194  0.78032080  1
  Rb  Rb118  1  0.57491336  0.83004528  0.28032080  1
  Rb  Rb119  1  0.57491336  0.83004528  0.78032080  1
  Rb  Rb120  1  0.90824669  0.16337861  0.28032080  1
  Rb  Rb121  1  0.90824669  0.16337861  0.78032080  1
  Rb  Rb122  1  0.90824669  0.49671194  0.28032080  1
  Rb  Rb123  1  0.90824669  0.49671194  0.78032080  1
  Rb  Rb124  1  0.90824669  0.83004528  0.28032080  1
  Rb  Rb125  1  0.90824669  0.83004528  0.78032080  1
  Rb  Rb126  1  0.25262810  0.07920920  0.48685481  1
  Rb  Rb127  1  0.25262810  0.07920920  0.98685481  1
  Rb  Rb128  1  0.25262810  0.41254253  0.48685481  1
  Rb  Rb129  1  0.25262810  0.41254253  0.98685481  1
  Rb  Rb130  1  0.25262810  0.74587587  0.48685481  1
  Rb  Rb131  1  0.25262810  0.74587587  0.98685481  1
  Rb  Rb132  1  0.58596143  0.07920920  0.48685481  1
  Rb  Rb133  1  0.58596143  0.07920920  0.98685481  1
  Rb  Rb134  1  0.58596143  0.41254253  0.48685481  1
  Rb  Rb135  1  0.58596143  0.41254253  0.98685481  1
  Rb  Rb136  1  0.58596143  0.74587587  0.48685481  1
  Rb  Rb137  1  0.58596143  0.74587587  0.98685481  1
  Rb  Rb138  1  0.91929476  0.07920920  0.48685481  1
  Rb  Rb139  1  0.91929476  0.07920920  0.98685481  1
  Rb  Rb140  1  0.91929476  0.41254253  0.48685481  1
  Rb  Rb141  1  0.91929476  0.41254253  0.98685481  1
  Rb  Rb142  1  0.91929476  0.74587587  0.48685481  1
  Rb  Rb143  1  0.91929476  0.74587587  0.98685481  1
  Pb  Pb144  1  0.09312138  0.05163685  0.12318879  1
  Pb  Pb145  1  0.09312138  0.05163685  0.62318879  1
  Pb  Pb146  1  0.09312138  0.38497018  0.12318879  1
  Pb  Pb147  1  0.09312138  0.38497018  0.62318879  1
  Pb  Pb148  1  0.09312138  0.71830351  0.12318879  1
  Pb  Pb149  1  0.09312138  0.71830351  0.62318879  1
  Pb  Pb150  1  0.42645471  0.05163685  0.12318879  1
  Pb  Pb151  1  0.42645471  0.05163685  0.62318879  1
  Pb  Pb152  1  0.42645471  0.38497018  0.12318879  1
  Pb  Pb153  1  0.42645471  0.38497018  0.62318879  1
  Pb  Pb154  1  0.42645471  0.71830351  0.12318879  1
  Pb  Pb155  1  0.42645471  0.71830351  0.62318879  1
  Pb  Pb156  1  0.75978804  0.05163685  0.12318879  1
  Pb  Pb157  1  0.75978804  0.05163685  0.62318879  1
  Pb  Pb158  1  0.75978804  0.38497018  0.12318879  1
  Pb  Pb159  1  0.75978804  0.38497018  0.62318879  1
  Pb  Pb160  1  0.75978804  0.71830351  0.12318879  1
  Pb  Pb161  1  0.75978804  0.71830351  0.62318879  1
  Pb  Pb162  1  0.24021196  0.28169649  0.37681121  1
  Pb  Pb163  1  0.24021196  0.28169649  0.87681121  1
  Pb  Pb164  1  0.24021196  0.61502982  0.37681121  1
  Pb  Pb165  1  0.24021196  0.61502982  0.87681121  1
  Pb  Pb166  1  0.24021196  0.94836315  0.37681121  1
  Pb  Pb167  1  0.24021196  0.94836315  0.87681121  1
  Pb  Pb168  1  0.57354529  0.28169649  0.37681121  1
  Pb  Pb169  1  0.57354529  0.28169649  0.87681121  1
  Pb  Pb170  1  0.57354529  0.61502982  0.37681121  1
  Pb  Pb171  1  0.57354529  0.61502982  0.87681121  1
  Pb  Pb172  1  0.57354529  0.94836315  0.37681121  1
  Pb  Pb173  1  0.57354529  0.94836315  0.87681121  1
  Pb  Pb174  1  0.90687862  0.28169649  0.37681121  1
  Pb  Pb175  1  0.90687862  0.28169649  0.87681121  1
  Pb  Pb176  1  0.90687862  0.61502982  0.37681121  1
  Pb  Pb177  1  0.90687862  0.61502982  0.87681121  1
  Pb  Pb178  1  0.90687862  0.94836315  0.37681121  1
  Pb  Pb179  1  0.90687862  0.94836315  0.87681121  1
  O  O180  1  0.04165838  0.05419246  0.04231081  1
  O  O181  1  0.04165838  0.05419246  0.54231081  1
  O  O182  1  0.04165838  0.38752580  0.04231081  1
  O  O183  1  0.04165838  0.38752580  0.54231081  1
  O  O184  1  0.04165838  0.72085913  0.04231081  1
  O  O185  1  0.04165838  0.72085913  0.54231081  1
  O  O186  1  0.37499171  0.05419246  0.04231081  1
  O  O187  1  0.37499171  0.05419246  0.54231081  1
  O  O188  1  0.37499171  0.38752580  0.04231081  1
  O  O189  1  0.37499171  0.38752580  0.54231081  1
  O  O190  1  0.37499171  0.72085913  0.04231081  1
  O  O191  1  0.37499171  0.72085913  0.54231081  1
  O  O192  1  0.70832504  0.05419246  0.04231081  1
  O  O193  1  0.70832504  0.05419246  0.54231081  1
  O  O194  1  0.70832504  0.38752580  0.04231081  1
  O  O195  1  0.70832504  0.38752580  0.54231081  1
  O  O196  1  0.70832504  0.72085913  0.04231081  1
  O  O197  1  0.70832504  0.72085913  0.54231081  1
  O  O198  1  0.00953350  0.10049379  0.19019657  1
  O  O199  1  0.00953350  0.10049379  0.69019657  1
  O  O200  1  0.00953350  0.43382712  0.19019657  1
  O  O201  1  0.00953350  0.43382712  0.69019657  1
  O  O202  1  0.00953350  0.76716045  0.19019657  1
  O  O203  1  0.00953350  0.76716045  0.69019657  1
  O  O204  1  0.34286683  0.10049379  0.19019657  1
  O  O205  1  0.34286683  0.10049379  0.69019657  1
  O  O206  1  0.34286683  0.43382712  0.19019657  1
  O  O207  1  0.34286683  0.43382712  0.69019657  1
  O  O208  1  0.34286683  0.76716045  0.19019657  1
  O  O209  1  0.34286683  0.76716045  0.69019657  1
  O  O210  1  0.67620016  0.10049379  0.19019657  1
  O  O211  1  0.67620016  0.10049379  0.69019657  1
  O  O212  1  0.67620016  0.43382712  0.19019657  1
  O  O213  1  0.67620016  0.43382712  0.69019657  1
  O  O214  1  0.67620016  0.76716045  0.19019657  1
  O  O215  1  0.67620016  0.76716045  0.69019657  1
  O  O216  1  0.15742134  0.11698682  0.09570599  1
  O  O217  1  0.15742134  0.11698682  0.59570599  1
  O  O218  1  0.15742134  0.45032015  0.09570599  1
  O  O219  1  0.15742134  0.45032015  0.59570599  1
  O  O220  1  0.15742134  0.78365349  0.09570599  1
  O  O221  1  0.15742134  0.78365349  0.59570599  1
  O  O222  1  0.49075468  0.11698682  0.09570599  1
  O  O223  1  0.49075468  0.11698682  0.59570599  1
  O  O224  1  0.49075468  0.45032015  0.09570599  1
  O  O225  1  0.49075468  0.45032015  0.59570599  1
  O  O226  1  0.49075468  0.78365349  0.09570599  1
  O  O227  1  0.49075468  0.78365349  0.59570599  1
  O  O228  1  0.82408801  0.11698682  0.09570599  1
  O  O229  1  0.82408801  0.11698682  0.59570599  1
  O  O230  1  0.82408801  0.45032015  0.09570599  1
  O  O231  1  0.82408801  0.45032015  0.59570599  1
  O  O232  1  0.82408801  0.78365349  0.09570599  1
  O  O233  1  0.82408801  0.78365349  0.59570599  1
  O  O234  1  0.17714805  0.05397138  0.32125691  1
  O  O235  1  0.17714805  0.05397138  0.82125691  1
  O  O236  1  0.17714805  0.38730471  0.32125691  1
  O  O237  1  0.17714805  0.38730471  0.82125691  1
  O  O238  1  0.17714805  0.72063804  0.32125691  1
  O  O239  1  0.17714805  0.72063804  0.82125691  1
  O  O240  1  0.51048138  0.05397138  0.32125691  1
  O  O241  1  0.51048138  0.05397138  0.82125691  1
  O  O242  1  0.51048138  0.38730471  0.32125691  1
  O  O243  1  0.51048138  0.38730471  0.82125691  1
  O  O244  1  0.51048138  0.72063804  0.32125691  1
  O  O245  1  0.51048138  0.72063804  0.82125691  1
  O  O246  1  0.84381472  0.05397138  0.32125691  1
  O  O247  1  0.84381472  0.05397138  0.82125691  1
  O  O248  1  0.84381472  0.38730471  0.32125691  1
  O  O249  1  0.84381472  0.38730471  0.82125691  1
  O  O250  1  0.84381472  0.72063804  0.32125691  1
  O  O251  1  0.84381472  0.72063804  0.82125691  1
  O  O252  1  0.15618528  0.27936196  0.17874309  1
  O  O253  1  0.15618528  0.27936196  0.67874309  1
  O  O254  1  0.15618528  0.61269529  0.17874309  1
  O  O255  1  0.15618528  0.61269529  0.67874309  1
  O  O256  1  0.15618528  0.94602862  0.17874309  1
  O  O257  1  0.15618528  0.94602862  0.67874309  1
  O  O258  1  0.48951862  0.27936196  0.17874309  1
  O  O259  1  0.48951862  0.27936196  0.67874309  1
  O  O260  1  0.48951862  0.61269529  0.17874309  1
  O  O261  1  0.48951862  0.61269529  0.67874309  1
  O  O262  1  0.48951862  0.94602862  0.17874309  1
  O  O263  1  0.48951862  0.94602862  0.67874309  1
  O  O264  1  0.82285195  0.27936196  0.17874309  1
  O  O265  1  0.82285195  0.27936196  0.67874309  1
  O  O266  1  0.82285195  0.61269529  0.17874309  1
  O  O267  1  0.82285195  0.61269529  0.67874309  1
  O  O268  1  0.82285195  0.94602862  0.17874309  1
  O  O269  1  0.82285195  0.94602862  0.67874309  1
  O  O270  1  0.17591199  0.21634651  0.40429401  1
  O  O271  1  0.17591199  0.21634651  0.90429401  1
  O  O272  1  0.17591199  0.54967985  0.40429401  1
  O  O273  1  0.17591199  0.54967985  0.90429401  1
  O  O274  1  0.17591199  0.88301318  0.40429401  1
  O  O275  1  0.17591199  0.88301318  0.90429401  1
  O  O276  1  0.50924532  0.21634651  0.40429401  1
  O  O277  1  0.50924532  0.21634651  0.90429401  1
  O  O278  1  0.50924532  0.54967985  0.40429401  1
  O  O279  1  0.50924532  0.54967985  0.90429401  1
  O  O280  1  0.50924532  0.88301318  0.40429401  1
  O  O281  1  0.50924532  0.88301318  0.90429401  1
  O  O282  1  0.84257866  0.21634651  0.40429401  1
  O  O283  1  0.84257866  0.21634651  0.90429401  1
  O  O284  1  0.84257866  0.54967985  0.40429401  1
  O  O285  1  0.84257866  0.54967985  0.90429401  1
  O  O286  1  0.84257866  0.88301318  0.40429401  1
  O  O287  1  0.84257866  0.88301318  0.90429401  1
  O  O288  1  0.32379984  0.23283955  0.30980343  1
  O  O289  1  0.32379984  0.23283955  0.80980343  1
  O  O290  1  0.32379984  0.56617288  0.30980343  1
  O  O291  1  0.32379984  0.56617288  0.80980343  1
  O  O292  1  0.32379984  0.89950621  0.30980343  1
  O  O293  1  0.32379984  0.89950621  0.80980343  1
  O  O294  1  0.65713317  0.23283955  0.30980343  1
  O  O295  1  0.65713317  0.23283955  0.80980343  1
  O  O296  1  0.65713317  0.56617288  0.30980343  1
  O  O297  1  0.65713317  0.56617288  0.80980343  1
  O  O298  1  0.65713317  0.89950621  0.30980343  1
  O  O299  1  0.65713317  0.89950621  0.80980343  1
  O  O300  1  0.99046650  0.23283955  0.30980343  1
  O  O301  1  0.99046650  0.23283955  0.80980343  1
  O  O302  1  0.99046650  0.56617288  0.30980343  1
  O  O303  1  0.99046650  0.56617288  0.80980343  1
  O  O304  1  0.99046650  0.89950621  0.30980343  1
  O  O305  1  0.99046650  0.89950621  0.80980343  1
  O  O306  1  0.29167496  0.27914087  0.45768919  1
  O  O307  1  0.29167496  0.27914087  0.95768919  1
  O  O308  1  0.29167496  0.61247420  0.45768919  1
  O  O309  1  0.29167496  0.61247420  0.95768919  1
  O  O310  1  0.29167496  0.94580754  0.45768919  1
  O  O311  1  0.29167496  0.94580754  0.95768919  1
  O  O312  1  0.62500829  0.27914087  0.45768919  1
  O  O313  1  0.62500829  0.27914087  0.95768919  1
  O  O314  1  0.62500829  0.61247420  0.45768919  1
  O  O315  1  0.62500829  0.61247420  0.95768919  1
  O  O316  1  0.62500829  0.94580754  0.45768919  1
  O  O317  1  0.62500829  0.94580754  0.95768919  1
  O  O318  1  0.95834162  0.27914087  0.45768919  1
  O  O319  1  0.95834162  0.27914087  0.95768919  1
  O  O320  1  0.95834162  0.61247420  0.45768919  1
  O  O321  1  0.95834162  0.61247420  0.95768919  1
  O  O322  1  0.95834162  0.94580754  0.45768919  1
  O  O323  1  0.95834162  0.94580754  0.95768919  1
