# generated using pymatgen
data_Na2GeO3
_symmetry_space_group_name_H-M   'P 1'
_cell_length_a   10.85291556
_cell_length_b   12.45248446
_cell_length_c   9.75212699
_cell_angle_alpha   90.00000000
_cell_angle_beta   90.00000000
_cell_angle_gamma   90.00000000
_symmetry_Int_Tables_number   1
_chemical_formula_structural   Na2GeO3
_chemical_formula_sum   'Na32 Ge16 O48'
_cell_volume   1317.95863667
_cell_formula_units_Z   16
loop_
 _symmetry_equiv_pos_site_id
 _symmetry_equiv_pos_as_xyz
  1  'x, y, z'
loop_
 _atom_site_type_symbol
 _atom_site_label
 _atom_site_symmetry_multiplicity
 _atom_site_fract_x
 _atom_site_fract_y
 _atom_site_fract_z
 _atom_site_occupancy
  Na  Na0  1  0.66778747  0.08062956  0.25067492  1
  Na  Na1  1  0.66778747  0.08062956  0.75067492  1
  Na  Na2  1  0.66778747  0.58062956  0.25067492  1
  Na  Na3  1  0.66778747  0.58062956  0.75067492  1
  Na  Na4  1  1.16778747  0.33062956  0.25067492  1
  Na  Na5  1  1.16778747  0.33062956  0.75067492  1
  Na  Na6  1  1.16778747  0.83062956  0.25067492  1
  Na  Na7  1  1.16778747  0.83062956  0.75067492  1
  Na  Na8  1  0.33221253  0.08062956  0.25067492  1
  Na  Na9  1  0.33221253  0.08062956  0.75067492  1
  Na  Na10  1  0.33221253  0.58062956  0.25067492  1
  Na  Na11  1  0.33221253  0.58062956  0.75067492  1
  Na  Na12  1  0.83221253  0.33062956  0.25067492  1
  Na  Na13  1  0.83221253  0.33062956  0.75067492  1
  Na  Na14  1  0.83221253  0.83062956  0.25067492  1
  Na  Na15  1  0.83221253  0.83062956  0.75067492  1
  Na  Na16  1  0.33221253  -0.08062956  0.00067492  1
  Na  Na17  1  0.33221253  -0.08062956  0.50067492  1
  Na  Na18  1  0.33221253  0.41937044  0.00067492  1
  Na  Na19  1  0.33221253  0.41937044  0.50067492  1
  Na  Na20  1  0.83221253  0.16937044  0.00067492  1
  Na  Na21  1  0.83221253  0.16937044  0.50067492  1
  Na  Na22  1  0.83221253  0.66937044  0.00067492  1
  Na  Na23  1  0.83221253  0.66937044  0.50067492  1
  Na  Na24  1  0.66778747  -0.08062956  0.00067492  1
  Na  Na25  1  0.66778747  -0.08062956  0.50067492  1
  Na  Na26  1  0.66778747  0.41937044  0.00067492  1
  Na  Na27  1  0.66778747  0.41937044  0.50067492  1
  Na  Na28  1  1.16778747  0.16937044  0.00067492  1
  Na  Na29  1  1.16778747  0.16937044  0.50067492  1
  Na  Na30  1  1.16778747  0.66937044  0.00067492  1
  Na  Na31  1  1.16778747  0.66937044  0.50067492  1
  Ge  Ge32  1  0.50000000  -0.16680901  0.23311819  1
  Ge  Ge33  1  0.50000000  -0.16680901  0.73311819  1
  Ge  Ge34  1  0.50000000  0.33319099  0.23311819  1
  Ge  Ge35  1  0.50000000  0.33319099  0.73311819  1
  Ge  Ge36  1  1.00000000  0.08319099  0.23311819  1
  Ge  Ge37  1  1.00000000  0.08319099  0.73311819  1
  Ge  Ge38  1  1.00000000  0.58319099  0.23311819  1
  Ge  Ge39  1  1.00000000  0.58319099  0.73311819  1
  Ge  Ge40  1  0.50000000  0.16680901  0.48311819  1
  Ge  Ge41  1  0.50000000  0.16680901  0.98311819  1
  Ge  Ge42  1  0.50000000  0.66680901  0.48311819  1
  Ge  Ge43  1  0.50000000  0.66680901  0.98311819  1
  Ge  Ge44  1  1.00000000  0.41680901  0.48311819  1
  Ge  Ge45  1  1.00000000  0.41680901  0.98311819  1
  Ge  Ge46  1  1.00000000  0.91680901  0.48311819  1
  Ge  Ge47  1  1.00000000  0.91680901  0.98311819  1
  O  O48  1  0.50000000  0.19444725  0.29607837  1
  O  O49  1  0.50000000  0.19444725  0.79607837  1
  O  O50  1  0.50000000  0.69444725  0.29607837  1
  O  O51  1  0.50000000  0.69444725  0.79607837  1
  O  O52  1  1.00000000  0.44444725  0.29607837  1
  O  O53  1  1.00000000  0.44444725  0.79607837  1
  O  O54  1  1.00000000  0.94444725  0.29607837  1
  O  O55  1  1.00000000  0.94444725  0.79607837  1
  O  O56  1  0.50000000  -0.19444725  0.04607837  1
  O  O57  1  0.50000000  -0.19444725  0.54607837  1
  O  O58  1  0.50000000  0.30555275  0.04607837  1
  O  O59  1  0.50000000  0.30555275  0.54607837  1
  O  O60  1  1.00000000  0.05555275  0.04607837  1
  O  O61  1  1.00000000  0.05555275  0.54607837  1
  O  O62  1  1.00000000  0.55555275  0.04607837  1
  O  O63  1  1.00000000  0.55555275  0.54607837  1
  O  O64  1  0.36052201  -0.10020542  0.26357680  1
  O  O65  1  0.36052201  -0.10020542  0.76357680  1
  O  O66  1  0.36052201  0.39979458  0.26357680  1
  O  O67  1  0.36052201  0.39979458  0.76357680  1
  O  O68  1  0.86052201  0.14979458  0.26357680  1
  O  O69  1  0.86052201  0.14979458  0.76357680  1
  O  O70  1  0.86052201  0.64979458  0.26357680  1
  O  O71  1  0.86052201  0.64979458  0.76357680  1
  O  O72  1  0.63947799  0.10020542  0.01357680  1
  O  O73  1  0.63947799  0.10020542  0.51357680  1
  O  O74  1  0.63947799  0.60020542  0.01357680  1
  O  O75  1  0.63947799  0.60020542  0.51357680  1
  O  O76  1  1.13947799  0.35020542  0.01357680  1
  O  O77  1  1.13947799  0.35020542  0.51357680  1
  O  O78  1  1.13947799  0.85020542  0.01357680  1
  O  O79  1  1.13947799  0.85020542  0.51357680  1
  O  O80  1  0.63947799  -0.10020542  0.26357680  1
  O  O81  1  0.63947799  -0.10020542  0.76357680  1
  O  O82  1  0.63947799  0.39979458  0.26357680  1
  O  O83  1  0.63947799  0.39979458  0.76357680  1
  O  O84  1  1.13947799  0.14979458  0.26357680  1
  O  O85  1  1.13947799  0.14979458  0.76357680  1
  O  O86  1  1.13947799  0.64979458  0.26357680  1
  O  O87  1  1.13947799  0.64979458  0.76357680  1
  O  O88  1  0.36052201  0.10020542  0.01357680  1
  O  O89  1  0.36052201  0.10020542  0.51357680  1
  O  O90  1  0.36052201  0.60020542  0.01357680  1
  O  O91  1  0.36052201  0.60020542  0.51357680  1
  O  O92  1  0.86052201  0.35020542  0.01357680  1
  O  O93  1  0.86052201  0.35020542  0.51357680  1
  O  O94  1  0.86052201  0.85020542  0.01357680  1
  O  O95  1  0.86052201  0.85020542  0.51357680  1
