# generated using pymatgen
data_Cs2Zr(SiO3)3
_symmetry_space_group_name_H-M   'P 1'
_cell_length_a   14.41754530
_cell_length_b   14.41754530
_cell_length_c   10.32546889
_cell_angle_alpha   90.00000000
_cell_angle_beta   90.00000000
_cell_angle_gamma   120.00000000
_symmetry_Int_Tables_number   1
_chemical_formula_structural   Cs2Zr(SiO3)3
_chemical_formula_sum   'Cs16 Zr8 Si24 O72'
_cell_volume   1858.75891194
_cell_formula_units_Z   8
loop_
 _symmetry_equiv_pos_site_id
 _symmetry_equiv_pos_as_xyz
  1  'x, y, z'
loop_
 _atom_site_type_symbol
 _atom_site_label
 _atom_site_symmetry_multiplicity
 _atom_site_fract_x
 _atom_site_fract_y
 _atom_site_fract_z
 _atom_site_occupancy
  Cs  Cs0  1  0.33333333  0.16666667  0.93819288  1
  Cs  Cs1  1  0.33333333  0.66666667  0.93819288  1
  Cs  Cs2  1  0.83333333  0.16666667  0.93819288  1
  Cs  Cs3  1  0.83333333  0.66666667  0.93819288  1
  Cs  Cs4  1  0.16666667  0.33333333  0.43819288  1
  Cs  Cs5  1  0.16666667  0.83333333  0.43819288  1
  Cs  Cs6  1  0.66666667  0.33333333  0.43819288  1
  Cs  Cs7  1  0.66666667  0.83333333  0.43819288  1
  Cs  Cs8  1  0.16666667  0.33333333  0.06180712  1
  Cs  Cs9  1  0.16666667  0.83333333  0.06180712  1
  Cs  Cs10  1  0.66666667  0.33333333  0.06180712  1
  Cs  Cs11  1  0.66666667  0.83333333  0.06180712  1
  Cs  Cs12  1  0.33333333  0.16666667  0.56180712  1
  Cs  Cs13  1  0.33333333  0.66666667  0.56180712  1
  Cs  Cs14  1  0.83333333  0.16666667  0.56180712  1
  Cs  Cs15  1  0.83333333  0.66666667  0.56180712  1
  Zr  Zr16  1  0.00000000  0.00000000  0.00000000  1
  Zr  Zr17  1  -0.00000000  0.50000000  0.00000000  1
  Zr  Zr18  1  0.50000000  0.00000000  0.00000000  1
  Zr  Zr19  1  0.50000000  0.50000000  0.00000000  1
  Zr  Zr20  1  0.00000000  0.00000000  0.50000000  1
  Zr  Zr21  1  -0.00000000  0.50000000  0.50000000  1
  Zr  Zr22  1  0.50000000  0.00000000  0.50000000  1
  Zr  Zr23  1  0.50000000  0.50000000  0.50000000  1
  Si  Si24  1  0.37987203  0.07384752  0.25000000  1
  Si  Si25  1  0.37987203  0.57384752  0.25000000  1
  Si  Si26  1  0.87987203  0.07384752  0.25000000  1
  Si  Si27  1  0.87987203  0.57384752  0.25000000  1
  Si  Si28  1  0.30602451  0.37987203  0.75000000  1
  Si  Si29  1  0.30602451  0.87987203  0.75000000  1
  Si  Si30  1  0.80602451  0.37987203  0.75000000  1
  Si  Si31  1  0.80602451  0.87987203  0.75000000  1
  Si  Si32  1  0.07384752  0.19397549  0.75000000  1
  Si  Si33  1  0.07384752  0.69397549  0.75000000  1
  Si  Si34  1  0.57384752  0.19397549  0.75000000  1
  Si  Si35  1  0.57384752  0.69397549  0.75000000  1
  Si  Si36  1  0.42615248  0.30602451  0.25000000  1
  Si  Si37  1  0.42615248  0.80602451  0.25000000  1
  Si  Si38  1  0.92615248  0.30602451  0.25000000  1
  Si  Si39  1  0.92615248  0.80602451  0.25000000  1
  Si  Si40  1  0.19397549  0.12012797  0.25000000  1
  Si  Si41  1  0.19397549  0.62012797  0.25000000  1
  Si  Si42  1  0.69397549  0.12012797  0.25000000  1
  Si  Si43  1  0.69397549  0.62012797  0.25000000  1
  Si  Si44  1  0.12012797  0.42615248  0.75000000  1
  Si  Si45  1  0.12012797  0.92615248  0.75000000  1
  Si  Si46  1  0.62012797  0.42615248  0.75000000  1
  Si  Si47  1  0.62012797  0.92615248  0.75000000  1
  O  O48  1  0.10255170  0.47383402  0.88297441  1
  O  O49  1  0.10255170  0.97383402  0.88297441  1
  O  O50  1  0.60255170  0.47383402  0.88297441  1
  O  O51  1  0.60255170  0.97383402  0.88297441  1
  O  O52  1  0.12871768  0.10255170  0.38297441  1
  O  O53  1  0.12871768  0.60255170  0.38297441  1
  O  O54  1  0.62871768  0.10255170  0.38297441  1
  O  O55  1  0.62871768  0.60255170  0.38297441  1
  O  O56  1  0.47383402  0.37128232  0.38297441  1
  O  O57  1  0.47383402  0.87128232  0.38297441  1
  O  O58  1  0.97383402  0.37128232  0.38297441  1
  O  O59  1  0.97383402  0.87128232  0.38297441  1
  O  O60  1  0.02616598  0.12871768  0.88297441  1
  O  O61  1  0.02616598  0.62871768  0.88297441  1
  O  O62  1  0.52616598  0.12871768  0.88297441  1
  O  O63  1  0.52616598  0.62871768  0.88297441  1
  O  O64  1  0.37128232  0.39744830  0.88297441  1
  O  O65  1  0.37128232  0.89744830  0.88297441  1
  O  O66  1  0.87128232  0.39744830  0.88297441  1
  O  O67  1  0.87128232  0.89744830  0.88297441  1
  O  O68  1  0.39744830  0.02616598  0.38297441  1
  O  O69  1  0.39744830  0.52616598  0.38297441  1
  O  O70  1  0.89744830  0.02616598  0.38297441  1
  O  O71  1  0.89744830  0.52616598  0.38297441  1
  O  O72  1  0.39744830  0.02616598  0.11702559  1
  O  O73  1  0.39744830  0.52616598  0.11702559  1
  O  O74  1  0.89744830  0.02616598  0.11702559  1
  O  O75  1  0.89744830  0.52616598  0.11702559  1
  O  O76  1  0.37128232  0.39744830  0.61702559  1
  O  O77  1  0.37128232  0.89744830  0.61702559  1
  O  O78  1  0.87128232  0.39744830  0.61702559  1
  O  O79  1  0.87128232  0.89744830  0.61702559  1
  O  O80  1  0.02616598  0.12871768  0.61702559  1
  O  O81  1  0.02616598  0.62871768  0.61702559  1
  O  O82  1  0.52616598  0.12871768  0.61702559  1
  O  O83  1  0.52616598  0.62871768  0.61702559  1
  O  O84  1  0.47383402  0.37128232  0.11702559  1
  O  O85  1  0.47383402  0.87128232  0.11702559  1
  O  O86  1  0.97383402  0.37128232  0.11702559  1
  O  O87  1  0.97383402  0.87128232  0.11702559  1
  O  O88  1  0.12871768  0.10255170  0.11702559  1
  O  O89  1  0.12871768  0.60255170  0.11702559  1
  O  O90  1  0.62871768  0.10255170  0.11702559  1
  O  O91  1  0.62871768  0.60255170  0.11702559  1
  O  O92  1  0.10255170  0.47383402  0.61702559  1
  O  O93  1  0.10255170  0.97383402  0.61702559  1
  O  O94  1  0.60255170  0.47383402  0.61702559  1
  O  O95  1  0.60255170  0.97383402  0.61702559  1
  O  O96  1  0.04624460  0.29350211  0.75000000  1
  O  O97  1  0.04624460  0.79350211  0.75000000  1
  O  O98  1  0.54624460  0.29350211  0.75000000  1
  O  O99  1  0.54624460  0.79350211  0.75000000  1
  O  O100  1  0.25274249  0.04624460  0.25000000  1
  O  O101  1  0.25274249  0.54624460  0.25000000  1
  O  O102  1  0.75274249  0.04624460  0.25000000  1
  O  O103  1  0.75274249  0.54624460  0.25000000  1
  O  O104  1  0.29350211  0.24725751  0.25000000  1
  O  O105  1  0.29350211  0.74725751  0.25000000  1
  O  O106  1  0.79350211  0.24725751  0.25000000  1
  O  O107  1  0.79350211  0.74725751  0.25000000  1
  O  O108  1  0.20649789  0.25274249  0.75000000  1
  O  O109  1  0.20649789  0.75274249  0.75000000  1
  O  O110  1  0.70649789  0.25274249  0.75000000  1
  O  O111  1  0.70649789  0.75274249  0.75000000  1
  O  O112  1  0.24725751  0.45375540  0.75000000  1
  O  O113  1  0.24725751  0.95375540  0.75000000  1
  O  O114  1  0.74725751  0.45375540  0.75000000  1
  O  O115  1  0.74725751  0.95375540  0.75000000  1
  O  O116  1  0.45375540  0.20649789  0.25000000  1
  O  O117  1  0.45375540  0.70649789  0.25000000  1
  O  O118  1  0.95375540  0.20649789  0.25000000  1
  O  O119  1  0.95375540  0.70649789  0.25000000  1
