# generated using pymatgen
data_Na3AuO2
_symmetry_space_group_name_H-M   'P 1'
_cell_length_a   13.57521198
_cell_length_b   13.57521198
_cell_length_c   13.59475808
_cell_angle_alpha   90.00000000
_cell_angle_beta   90.00000000
_cell_angle_gamma   90.00000000
_symmetry_Int_Tables_number   1
_chemical_formula_structural   Na3AuO2
_chemical_formula_sum   'Na72 Au24 O48'
_cell_volume   2505.32875592
_cell_formula_units_Z   24
loop_
 _symmetry_equiv_pos_site_id
 _symmetry_equiv_pos_as_xyz
  1  'x, y, z'
loop_
 _atom_site_type_symbol
 _atom_site_label
 _atom_site_symmetry_multiplicity
 _atom_site_fract_x
 _atom_site_fract_y
 _atom_site_fract_z
 _atom_site_occupancy
  Na  Na0  1  0.65611799  -0.00000000  0.16666667  1
  Na  Na1  1  0.65611799  -0.00000000  0.50000000  1
  Na  Na2  1  0.65611799  -0.00000000  0.83333333  1
  Na  Na3  1  1.15611799  0.50000000  0.16666667  1
  Na  Na4  1  1.15611799  0.50000000  0.50000000  1
  Na  Na5  1  1.15611799  0.50000000  0.83333333  1
  Na  Na6  1  0.33243974  0.18162353  0.00000000  1
  Na  Na7  1  0.33243974  0.18162353  0.33333333  1
  Na  Na8  1  0.33243974  0.18162353  0.66666667  1
  Na  Na9  1  0.83243974  0.68162353  0.00000000  1
  Na  Na10  1  0.83243974  0.68162353  0.33333333  1
  Na  Na11  1  0.83243974  0.68162353  0.66666667  1
  Na  Na12  1  0.81837647  -0.16756026  0.16666667  1
  Na  Na13  1  0.81837647  -0.16756026  0.50000000  1
  Na  Na14  1  0.81837647  -0.16756026  0.83333333  1
  Na  Na15  1  1.31837647  0.33243974  0.16666667  1
  Na  Na16  1  1.31837647  0.33243974  0.50000000  1
  Na  Na17  1  1.31837647  0.33243974  0.83333333  1
  Na  Na18  1  0.66756026  -0.18162353  0.00000000  1
  Na  Na19  1  0.66756026  -0.18162353  0.33333333  1
  Na  Na20  1  0.66756026  -0.18162353  0.66666667  1
  Na  Na21  1  1.16756026  0.31837647  0.00000000  1
  Na  Na22  1  1.16756026  0.31837647  0.33333333  1
  Na  Na23  1  1.16756026  0.31837647  0.66666667  1
  Na  Na24  1  0.18162353  -0.16756026  0.16666667  1
  Na  Na25  1  0.18162353  -0.16756026  0.50000000  1
  Na  Na26  1  0.18162353  -0.16756026  0.83333333  1
  Na  Na27  1  0.68162353  0.33243974  0.16666667  1
  Na  Na28  1  0.68162353  0.33243974  0.50000000  1
  Na  Na29  1  0.68162353  0.33243974  0.83333333  1
  Na  Na30  1  0.81837647  0.16756026  0.16666667  1
  Na  Na31  1  0.81837647  0.16756026  0.50000000  1
  Na  Na32  1  0.81837647  0.16756026  0.83333333  1
  Na  Na33  1  1.31837647  0.66756026  0.16666667  1
  Na  Na34  1  1.31837647  0.66756026  0.50000000  1
  Na  Na35  1  1.31837647  0.66756026  0.83333333  1
  Na  Na36  1  0.33243974  -0.18162353  0.00000000  1
  Na  Na37  1  0.33243974  -0.18162353  0.33333333  1
  Na  Na38  1  0.33243974  -0.18162353  0.66666667  1
  Na  Na39  1  0.83243974  0.31837647  0.00000000  1
  Na  Na40  1  0.83243974  0.31837647  0.33333333  1
  Na  Na41  1  0.83243974  0.31837647  0.66666667  1
  Na  Na42  1  0.66756026  0.18162353  0.00000000  1
  Na  Na43  1  0.66756026  0.18162353  0.33333333  1
  Na  Na44  1  0.66756026  0.18162353  0.66666667  1
  Na  Na45  1  1.16756026  0.68162353  0.00000000  1
  Na  Na46  1  1.16756026  0.68162353  0.33333333  1
  Na  Na47  1  1.16756026  0.68162353  0.66666667  1
  Na  Na48  1  0.50000000  -0.34388201  0.00000000  1
  Na  Na49  1  0.50000000  -0.34388201  0.33333333  1
  Na  Na50  1  0.50000000  -0.34388201  0.66666667  1
  Na  Na51  1  1.00000000  0.15611799  0.00000000  1
  Na  Na52  1  1.00000000  0.15611799  0.33333333  1
  Na  Na53  1  1.00000000  0.15611799  0.66666667  1
  Na  Na54  1  0.34388201  -0.00000000  0.16666667  1
  Na  Na55  1  0.34388201  -0.00000000  0.50000000  1
  Na  Na56  1  0.34388201  -0.00000000  0.83333333  1
  Na  Na57  1  0.84388201  0.50000000  0.16666667  1
  Na  Na58  1  0.84388201  0.50000000  0.50000000  1
  Na  Na59  1  0.84388201  0.50000000  0.83333333  1
  Na  Na60  1  0.18162353  0.16756026  0.16666667  1
  Na  Na61  1  0.18162353  0.16756026  0.50000000  1
  Na  Na62  1  0.18162353  0.16756026  0.83333333  1
  Na  Na63  1  0.68162353  0.66756026  0.16666667  1
  Na  Na64  1  0.68162353  0.66756026  0.50000000  1
  Na  Na65  1  0.68162353  0.66756026  0.83333333  1
  Na  Na66  1  0.50000000  0.34388201  0.00000000  1
  Na  Na67  1  0.50000000  0.34388201  0.33333333  1
  Na  Na68  1  0.50000000  0.34388201  0.66666667  1
  Na  Na69  1  1.00000000  0.84388201  0.00000000  1
  Na  Na70  1  1.00000000  0.84388201  0.33333333  1
  Na  Na71  1  1.00000000  0.84388201  0.66666667  1
  Au  Au72  1  0.83263619  -0.00000000  0.00000000  1
  Au  Au73  1  0.83263619  -0.00000000  0.33333333  1
  Au  Au74  1  0.83263619  -0.00000000  0.66666667  1
  Au  Au75  1  1.33263619  0.50000000  0.00000000  1
  Au  Au76  1  1.33263619  0.50000000  0.33333333  1
  Au  Au77  1  1.33263619  0.50000000  0.66666667  1
  Au  Au78  1  0.50000000  0.16736381  0.16666667  1
  Au  Au79  1  0.50000000  0.16736381  0.50000000  1
  Au  Au80  1  0.50000000  0.16736381  0.83333333  1
  Au  Au81  1  1.00000000  0.66736381  0.16666667  1
  Au  Au82  1  1.00000000  0.66736381  0.50000000  1
  Au  Au83  1  1.00000000  0.66736381  0.83333333  1
  Au  Au84  1  0.50000000  -0.16736381  0.16666667  1
  Au  Au85  1  0.50000000  -0.16736381  0.50000000  1
  Au  Au86  1  0.50000000  -0.16736381  0.83333333  1
  Au  Au87  1  1.00000000  0.33263619  0.16666667  1
  Au  Au88  1  1.00000000  0.33263619  0.50000000  1
  Au  Au89  1  1.00000000  0.33263619  0.83333333  1
  Au  Au90  1  0.16736381  -0.00000000  0.00000000  1
  Au  Au91  1  0.16736381  -0.00000000  0.33333333  1
  Au  Au92  1  0.16736381  -0.00000000  0.66666667  1
  Au  Au93  1  0.66736381  0.50000000  0.00000000  1
  Au  Au94  1  0.66736381  0.50000000  0.33333333  1
  Au  Au95  1  0.66736381  0.50000000  0.66666667  1
  O  O96  1  0.16344238  -0.14706316  0.00000000  1
  O  O97  1  0.16344238  -0.14706316  0.33333333  1
  O  O98  1  0.16344238  -0.14706316  0.66666667  1
  O  O99  1  0.66344238  0.35293684  0.00000000  1
  O  O100  1  0.66344238  0.35293684  0.33333333  1
  O  O101  1  0.66344238  0.35293684  0.66666667  1
  O  O102  1  0.83655762  0.14706316  0.00000000  1
  O  O103  1  0.83655762  0.14706316  0.33333333  1
  O  O104  1  0.83655762  0.14706316  0.66666667  1
  O  O105  1  1.33655762  0.64706316  0.00000000  1
  O  O106  1  1.33655762  0.64706316  0.33333333  1
  O  O107  1  1.33655762  0.64706316  0.66666667  1
  O  O108  1  0.64706316  0.16344238  0.16666667  1
  O  O109  1  0.64706316  0.16344238  0.50000000  1
  O  O110  1  0.64706316  0.16344238  0.83333333  1
  O  O111  1  1.14706316  0.66344238  0.16666667  1
  O  O112  1  1.14706316  0.66344238  0.50000000  1
  O  O113  1  1.14706316  0.66344238  0.83333333  1
  O  O114  1  0.35293684  -0.16344238  0.16666667  1
  O  O115  1  0.35293684  -0.16344238  0.50000000  1
  O  O116  1  0.35293684  -0.16344238  0.83333333  1
  O  O117  1  0.85293684  0.33655762  0.16666667  1
  O  O118  1  0.85293684  0.33655762  0.50000000  1
  O  O119  1  0.85293684  0.33655762  0.83333333  1
  O  O120  1  0.35293684  0.16344238  0.16666667  1
  O  O121  1  0.35293684  0.16344238  0.50000000  1
  O  O122  1  0.35293684  0.16344238  0.83333333  1
  O  O123  1  0.85293684  0.66344238  0.16666667  1
  O  O124  1  0.85293684  0.66344238  0.50000000  1
  O  O125  1  0.85293684  0.66344238  0.83333333  1
  O  O126  1  0.83655762  -0.14706316  0.00000000  1
  O  O127  1  0.83655762  -0.14706316  0.33333333  1
  O  O128  1  0.83655762  -0.14706316  0.66666667  1
  O  O129  1  1.33655762  0.35293684  0.00000000  1
  O  O130  1  1.33655762  0.35293684  0.33333333  1
  O  O131  1  1.33655762  0.35293684  0.66666667  1
  O  O132  1  0.16344238  0.14706316  0.00000000  1
  O  O133  1  0.16344238  0.14706316  0.33333333  1
  O  O134  1  0.16344238  0.14706316  0.66666667  1
  O  O135  1  0.66344238  0.64706316  0.00000000  1
  O  O136  1  0.66344238  0.64706316  0.33333333  1
  O  O137  1  0.66344238  0.64706316  0.66666667  1
  O  O138  1  0.64706316  -0.16344238  0.16666667  1
  O  O139  1  0.64706316  -0.16344238  0.50000000  1
  O  O140  1  0.64706316  -0.16344238  0.83333333  1
  O  O141  1  1.14706316  0.33655762  0.16666667  1
  O  O142  1  1.14706316  0.33655762  0.50000000  1
  O  O143  1  1.14706316  0.33655762  0.83333333  1
