# generated using pymatgen
data_K3ScV2O8
_symmetry_space_group_name_H-M   'P 1'
_cell_length_a   17.27367020
_cell_length_b   17.27367020
_cell_length_c   14.95787812
_cell_angle_alpha   90.00000000
_cell_angle_beta   90.00000000
_cell_angle_gamma   120.00000000
_symmetry_Int_Tables_number   1
_chemical_formula_structural   K3ScV2O8
_chemical_formula_sum   'K54 Sc18 V36 O144'
_cell_volume   3865.18129192
_cell_formula_units_Z   18
loop_
 _symmetry_equiv_pos_site_id
 _symmetry_equiv_pos_as_xyz
  1  'x, y, z'
loop_
 _atom_site_type_symbol
 _atom_site_label
 _atom_site_symmetry_multiplicity
 _atom_site_fract_x
 _atom_site_fract_y
 _atom_site_fract_z
 _atom_site_occupancy
  K  K0  1  0.11111111  0.22222222  0.34265350  1
  K  K1  1  0.11111111  0.22222222  0.84265350  1
  K  K2  1  0.11111111  0.55555556  0.34265350  1
  K  K3  1  0.11111111  0.55555556  0.84265350  1
  K  K4  1  0.11111111  0.88888889  0.34265350  1
  K  K5  1  0.11111111  0.88888889  0.84265350  1
  K  K6  1  0.44444444  0.22222222  0.34265350  1
  K  K7  1  0.44444444  0.22222222  0.84265350  1
  K  K8  1  0.44444444  0.55555556  0.34265350  1
  K  K9  1  0.44444444  0.55555556  0.84265350  1
  K  K10  1  0.44444444  0.88888889  0.34265350  1
  K  K11  1  0.44444444  0.88888889  0.84265350  1
  K  K12  1  0.77777778  0.22222222  0.34265350  1
  K  K13  1  0.77777778  0.22222222  0.84265350  1
  K  K14  1  0.77777778  0.55555556  0.34265350  1
  K  K15  1  0.77777778  0.55555556  0.84265350  1
  K  K16  1  0.77777778  0.88888889  0.34265350  1
  K  K17  1  0.77777778  0.88888889  0.84265350  1
  K  K18  1  0.22222222  0.11111111  0.15734650  1
  K  K19  1  0.22222222  0.11111111  0.65734650  1
  K  K20  1  0.22222222  0.44444444  0.15734650  1
  K  K21  1  0.22222222  0.44444444  0.65734650  1
  K  K22  1  0.22222222  0.77777778  0.15734650  1
  K  K23  1  0.22222222  0.77777778  0.65734650  1
  K  K24  1  0.55555556  0.11111111  0.15734650  1
  K  K25  1  0.55555556  0.11111111  0.65734650  1
  K  K26  1  0.55555556  0.44444444  0.15734650  1
  K  K27  1  0.55555556  0.44444444  0.65734650  1
  K  K28  1  0.55555556  0.77777778  0.15734650  1
  K  K29  1  0.55555556  0.77777778  0.65734650  1
  K  K30  1  0.88888889  0.11111111  0.15734650  1
  K  K31  1  0.88888889  0.11111111  0.65734650  1
  K  K32  1  0.88888889  0.44444444  0.15734650  1
  K  K33  1  0.88888889  0.44444444  0.65734650  1
  K  K34  1  0.88888889  0.77777778  0.15734650  1
  K  K35  1  0.88888889  0.77777778  0.65734650  1
  K  K36  1  0.00000000  0.00000000  0.00000000  1
  K  K37  1  0.00000000  0.00000000  0.50000000  1
  K  K38  1  0.00000000  0.33333333  0.00000000  1
  K  K39  1  0.00000000  0.33333333  0.50000000  1
  K  K40  1  0.00000000  0.66666667  0.00000000  1
  K  K41  1  0.00000000  0.66666667  0.50000000  1
  K  K42  1  0.33333333  0.00000000  0.00000000  1
  K  K43  1  0.33333333  0.00000000  0.50000000  1
  K  K44  1  0.33333333  0.33333333  0.00000000  1
  K  K45  1  0.33333333  0.33333333  0.50000000  1
  K  K46  1  0.33333333  0.66666667  0.00000000  1
  K  K47  1  0.33333333  0.66666667  0.50000000  1
  K  K48  1  0.66666667  0.00000000  0.00000000  1
  K  K49  1  0.66666667  0.00000000  0.50000000  1
  K  K50  1  0.66666667  0.33333333  0.00000000  1
  K  K51  1  0.66666667  0.33333333  0.50000000  1
  K  K52  1  0.66666667  0.66666667  0.00000000  1
  K  K53  1  0.66666667  0.66666667  0.50000000  1
  Sc  Sc54  1  0.00000000  0.00000000  0.25000000  1
  Sc  Sc55  1  0.00000000  0.00000000  0.75000000  1
  Sc  Sc56  1  0.00000000  0.33333333  0.25000000  1
  Sc  Sc57  1  0.00000000  0.33333333  0.75000000  1
  Sc  Sc58  1  0.00000000  0.66666667  0.25000000  1
  Sc  Sc59  1  0.00000000  0.66666667  0.75000000  1
  Sc  Sc60  1  0.33333333  0.00000000  0.25000000  1
  Sc  Sc61  1  0.33333333  0.00000000  0.75000000  1
  Sc  Sc62  1  0.33333333  0.33333333  0.25000000  1
  Sc  Sc63  1  0.33333333  0.33333333  0.75000000  1
  Sc  Sc64  1  0.33333333  0.66666667  0.25000000  1
  Sc  Sc65  1  0.33333333  0.66666667  0.75000000  1
  Sc  Sc66  1  0.66666667  0.00000000  0.25000000  1
  Sc  Sc67  1  0.66666667  0.00000000  0.75000000  1
  Sc  Sc68  1  0.66666667  0.33333333  0.25000000  1
  Sc  Sc69  1  0.66666667  0.33333333  0.75000000  1
  Sc  Sc70  1  0.66666667  0.66666667  0.25000000  1
  Sc  Sc71  1  0.66666667  0.66666667  0.75000000  1
  V  V72  1  0.11111111  0.22222222  0.12693688  1
  V  V73  1  0.11111111  0.22222222  0.62693688  1
  V  V74  1  0.11111111  0.55555556  0.12693688  1
  V  V75  1  0.11111111  0.55555556  0.62693688  1
  V  V76  1  0.11111111  0.88888889  0.12693688  1
  V  V77  1  0.11111111  0.88888889  0.62693688  1
  V  V78  1  0.44444444  0.22222222  0.12693688  1
  V  V79  1  0.44444444  0.22222222  0.62693688  1
  V  V80  1  0.44444444  0.55555556  0.12693688  1
  V  V81  1  0.44444444  0.55555556  0.62693688  1
  V  V82  1  0.44444444  0.88888889  0.12693688  1
  V  V83  1  0.44444444  0.88888889  0.62693688  1
  V  V84  1  0.77777778  0.22222222  0.12693688  1
  V  V85  1  0.77777778  0.22222222  0.62693688  1
  V  V86  1  0.77777778  0.55555556  0.12693688  1
  V  V87  1  0.77777778  0.55555556  0.62693688  1
  V  V88  1  0.77777778  0.88888889  0.12693688  1
  V  V89  1  0.77777778  0.88888889  0.62693688  1
  V  V90  1  0.22222222  0.11111111  0.37306312  1
  V  V91  1  0.22222222  0.11111111  0.87306312  1
  V  V92  1  0.22222222  0.44444444  0.37306312  1
  V  V93  1  0.22222222  0.44444444  0.87306312  1
  V  V94  1  0.22222222  0.77777778  0.37306312  1
  V  V95  1  0.22222222  0.77777778  0.87306312  1
  V  V96  1  0.55555556  0.11111111  0.37306312  1
  V  V97  1  0.55555556  0.11111111  0.87306312  1
  V  V98  1  0.55555556  0.44444444  0.37306312  1
  V  V99  1  0.55555556  0.44444444  0.87306312  1
  V  V100  1  0.55555556  0.77777778  0.37306312  1
  V  V101  1  0.55555556  0.77777778  0.87306312  1
  V  V102  1  0.88888889  0.11111111  0.37306312  1
  V  V103  1  0.88888889  0.11111111  0.87306312  1
  V  V104  1  0.88888889  0.44444444  0.37306312  1
  V  V105  1  0.88888889  0.44444444  0.87306312  1
  V  V106  1  0.88888889  0.77777778  0.37306312  1
  V  V107  1  0.88888889  0.77777778  0.87306312  1
  O  O108  1  0.11111111  0.22222222  0.01566786  1
  O  O109  1  0.11111111  0.22222222  0.51566786  1
  O  O110  1  0.11111111  0.55555556  0.01566786  1
  O  O111  1  0.11111111  0.55555556  0.51566786  1
  O  O112  1  0.11111111  0.88888889  0.01566786  1
  O  O113  1  0.11111111  0.88888889  0.51566786  1
  O  O114  1  0.44444444  0.22222222  0.01566786  1
  O  O115  1  0.44444444  0.22222222  0.51566786  1
  O  O116  1  0.44444444  0.55555556  0.01566786  1
  O  O117  1  0.44444444  0.55555556  0.51566786  1
  O  O118  1  0.44444444  0.88888889  0.01566786  1
  O  O119  1  0.44444444  0.88888889  0.51566786  1
  O  O120  1  0.77777778  0.22222222  0.01566786  1
  O  O121  1  0.77777778  0.22222222  0.51566786  1
  O  O122  1  0.77777778  0.55555556  0.01566786  1
  O  O123  1  0.77777778  0.55555556  0.51566786  1
  O  O124  1  0.77777778  0.88888889  0.01566786  1
  O  O125  1  0.77777778  0.88888889  0.51566786  1
  O  O126  1  0.22222222  0.11111111  0.48433214  1
  O  O127  1  0.22222222  0.11111111  0.98433214  1
  O  O128  1  0.22222222  0.44444444  0.48433214  1
  O  O129  1  0.22222222  0.44444444  0.98433214  1
  O  O130  1  0.22222222  0.77777778  0.48433214  1
  O  O131  1  0.22222222  0.77777778  0.98433214  1
  O  O132  1  0.55555556  0.11111111  0.48433214  1
  O  O133  1  0.55555556  0.11111111  0.98433214  1
  O  O134  1  0.55555556  0.44444444  0.48433214  1
  O  O135  1  0.55555556  0.44444444  0.98433214  1
  O  O136  1  0.55555556  0.77777778  0.48433214  1
  O  O137  1  0.55555556  0.77777778  0.98433214  1
  O  O138  1  0.88888889  0.11111111  0.48433214  1
  O  O139  1  0.88888889  0.11111111  0.98433214  1
  O  O140  1  0.88888889  0.44444444  0.48433214  1
  O  O141  1  0.88888889  0.44444444  0.98433214  1
  O  O142  1  0.88888889  0.77777778  0.48433214  1
  O  O143  1  0.88888889  0.77777778  0.98433214  1
  O  O144  1  0.05644509  0.27688825  0.16735489  1
  O  O145  1  0.05644509  0.27688825  0.66735489  1
  O  O146  1  0.05644509  0.61022158  0.16735489  1
  O  O147  1  0.05644509  0.61022158  0.66735489  1
  O  O148  1  0.05644509  0.94355491  0.16735489  1
  O  O149  1  0.05644509  0.94355491  0.66735489  1
  O  O150  1  0.38977842  0.27688825  0.16735489  1
  O  O151  1  0.38977842  0.27688825  0.66735489  1
  O  O152  1  0.38977842  0.61022158  0.16735489  1
  O  O153  1  0.38977842  0.61022158  0.66735489  1
  O  O154  1  0.38977842  0.94355491  0.16735489  1
  O  O155  1  0.38977842  0.94355491  0.66735489  1
  O  O156  1  0.72311175  0.27688825  0.16735489  1
  O  O157  1  0.72311175  0.27688825  0.66735489  1
  O  O158  1  0.72311175  0.61022158  0.16735489  1
  O  O159  1  0.72311175  0.61022158  0.66735489  1
  O  O160  1  0.72311175  0.94355491  0.16735489  1
  O  O161  1  0.72311175  0.94355491  0.66735489  1
  O  O162  1  0.27688825  0.05644509  0.33264511  1
  O  O163  1  0.27688825  0.05644509  0.83264511  1
  O  O164  1  0.27688825  0.38977842  0.33264511  1
  O  O165  1  0.27688825  0.38977842  0.83264511  1
  O  O166  1  0.27688825  0.72311175  0.33264511  1
  O  O167  1  0.27688825  0.72311175  0.83264511  1
  O  O168  1  0.61022158  0.05644509  0.33264511  1
  O  O169  1  0.61022158  0.05644509  0.83264511  1
  O  O170  1  0.61022158  0.38977842  0.33264511  1
  O  O171  1  0.61022158  0.38977842  0.83264511  1
  O  O172  1  0.61022158  0.72311175  0.33264511  1
  O  O173  1  0.61022158  0.72311175  0.83264511  1
  O  O174  1  0.94355491  0.05644509  0.33264511  1
  O  O175  1  0.94355491  0.05644509  0.83264511  1
  O  O176  1  0.94355491  0.38977842  0.33264511  1
  O  O177  1  0.94355491  0.38977842  0.83264511  1
  O  O178  1  0.94355491  0.72311175  0.33264511  1
  O  O179  1  0.94355491  0.72311175  0.83264511  1
  O  O180  1  0.05644509  0.11289017  0.16735489  1
  O  O181  1  0.05644509  0.11289017  0.66735489  1
  O  O182  1  0.05644509  0.44622351  0.16735489  1
  O  O183  1  0.05644509  0.44622351  0.66735489  1
  O  O184  1  0.05644509  0.77955684  0.16735489  1
  O  O185  1  0.05644509  0.77955684  0.66735489  1
  O  O186  1  0.38977842  0.11289017  0.16735489  1
  O  O187  1  0.38977842  0.11289017  0.66735489  1
  O  O188  1  0.38977842  0.44622351  0.16735489  1
  O  O189  1  0.38977842  0.44622351  0.66735489  1
  O  O190  1  0.38977842  0.77955684  0.16735489  1
  O  O191  1  0.38977842  0.77955684  0.66735489  1
  O  O192  1  0.72311175  0.11289017  0.16735489  1
  O  O193  1  0.72311175  0.11289017  0.66735489  1
  O  O194  1  0.72311175  0.44622351  0.16735489  1
  O  O195  1  0.72311175  0.44622351  0.66735489  1
  O  O196  1  0.72311175  0.77955684  0.16735489  1
  O  O197  1  0.72311175  0.77955684  0.66735489  1
  O  O198  1  0.27688825  0.22044316  0.33264511  1
  O  O199  1  0.27688825  0.22044316  0.83264511  1
  O  O200  1  0.27688825  0.55377649  0.33264511  1
  O  O201  1  0.27688825  0.55377649  0.83264511  1
  O  O202  1  0.27688825  0.88710983  0.33264511  1
  O  O203  1  0.27688825  0.88710983  0.83264511  1
  O  O204  1  0.61022158  0.22044316  0.33264511  1
  O  O205  1  0.61022158  0.22044316  0.83264511  1
  O  O206  1  0.61022158  0.55377649  0.33264511  1
  O  O207  1  0.61022158  0.55377649  0.83264511  1
  O  O208  1  0.61022158  0.88710983  0.33264511  1
  O  O209  1  0.61022158  0.88710983  0.83264511  1
  O  O210  1  0.94355491  0.22044316  0.33264511  1
  O  O211  1  0.94355491  0.22044316  0.83264511  1
  O  O212  1  0.94355491  0.55377649  0.33264511  1
  O  O213  1  0.94355491  0.55377649  0.83264511  1
  O  O214  1  0.94355491  0.88710983  0.33264511  1
  O  O215  1  0.94355491  0.88710983  0.83264511  1
  O  O216  1  0.22044316  0.27688825  0.16735489  1
  O  O217  1  0.22044316  0.27688825  0.66735489  1
  O  O218  1  0.22044316  0.61022158  0.16735489  1
  O  O219  1  0.22044316  0.61022158  0.66735489  1
  O  O220  1  0.22044316  0.94355491  0.16735489  1
  O  O221  1  0.22044316  0.94355491  0.66735489  1
  O  O222  1  0.55377649  0.27688825  0.16735489  1
  O  O223  1  0.55377649  0.27688825  0.66735489  1
  O  O224  1  0.55377649  0.61022158  0.16735489  1
  O  O225  1  0.55377649  0.61022158  0.66735489  1
  O  O226  1  0.55377649  0.94355491  0.16735489  1
  O  O227  1  0.55377649  0.94355491  0.66735489  1
  O  O228  1  0.88710983  0.27688825  0.16735489  1
  O  O229  1  0.88710983  0.27688825  0.66735489  1
  O  O230  1  0.88710983  0.61022158  0.16735489  1
  O  O231  1  0.88710983  0.61022158  0.66735489  1
  O  O232  1  0.88710983  0.94355491  0.16735489  1
  O  O233  1  0.88710983  0.94355491  0.66735489  1
  O  O234  1  0.11289017  0.05644509  0.33264511  1
  O  O235  1  0.11289017  0.05644509  0.83264511  1
  O  O236  1  0.11289017  0.38977842  0.33264511  1
  O  O237  1  0.11289017  0.38977842  0.83264511  1
  O  O238  1  0.11289017  0.72311175  0.33264511  1
  O  O239  1  0.11289017  0.72311175  0.83264511  1
  O  O240  1  0.44622351  0.05644509  0.33264511  1
  O  O241  1  0.44622351  0.05644509  0.83264511  1
  O  O242  1  0.44622351  0.38977842  0.33264511  1
  O  O243  1  0.44622351  0.38977842  0.83264511  1
  O  O244  1  0.44622351  0.72311175  0.33264511  1
  O  O245  1  0.44622351  0.72311175  0.83264511  1
  O  O246  1  0.77955684  0.05644509  0.33264511  1
  O  O247  1  0.77955684  0.05644509  0.83264511  1
  O  O248  1  0.77955684  0.38977842  0.33264511  1
  O  O249  1  0.77955684  0.38977842  0.83264511  1
  O  O250  1  0.77955684  0.72311175  0.33264511  1
  O  O251  1  0.77955684  0.72311175  0.83264511  1
