# generated using pymatgen
data_NaBi(MoO4)2
_symmetry_space_group_name_H-M   'P 1'
_cell_length_a   10.49375340
_cell_length_b   10.49375340
_cell_length_c   11.37943814
_cell_angle_alpha   90.00000000
_cell_angle_beta   90.00000000
_cell_angle_gamma   90.00000000
_symmetry_Int_Tables_number   1
_chemical_formula_structural   NaBi(MoO4)2
_chemical_formula_sum   'Na8 Bi8 Mo16 O64'
_cell_volume   1253.09076167
_cell_formula_units_Z   8
loop_
 _symmetry_equiv_pos_site_id
 _symmetry_equiv_pos_as_xyz
  1  'x, y, z'
loop_
 _atom_site_type_symbol
 _atom_site_label
 _atom_site_symmetry_multiplicity
 _atom_site_fract_x
 _atom_site_fract_y
 _atom_site_fract_z
 _atom_site_occupancy
  Na  Na0  1  0.25000000  0.50000000  0.25000000  1
  Na  Na1  1  0.75000000  0.50000000  0.25000000  1
  Na  Na2  1  0.25000000  -0.00000000  0.25000000  1
  Na  Na3  1  0.75000000  -0.00000000  0.25000000  1
  Na  Na4  1  0.50000000  0.25000000  0.75000000  1
  Na  Na5  1  1.00000000  0.25000000  0.75000000  1
  Na  Na6  1  0.50000000  -0.25000000  0.75000000  1
  Na  Na7  1  1.00000000  -0.25000000  0.75000000  1
  Bi  Bi8  1  0.00000000  0.50000000  0.50000000  1
  Bi  Bi9  1  0.50000000  0.50000000  0.50000000  1
  Bi  Bi10  1  0.00000000  0.00000000  0.50000000  1
  Bi  Bi11  1  0.50000000  0.00000000  0.50000000  1
  Bi  Bi12  1  0.25000000  0.25000000  1.00000000  1
  Bi  Bi13  1  0.75000000  0.25000000  1.00000000  1
  Bi  Bi14  1  0.25000000  -0.25000000  1.00000000  1
  Bi  Bi15  1  0.75000000  -0.25000000  1.00000000  1
  Mo  Mo16  1  0.00000000  0.50000000  0.00000000  1
  Mo  Mo17  1  0.50000000  0.50000000  0.00000000  1
  Mo  Mo18  1  0.00000000  0.00000000  0.00000000  1
  Mo  Mo19  1  0.50000000  0.00000000  0.00000000  1
  Mo  Mo20  1  0.25000000  0.25000000  0.50000000  1
  Mo  Mo21  1  0.75000000  0.25000000  0.50000000  1
  Mo  Mo22  1  0.25000000  -0.25000000  0.50000000  1
  Mo  Mo23  1  0.75000000  -0.25000000  0.50000000  1
  Mo  Mo24  1  0.00000000  0.25000000  0.25000000  1
  Mo  Mo25  1  0.50000000  0.25000000  0.25000000  1
  Mo  Mo26  1  0.00000000  -0.25000000  0.25000000  1
  Mo  Mo27  1  0.50000000  -0.25000000  0.25000000  1
  Mo  Mo28  1  0.25000000  0.00000000  0.75000000  1
  Mo  Mo29  1  0.75000000  0.00000000  0.75000000  1
  Mo  Mo30  1  0.25000000  -0.50000000  0.75000000  1
  Mo  Mo31  1  0.75000000  -0.50000000  0.75000000  1
  O  O32  1  0.32595519  0.37968376  -0.16182134  1
  O  O33  1  0.82595519  0.37968376  -0.16182134  1
  O  O34  1  0.32595519  -0.12031624  -0.16182134  1
  O  O35  1  0.82595519  -0.12031624  -0.16182134  1
  O  O36  1  0.57595519  0.12968376  0.33817866  1
  O  O37  1  1.07595519  0.12968376  0.33817866  1
  O  O38  1  0.57595519  -0.37031624  0.33817866  1
  O  O39  1  1.07595519  -0.37031624  0.33817866  1
  O  O40  1  -0.07595519  0.37031624  0.33817866  1
  O  O41  1  0.42404481  0.37031624  0.33817866  1
  O  O42  1  -0.07595519  -0.12968376  0.33817866  1
  O  O43  1  0.42404481  -0.12968376  0.33817866  1
  O  O44  1  0.17404481  0.12031624  0.83817866  1
  O  O45  1  0.67404481  0.12031624  0.83817866  1
  O  O46  1  0.17404481  -0.37968376  0.83817866  1
  O  O47  1  0.67404481  -0.37968376  0.83817866  1
  O  O48  1  0.12968376  0.42404481  0.66182134  1
  O  O49  1  0.62968376  0.42404481  0.66182134  1
  O  O50  1  0.12968376  -0.07595519  0.66182134  1
  O  O51  1  0.62968376  -0.07595519  0.66182134  1
  O  O52  1  0.37968376  0.17404481  1.16182134  1
  O  O53  1  0.87968376  0.17404481  1.16182134  1
  O  O54  1  0.37968376  -0.32595519  1.16182134  1
  O  O55  1  0.87968376  -0.32595519  1.16182134  1
  O  O56  1  0.12031624  0.32595519  0.16182134  1
  O  O57  1  0.62031624  0.32595519  0.16182134  1
  O  O58  1  0.12031624  -0.17404481  0.16182134  1
  O  O59  1  0.62031624  -0.17404481  0.16182134  1
  O  O60  1  0.37031624  0.07595519  0.66182134  1
  O  O61  1  0.87031624  0.07595519  0.66182134  1
  O  O62  1  0.37031624  -0.42404481  0.66182134  1
  O  O63  1  0.87031624  -0.42404481  0.66182134  1
  O  O64  1  -0.12827065  0.32889116  0.58447801  1
  O  O65  1  0.37172935  0.32889116  0.58447801  1
  O  O66  1  -0.12827065  -0.17110884  0.58447801  1
  O  O67  1  0.37172935  -0.17110884  0.58447801  1
  O  O68  1  0.12172935  0.07889116  1.08447801  1
  O  O69  1  0.62172935  0.07889116  1.08447801  1
  O  O70  1  0.12172935  -0.42110884  1.08447801  1
  O  O71  1  0.62172935  -0.42110884  1.08447801  1
  O  O72  1  0.37827065  0.42110884  0.08447801  1
  O  O73  1  0.87827065  0.42110884  0.08447801  1
  O  O74  1  0.37827065  -0.07889116  0.08447801  1
  O  O75  1  0.87827065  -0.07889116  0.08447801  1
  O  O76  1  0.62827065  0.17110884  0.58447801  1
  O  O77  1  1.12827065  0.17110884  0.58447801  1
  O  O78  1  0.62827065  -0.32889116  0.58447801  1
  O  O79  1  1.12827065  -0.32889116  0.58447801  1
  O  O80  1  0.07889116  0.37827065  -0.08447801  1
  O  O81  1  0.57889116  0.37827065  -0.08447801  1
  O  O82  1  0.07889116  -0.12172935  -0.08447801  1
  O  O83  1  0.57889116  -0.12172935  -0.08447801  1
  O  O84  1  0.32889116  0.12827065  0.41552199  1
  O  O85  1  0.82889116  0.12827065  0.41552199  1
  O  O86  1  0.32889116  -0.37172935  0.41552199  1
  O  O87  1  0.82889116  -0.37172935  0.41552199  1
  O  O88  1  0.17110884  0.37172935  0.41552199  1
  O  O89  1  0.67110884  0.37172935  0.41552199  1
  O  O90  1  0.17110884  -0.12827065  0.41552199  1
  O  O91  1  0.67110884  -0.12827065  0.41552199  1
  O  O92  1  0.42110884  0.12172935  0.91552199  1
  O  O93  1  0.92110884  0.12172935  0.91552199  1
  O  O94  1  0.42110884  -0.37827065  0.91552199  1
  O  O95  1  0.92110884  -0.37827065  0.91552199  1
