# generated using pymatgen
data_Ba2Cd(BO3)2
_symmetry_space_group_name_H-M   'P 1'
_cell_length_a   19.42276896
_cell_length_b   16.08295743
_cell_length_c   19.62740488
_cell_angle_alpha   90.00000000
_cell_angle_beta   118.77933725
_cell_angle_gamma   90.00000000
_symmetry_Int_Tables_number   1
_chemical_formula_structural   Ba2Cd(BO3)2
_chemical_formula_sum   'Ba72 Cd36 B72 O216'
_cell_volume   5373.80776326
_cell_formula_units_Z   36
loop_
 _symmetry_equiv_pos_site_id
 _symmetry_equiv_pos_as_xyz
  1  'x, y, z'
loop_
 _atom_site_type_symbol
 _atom_site_label
 _atom_site_symmetry_multiplicity
 _atom_site_fract_x
 _atom_site_fract_y
 _atom_site_fract_z
 _atom_site_occupancy
  Ba  Ba0  1  0.39500626  -0.00000000  0.10380540  1
  Ba  Ba1  1  0.39500626  -0.00000000  0.43713874  1
  Ba  Ba2  1  0.39500626  -0.00000000  0.77047207  1
  Ba  Ba3  1  0.39500626  0.33333333  0.10380540  1
  Ba  Ba4  1  0.39500626  0.33333333  0.43713874  1
  Ba  Ba5  1  0.39500626  0.33333333  0.77047207  1
  Ba  Ba6  1  0.39500626  0.66666667  0.10380540  1
  Ba  Ba7  1  0.39500626  0.66666667  0.43713874  1
  Ba  Ba8  1  0.39500626  0.66666667  0.77047207  1
  Ba  Ba9  1  0.89500626  -0.00000000  0.10380540  1
  Ba  Ba10  1  0.89500626  -0.00000000  0.43713874  1
  Ba  Ba11  1  0.89500626  -0.00000000  0.77047207  1
  Ba  Ba12  1  0.89500626  0.33333333  0.10380540  1
  Ba  Ba13  1  0.89500626  0.33333333  0.43713874  1
  Ba  Ba14  1  0.89500626  0.33333333  0.77047207  1
  Ba  Ba15  1  0.89500626  0.66666667  0.10380540  1
  Ba  Ba16  1  0.89500626  0.66666667  0.43713874  1
  Ba  Ba17  1  0.89500626  0.66666667  0.77047207  1
  Ba  Ba18  1  0.64500626  0.16666667  0.10380540  1
  Ba  Ba19  1  0.64500626  0.16666667  0.43713874  1
  Ba  Ba20  1  0.64500626  0.16666667  0.77047207  1
  Ba  Ba21  1  0.64500626  0.50000000  0.10380540  1
  Ba  Ba22  1  0.64500626  0.50000000  0.43713874  1
  Ba  Ba23  1  0.64500626  0.50000000  0.77047207  1
  Ba  Ba24  1  0.64500626  0.83333333  0.10380540  1
  Ba  Ba25  1  0.64500626  0.83333333  0.43713874  1
  Ba  Ba26  1  0.64500626  0.83333333  0.77047207  1
  Ba  Ba27  1  1.14500626  0.16666667  0.10380540  1
  Ba  Ba28  1  1.14500626  0.16666667  0.43713874  1
  Ba  Ba29  1  1.14500626  0.16666667  0.77047207  1
  Ba  Ba30  1  1.14500626  0.50000000  0.10380540  1
  Ba  Ba31  1  1.14500626  0.50000000  0.43713874  1
  Ba  Ba32  1  1.14500626  0.50000000  0.77047207  1
  Ba  Ba33  1  1.14500626  0.83333333  0.10380540  1
  Ba  Ba34  1  1.14500626  0.83333333  0.43713874  1
  Ba  Ba35  1  1.14500626  0.83333333  0.77047207  1
  Ba  Ba36  1  0.10499374  -0.00000000  0.22952793  1
  Ba  Ba37  1  0.10499374  -0.00000000  0.56286126  1
  Ba  Ba38  1  0.10499374  -0.00000000  0.89619460  1
  Ba  Ba39  1  0.10499374  0.33333333  0.22952793  1
  Ba  Ba40  1  0.10499374  0.33333333  0.56286126  1
  Ba  Ba41  1  0.10499374  0.33333333  0.89619460  1
  Ba  Ba42  1  0.10499374  0.66666667  0.22952793  1
  Ba  Ba43  1  0.10499374  0.66666667  0.56286126  1
  Ba  Ba44  1  0.10499374  0.66666667  0.89619460  1
  Ba  Ba45  1  0.60499374  -0.00000000  0.22952793  1
  Ba  Ba46  1  0.60499374  -0.00000000  0.56286126  1
  Ba  Ba47  1  0.60499374  -0.00000000  0.89619460  1
  Ba  Ba48  1  0.60499374  0.33333333  0.22952793  1
  Ba  Ba49  1  0.60499374  0.33333333  0.56286126  1
  Ba  Ba50  1  0.60499374  0.33333333  0.89619460  1
  Ba  Ba51  1  0.60499374  0.66666667  0.22952793  1
  Ba  Ba52  1  0.60499374  0.66666667  0.56286126  1
  Ba  Ba53  1  0.60499374  0.66666667  0.89619460  1
  Ba  Ba54  1  0.35499374  0.16666667  0.22952793  1
  Ba  Ba55  1  0.35499374  0.16666667  0.56286126  1
  Ba  Ba56  1  0.35499374  0.16666667  0.89619460  1
  Ba  Ba57  1  0.35499374  0.50000000  0.22952793  1
  Ba  Ba58  1  0.35499374  0.50000000  0.56286126  1
  Ba  Ba59  1  0.35499374  0.50000000  0.89619460  1
  Ba  Ba60  1  0.35499374  0.83333333  0.22952793  1
  Ba  Ba61  1  0.35499374  0.83333333  0.56286126  1
  Ba  Ba62  1  0.35499374  0.83333333  0.89619460  1
  Ba  Ba63  1  0.85499374  0.16666667  0.22952793  1
  Ba  Ba64  1  0.85499374  0.16666667  0.56286126  1
  Ba  Ba65  1  0.85499374  0.16666667  0.89619460  1
  Ba  Ba66  1  0.85499374  0.50000000  0.22952793  1
  Ba  Ba67  1  0.85499374  0.50000000  0.56286126  1
  Ba  Ba68  1  0.85499374  0.50000000  0.89619460  1
  Ba  Ba69  1  0.85499374  0.83333333  0.22952793  1
  Ba  Ba70  1  0.85499374  0.83333333  0.56286126  1
  Ba  Ba71  1  0.85499374  0.83333333  0.89619460  1
  Cd  Cd72  1  -0.00000000  -0.00000000  0.00000000  1
  Cd  Cd73  1  -0.00000000  -0.00000000  0.33333333  1
  Cd  Cd74  1  -0.00000000  -0.00000000  0.66666667  1
  Cd  Cd75  1  -0.00000000  0.33333333  0.00000000  1
  Cd  Cd76  1  -0.00000000  0.33333333  0.33333333  1
  Cd  Cd77  1  -0.00000000  0.33333333  0.66666667  1
  Cd  Cd78  1  -0.00000000  0.66666667  0.00000000  1
  Cd  Cd79  1  -0.00000000  0.66666667  0.33333333  1
  Cd  Cd80  1  -0.00000000  0.66666667  0.66666667  1
  Cd  Cd81  1  0.50000000  -0.00000000  0.00000000  1
  Cd  Cd82  1  0.50000000  -0.00000000  0.33333333  1
  Cd  Cd83  1  0.50000000  -0.00000000  0.66666667  1
  Cd  Cd84  1  0.50000000  0.33333333  0.00000000  1
  Cd  Cd85  1  0.50000000  0.33333333  0.33333333  1
  Cd  Cd86  1  0.50000000  0.33333333  0.66666667  1
  Cd  Cd87  1  0.50000000  0.66666667  0.00000000  1
  Cd  Cd88  1  0.50000000  0.66666667  0.33333333  1
  Cd  Cd89  1  0.50000000  0.66666667  0.66666667  1
  Cd  Cd90  1  0.25000000  0.16666667  0.00000000  1
  Cd  Cd91  1  0.25000000  0.16666667  0.33333333  1
  Cd  Cd92  1  0.25000000  0.16666667  0.66666667  1
  Cd  Cd93  1  0.25000000  0.50000000  0.00000000  1
  Cd  Cd94  1  0.25000000  0.50000000  0.33333333  1
  Cd  Cd95  1  0.25000000  0.50000000  0.66666667  1
  Cd  Cd96  1  0.25000000  0.83333333  0.00000000  1
  Cd  Cd97  1  0.25000000  0.83333333  0.33333333  1
  Cd  Cd98  1  0.25000000  0.83333333  0.66666667  1
  Cd  Cd99  1  0.75000000  0.16666667  0.00000000  1
  Cd  Cd100  1  0.75000000  0.16666667  0.33333333  1
  Cd  Cd101  1  0.75000000  0.16666667  0.66666667  1
  Cd  Cd102  1  0.75000000  0.50000000  0.00000000  1
  Cd  Cd103  1  0.75000000  0.50000000  0.33333333  1
  Cd  Cd104  1  0.75000000  0.50000000  0.66666667  1
  Cd  Cd105  1  0.75000000  0.83333333  0.00000000  1
  Cd  Cd106  1  0.75000000  0.83333333  0.33333333  1
  Cd  Cd107  1  0.75000000  0.83333333  0.66666667  1
  B  B108  1  0.22079635  -0.00000000  0.08064449  1
  B  B109  1  0.22079635  -0.00000000  0.41397782  1
  B  B110  1  0.22079635  -0.00000000  0.74731116  1
  B  B111  1  0.22079635  0.33333333  0.08064449  1
  B  B112  1  0.22079635  0.33333333  0.41397782  1
  B  B113  1  0.22079635  0.33333333  0.74731116  1
  B  B114  1  0.22079635  0.66666667  0.08064449  1
  B  B115  1  0.22079635  0.66666667  0.41397782  1
  B  B116  1  0.22079635  0.66666667  0.74731116  1
  B  B117  1  0.72079635  -0.00000000  0.08064449  1
  B  B118  1  0.72079635  -0.00000000  0.41397782  1
  B  B119  1  0.72079635  -0.00000000  0.74731116  1
  B  B120  1  0.72079635  0.33333333  0.08064449  1
  B  B121  1  0.72079635  0.33333333  0.41397782  1
  B  B122  1  0.72079635  0.33333333  0.74731116  1
  B  B123  1  0.72079635  0.66666667  0.08064449  1
  B  B124  1  0.72079635  0.66666667  0.41397782  1
  B  B125  1  0.72079635  0.66666667  0.74731116  1
  B  B126  1  0.47079635  0.16666667  0.08064449  1
  B  B127  1  0.47079635  0.16666667  0.41397782  1
  B  B128  1  0.47079635  0.16666667  0.74731116  1
  B  B129  1  0.47079635  0.50000000  0.08064449  1
  B  B130  1  0.47079635  0.50000000  0.41397782  1
  B  B131  1  0.47079635  0.50000000  0.74731116  1
  B  B132  1  0.47079635  0.83333333  0.08064449  1
  B  B133  1  0.47079635  0.83333333  0.41397782  1
  B  B134  1  0.47079635  0.83333333  0.74731116  1
  B  B135  1  0.97079635  0.16666667  0.08064449  1
  B  B136  1  0.97079635  0.16666667  0.41397782  1
  B  B137  1  0.97079635  0.16666667  0.74731116  1
  B  B138  1  0.97079635  0.50000000  0.08064449  1
  B  B139  1  0.97079635  0.50000000  0.41397782  1
  B  B140  1  0.97079635  0.50000000  0.74731116  1
  B  B141  1  0.97079635  0.83333333  0.08064449  1
  B  B142  1  0.97079635  0.83333333  0.41397782  1
  B  B143  1  0.97079635  0.83333333  0.74731116  1
  B  B144  1  0.27920365  -0.00000000  0.25268884  1
  B  B145  1  0.27920365  -0.00000000  0.58602218  1
  B  B146  1  0.27920365  -0.00000000  0.91935551  1
  B  B147  1  0.27920365  0.33333333  0.25268884  1
  B  B148  1  0.27920365  0.33333333  0.58602218  1
  B  B149  1  0.27920365  0.33333333  0.91935551  1
  B  B150  1  0.27920365  0.66666667  0.25268884  1
  B  B151  1  0.27920365  0.66666667  0.58602218  1
  B  B152  1  0.27920365  0.66666667  0.91935551  1
  B  B153  1  0.77920365  -0.00000000  0.25268884  1
  B  B154  1  0.77920365  -0.00000000  0.58602218  1
  B  B155  1  0.77920365  -0.00000000  0.91935551  1
  B  B156  1  0.77920365  0.33333333  0.25268884  1
  B  B157  1  0.77920365  0.33333333  0.58602218  1
  B  B158  1  0.77920365  0.33333333  0.91935551  1
  B  B159  1  0.77920365  0.66666667  0.25268884  1
  B  B160  1  0.77920365  0.66666667  0.58602218  1
  B  B161  1  0.77920365  0.66666667  0.91935551  1
  B  B162  1  0.52920365  0.16666667  0.25268884  1
  B  B163  1  0.52920365  0.16666667  0.58602218  1
  B  B164  1  0.52920365  0.16666667  0.91935551  1
  B  B165  1  0.52920365  0.50000000  0.25268884  1
  B  B166  1  0.52920365  0.50000000  0.58602218  1
  B  B167  1  0.52920365  0.50000000  0.91935551  1
  B  B168  1  0.52920365  0.83333333  0.25268884  1
  B  B169  1  0.52920365  0.83333333  0.58602218  1
  B  B170  1  0.52920365  0.83333333  0.91935551  1
  B  B171  1  1.02920365  0.16666667  0.25268884  1
  B  B172  1  1.02920365  0.16666667  0.58602218  1
  B  B173  1  1.02920365  0.16666667  0.91935551  1
  B  B174  1  1.02920365  0.50000000  0.25268884  1
  B  B175  1  1.02920365  0.50000000  0.58602218  1
  B  B176  1  1.02920365  0.50000000  0.91935551  1
  B  B177  1  1.02920365  0.83333333  0.25268884  1
  B  B178  1  1.02920365  0.83333333  0.58602218  1
  B  B179  1  1.02920365  0.83333333  0.91935551  1
  O  O180  1  0.26217671  0.07451468  0.09249502  1
  O  O181  1  0.26217671  0.07451468  0.42582835  1
  O  O182  1  0.26217671  0.07451468  0.75916168  1
  O  O183  1  0.26217671  0.40784801  0.09249502  1
  O  O184  1  0.26217671  0.40784801  0.42582835  1
  O  O185  1  0.26217671  0.40784801  0.75916168  1
  O  O186  1  0.26217671  0.74118135  0.09249502  1
  O  O187  1  0.26217671  0.74118135  0.42582835  1
  O  O188  1  0.26217671  0.74118135  0.75916168  1
  O  O189  1  0.76217671  0.07451468  0.09249502  1
  O  O190  1  0.76217671  0.07451468  0.42582835  1
  O  O191  1  0.76217671  0.07451468  0.75916168  1
  O  O192  1  0.76217671  0.40784801  0.09249502  1
  O  O193  1  0.76217671  0.40784801  0.42582835  1
  O  O194  1  0.76217671  0.40784801  0.75916168  1
  O  O195  1  0.76217671  0.74118135  0.09249502  1
  O  O196  1  0.76217671  0.74118135  0.42582835  1
  O  O197  1  0.76217671  0.74118135  0.75916168  1
  O  O198  1  0.51217671  0.24118135  0.09249502  1
  O  O199  1  0.51217671  0.24118135  0.42582835  1
  O  O200  1  0.51217671  0.24118135  0.75916168  1
  O  O201  1  0.51217671  0.57451468  0.09249502  1
  O  O202  1  0.51217671  0.57451468  0.42582835  1
  O  O203  1  0.51217671  0.57451468  0.75916168  1
  O  O204  1  0.51217671  0.90784801  0.09249502  1
  O  O205  1  0.51217671  0.90784801  0.42582835  1
  O  O206  1  0.51217671  0.90784801  0.75916168  1
  O  O207  1  1.01217671  0.24118135  0.09249502  1
  O  O208  1  1.01217671  0.24118135  0.42582835  1
  O  O209  1  1.01217671  0.24118135  0.75916168  1
  O  O210  1  1.01217671  0.57451468  0.09249502  1
  O  O211  1  1.01217671  0.57451468  0.42582835  1
  O  O212  1  1.01217671  0.57451468  0.75916168  1
  O  O213  1  1.01217671  0.90784801  0.09249502  1
  O  O214  1  1.01217671  0.90784801  0.42582835  1
  O  O215  1  1.01217671  0.90784801  0.75916168  1
  O  O216  1  0.26217671  -0.07451468  0.09249502  1
  O  O217  1  0.26217671  -0.07451468  0.42582835  1
  O  O218  1  0.26217671  -0.07451468  0.75916168  1
  O  O219  1  0.26217671  0.25881865  0.09249502  1
  O  O220  1  0.26217671  0.25881865  0.42582835  1
  O  O221  1  0.26217671  0.25881865  0.75916168  1
  O  O222  1  0.26217671  0.59215199  0.09249502  1
  O  O223  1  0.26217671  0.59215199  0.42582835  1
  O  O224  1  0.26217671  0.59215199  0.75916168  1
  O  O225  1  0.76217671  -0.07451468  0.09249502  1
  O  O226  1  0.76217671  -0.07451468  0.42582835  1
  O  O227  1  0.76217671  -0.07451468  0.75916168  1
  O  O228  1  0.76217671  0.25881865  0.09249502  1
  O  O229  1  0.76217671  0.25881865  0.42582835  1
  O  O230  1  0.76217671  0.25881865  0.75916168  1
  O  O231  1  0.76217671  0.59215199  0.09249502  1
  O  O232  1  0.76217671  0.59215199  0.42582835  1
  O  O233  1  0.76217671  0.59215199  0.75916168  1
  O  O234  1  0.51217671  0.09215199  0.09249502  1
  O  O235  1  0.51217671  0.09215199  0.42582835  1
  O  O236  1  0.51217671  0.09215199  0.75916168  1
  O  O237  1  0.51217671  0.42548532  0.09249502  1
  O  O238  1  0.51217671  0.42548532  0.42582835  1
  O  O239  1  0.51217671  0.42548532  0.75916168  1
  O  O240  1  0.51217671  0.75881865  0.09249502  1
  O  O241  1  0.51217671  0.75881865  0.42582835  1
  O  O242  1  0.51217671  0.75881865  0.75916168  1
  O  O243  1  1.01217671  0.09215199  0.09249502  1
  O  O244  1  1.01217671  0.09215199  0.42582835  1
  O  O245  1  1.01217671  0.09215199  0.75916168  1
  O  O246  1  1.01217671  0.42548532  0.09249502  1
  O  O247  1  1.01217671  0.42548532  0.42582835  1
  O  O248  1  1.01217671  0.42548532  0.75916168  1
  O  O249  1  1.01217671  0.75881865  0.09249502  1
  O  O250  1  1.01217671  0.75881865  0.42582835  1
  O  O251  1  1.01217671  0.75881865  0.75916168  1
  O  O252  1  0.23782329  -0.07451468  0.24083832  1
  O  O253  1  0.23782329  -0.07451468  0.57417165  1
  O  O254  1  0.23782329  -0.07451468  0.90750498  1
  O  O255  1  0.23782329  0.25881865  0.24083832  1
  O  O256  1  0.23782329  0.25881865  0.57417165  1
  O  O257  1  0.23782329  0.25881865  0.90750498  1
  O  O258  1  0.23782329  0.59215199  0.24083832  1
  O  O259  1  0.23782329  0.59215199  0.57417165  1
  O  O260  1  0.23782329  0.59215199  0.90750498  1
  O  O261  1  0.73782329  -0.07451468  0.24083832  1
  O  O262  1  0.73782329  -0.07451468  0.57417165  1
  O  O263  1  0.73782329  -0.07451468  0.90750498  1
  O  O264  1  0.73782329  0.25881865  0.24083832  1
  O  O265  1  0.73782329  0.25881865  0.57417165  1
  O  O266  1  0.73782329  0.25881865  0.90750498  1
  O  O267  1  0.73782329  0.59215199  0.24083832  1
  O  O268  1  0.73782329  0.59215199  0.57417165  1
  O  O269  1  0.73782329  0.59215199  0.90750498  1
  O  O270  1  0.48782329  0.09215199  0.24083832  1
  O  O271  1  0.48782329  0.09215199  0.57417165  1
  O  O272  1  0.48782329  0.09215199  0.90750498  1
  O  O273  1  0.48782329  0.42548532  0.24083832  1
  O  O274  1  0.48782329  0.42548532  0.57417165  1
  O  O275  1  0.48782329  0.42548532  0.90750498  1
  O  O276  1  0.48782329  0.75881865  0.24083832  1
  O  O277  1  0.48782329  0.75881865  0.57417165  1
  O  O278  1  0.48782329  0.75881865  0.90750498  1
  O  O279  1  0.98782329  0.09215199  0.24083832  1
  O  O280  1  0.98782329  0.09215199  0.57417165  1
  O  O281  1  0.98782329  0.09215199  0.90750498  1
  O  O282  1  0.98782329  0.42548532  0.24083832  1
  O  O283  1  0.98782329  0.42548532  0.57417165  1
  O  O284  1  0.98782329  0.42548532  0.90750498  1
  O  O285  1  0.98782329  0.75881865  0.24083832  1
  O  O286  1  0.98782329  0.75881865  0.57417165  1
  O  O287  1  0.98782329  0.75881865  0.90750498  1
  O  O288  1  0.23782329  0.07451468  0.24083832  1
  O  O289  1  0.23782329  0.07451468  0.57417165  1
  O  O290  1  0.23782329  0.07451468  0.90750498  1
  O  O291  1  0.23782329  0.40784801  0.24083832  1
  O  O292  1  0.23782329  0.40784801  0.57417165  1
  O  O293  1  0.23782329  0.40784801  0.90750498  1
  O  O294  1  0.23782329  0.74118135  0.24083832  1
  O  O295  1  0.23782329  0.74118135  0.57417165  1
  O  O296  1  0.23782329  0.74118135  0.90750498  1
  O  O297  1  0.73782329  0.07451468  0.24083832  1
  O  O298  1  0.73782329  0.07451468  0.57417165  1
  O  O299  1  0.73782329  0.07451468  0.90750498  1
  O  O300  1  0.73782329  0.40784801  0.24083832  1
  O  O301  1  0.73782329  0.40784801  0.57417165  1
  O  O302  1  0.73782329  0.40784801  0.90750498  1
  O  O303  1  0.73782329  0.74118135  0.24083832  1
  O  O304  1  0.73782329  0.74118135  0.57417165  1
  O  O305  1  0.73782329  0.74118135  0.90750498  1
  O  O306  1  0.48782329  0.24118135  0.24083832  1
  O  O307  1  0.48782329  0.24118135  0.57417165  1
  O  O308  1  0.48782329  0.24118135  0.90750498  1
  O  O309  1  0.48782329  0.57451468  0.24083832  1
  O  O310  1  0.48782329  0.57451468  0.57417165  1
  O  O311  1  0.48782329  0.57451468  0.90750498  1
  O  O312  1  0.48782329  0.90784801  0.24083832  1
  O  O313  1  0.48782329  0.90784801  0.57417165  1
  O  O314  1  0.48782329  0.90784801  0.90750498  1
  O  O315  1  0.98782329  0.24118135  0.24083832  1
  O  O316  1  0.98782329  0.24118135  0.57417165  1
  O  O317  1  0.98782329  0.24118135  0.90750498  1
  O  O318  1  0.98782329  0.57451468  0.24083832  1
  O  O319  1  0.98782329  0.57451468  0.57417165  1
  O  O320  1  0.98782329  0.57451468  0.90750498  1
  O  O321  1  0.98782329  0.90784801  0.24083832  1
  O  O322  1  0.98782329  0.90784801  0.57417165  1
  O  O323  1  0.98782329  0.90784801  0.90750498  1
  O  O324  1  0.14127610  -0.00000000  0.05662293  1
  O  O325  1  0.14127610  -0.00000000  0.38995626  1
  O  O326  1  0.14127610  -0.00000000  0.72328959  1
  O  O327  1  0.14127610  0.33333333  0.05662293  1
  O  O328  1  0.14127610  0.33333333  0.38995626  1
  O  O329  1  0.14127610  0.33333333  0.72328959  1
  O  O330  1  0.14127610  0.66666667  0.05662293  1
  O  O331  1  0.14127610  0.66666667  0.38995626  1
  O  O332  1  0.14127610  0.66666667  0.72328959  1
  O  O333  1  0.64127610  -0.00000000  0.05662293  1
  O  O334  1  0.64127610  -0.00000000  0.38995626  1
  O  O335  1  0.64127610  -0.00000000  0.72328959  1
  O  O336  1  0.64127610  0.33333333  0.05662293  1
  O  O337  1  0.64127610  0.33333333  0.38995626  1
  O  O338  1  0.64127610  0.33333333  0.72328959  1
  O  O339  1  0.64127610  0.66666667  0.05662293  1
  O  O340  1  0.64127610  0.66666667  0.38995626  1
  O  O341  1  0.64127610  0.66666667  0.72328959  1
  O  O342  1  0.39127610  0.16666667  0.05662293  1
  O  O343  1  0.39127610  0.16666667  0.38995626  1
  O  O344  1  0.39127610  0.16666667  0.72328959  1
  O  O345  1  0.39127610  0.50000000  0.05662293  1
  O  O346  1  0.39127610  0.50000000  0.38995626  1
  O  O347  1  0.39127610  0.50000000  0.72328959  1
  O  O348  1  0.39127610  0.83333333  0.05662293  1
  O  O349  1  0.39127610  0.83333333  0.38995626  1
  O  O350  1  0.39127610  0.83333333  0.72328959  1
  O  O351  1  0.89127610  0.16666667  0.05662293  1
  O  O352  1  0.89127610  0.16666667  0.38995626  1
  O  O353  1  0.89127610  0.16666667  0.72328959  1
  O  O354  1  0.89127610  0.50000000  0.05662293  1
  O  O355  1  0.89127610  0.50000000  0.38995626  1
  O  O356  1  0.89127610  0.50000000  0.72328959  1
  O  O357  1  0.89127610  0.83333333  0.05662293  1
  O  O358  1  0.89127610  0.83333333  0.38995626  1
  O  O359  1  0.89127610  0.83333333  0.72328959  1
  O  O360  1  0.35872390  -0.00000000  0.27671041  1
  O  O361  1  0.35872390  -0.00000000  0.61004374  1
  O  O362  1  0.35872390  -0.00000000  0.94337707  1
  O  O363  1  0.35872390  0.33333333  0.27671041  1
  O  O364  1  0.35872390  0.33333333  0.61004374  1
  O  O365  1  0.35872390  0.33333333  0.94337707  1
  O  O366  1  0.35872390  0.66666667  0.27671041  1
  O  O367  1  0.35872390  0.66666667  0.61004374  1
  O  O368  1  0.35872390  0.66666667  0.94337707  1
  O  O369  1  0.85872390  -0.00000000  0.27671041  1
  O  O370  1  0.85872390  -0.00000000  0.61004374  1
  O  O371  1  0.85872390  -0.00000000  0.94337707  1
  O  O372  1  0.85872390  0.33333333  0.27671041  1
  O  O373  1  0.85872390  0.33333333  0.61004374  1
  O  O374  1  0.85872390  0.33333333  0.94337707  1
  O  O375  1  0.85872390  0.66666667  0.27671041  1
  O  O376  1  0.85872390  0.66666667  0.61004374  1
  O  O377  1  0.85872390  0.66666667  0.94337707  1
  O  O378  1  0.60872390  0.16666667  0.27671041  1
  O  O379  1  0.60872390  0.16666667  0.61004374  1
  O  O380  1  0.60872390  0.16666667  0.94337707  1
  O  O381  1  0.60872390  0.50000000  0.27671041  1
  O  O382  1  0.60872390  0.50000000  0.61004374  1
  O  O383  1  0.60872390  0.50000000  0.94337707  1
  O  O384  1  0.60872390  0.83333333  0.27671041  1
  O  O385  1  0.60872390  0.83333333  0.61004374  1
  O  O386  1  0.60872390  0.83333333  0.94337707  1
  O  O387  1  1.10872390  0.16666667  0.27671041  1
  O  O388  1  1.10872390  0.16666667  0.61004374  1
  O  O389  1  1.10872390  0.16666667  0.94337707  1
  O  O390  1  1.10872390  0.50000000  0.27671041  1
  O  O391  1  1.10872390  0.50000000  0.61004374  1
  O  O392  1  1.10872390  0.50000000  0.94337707  1
  O  O393  1  1.10872390  0.83333333  0.27671041  1
  O  O394  1  1.10872390  0.83333333  0.61004374  1
  O  O395  1  1.10872390  0.83333333  0.94337707  1
