# generated using pymatgen
data_Cs2WO4
_symmetry_space_group_name_H-M   'P 1'
_cell_length_a   13.39899163
_cell_length_b   12.92945773
_cell_length_c   16.42559010
_cell_angle_alpha   90.00000000
_cell_angle_beta   115.97972766
_cell_angle_gamma   90.00000000
_symmetry_Int_Tables_number   1
_chemical_formula_structural   Cs2WO4
_chemical_formula_sum   'Cs32 W16 O64'
_cell_volume   2558.04692255
_cell_formula_units_Z   16
loop_
 _symmetry_equiv_pos_site_id
 _symmetry_equiv_pos_as_xyz
  1  'x, y, z'
loop_
 _atom_site_type_symbol
 _atom_site_label
 _atom_site_symmetry_multiplicity
 _atom_site_fract_x
 _atom_site_fract_y
 _atom_site_fract_z
 _atom_site_occupancy
  Cs  Cs0  1  0.48603644  0.00000000  0.37932250  1
  Cs  Cs1  1  0.48603644  0.00000000  0.87932250  1
  Cs  Cs2  1  0.48603644  0.50000000  0.37932250  1
  Cs  Cs3  1  0.48603644  0.50000000  0.87932250  1
  Cs  Cs4  1  0.98603644  0.25000000  0.37932250  1
  Cs  Cs5  1  0.98603644  0.25000000  0.87932250  1
  Cs  Cs6  1  0.98603644  0.75000000  0.37932250  1
  Cs  Cs7  1  0.98603644  0.75000000  0.87932250  1
  Cs  Cs8  1  0.84297755  -0.00000000  0.12822707  1
  Cs  Cs9  1  0.84297755  -0.00000000  0.62822707  1
  Cs  Cs10  1  0.84297755  0.50000000  0.12822707  1
  Cs  Cs11  1  0.84297755  0.50000000  0.62822707  1
  Cs  Cs12  1  1.34297755  0.25000000  0.12822707  1
  Cs  Cs13  1  1.34297755  0.25000000  0.62822707  1
  Cs  Cs14  1  1.34297755  0.75000000  0.12822707  1
  Cs  Cs15  1  1.34297755  0.75000000  0.62822707  1
  Cs  Cs16  1  0.15702245  -0.00000000  0.37177293  1
  Cs  Cs17  1  0.15702245  -0.00000000  0.87177293  1
  Cs  Cs18  1  0.15702245  0.50000000  0.37177293  1
  Cs  Cs19  1  0.15702245  0.50000000  0.87177293  1
  Cs  Cs20  1  0.65702245  0.25000000  0.37177293  1
  Cs  Cs21  1  0.65702245  0.25000000  0.87177293  1
  Cs  Cs22  1  0.65702245  0.75000000  0.37177293  1
  Cs  Cs23  1  0.65702245  0.75000000  0.87177293  1
  Cs  Cs24  1  0.51396356  -0.00000000  0.12067750  1
  Cs  Cs25  1  0.51396356  -0.00000000  0.62067750  1
  Cs  Cs26  1  0.51396356  0.50000000  0.12067750  1
  Cs  Cs27  1  0.51396356  0.50000000  0.62067750  1
  Cs  Cs28  1  1.01396356  0.25000000  0.12067750  1
  Cs  Cs29  1  1.01396356  0.25000000  0.62067750  1
  Cs  Cs30  1  1.01396356  0.75000000  0.12067750  1
  Cs  Cs31  1  1.01396356  0.75000000  0.62067750  1
  W  W32  1  0.82706552  -0.00000000  0.39026884  1
  W  W33  1  0.82706552  -0.00000000  0.89026884  1
  W  W34  1  0.82706552  0.50000000  0.39026884  1
  W  W35  1  0.82706552  0.50000000  0.89026884  1
  W  W36  1  1.32706552  0.25000000  0.39026884  1
  W  W37  1  1.32706552  0.25000000  0.89026884  1
  W  W38  1  1.32706552  0.75000000  0.39026884  1
  W  W39  1  1.32706552  0.75000000  0.89026884  1
  W  W40  1  0.17293448  0.00000000  0.10973116  1
  W  W41  1  0.17293448  0.00000000  0.60973116  1
  W  W42  1  0.17293448  0.50000000  0.10973116  1
  W  W43  1  0.17293448  0.50000000  0.60973116  1
  W  W44  1  0.67293448  0.25000000  0.10973116  1
  W  W45  1  0.67293448  0.25000000  0.60973116  1
  W  W46  1  0.67293448  0.75000000  0.10973116  1
  W  W47  1  0.67293448  0.75000000  0.60973116  1
  O  O48  1  0.90726668  -0.00000000  0.32664776  1
  O  O49  1  0.90726668  -0.00000000  0.82664776  1
  O  O50  1  0.90726668  0.50000000  0.32664776  1
  O  O51  1  0.90726668  0.50000000  0.82664776  1
  O  O52  1  1.40726668  0.25000000  0.32664776  1
  O  O53  1  1.40726668  0.25000000  0.82664776  1
  O  O54  1  1.40726668  0.75000000  0.32664776  1
  O  O55  1  1.40726668  0.75000000  0.82664776  1
  O  O56  1  0.31945083  -0.00000000  0.18305864  1
  O  O57  1  0.31945083  -0.00000000  0.68305864  1
  O  O58  1  0.31945083  0.50000000  0.18305864  1
  O  O59  1  0.31945083  0.50000000  0.68305864  1
  O  O60  1  0.81945083  0.25000000  0.18305864  1
  O  O61  1  0.81945083  0.25000000  0.68305864  1
  O  O62  1  0.81945083  0.75000000  0.18305864  1
  O  O63  1  0.81945083  0.75000000  0.68305864  1
  O  O64  1  0.64154868  0.13634706  0.04013108  1
  O  O65  1  0.64154868  0.13634706  0.54013108  1
  O  O66  1  0.64154868  0.63634706  0.04013108  1
  O  O67  1  0.64154868  0.63634706  0.54013108  1
  O  O68  1  1.14154868  0.38634706  0.04013108  1
  O  O69  1  1.14154868  0.38634706  0.54013108  1
  O  O70  1  1.14154868  0.88634706  0.04013108  1
  O  O71  1  1.14154868  0.88634706  0.54013108  1
  O  O72  1  0.64154868  -0.13634706  0.04013108  1
  O  O73  1  0.64154868  -0.13634706  0.54013108  1
  O  O74  1  0.64154868  0.36365294  0.04013108  1
  O  O75  1  0.64154868  0.36365294  0.54013108  1
  O  O76  1  1.14154868  0.11365294  0.04013108  1
  O  O77  1  1.14154868  0.11365294  0.54013108  1
  O  O78  1  1.14154868  0.61365294  0.04013108  1
  O  O79  1  1.14154868  0.61365294  0.54013108  1
  O  O80  1  0.35845132  -0.13634706  0.45986892  1
  O  O81  1  0.35845132  -0.13634706  0.95986892  1
  O  O82  1  0.35845132  0.36365294  0.45986892  1
  O  O83  1  0.35845132  0.36365294  0.95986892  1
  O  O84  1  0.85845132  0.11365294  0.45986892  1
  O  O85  1  0.85845132  0.11365294  0.95986892  1
  O  O86  1  0.85845132  0.61365294  0.45986892  1
  O  O87  1  0.85845132  0.61365294  0.95986892  1
  O  O88  1  0.35845132  0.13634706  0.45986892  1
  O  O89  1  0.35845132  0.13634706  0.95986892  1
  O  O90  1  0.35845132  0.63634706  0.45986892  1
  O  O91  1  0.35845132  0.63634706  0.95986892  1
  O  O92  1  0.85845132  0.38634706  0.45986892  1
  O  O93  1  0.85845132  0.38634706  0.95986892  1
  O  O94  1  0.85845132  0.88634706  0.45986892  1
  O  O95  1  0.85845132  0.88634706  0.95986892  1
  O  O96  1  0.68054917  0.00000000  0.31694136  1
  O  O97  1  0.68054917  0.00000000  0.81694136  1
  O  O98  1  0.68054917  0.50000000  0.31694136  1
  O  O99  1  0.68054917  0.50000000  0.81694136  1
  O  O100  1  1.18054917  0.25000000  0.31694136  1
  O  O101  1  1.18054917  0.25000000  0.81694136  1
  O  O102  1  1.18054917  0.75000000  0.31694136  1
  O  O103  1  1.18054917  0.75000000  0.81694136  1
  O  O104  1  0.09273332  -0.00000000  0.17335224  1
  O  O105  1  0.09273332  -0.00000000  0.67335224  1
  O  O106  1  0.09273332  0.50000000  0.17335224  1
  O  O107  1  0.09273332  0.50000000  0.67335224  1
  O  O108  1  0.59273332  0.25000000  0.17335224  1
  O  O109  1  0.59273332  0.25000000  0.67335224  1
  O  O110  1  0.59273332  0.75000000  0.17335224  1
  O  O111  1  0.59273332  0.75000000  0.67335224  1
