# generated using pymatgen
data_Ba2Cd(BO2)6
_symmetry_space_group_name_H-M   'P 1'
_cell_length_a   14.31051259
_cell_length_b   14.31051259
_cell_length_c   17.23887778
_cell_angle_alpha   90.00000000
_cell_angle_beta   90.00000000
_cell_angle_gamma   120.00000000
_symmetry_Int_Tables_number   1
_chemical_formula_structural   Ba2Cd(BO2)6
_chemical_formula_sum   'Ba24 Cd12 B72 O144'
_cell_volume   3057.38410046
_cell_formula_units_Z   12
loop_
 _symmetry_equiv_pos_site_id
 _symmetry_equiv_pos_as_xyz
  1  'x, y, z'
loop_
 _atom_site_type_symbol
 _atom_site_label
 _atom_site_symmetry_multiplicity
 _atom_site_fract_x
 _atom_site_fract_y
 _atom_site_fract_z
 _atom_site_occupancy
  Ba  Ba0  1  -0.00000000  -0.00000000  0.79140276  1
  Ba  Ba1  1  -0.00000000  0.50000000  0.79140276  1
  Ba  Ba2  1  0.50000000  -0.00000000  0.79140276  1
  Ba  Ba3  1  0.50000000  0.50000000  0.79140276  1
  Ba  Ba4  1  0.33333333  0.16666667  1.12473609  1
  Ba  Ba5  1  0.33333333  0.66666667  1.12473609  1
  Ba  Ba6  1  0.83333333  0.16666667  1.12473609  1
  Ba  Ba7  1  0.83333333  0.66666667  1.12473609  1
  Ba  Ba8  1  0.16666667  0.33333333  1.45806943  1
  Ba  Ba9  1  0.16666667  0.83333333  1.45806943  1
  Ba  Ba10  1  0.66666667  0.33333333  1.45806943  1
  Ba  Ba11  1  0.66666667  0.83333333  1.45806943  1
  Ba  Ba12  1  -0.00000000  0.00000000  0.20859724  1
  Ba  Ba13  1  0.00000000  0.50000000  0.20859724  1
  Ba  Ba14  1  0.50000000  0.00000000  0.20859724  1
  Ba  Ba15  1  0.50000000  0.50000000  0.20859724  1
  Ba  Ba16  1  0.33333333  0.16666667  0.54193057  1
  Ba  Ba17  1  0.33333333  0.66666667  0.54193057  1
  Ba  Ba18  1  0.83333333  0.16666667  0.54193057  1
  Ba  Ba19  1  0.83333333  0.66666667  0.54193057  1
  Ba  Ba20  1  0.16666667  0.33333333  0.87526391  1
  Ba  Ba21  1  0.16666667  0.83333333  0.87526391  1
  Ba  Ba22  1  0.66666667  0.33333333  0.87526391  1
  Ba  Ba23  1  0.66666667  0.83333333  0.87526391  1
  Cd  Cd24  1  -0.00000000  -0.00000000  -0.00000000  1
  Cd  Cd25  1  -0.00000000  0.50000000  -0.00000000  1
  Cd  Cd26  1  0.50000000  -0.00000000  -0.00000000  1
  Cd  Cd27  1  0.50000000  0.50000000  -0.00000000  1
  Cd  Cd28  1  0.33333333  0.16666667  0.33333333  1
  Cd  Cd29  1  0.33333333  0.66666667  0.33333333  1
  Cd  Cd30  1  0.83333333  0.16666667  0.33333333  1
  Cd  Cd31  1  0.83333333  0.66666667  0.33333333  1
  Cd  Cd32  1  0.16666667  0.33333333  0.66666667  1
  Cd  Cd33  1  0.16666667  0.83333333  0.66666667  1
  Cd  Cd34  1  0.66666667  0.33333333  0.66666667  1
  Cd  Cd35  1  0.66666667  0.83333333  0.66666667  1
  B  B36  1  -0.10970866  -0.08586094  0.58544343  1
  B  B37  1  -0.10970866  0.41413906  0.58544343  1
  B  B38  1  0.39029134  -0.08586094  0.58544343  1
  B  B39  1  0.39029134  0.41413906  0.58544343  1
  B  B40  1  0.22362468  0.08080573  0.91877676  1
  B  B41  1  0.22362468  0.58080573  0.91877676  1
  B  B42  1  0.72362468  0.08080573  0.91877676  1
  B  B43  1  0.72362468  0.58080573  0.91877676  1
  B  B44  1  0.05695801  0.24747240  1.25211009  1
  B  B45  1  0.05695801  0.74747240  1.25211009  1
  B  B46  1  0.55695801  0.24747240  1.25211009  1
  B  B47  1  0.55695801  0.74747240  1.25211009  1
  B  B48  1  0.02384772  0.10970866  0.58544343  1
  B  B49  1  0.02384772  0.60970866  0.58544343  1
  B  B50  1  0.52384772  0.10970866  0.58544343  1
  B  B51  1  0.52384772  0.60970866  0.58544343  1
  B  B52  1  0.35718105  0.27637532  0.91877676  1
  B  B53  1  0.35718105  0.77637532  0.91877676  1
  B  B54  1  0.85718105  0.27637532  0.91877676  1
  B  B55  1  0.85718105  0.77637532  0.91877676  1
  B  B56  1  0.19051438  0.44304199  1.25211009  1
  B  B57  1  0.19051438  0.94304199  1.25211009  1
  B  B58  1  0.69051438  0.44304199  1.25211009  1
  B  B59  1  0.69051438  0.94304199  1.25211009  1
  B  B60  1  0.08586094  -0.02384772  0.58544343  1
  B  B61  1  0.08586094  0.47615228  0.58544343  1
  B  B62  1  0.58586094  -0.02384772  0.58544343  1
  B  B63  1  0.58586094  0.47615228  0.58544343  1
  B  B64  1  0.41919427  0.14281895  0.91877676  1
  B  B65  1  0.41919427  0.64281895  0.91877676  1
  B  B66  1  0.91919427  0.14281895  0.91877676  1
  B  B67  1  0.91919427  0.64281895  0.91877676  1
  B  B68  1  0.25252760  0.30948562  1.25211009  1
  B  B69  1  0.25252760  0.80948562  1.25211009  1
  B  B70  1  0.75252760  0.30948562  1.25211009  1
  B  B71  1  0.75252760  0.80948562  1.25211009  1
  B  B72  1  0.10970866  0.08586094  0.41455657  1
  B  B73  1  0.10970866  0.58586094  0.41455657  1
  B  B74  1  0.60970866  0.08586094  0.41455657  1
  B  B75  1  0.60970866  0.58586094  0.41455657  1
  B  B76  1  0.44304199  0.25252760  0.74788991  1
  B  B77  1  0.44304199  0.75252760  0.74788991  1
  B  B78  1  0.94304199  0.25252760  0.74788991  1
  B  B79  1  0.94304199  0.75252760  0.74788991  1
  B  B80  1  0.27637532  0.41919427  1.08122324  1
  B  B81  1  0.27637532  0.91919427  1.08122324  1
  B  B82  1  0.77637532  0.41919427  1.08122324  1
  B  B83  1  0.77637532  0.91919427  1.08122324  1
  B  B84  1  -0.02384772  -0.10970866  0.41455657  1
  B  B85  1  -0.02384772  0.39029134  0.41455657  1
  B  B86  1  0.47615228  -0.10970866  0.41455657  1
  B  B87  1  0.47615228  0.39029134  0.41455657  1
  B  B88  1  0.30948562  0.05695801  0.74788991  1
  B  B89  1  0.30948562  0.55695801  0.74788991  1
  B  B90  1  0.80948562  0.05695801  0.74788991  1
  B  B91  1  0.80948562  0.55695801  0.74788991  1
  B  B92  1  0.14281895  0.22362468  1.08122324  1
  B  B93  1  0.14281895  0.72362468  1.08122324  1
  B  B94  1  0.64281895  0.22362468  1.08122324  1
  B  B95  1  0.64281895  0.72362468  1.08122324  1
  B  B96  1  -0.08586094  0.02384772  0.41455657  1
  B  B97  1  -0.08586094  0.52384772  0.41455657  1
  B  B98  1  0.41413906  0.02384772  0.41455657  1
  B  B99  1  0.41413906  0.52384772  0.41455657  1
  B  B100  1  0.24747240  0.19051438  0.74788991  1
  B  B101  1  0.24747240  0.69051438  0.74788991  1
  B  B102  1  0.74747240  0.19051438  0.74788991  1
  B  B103  1  0.74747240  0.69051438  0.74788991  1
  B  B104  1  0.08080573  0.35718105  1.08122324  1
  B  B105  1  0.08080573  0.85718105  1.08122324  1
  B  B106  1  0.58080573  0.35718105  1.08122324  1
  B  B107  1  0.58080573  0.85718105  1.08122324  1
  O  O108  1  -0.21018954  -0.16840113  0.58055676  1
  O  O109  1  -0.21018954  0.33159887  0.58055676  1
  O  O110  1  0.28981046  -0.16840113  0.58055676  1
  O  O111  1  0.28981046  0.33159887  0.58055676  1
  O  O112  1  0.12314379  -0.00173447  0.91389009  1
  O  O113  1  0.12314379  0.49826553  0.91389009  1
  O  O114  1  0.62314379  -0.00173447  0.91389009  1
  O  O115  1  0.62314379  0.49826553  0.91389009  1
  O  O116  1  -0.04352287  0.16493220  1.24722342  1
  O  O117  1  -0.04352287  0.66493220  1.24722342  1
  O  O118  1  0.45647713  0.16493220  1.24722342  1
  O  O119  1  0.45647713  0.66493220  1.24722342  1
  O  O120  1  0.04178841  0.21018954  0.58055676  1
  O  O121  1  0.04178841  0.71018954  0.58055676  1
  O  O122  1  0.54178841  0.21018954  0.58055676  1
  O  O123  1  0.54178841  0.71018954  0.58055676  1
  O  O124  1  0.37512174  0.37685621  0.91389009  1
  O  O125  1  0.37512174  0.87685621  0.91389009  1
  O  O126  1  0.87512174  0.37685621  0.91389009  1
  O  O127  1  0.87512174  0.87685621  0.91389009  1
  O  O128  1  0.20845507  0.54352287  1.24722342  1
  O  O129  1  0.20845507  1.04352287  1.24722342  1
  O  O130  1  0.70845507  0.54352287  1.24722342  1
  O  O131  1  0.70845507  1.04352287  1.24722342  1
  O  O132  1  0.16840113  -0.04178841  0.58055676  1
  O  O133  1  0.16840113  0.45821159  0.58055676  1
  O  O134  1  0.66840113  -0.04178841  0.58055676  1
  O  O135  1  0.66840113  0.45821159  0.58055676  1
  O  O136  1  0.50173447  0.12487826  0.91389009  1
  O  O137  1  0.50173447  0.62487826  0.91389009  1
  O  O138  1  1.00173447  0.12487826  0.91389009  1
  O  O139  1  1.00173447  0.62487826  0.91389009  1
  O  O140  1  0.33506780  0.29154493  1.24722342  1
  O  O141  1  0.33506780  0.79154493  1.24722342  1
  O  O142  1  0.83506780  0.29154493  1.24722342  1
  O  O143  1  0.83506780  0.79154493  1.24722342  1
  O  O144  1  0.21018954  0.16840113  0.41944324  1
  O  O145  1  0.21018954  0.66840113  0.41944324  1
  O  O146  1  0.71018954  0.16840113  0.41944324  1
  O  O147  1  0.71018954  0.66840113  0.41944324  1
  O  O148  1  0.54352287  0.33506780  0.75277658  1
  O  O149  1  0.54352287  0.83506780  0.75277658  1
  O  O150  1  1.04352287  0.33506780  0.75277658  1
  O  O151  1  1.04352287  0.83506780  0.75277658  1
  O  O152  1  0.37685621  0.50173447  1.08610991  1
  O  O153  1  0.37685621  1.00173447  1.08610991  1
  O  O154  1  0.87685621  0.50173447  1.08610991  1
  O  O155  1  0.87685621  1.00173447  1.08610991  1
  O  O156  1  -0.04178841  -0.21018954  0.41944324  1
  O  O157  1  -0.04178841  0.28981046  0.41944324  1
  O  O158  1  0.45821159  -0.21018954  0.41944324  1
  O  O159  1  0.45821159  0.28981046  0.41944324  1
  O  O160  1  0.29154493  -0.04352287  0.75277658  1
  O  O161  1  0.29154493  0.45647713  0.75277658  1
  O  O162  1  0.79154493  -0.04352287  0.75277658  1
  O  O163  1  0.79154493  0.45647713  0.75277658  1
  O  O164  1  0.12487826  0.12314379  1.08610991  1
  O  O165  1  0.12487826  0.62314379  1.08610991  1
  O  O166  1  0.62487826  0.12314379  1.08610991  1
  O  O167  1  0.62487826  0.62314379  1.08610991  1
  O  O168  1  -0.16840113  0.04178841  0.41944324  1
  O  O169  1  -0.16840113  0.54178841  0.41944324  1
  O  O170  1  0.33159887  0.04178841  0.41944324  1
  O  O171  1  0.33159887  0.54178841  0.41944324  1
  O  O172  1  0.16493220  0.20845507  0.75277658  1
  O  O173  1  0.16493220  0.70845507  0.75277658  1
  O  O174  1  0.66493220  0.20845507  0.75277658  1
  O  O175  1  0.66493220  0.70845507  0.75277658  1
  O  O176  1  -0.00173447  0.37512174  1.08610991  1
  O  O177  1  -0.00173447  0.87512174  1.08610991  1
  O  O178  1  0.49826553  0.37512174  1.08610991  1
  O  O179  1  0.49826553  0.87512174  1.08610991  1
  O  O180  1  -0.02277097  -0.10605399  0.58727761  1
  O  O181  1  -0.02277097  0.39394601  0.58727761  1
  O  O182  1  0.47722903  -0.10605399  0.58727761  1
  O  O183  1  0.47722903  0.39394601  0.58727761  1
  O  O184  1  0.31056236  0.06061268  0.92061094  1
  O  O185  1  0.31056236  0.56061268  0.92061094  1
  O  O186  1  0.81056236  0.06061268  0.92061094  1
  O  O187  1  0.81056236  0.56061268  0.92061094  1
  O  O188  1  0.14389570  0.22727935  1.25394427  1
  O  O189  1  0.14389570  0.72727935  1.25394427  1
  O  O190  1  0.64389570  0.22727935  1.25394427  1
  O  O191  1  0.64389570  0.72727935  1.25394427  1
  O  O192  1  -0.08328301  0.02277097  0.58727761  1
  O  O193  1  -0.08328301  0.52277097  0.58727761  1
  O  O194  1  0.41671699  0.02277097  0.58727761  1
  O  O195  1  0.41671699  0.52277097  0.58727761  1
  O  O196  1  0.25005032  0.18943764  0.92061094  1
  O  O197  1  0.25005032  0.68943764  0.92061094  1
  O  O198  1  0.75005032  0.18943764  0.92061094  1
  O  O199  1  0.75005032  0.68943764  0.92061094  1
  O  O200  1  0.08338365  0.35610430  1.25394427  1
  O  O201  1  0.08338365  0.85610430  1.25394427  1
  O  O202  1  0.58338365  0.35610430  1.25394427  1
  O  O203  1  0.58338365  0.85610430  1.25394427  1
  O  O204  1  0.10605399  0.08328301  0.58727761  1
  O  O205  1  0.10605399  0.58328301  0.58727761  1
  O  O206  1  0.60605399  0.08328301  0.58727761  1
  O  O207  1  0.60605399  0.58328301  0.58727761  1
  O  O208  1  0.43938732  0.24994968  0.92061094  1
  O  O209  1  0.43938732  0.74994968  0.92061094  1
  O  O210  1  0.93938732  0.24994968  0.92061094  1
  O  O211  1  0.93938732  0.74994968  0.92061094  1
  O  O212  1  0.27272065  0.41661635  1.25394427  1
  O  O213  1  0.27272065  0.91661635  1.25394427  1
  O  O214  1  0.77272065  0.41661635  1.25394427  1
  O  O215  1  0.77272065  0.91661635  1.25394427  1
  O  O216  1  0.02277097  0.10605399  0.41272239  1
  O  O217  1  0.02277097  0.60605399  0.41272239  1
  O  O218  1  0.52277097  0.10605399  0.41272239  1
  O  O219  1  0.52277097  0.60605399  0.41272239  1
  O  O220  1  0.35610430  0.27272065  0.74605573  1
  O  O221  1  0.35610430  0.77272065  0.74605573  1
  O  O222  1  0.85610430  0.27272065  0.74605573  1
  O  O223  1  0.85610430  0.77272065  0.74605573  1
  O  O224  1  0.18943764  0.43938732  1.07938906  1
  O  O225  1  0.18943764  0.93938732  1.07938906  1
  O  O226  1  0.68943764  0.43938732  1.07938906  1
  O  O227  1  0.68943764  0.93938732  1.07938906  1
  O  O228  1  0.08328301  -0.02277097  0.41272239  1
  O  O229  1  0.08328301  0.47722903  0.41272239  1
  O  O230  1  0.58328301  -0.02277097  0.41272239  1
  O  O231  1  0.58328301  0.47722903  0.41272239  1
  O  O232  1  0.41661635  0.14389570  0.74605573  1
  O  O233  1  0.41661635  0.64389570  0.74605573  1
  O  O234  1  0.91661635  0.14389570  0.74605573  1
  O  O235  1  0.91661635  0.64389570  0.74605573  1
  O  O236  1  0.24994968  0.31056236  1.07938906  1
  O  O237  1  0.24994968  0.81056236  1.07938906  1
  O  O238  1  0.74994968  0.31056236  1.07938906  1
  O  O239  1  0.74994968  0.81056236  1.07938906  1
  O  O240  1  -0.10605399  -0.08328301  0.41272239  1
  O  O241  1  -0.10605399  0.41671699  0.41272239  1
  O  O242  1  0.39394601  -0.08328301  0.41272239  1
  O  O243  1  0.39394601  0.41671699  0.41272239  1
  O  O244  1  0.22727935  0.08338365  0.74605573  1
  O  O245  1  0.22727935  0.58338365  0.74605573  1
  O  O246  1  0.72727935  0.08338365  0.74605573  1
  O  O247  1  0.72727935  0.58338365  0.74605573  1
  O  O248  1  0.06061268  0.25005032  1.07938906  1
  O  O249  1  0.06061268  0.75005032  1.07938906  1
  O  O250  1  0.56061268  0.25005032  1.07938906  1
  O  O251  1  0.56061268  0.75005032  1.07938906  1
