# generated using pymatgen
data_Sr2CaWO6
_symmetry_space_group_name_H-M   'P 1'
_cell_length_a   17.19277377
_cell_length_b   17.59981456
_cell_length_c   19.90966648
_cell_angle_alpha   90.00000000
_cell_angle_beta   124.97091343
_cell_angle_gamma   90.00000000
_symmetry_Int_Tables_number   1
_chemical_formula_structural   Sr2CaWO6
_chemical_formula_sum   'Sr72 Ca36 W36 O216'
_cell_volume   4936.70115550
_cell_formula_units_Z   36
loop_
 _symmetry_equiv_pos_site_id
 _symmetry_equiv_pos_as_xyz
  1  'x, y, z'
loop_
 _atom_site_type_symbol
 _atom_site_label
 _atom_site_symmetry_multiplicity
 _atom_site_fract_x
 _atom_site_fract_y
 _atom_site_fract_z
 _atom_site_occupancy
  Sr  Sr0  1  0.08036871  0.31825480  0.37584591  1
  Sr  Sr1  1  0.08036871  0.31825480  0.87584591  1
  Sr  Sr2  1  0.08036871  0.65158813  0.37584591  1
  Sr  Sr3  1  0.08036871  0.65158813  0.87584591  1
  Sr  Sr4  1  0.08036871  0.98492147  0.37584591  1
  Sr  Sr5  1  0.08036871  0.98492147  0.87584591  1
  Sr  Sr6  1  0.41370205  0.31825480  0.37584591  1
  Sr  Sr7  1  0.41370205  0.31825480  0.87584591  1
  Sr  Sr8  1  0.41370205  0.65158813  0.37584591  1
  Sr  Sr9  1  0.41370205  0.65158813  0.87584591  1
  Sr  Sr10  1  0.41370205  0.98492147  0.37584591  1
  Sr  Sr11  1  0.41370205  0.98492147  0.87584591  1
  Sr  Sr12  1  0.74703538  0.31825480  0.37584591  1
  Sr  Sr13  1  0.74703538  0.31825480  0.87584591  1
  Sr  Sr14  1  0.74703538  0.65158813  0.37584591  1
  Sr  Sr15  1  0.74703538  0.65158813  0.87584591  1
  Sr  Sr16  1  0.74703538  0.98492147  0.37584591  1
  Sr  Sr17  1  0.74703538  0.98492147  0.87584591  1
  Sr  Sr18  1  0.08036871  0.18174520  0.12584591  1
  Sr  Sr19  1  0.08036871  0.18174520  0.62584591  1
  Sr  Sr20  1  0.08036871  0.51507853  0.12584591  1
  Sr  Sr21  1  0.08036871  0.51507853  0.62584591  1
  Sr  Sr22  1  0.08036871  0.84841187  0.12584591  1
  Sr  Sr23  1  0.08036871  0.84841187  0.62584591  1
  Sr  Sr24  1  0.41370205  0.18174520  0.12584591  1
  Sr  Sr25  1  0.41370205  0.18174520  0.62584591  1
  Sr  Sr26  1  0.41370205  0.51507853  0.12584591  1
  Sr  Sr27  1  0.41370205  0.51507853  0.62584591  1
  Sr  Sr28  1  0.41370205  0.84841187  0.12584591  1
  Sr  Sr29  1  0.41370205  0.84841187  0.62584591  1
  Sr  Sr30  1  0.74703538  0.18174520  0.12584591  1
  Sr  Sr31  1  0.74703538  0.18174520  0.62584591  1
  Sr  Sr32  1  0.74703538  0.51507853  0.12584591  1
  Sr  Sr33  1  0.74703538  0.51507853  0.62584591  1
  Sr  Sr34  1  0.74703538  0.84841187  0.12584591  1
  Sr  Sr35  1  0.74703538  0.84841187  0.62584591  1
  Sr  Sr36  1  0.25296462  0.01507853  0.12415409  1
  Sr  Sr37  1  0.25296462  0.01507853  0.62415409  1
  Sr  Sr38  1  0.25296462  0.34841187  0.12415409  1
  Sr  Sr39  1  0.25296462  0.34841187  0.62415409  1
  Sr  Sr40  1  0.25296462  0.68174520  0.12415409  1
  Sr  Sr41  1  0.25296462  0.68174520  0.62415409  1
  Sr  Sr42  1  0.58629795  0.01507853  0.12415409  1
  Sr  Sr43  1  0.58629795  0.01507853  0.62415409  1
  Sr  Sr44  1  0.58629795  0.34841187  0.12415409  1
  Sr  Sr45  1  0.58629795  0.34841187  0.62415409  1
  Sr  Sr46  1  0.58629795  0.68174520  0.12415409  1
  Sr  Sr47  1  0.58629795  0.68174520  0.62415409  1
  Sr  Sr48  1  0.91963129  0.01507853  0.12415409  1
  Sr  Sr49  1  0.91963129  0.01507853  0.62415409  1
  Sr  Sr50  1  0.91963129  0.34841187  0.12415409  1
  Sr  Sr51  1  0.91963129  0.34841187  0.62415409  1
  Sr  Sr52  1  0.91963129  0.68174520  0.12415409  1
  Sr  Sr53  1  0.91963129  0.68174520  0.62415409  1
  Sr  Sr54  1  0.25296462  0.15158813  0.37415409  1
  Sr  Sr55  1  0.25296462  0.15158813  0.87415409  1
  Sr  Sr56  1  0.25296462  0.48492147  0.37415409  1
  Sr  Sr57  1  0.25296462  0.48492147  0.87415409  1
  Sr  Sr58  1  0.25296462  0.81825480  0.37415409  1
  Sr  Sr59  1  0.25296462  0.81825480  0.87415409  1
  Sr  Sr60  1  0.58629795  0.15158813  0.37415409  1
  Sr  Sr61  1  0.58629795  0.15158813  0.87415409  1
  Sr  Sr62  1  0.58629795  0.48492147  0.37415409  1
  Sr  Sr63  1  0.58629795  0.48492147  0.87415409  1
  Sr  Sr64  1  0.58629795  0.81825480  0.37415409  1
  Sr  Sr65  1  0.58629795  0.81825480  0.87415409  1
  Sr  Sr66  1  0.91963129  0.15158813  0.37415409  1
  Sr  Sr67  1  0.91963129  0.15158813  0.87415409  1
  Sr  Sr68  1  0.91963129  0.48492147  0.37415409  1
  Sr  Sr69  1  0.91963129  0.48492147  0.87415409  1
  Sr  Sr70  1  0.91963129  0.81825480  0.37415409  1
  Sr  Sr71  1  0.91963129  0.81825480  0.87415409  1
  Ca  Ca72  1  0.16666667  0.16666667  0.00000000  1
  Ca  Ca73  1  0.16666667  0.16666667  0.50000000  1
  Ca  Ca74  1  0.16666667  0.50000000  0.00000000  1
  Ca  Ca75  1  0.16666667  0.50000000  0.50000000  1
  Ca  Ca76  1  0.16666667  0.83333333  0.00000000  1
  Ca  Ca77  1  0.16666667  0.83333333  0.50000000  1
  Ca  Ca78  1  0.50000000  0.16666667  0.00000000  1
  Ca  Ca79  1  0.50000000  0.16666667  0.50000000  1
  Ca  Ca80  1  0.50000000  0.50000000  0.00000000  1
  Ca  Ca81  1  0.50000000  0.50000000  0.50000000  1
  Ca  Ca82  1  0.50000000  0.83333333  0.00000000  1
  Ca  Ca83  1  0.50000000  0.83333333  0.50000000  1
  Ca  Ca84  1  0.83333333  0.16666667  0.00000000  1
  Ca  Ca85  1  0.83333333  0.16666667  0.50000000  1
  Ca  Ca86  1  0.83333333  0.50000000  0.00000000  1
  Ca  Ca87  1  0.83333333  0.50000000  0.50000000  1
  Ca  Ca88  1  0.83333333  0.83333333  0.00000000  1
  Ca  Ca89  1  0.83333333  0.83333333  0.50000000  1
  Ca  Ca90  1  0.16666667  0.00000000  0.25000000  1
  Ca  Ca91  1  0.16666667  0.00000000  0.75000000  1
  Ca  Ca92  1  0.16666667  0.33333333  0.25000000  1
  Ca  Ca93  1  0.16666667  0.33333333  0.75000000  1
  Ca  Ca94  1  0.16666667  0.66666667  0.25000000  1
  Ca  Ca95  1  0.16666667  0.66666667  0.75000000  1
  Ca  Ca96  1  0.50000000  0.00000000  0.25000000  1
  Ca  Ca97  1  0.50000000  0.00000000  0.75000000  1
  Ca  Ca98  1  0.50000000  0.33333333  0.25000000  1
  Ca  Ca99  1  0.50000000  0.33333333  0.75000000  1
  Ca  Ca100  1  0.50000000  0.66666667  0.25000000  1
  Ca  Ca101  1  0.50000000  0.66666667  0.75000000  1
  Ca  Ca102  1  0.83333333  0.00000000  0.25000000  1
  Ca  Ca103  1  0.83333333  0.00000000  0.75000000  1
  Ca  Ca104  1  0.83333333  0.33333333  0.25000000  1
  Ca  Ca105  1  0.83333333  0.33333333  0.75000000  1
  Ca  Ca106  1  0.83333333  0.66666667  0.25000000  1
  Ca  Ca107  1  0.83333333  0.66666667  0.75000000  1
  W  W108  1  -0.00000000  0.16666667  0.25000000  1
  W  W109  1  0.00000000  0.16666667  0.75000000  1
  W  W110  1  -0.00000000  0.50000000  0.25000000  1
  W  W111  1  0.00000000  0.50000000  0.75000000  1
  W  W112  1  -0.00000000  0.83333333  0.25000000  1
  W  W113  1  0.00000000  0.83333333  0.75000000  1
  W  W114  1  0.33333333  0.16666667  0.25000000  1
  W  W115  1  0.33333333  0.16666667  0.75000000  1
  W  W116  1  0.33333333  0.50000000  0.25000000  1
  W  W117  1  0.33333333  0.50000000  0.75000000  1
  W  W118  1  0.33333333  0.83333333  0.25000000  1
  W  W119  1  0.33333333  0.83333333  0.75000000  1
  W  W120  1  0.66666667  0.16666667  0.25000000  1
  W  W121  1  0.66666667  0.16666667  0.75000000  1
  W  W122  1  0.66666667  0.50000000  0.25000000  1
  W  W123  1  0.66666667  0.50000000  0.75000000  1
  W  W124  1  0.66666667  0.83333333  0.25000000  1
  W  W125  1  0.66666667  0.83333333  0.75000000  1
  W  W126  1  0.00000000  0.00000000  0.00000000  1
  W  W127  1  -0.00000000  0.00000000  0.50000000  1
  W  W128  1  0.00000000  0.33333333  0.00000000  1
  W  W129  1  -0.00000000  0.33333333  0.50000000  1
  W  W130  1  0.00000000  0.66666667  0.00000000  1
  W  W131  1  -0.00000000  0.66666667  0.50000000  1
  W  W132  1  0.33333333  0.00000000  0.00000000  1
  W  W133  1  0.33333333  0.00000000  0.50000000  1
  W  W134  1  0.33333333  0.33333333  0.00000000  1
  W  W135  1  0.33333333  0.33333333  0.50000000  1
  W  W136  1  0.33333333  0.66666667  0.00000000  1
  W  W137  1  0.33333333  0.66666667  0.50000000  1
  W  W138  1  0.66666667  0.00000000  0.00000000  1
  W  W139  1  0.66666667  0.00000000  0.50000000  1
  W  W140  1  0.66666667  0.33333333  0.00000000  1
  W  W141  1  0.66666667  0.33333333  0.50000000  1
  W  W142  1  0.66666667  0.66666667  0.00000000  1
  W  W143  1  0.66666667  0.66666667  0.50000000  1
  O  O144  1  0.22891622  0.15703066  0.13604806  1
  O  O145  1  0.22891622  0.15703066  0.63604806  1
  O  O146  1  0.22891622  0.49036400  0.13604806  1
  O  O147  1  0.22891622  0.49036400  0.63604806  1
  O  O148  1  0.22891622  0.82369733  0.13604806  1
  O  O149  1  0.22891622  0.82369733  0.63604806  1
  O  O150  1  0.56224955  0.15703066  0.13604806  1
  O  O151  1  0.56224955  0.15703066  0.63604806  1
  O  O152  1  0.56224955  0.49036400  0.13604806  1
  O  O153  1  0.56224955  0.49036400  0.63604806  1
  O  O154  1  0.56224955  0.82369733  0.13604806  1
  O  O155  1  0.56224955  0.82369733  0.63604806  1
  O  O156  1  0.89558288  0.15703066  0.13604806  1
  O  O157  1  0.89558288  0.15703066  0.63604806  1
  O  O158  1  0.89558288  0.49036400  0.13604806  1
  O  O159  1  0.89558288  0.49036400  0.63604806  1
  O  O160  1  0.89558288  0.82369733  0.13604806  1
  O  O161  1  0.89558288  0.82369733  0.63604806  1
  O  O162  1  0.22891622  0.00963600  0.38604806  1
  O  O163  1  0.22891622  0.00963600  0.88604806  1
  O  O164  1  0.22891622  0.34296934  0.38604806  1
  O  O165  1  0.22891622  0.34296934  0.88604806  1
  O  O166  1  0.22891622  0.67630267  0.38604806  1
  O  O167  1  0.22891622  0.67630267  0.88604806  1
  O  O168  1  0.56224955  0.00963600  0.38604806  1
  O  O169  1  0.56224955  0.00963600  0.88604806  1
  O  O170  1  0.56224955  0.34296934  0.38604806  1
  O  O171  1  0.56224955  0.34296934  0.88604806  1
  O  O172  1  0.56224955  0.67630267  0.38604806  1
  O  O173  1  0.56224955  0.67630267  0.88604806  1
  O  O174  1  0.89558288  0.00963600  0.38604806  1
  O  O175  1  0.89558288  0.00963600  0.88604806  1
  O  O176  1  0.89558288  0.34296934  0.38604806  1
  O  O177  1  0.89558288  0.34296934  0.88604806  1
  O  O178  1  0.89558288  0.67630267  0.38604806  1
  O  O179  1  0.89558288  0.67630267  0.88604806  1
  O  O180  1  0.10441712  0.17630267  0.36395194  1
  O  O181  1  0.10441712  0.17630267  0.86395194  1
  O  O182  1  0.10441712  0.50963600  0.36395194  1
  O  O183  1  0.10441712  0.50963600  0.86395194  1
  O  O184  1  0.10441712  0.84296934  0.36395194  1
  O  O185  1  0.10441712  0.84296934  0.86395194  1
  O  O186  1  0.43775045  0.17630267  0.36395194  1
  O  O187  1  0.43775045  0.17630267  0.86395194  1
  O  O188  1  0.43775045  0.50963600  0.36395194  1
  O  O189  1  0.43775045  0.50963600  0.86395194  1
  O  O190  1  0.43775045  0.84296934  0.36395194  1
  O  O191  1  0.43775045  0.84296934  0.86395194  1
  O  O192  1  0.77108378  0.17630267  0.36395194  1
  O  O193  1  0.77108378  0.17630267  0.86395194  1
  O  O194  1  0.77108378  0.50963600  0.36395194  1
  O  O195  1  0.77108378  0.50963600  0.86395194  1
  O  O196  1  0.77108378  0.84296934  0.36395194  1
  O  O197  1  0.77108378  0.84296934  0.86395194  1
  O  O198  1  0.10441712  0.32369733  0.11395194  1
  O  O199  1  0.10441712  0.32369733  0.61395194  1
  O  O200  1  0.10441712  0.65703066  0.11395194  1
  O  O201  1  0.10441712  0.65703066  0.61395194  1
  O  O202  1  0.10441712  0.99036400  0.11395194  1
  O  O203  1  0.10441712  0.99036400  0.61395194  1
  O  O204  1  0.43775045  0.32369733  0.11395194  1
  O  O205  1  0.43775045  0.32369733  0.61395194  1
  O  O206  1  0.43775045  0.65703066  0.11395194  1
  O  O207  1  0.43775045  0.65703066  0.61395194  1
  O  O208  1  0.43775045  0.99036400  0.11395194  1
  O  O209  1  0.43775045  0.99036400  0.61395194  1
  O  O210  1  0.77108378  0.32369733  0.11395194  1
  O  O211  1  0.77108378  0.32369733  0.61395194  1
  O  O212  1  0.77108378  0.65703066  0.11395194  1
  O  O213  1  0.77108378  0.65703066  0.61395194  1
  O  O214  1  0.77108378  0.99036400  0.11395194  1
  O  O215  1  0.77108378  0.99036400  0.61395194  1
  O  O216  1  0.25684259  0.22933124  0.27057179  1
  O  O217  1  0.25684259  0.22933124  0.77057179  1
  O  O218  1  0.25684259  0.56266457  0.27057179  1
  O  O219  1  0.25684259  0.56266457  0.77057179  1
  O  O220  1  0.25684259  0.89599791  0.27057179  1
  O  O221  1  0.25684259  0.89599791  0.77057179  1
  O  O222  1  0.59017592  0.22933124  0.27057179  1
  O  O223  1  0.59017592  0.22933124  0.77057179  1
  O  O224  1  0.59017592  0.56266457  0.27057179  1
  O  O225  1  0.59017592  0.56266457  0.77057179  1
  O  O226  1  0.59017592  0.89599791  0.27057179  1
  O  O227  1  0.59017592  0.89599791  0.77057179  1
  O  O228  1  0.92350926  0.22933124  0.27057179  1
  O  O229  1  0.92350926  0.22933124  0.77057179  1
  O  O230  1  0.92350926  0.56266457  0.27057179  1
  O  O231  1  0.92350926  0.56266457  0.77057179  1
  O  O232  1  0.92350926  0.89599791  0.27057179  1
  O  O233  1  0.92350926  0.89599791  0.77057179  1
  O  O234  1  0.25684259  0.27066876  0.02057179  1
  O  O235  1  0.25684259  0.27066876  0.52057179  1
  O  O236  1  0.25684259  0.60400209  0.02057179  1
  O  O237  1  0.25684259  0.60400209  0.52057179  1
  O  O238  1  0.25684259  0.93733543  0.02057179  1
  O  O239  1  0.25684259  0.93733543  0.52057179  1
  O  O240  1  0.59017592  0.27066876  0.02057179  1
  O  O241  1  0.59017592  0.27066876  0.52057179  1
  O  O242  1  0.59017592  0.60400209  0.02057179  1
  O  O243  1  0.59017592  0.60400209  0.52057179  1
  O  O244  1  0.59017592  0.93733543  0.02057179  1
  O  O245  1  0.59017592  0.93733543  0.52057179  1
  O  O246  1  0.92350926  0.27066876  0.02057179  1
  O  O247  1  0.92350926  0.27066876  0.52057179  1
  O  O248  1  0.92350926  0.60400209  0.02057179  1
  O  O249  1  0.92350926  0.60400209  0.52057179  1
  O  O250  1  0.92350926  0.93733543  0.02057179  1
  O  O251  1  0.92350926  0.93733543  0.52057179  1
  O  O252  1  0.07649074  0.10400209  0.22942821  1
  O  O253  1  0.07649074  0.10400209  0.72942821  1
  O  O254  1  0.07649074  0.43733543  0.22942821  1
  O  O255  1  0.07649074  0.43733543  0.72942821  1
  O  O256  1  0.07649074  0.77066876  0.22942821  1
  O  O257  1  0.07649074  0.77066876  0.72942821  1
  O  O258  1  0.40982408  0.10400209  0.22942821  1
  O  O259  1  0.40982408  0.10400209  0.72942821  1
  O  O260  1  0.40982408  0.43733543  0.22942821  1
  O  O261  1  0.40982408  0.43733543  0.72942821  1
  O  O262  1  0.40982408  0.77066876  0.22942821  1
  O  O263  1  0.40982408  0.77066876  0.72942821  1
  O  O264  1  0.74315741  0.10400209  0.22942821  1
  O  O265  1  0.74315741  0.10400209  0.72942821  1
  O  O266  1  0.74315741  0.43733543  0.22942821  1
  O  O267  1  0.74315741  0.43733543  0.72942821  1
  O  O268  1  0.74315741  0.77066876  0.22942821  1
  O  O269  1  0.74315741  0.77066876  0.72942821  1
  O  O270  1  0.07649074  0.06266457  0.47942821  1
  O  O271  1  0.07649074  0.06266457  0.97942821  1
  O  O272  1  0.07649074  0.39599791  0.47942821  1
  O  O273  1  0.07649074  0.39599791  0.97942821  1
  O  O274  1  0.07649074  0.72933124  0.47942821  1
  O  O275  1  0.07649074  0.72933124  0.97942821  1
  O  O276  1  0.40982408  0.06266457  0.47942821  1
  O  O277  1  0.40982408  0.06266457  0.97942821  1
  O  O278  1  0.40982408  0.39599791  0.47942821  1
  O  O279  1  0.40982408  0.39599791  0.97942821  1
  O  O280  1  0.40982408  0.72933124  0.47942821  1
  O  O281  1  0.40982408  0.72933124  0.97942821  1
  O  O282  1  0.74315741  0.06266457  0.47942821  1
  O  O283  1  0.74315741  0.06266457  0.97942821  1
  O  O284  1  0.74315741  0.39599791  0.47942821  1
  O  O285  1  0.74315741  0.39599791  0.97942821  1
  O  O286  1  0.74315741  0.72933124  0.47942821  1
  O  O287  1  0.74315741  0.72933124  0.97942821  1
  O  O288  1  0.28864091  0.07695593  0.27486739  1
  O  O289  1  0.28864091  0.07695593  0.77486739  1
  O  O290  1  0.28864091  0.41028927  0.27486739  1
  O  O291  1  0.28864091  0.41028927  0.77486739  1
  O  O292  1  0.28864091  0.74362260  0.27486739  1
  O  O293  1  0.28864091  0.74362260  0.77486739  1
  O  O294  1  0.62197424  0.07695593  0.27486739  1
  O  O295  1  0.62197424  0.07695593  0.77486739  1
  O  O296  1  0.62197424  0.41028927  0.27486739  1
  O  O297  1  0.62197424  0.41028927  0.77486739  1
  O  O298  1  0.62197424  0.74362260  0.27486739  1
  O  O299  1  0.62197424  0.74362260  0.77486739  1
  O  O300  1  0.95530757  0.07695593  0.27486739  1
  O  O301  1  0.95530757  0.07695593  0.77486739  1
  O  O302  1  0.95530757  0.41028927  0.27486739  1
  O  O303  1  0.95530757  0.41028927  0.77486739  1
  O  O304  1  0.95530757  0.74362260  0.27486739  1
  O  O305  1  0.95530757  0.74362260  0.77486739  1
  O  O306  1  0.28864091  0.08971073  0.02486739  1
  O  O307  1  0.28864091  0.08971073  0.52486739  1
  O  O308  1  0.28864091  0.42304407  0.02486739  1
  O  O309  1  0.28864091  0.42304407  0.52486739  1
  O  O310  1  0.28864091  0.75637740  0.02486739  1
  O  O311  1  0.28864091  0.75637740  0.52486739  1
  O  O312  1  0.62197424  0.08971073  0.02486739  1
  O  O313  1  0.62197424  0.08971073  0.52486739  1
  O  O314  1  0.62197424  0.42304407  0.02486739  1
  O  O315  1  0.62197424  0.42304407  0.52486739  1
  O  O316  1  0.62197424  0.75637740  0.02486739  1
  O  O317  1  0.62197424  0.75637740  0.52486739  1
  O  O318  1  0.95530757  0.08971073  0.02486739  1
  O  O319  1  0.95530757  0.08971073  0.52486739  1
  O  O320  1  0.95530757  0.42304407  0.02486739  1
  O  O321  1  0.95530757  0.42304407  0.52486739  1
  O  O322  1  0.95530757  0.75637740  0.02486739  1
  O  O323  1  0.95530757  0.75637740  0.52486739  1
  O  O324  1  0.04469243  0.25637740  0.22513261  1
  O  O325  1  0.04469243  0.25637740  0.72513261  1
  O  O326  1  0.04469243  0.58971073  0.22513261  1
  O  O327  1  0.04469243  0.58971073  0.72513261  1
  O  O328  1  0.04469243  0.92304407  0.22513261  1
  O  O329  1  0.04469243  0.92304407  0.72513261  1
  O  O330  1  0.37802576  0.25637740  0.22513261  1
  O  O331  1  0.37802576  0.25637740  0.72513261  1
  O  O332  1  0.37802576  0.58971073  0.22513261  1
  O  O333  1  0.37802576  0.58971073  0.72513261  1
  O  O334  1  0.37802576  0.92304407  0.22513261  1
  O  O335  1  0.37802576  0.92304407  0.72513261  1
  O  O336  1  0.71135909  0.25637740  0.22513261  1
  O  O337  1  0.71135909  0.25637740  0.72513261  1
  O  O338  1  0.71135909  0.58971073  0.22513261  1
  O  O339  1  0.71135909  0.58971073  0.72513261  1
  O  O340  1  0.71135909  0.92304407  0.22513261  1
  O  O341  1  0.71135909  0.92304407  0.72513261  1
  O  O342  1  0.04469243  0.24362260  0.47513261  1
  O  O343  1  0.04469243  0.24362260  0.97513261  1
  O  O344  1  0.04469243  0.57695593  0.47513261  1
  O  O345  1  0.04469243  0.57695593  0.97513261  1
  O  O346  1  0.04469243  0.91028927  0.47513261  1
  O  O347  1  0.04469243  0.91028927  0.97513261  1
  O  O348  1  0.37802576  0.24362260  0.47513261  1
  O  O349  1  0.37802576  0.24362260  0.97513261  1
  O  O350  1  0.37802576  0.57695593  0.47513261  1
  O  O351  1  0.37802576  0.57695593  0.97513261  1
  O  O352  1  0.37802576  0.91028927  0.47513261  1
  O  O353  1  0.37802576  0.91028927  0.97513261  1
  O  O354  1  0.71135909  0.24362260  0.47513261  1
  O  O355  1  0.71135909  0.24362260  0.97513261  1
  O  O356  1  0.71135909  0.57695593  0.47513261  1
  O  O357  1  0.71135909  0.57695593  0.97513261  1
  O  O358  1  0.71135909  0.91028927  0.47513261  1
  O  O359  1  0.71135909  0.91028927  0.97513261  1
