# generated using pymatgen
data_Na3TlO2
_symmetry_space_group_name_H-M   'P 1'
_cell_length_a   11.37955420
_cell_length_b   13.30836860
_cell_length_c   10.60256895
_cell_angle_alpha   90.00000000
_cell_angle_beta   90.00000000
_cell_angle_gamma   90.00000000
_symmetry_Int_Tables_number   1
_chemical_formula_structural   Na3TlO2
_chemical_formula_sum   'Na48 Tl16 O32'
_cell_volume   1605.68804836
_cell_formula_units_Z   16
loop_
 _symmetry_equiv_pos_site_id
 _symmetry_equiv_pos_as_xyz
  1  'x, y, z'
loop_
 _atom_site_type_symbol
 _atom_site_label
 _atom_site_symmetry_multiplicity
 _atom_site_fract_x
 _atom_site_fract_y
 _atom_site_fract_z
 _atom_site_occupancy
  Na  Na0  1  0.66622085  0.00081333  0.37309457  1
  Na  Na1  1  0.66622085  0.00081333  0.87309457  1
  Na  Na2  1  0.66622085  0.50081333  0.37309457  1
  Na  Na3  1  0.66622085  0.50081333  0.87309457  1
  Na  Na4  1  0.83377915  0.25081333  0.12309457  1
  Na  Na5  1  0.83377915  0.25081333  0.62309457  1
  Na  Na6  1  0.83377915  0.75081333  0.12309457  1
  Na  Na7  1  0.83377915  0.75081333  0.62309457  1
  Na  Na8  1  0.16622085  0.00081333  0.37690543  1
  Na  Na9  1  0.16622085  0.00081333  0.87690543  1
  Na  Na10  1  0.16622085  0.50081333  0.37690543  1
  Na  Na11  1  0.16622085  0.50081333  0.87690543  1
  Na  Na12  1  0.33377915  0.49918667  0.12690543  1
  Na  Na13  1  0.33377915  0.49918667  0.62690543  1
  Na  Na14  1  0.33377915  0.99918667  0.12690543  1
  Na  Na15  1  0.33377915  0.99918667  0.62690543  1
  Na  Na16  1  0.92323312  0.12500000  0.37401762  1
  Na  Na17  1  0.92323312  0.12500000  0.87401762  1
  Na  Na18  1  0.92323312  0.62500000  0.37401762  1
  Na  Na19  1  0.92323312  0.62500000  0.87401762  1
  Na  Na20  1  0.57676688  0.37500000  0.12401762  1
  Na  Na21  1  0.57676688  0.37500000  0.62401762  1
  Na  Na22  1  0.57676688  0.87500000  0.12401762  1
  Na  Na23  1  0.57676688  0.87500000  0.62401762  1
  Na  Na24  1  0.07676688  0.37500000  0.12598238  1
  Na  Na25  1  0.07676688  0.37500000  0.62598238  1
  Na  Na26  1  0.07676688  0.87500000  0.12598238  1
  Na  Na27  1  0.07676688  0.87500000  0.62598238  1
  Na  Na28  1  0.42323312  0.12500000  0.37598238  1
  Na  Na29  1  0.42323312  0.12500000  0.87598238  1
  Na  Na30  1  0.42323312  0.62500000  0.37598238  1
  Na  Na31  1  0.42323312  0.62500000  0.87598238  1
  Na  Na32  1  0.33377915  0.25081333  0.12690543  1
  Na  Na33  1  0.33377915  0.25081333  0.62690543  1
  Na  Na34  1  0.33377915  0.75081333  0.12690543  1
  Na  Na35  1  0.33377915  0.75081333  0.62690543  1
  Na  Na36  1  0.16622085  0.24918667  0.37690543  1
  Na  Na37  1  0.16622085  0.24918667  0.87690543  1
  Na  Na38  1  0.16622085  0.74918667  0.37690543  1
  Na  Na39  1  0.16622085  0.74918667  0.87690543  1
  Na  Na40  1  0.66622085  0.24918667  0.37309457  1
  Na  Na41  1  0.66622085  0.24918667  0.87309457  1
  Na  Na42  1  0.66622085  0.74918667  0.37309457  1
  Na  Na43  1  0.66622085  0.74918667  0.87309457  1
  Na  Na44  1  0.83377915  0.49918667  0.12309457  1
  Na  Na45  1  0.83377915  0.49918667  0.62309457  1
  Na  Na46  1  0.83377915  0.99918667  0.12309457  1
  Na  Na47  1  0.83377915  0.99918667  0.62309457  1
  Tl  Tl48  1  0.40908421  0.37500000  0.37043735  1
  Tl  Tl49  1  0.40908421  0.37500000  0.87043735  1
  Tl  Tl50  1  0.40908421  0.87500000  0.37043735  1
  Tl  Tl51  1  0.40908421  0.87500000  0.87043735  1
  Tl  Tl52  1  0.09091579  0.12500000  0.12043735  1
  Tl  Tl53  1  0.09091579  0.12500000  0.62043735  1
  Tl  Tl54  1  0.09091579  0.62500000  0.12043735  1
  Tl  Tl55  1  0.09091579  0.62500000  0.62043735  1
  Tl  Tl56  1  0.59091579  0.12500000  0.12956265  1
  Tl  Tl57  1  0.59091579  0.12500000  0.62956265  1
  Tl  Tl58  1  0.59091579  0.62500000  0.12956265  1
  Tl  Tl59  1  0.59091579  0.62500000  0.62956265  1
  Tl  Tl60  1  0.90908421  0.37500000  0.37956265  1
  Tl  Tl61  1  0.90908421  0.37500000  0.87956265  1
  Tl  Tl62  1  0.90908421  0.87500000  0.37956265  1
  Tl  Tl63  1  0.90908421  0.87500000  0.87956265  1
  O  O64  1  0.24156294  0.37500000  0.24601886  1
  O  O65  1  0.24156294  0.37500000  0.74601886  1
  O  O66  1  0.24156294  0.87500000  0.24601886  1
  O  O67  1  0.24156294  0.87500000  0.74601886  1
  O  O68  1  0.25843706  0.12500000  0.49601886  1
  O  O69  1  0.25843706  0.12500000  0.99601886  1
  O  O70  1  0.25843706  0.62500000  0.49601886  1
  O  O71  1  0.25843706  0.62500000  0.99601886  1
  O  O72  1  0.75843706  0.12500000  0.25398114  1
  O  O73  1  0.75843706  0.12500000  0.75398114  1
  O  O74  1  0.75843706  0.62500000  0.25398114  1
  O  O75  1  0.75843706  0.62500000  0.75398114  1
  O  O76  1  0.74156294  0.37500000  0.00398114  1
  O  O77  1  0.74156294  0.37500000  0.50398114  1
  O  O78  1  0.74156294  0.87500000  0.00398114  1
  O  O79  1  0.74156294  0.87500000  0.50398114  1
  O  O80  1  0.50000000  0.25000000  0.25000000  1
  O  O81  1  0.50000000  0.25000000  0.75000000  1
  O  O82  1  0.50000000  0.75000000  0.25000000  1
  O  O83  1  0.50000000  0.75000000  0.75000000  1
  O  O84  1  0.00000000  0.25000000  0.00000000  1
  O  O85  1  0.00000000  0.25000000  0.50000000  1
  O  O86  1  0.00000000  0.75000000  0.00000000  1
  O  O87  1  0.00000000  0.75000000  0.50000000  1
  O  O88  1  0.50000000  0.00000000  0.25000000  1
  O  O89  1  0.50000000  0.00000000  0.75000000  1
  O  O90  1  0.50000000  0.50000000  0.25000000  1
  O  O91  1  0.50000000  0.50000000  0.75000000  1
  O  O92  1  0.00000000  0.00000000  0.00000000  1
  O  O93  1  0.00000000  0.00000000  0.50000000  1
  O  O94  1  0.00000000  0.50000000  0.00000000  1
  O  O95  1  0.00000000  0.50000000  0.50000000  1
