# generated using pymatgen
data_KSbWO6
_symmetry_space_group_name_H-M   'P 1'
_cell_length_a   21.66733922
_cell_length_b   20.44289031
_cell_length_c   14.91591885
_cell_angle_alpha   90.00000000
_cell_angle_beta   90.00000000
_cell_angle_gamma   90.00000000
_symmetry_Int_Tables_number   1
_chemical_formula_structural   KSbWO6
_chemical_formula_sum   'K48 Sb48 W48 O288'
_cell_volume   6606.90242944
_cell_formula_units_Z   48
loop_
 _symmetry_equiv_pos_site_id
 _symmetry_equiv_pos_as_xyz
  1  'x, y, z'
loop_
 _atom_site_type_symbol
 _atom_site_label
 _atom_site_symmetry_multiplicity
 _atom_site_fract_x
 _atom_site_fract_y
 _atom_site_fract_z
 _atom_site_occupancy
  K  K0  1  0.08333333  -0.07786636  0.29567312  1
  K  K1  1  0.08333333  -0.07786636  0.79567312  1
  K  K2  1  0.08333333  0.42213364  0.29567312  1
  K  K3  1  0.08333333  0.42213364  0.79567312  1
  K  K4  1  0.41666667  -0.07786636  0.29567312  1
  K  K5  1  0.41666667  -0.07786636  0.79567312  1
  K  K6  1  0.41666667  0.42213364  0.29567312  1
  K  K7  1  0.41666667  0.42213364  0.79567312  1
  K  K8  1  0.75000000  -0.07786636  0.29567312  1
  K  K9  1  0.75000000  -0.07786636  0.79567312  1
  K  K10  1  0.75000000  0.42213364  0.29567312  1
  K  K11  1  0.75000000  0.42213364  0.79567312  1
  K  K12  1  0.25000000  0.17213364  0.54567312  1
  K  K13  1  0.25000000  0.17213364  1.04567312  1
  K  K14  1  0.25000000  0.67213364  0.54567312  1
  K  K15  1  0.25000000  0.67213364  1.04567312  1
  K  K16  1  0.58333333  0.17213364  0.54567312  1
  K  K17  1  0.58333333  0.17213364  1.04567312  1
  K  K18  1  0.58333333  0.67213364  0.54567312  1
  K  K19  1  0.58333333  0.67213364  1.04567312  1
  K  K20  1  0.91666667  0.17213364  0.54567312  1
  K  K21  1  0.91666667  0.17213364  1.04567312  1
  K  K22  1  0.91666667  0.67213364  0.54567312  1
  K  K23  1  0.91666667  0.67213364  1.04567312  1
  K  K24  1  0.08333333  0.32786636  0.04567312  1
  K  K25  1  0.08333333  0.32786636  0.54567312  1
  K  K26  1  0.08333333  0.82786636  0.04567312  1
  K  K27  1  0.08333333  0.82786636  0.54567312  1
  K  K28  1  0.41666667  0.32786636  0.04567312  1
  K  K29  1  0.41666667  0.32786636  0.54567312  1
  K  K30  1  0.41666667  0.82786636  0.04567312  1
  K  K31  1  0.41666667  0.82786636  0.54567312  1
  K  K32  1  0.75000000  0.32786636  0.04567312  1
  K  K33  1  0.75000000  0.32786636  0.54567312  1
  K  K34  1  0.75000000  0.82786636  0.04567312  1
  K  K35  1  0.75000000  0.82786636  0.54567312  1
  K  K36  1  0.25000000  0.57786636  0.29567312  1
  K  K37  1  0.25000000  0.57786636  0.79567312  1
  K  K38  1  0.25000000  1.07786636  0.29567312  1
  K  K39  1  0.25000000  1.07786636  0.79567312  1
  K  K40  1  0.58333333  0.57786636  0.29567312  1
  K  K41  1  0.58333333  0.57786636  0.79567312  1
  K  K42  1  0.58333333  1.07786636  0.29567312  1
  K  K43  1  0.58333333  1.07786636  0.79567312  1
  K  K44  1  0.91666667  0.57786636  0.29567312  1
  K  K45  1  0.91666667  0.57786636  0.79567312  1
  K  K46  1  0.91666667  1.07786636  0.29567312  1
  K  K47  1  0.91666667  1.07786636  0.79567312  1
  Sb  Sb48  1  0.00000000  0.25000000  0.24624734  1
  Sb  Sb49  1  0.00000000  0.25000000  0.74624734  1
  Sb  Sb50  1  0.00000000  0.75000000  0.24624734  1
  Sb  Sb51  1  0.00000000  0.75000000  0.74624734  1
  Sb  Sb52  1  0.33333333  0.25000000  0.24624734  1
  Sb  Sb53  1  0.33333333  0.25000000  0.74624734  1
  Sb  Sb54  1  0.33333333  0.75000000  0.24624734  1
  Sb  Sb55  1  0.33333333  0.75000000  0.74624734  1
  Sb  Sb56  1  0.66666667  0.25000000  0.24624734  1
  Sb  Sb57  1  0.66666667  0.25000000  0.74624734  1
  Sb  Sb58  1  0.66666667  0.75000000  0.24624734  1
  Sb  Sb59  1  0.66666667  0.75000000  0.74624734  1
  Sb  Sb60  1  0.16666667  0.50000000  0.49624734  1
  Sb  Sb61  1  0.16666667  0.50000000  0.99624734  1
  Sb  Sb62  1  0.16666667  1.00000000  0.49624734  1
  Sb  Sb63  1  0.16666667  1.00000000  0.99624734  1
  Sb  Sb64  1  0.50000000  0.50000000  0.49624734  1
  Sb  Sb65  1  0.50000000  0.50000000  0.99624734  1
  Sb  Sb66  1  0.50000000  1.00000000  0.49624734  1
  Sb  Sb67  1  0.50000000  1.00000000  0.99624734  1
  Sb  Sb68  1  0.83333333  0.50000000  0.49624734  1
  Sb  Sb69  1  0.83333333  0.50000000  0.99624734  1
  Sb  Sb70  1  0.83333333  1.00000000  0.49624734  1
  Sb  Sb71  1  0.83333333  1.00000000  0.99624734  1
  Sb  Sb72  1  0.00000000  -0.00000000  0.49624734  1
  Sb  Sb73  1  0.00000000  -0.00000000  0.99624734  1
  Sb  Sb74  1  0.00000000  0.50000000  0.49624734  1
  Sb  Sb75  1  0.00000000  0.50000000  0.99624734  1
  Sb  Sb76  1  0.33333333  -0.00000000  0.49624734  1
  Sb  Sb77  1  0.33333333  -0.00000000  0.99624734  1
  Sb  Sb78  1  0.33333333  0.50000000  0.49624734  1
  Sb  Sb79  1  0.33333333  0.50000000  0.99624734  1
  Sb  Sb80  1  0.66666667  -0.00000000  0.49624734  1
  Sb  Sb81  1  0.66666667  -0.00000000  0.99624734  1
  Sb  Sb82  1  0.66666667  0.50000000  0.49624734  1
  Sb  Sb83  1  0.66666667  0.50000000  0.99624734  1
  Sb  Sb84  1  0.16666667  0.25000000  0.74624734  1
  Sb  Sb85  1  0.16666667  0.25000000  1.24624734  1
  Sb  Sb86  1  0.16666667  0.75000000  0.74624734  1
  Sb  Sb87  1  0.16666667  0.75000000  1.24624734  1
  Sb  Sb88  1  0.50000000  0.25000000  0.74624734  1
  Sb  Sb89  1  0.50000000  0.25000000  1.24624734  1
  Sb  Sb90  1  0.50000000  0.75000000  0.74624734  1
  Sb  Sb91  1  0.50000000  0.75000000  1.24624734  1
  Sb  Sb92  1  0.83333333  0.25000000  0.74624734  1
  Sb  Sb93  1  0.83333333  0.25000000  1.24624734  1
  Sb  Sb94  1  0.83333333  0.75000000  0.74624734  1
  Sb  Sb95  1  0.83333333  0.75000000  1.24624734  1
  W  W96  1  0.08333333  0.12954443  -0.11510399  1
  W  W97  1  0.08333333  0.12954443  0.38489601  1
  W  W98  1  0.08333333  0.62954443  -0.11510399  1
  W  W99  1  0.08333333  0.62954443  0.38489601  1
  W  W100  1  0.41666667  0.12954443  -0.11510399  1
  W  W101  1  0.41666667  0.12954443  0.38489601  1
  W  W102  1  0.41666667  0.62954443  -0.11510399  1
  W  W103  1  0.41666667  0.62954443  0.38489601  1
  W  W104  1  0.75000000  0.12954443  -0.11510399  1
  W  W105  1  0.75000000  0.12954443  0.38489601  1
  W  W106  1  0.75000000  0.62954443  -0.11510399  1
  W  W107  1  0.75000000  0.62954443  0.38489601  1
  W  W108  1  0.25000000  0.37954443  0.13489601  1
  W  W109  1  0.25000000  0.37954443  0.63489601  1
  W  W110  1  0.25000000  0.87954443  0.13489601  1
  W  W111  1  0.25000000  0.87954443  0.63489601  1
  W  W112  1  0.58333333  0.37954443  0.13489601  1
  W  W113  1  0.58333333  0.37954443  0.63489601  1
  W  W114  1  0.58333333  0.87954443  0.13489601  1
  W  W115  1  0.58333333  0.87954443  0.63489601  1
  W  W116  1  0.91666667  0.37954443  0.13489601  1
  W  W117  1  0.91666667  0.37954443  0.63489601  1
  W  W118  1  0.91666667  0.87954443  0.13489601  1
  W  W119  1  0.91666667  0.87954443  0.63489601  1
  W  W120  1  0.08333333  0.12045557  0.13489601  1
  W  W121  1  0.08333333  0.12045557  0.63489601  1
  W  W122  1  0.08333333  0.62045557  0.13489601  1
  W  W123  1  0.08333333  0.62045557  0.63489601  1
  W  W124  1  0.41666667  0.12045557  0.13489601  1
  W  W125  1  0.41666667  0.12045557  0.63489601  1
  W  W126  1  0.41666667  0.62045557  0.13489601  1
  W  W127  1  0.41666667  0.62045557  0.63489601  1
  W  W128  1  0.75000000  0.12045557  0.13489601  1
  W  W129  1  0.75000000  0.12045557  0.63489601  1
  W  W130  1  0.75000000  0.62045557  0.13489601  1
  W  W131  1  0.75000000  0.62045557  0.63489601  1
  W  W132  1  0.25000000  0.37045557  0.38489601  1
  W  W133  1  0.25000000  0.37045557  0.88489601  1
  W  W134  1  0.25000000  0.87045557  0.38489601  1
  W  W135  1  0.25000000  0.87045557  0.88489601  1
  W  W136  1  0.58333333  0.37045557  0.38489601  1
  W  W137  1  0.58333333  0.37045557  0.88489601  1
  W  W138  1  0.58333333  0.87045557  0.38489601  1
  W  W139  1  0.58333333  0.87045557  0.88489601  1
  W  W140  1  0.91666667  0.37045557  0.38489601  1
  W  W141  1  0.91666667  0.37045557  0.88489601  1
  W  W142  1  0.91666667  0.87045557  0.38489601  1
  W  W143  1  0.91666667  0.87045557  0.88489601  1
  O  O144  1  -0.08333333  0.21058427  0.24245591  1
  O  O145  1  -0.08333333  0.21058427  0.74245591  1
  O  O146  1  -0.08333333  0.71058427  0.24245591  1
  O  O147  1  -0.08333333  0.71058427  0.74245591  1
  O  O148  1  0.25000000  0.21058427  0.24245591  1
  O  O149  1  0.25000000  0.21058427  0.74245591  1
  O  O150  1  0.25000000  0.71058427  0.24245591  1
  O  O151  1  0.25000000  0.71058427  0.74245591  1
  O  O152  1  0.58333333  0.21058427  0.24245591  1
  O  O153  1  0.58333333  0.21058427  0.74245591  1
  O  O154  1  0.58333333  0.71058427  0.24245591  1
  O  O155  1  0.58333333  0.71058427  0.74245591  1
  O  O156  1  0.08333333  0.46058427  0.49245591  1
  O  O157  1  0.08333333  0.46058427  0.99245591  1
  O  O158  1  0.08333333  0.96058427  0.49245591  1
  O  O159  1  0.08333333  0.96058427  0.99245591  1
  O  O160  1  0.41666667  0.46058427  0.49245591  1
  O  O161  1  0.41666667  0.46058427  0.99245591  1
  O  O162  1  0.41666667  0.96058427  0.49245591  1
  O  O163  1  0.41666667  0.96058427  0.99245591  1
  O  O164  1  0.75000000  0.46058427  0.49245591  1
  O  O165  1  0.75000000  0.46058427  0.99245591  1
  O  O166  1  0.75000000  0.96058427  0.49245591  1
  O  O167  1  0.75000000  0.96058427  0.99245591  1
  O  O168  1  0.08333333  0.15592025  -0.00028996  1
  O  O169  1  0.08333333  0.15592025  0.49971004  1
  O  O170  1  0.08333333  0.65592025  -0.00028996  1
  O  O171  1  0.08333333  0.65592025  0.49971004  1
  O  O172  1  0.41666667  0.15592025  -0.00028996  1
  O  O173  1  0.41666667  0.15592025  0.49971004  1
  O  O174  1  0.41666667  0.65592025  -0.00028996  1
  O  O175  1  0.41666667  0.65592025  0.49971004  1
  O  O176  1  0.75000000  0.15592025  -0.00028996  1
  O  O177  1  0.75000000  0.15592025  0.49971004  1
  O  O178  1  0.75000000  0.65592025  -0.00028996  1
  O  O179  1  0.75000000  0.65592025  0.49971004  1
  O  O180  1  0.25000000  0.40592025  0.24971004  1
  O  O181  1  0.25000000  0.40592025  0.74971004  1
  O  O182  1  0.25000000  0.90592025  0.24971004  1
  O  O183  1  0.25000000  0.90592025  0.74971004  1
  O  O184  1  0.58333333  0.40592025  0.24971004  1
  O  O185  1  0.58333333  0.40592025  0.74971004  1
  O  O186  1  0.58333333  0.90592025  0.24971004  1
  O  O187  1  0.58333333  0.90592025  0.74971004  1
  O  O188  1  0.91666667  0.40592025  0.24971004  1
  O  O189  1  0.91666667  0.40592025  0.74971004  1
  O  O190  1  0.91666667  0.90592025  0.24971004  1
  O  O191  1  0.91666667  0.90592025  0.74971004  1
  O  O192  1  0.02081764  0.06370731  0.09175524  1
  O  O193  1  0.02081764  0.06370731  0.59175524  1
  O  O194  1  0.02081764  0.56370731  0.09175524  1
  O  O195  1  0.02081764  0.56370731  0.59175524  1
  O  O196  1  0.35415097  0.06370731  0.09175524  1
  O  O197  1  0.35415097  0.06370731  0.59175524  1
  O  O198  1  0.35415097  0.56370731  0.09175524  1
  O  O199  1  0.35415097  0.56370731  0.59175524  1
  O  O200  1  0.68748431  0.06370731  0.09175524  1
  O  O201  1  0.68748431  0.06370731  0.59175524  1
  O  O202  1  0.68748431  0.56370731  0.09175524  1
  O  O203  1  0.68748431  0.56370731  0.59175524  1
  O  O204  1  0.18748431  0.31370731  0.34175524  1
  O  O205  1  0.18748431  0.31370731  0.84175524  1
  O  O206  1  0.18748431  0.81370731  0.34175524  1
  O  O207  1  0.18748431  0.81370731  0.84175524  1
  O  O208  1  0.52081764  0.31370731  0.34175524  1
  O  O209  1  0.52081764  0.31370731  0.84175524  1
  O  O210  1  0.52081764  0.81370731  0.34175524  1
  O  O211  1  0.52081764  0.81370731  0.84175524  1
  O  O212  1  0.85415097  0.31370731  0.34175524  1
  O  O213  1  0.85415097  0.31370731  0.84175524  1
  O  O214  1  0.85415097  0.81370731  0.34175524  1
  O  O215  1  0.85415097  0.81370731  0.84175524  1
  O  O216  1  -0.02109041  0.31417718  0.15075343  1
  O  O217  1  -0.02109041  0.31417718  0.65075343  1
  O  O218  1  -0.02109041  0.81417718  0.15075343  1
  O  O219  1  -0.02109041  0.81417718  0.65075343  1
  O  O220  1  0.31224293  0.31417718  0.15075343  1
  O  O221  1  0.31224293  0.31417718  0.65075343  1
  O  O222  1  0.31224293  0.81417718  0.15075343  1
  O  O223  1  0.31224293  0.81417718  0.65075343  1
  O  O224  1  0.64557626  0.31417718  0.15075343  1
  O  O225  1  0.64557626  0.31417718  0.65075343  1
  O  O226  1  0.64557626  0.81417718  0.15075343  1
  O  O227  1  0.64557626  0.81417718  0.65075343  1
  O  O228  1  0.14557626  0.56417718  0.40075343  1
  O  O229  1  0.14557626  0.56417718  0.90075343  1
  O  O230  1  0.14557626  1.06417718  0.40075343  1
  O  O231  1  0.14557626  1.06417718  0.90075343  1
  O  O232  1  0.47890959  0.56417718  0.40075343  1
  O  O233  1  0.47890959  0.56417718  0.90075343  1
  O  O234  1  0.47890959  1.06417718  0.40075343  1
  O  O235  1  0.47890959  1.06417718  0.90075343  1
  O  O236  1  0.81224293  0.56417718  0.40075343  1
  O  O237  1  0.81224293  0.56417718  0.90075343  1
  O  O238  1  0.81224293  1.06417718  0.40075343  1
  O  O239  1  0.81224293  1.06417718  0.90075343  1
  O  O240  1  0.02109041  0.06417718  0.40075343  1
  O  O241  1  0.02109041  0.06417718  0.90075343  1
  O  O242  1  0.02109041  0.56417718  0.40075343  1
  O  O243  1  0.02109041  0.56417718  0.90075343  1
  O  O244  1  0.35442374  0.06417718  0.40075343  1
  O  O245  1  0.35442374  0.06417718  0.90075343  1
  O  O246  1  0.35442374  0.56417718  0.40075343  1
  O  O247  1  0.35442374  0.56417718  0.90075343  1
  O  O248  1  0.68775707  0.06417718  0.40075343  1
  O  O249  1  0.68775707  0.06417718  0.90075343  1
  O  O250  1  0.68775707  0.56417718  0.40075343  1
  O  O251  1  0.68775707  0.56417718  0.90075343  1
  O  O252  1  0.18775707  0.31417718  0.65075343  1
  O  O253  1  0.18775707  0.31417718  1.15075343  1
  O  O254  1  0.18775707  0.81417718  0.65075343  1
  O  O255  1  0.18775707  0.81417718  1.15075343  1
  O  O256  1  0.52109041  0.31417718  0.65075343  1
  O  O257  1  0.52109041  0.31417718  1.15075343  1
  O  O258  1  0.52109041  0.81417718  0.65075343  1
  O  O259  1  0.52109041  0.81417718  1.15075343  1
  O  O260  1  0.85442374  0.31417718  0.65075343  1
  O  O261  1  0.85442374  0.31417718  1.15075343  1
  O  O262  1  0.85442374  0.81417718  0.65075343  1
  O  O263  1  0.85442374  0.81417718  1.15075343  1
  O  O264  1  0.14584903  0.06370731  0.09175524  1
  O  O265  1  0.14584903  0.06370731  0.59175524  1
  O  O266  1  0.14584903  0.56370731  0.09175524  1
  O  O267  1  0.14584903  0.56370731  0.59175524  1
  O  O268  1  0.47918236  0.06370731  0.09175524  1
  O  O269  1  0.47918236  0.06370731  0.59175524  1
  O  O270  1  0.47918236  0.56370731  0.09175524  1
  O  O271  1  0.47918236  0.56370731  0.59175524  1
  O  O272  1  0.81251569  0.06370731  0.09175524  1
  O  O273  1  0.81251569  0.06370731  0.59175524  1
  O  O274  1  0.81251569  0.56370731  0.09175524  1
  O  O275  1  0.81251569  0.56370731  0.59175524  1
  O  O276  1  0.31251569  0.31370731  0.34175524  1
  O  O277  1  0.31251569  0.31370731  0.84175524  1
  O  O278  1  0.31251569  0.81370731  0.34175524  1
  O  O279  1  0.31251569  0.81370731  0.84175524  1
  O  O280  1  0.64584903  0.31370731  0.34175524  1
  O  O281  1  0.64584903  0.31370731  0.84175524  1
  O  O282  1  0.64584903  0.81370731  0.34175524  1
  O  O283  1  0.64584903  0.81370731  0.84175524  1
  O  O284  1  0.97918236  0.31370731  0.34175524  1
  O  O285  1  0.97918236  0.31370731  0.84175524  1
  O  O286  1  0.97918236  0.81370731  0.34175524  1
  O  O287  1  0.97918236  0.81370731  0.84175524  1
  O  O288  1  0.25000000  0.03941573  -0.00754409  1
  O  O289  1  0.25000000  0.03941573  0.49245591  1
  O  O290  1  0.25000000  0.53941573  -0.00754409  1
  O  O291  1  0.25000000  0.53941573  0.49245591  1
  O  O292  1  0.58333333  0.03941573  -0.00754409  1
  O  O293  1  0.58333333  0.03941573  0.49245591  1
  O  O294  1  0.58333333  0.53941573  -0.00754409  1
  O  O295  1  0.58333333  0.53941573  0.49245591  1
  O  O296  1  0.91666667  0.03941573  -0.00754409  1
  O  O297  1  0.91666667  0.03941573  0.49245591  1
  O  O298  1  0.91666667  0.53941573  -0.00754409  1
  O  O299  1  0.91666667  0.53941573  0.49245591  1
  O  O300  1  0.41666667  0.28941573  0.24245591  1
  O  O301  1  0.41666667  0.28941573  0.74245591  1
  O  O302  1  0.41666667  0.78941573  0.24245591  1
  O  O303  1  0.41666667  0.78941573  0.74245591  1
  O  O304  1  0.75000000  0.28941573  0.24245591  1
  O  O305  1  0.75000000  0.28941573  0.74245591  1
  O  O306  1  0.75000000  0.78941573  0.24245591  1
  O  O307  1  0.75000000  0.78941573  0.74245591  1
  O  O308  1  1.08333333  0.28941573  0.24245591  1
  O  O309  1  1.08333333  0.28941573  0.74245591  1
  O  O310  1  1.08333333  0.78941573  0.24245591  1
  O  O311  1  1.08333333  0.78941573  0.74245591  1
  O  O312  1  0.08333333  0.09407975  0.24971004  1
  O  O313  1  0.08333333  0.09407975  0.74971004  1
  O  O314  1  0.08333333  0.59407975  0.24971004  1
  O  O315  1  0.08333333  0.59407975  0.74971004  1
  O  O316  1  0.41666667  0.09407975  0.24971004  1
  O  O317  1  0.41666667  0.09407975  0.74971004  1
  O  O318  1  0.41666667  0.59407975  0.24971004  1
  O  O319  1  0.41666667  0.59407975  0.74971004  1
  O  O320  1  0.75000000  0.09407975  0.24971004  1
  O  O321  1  0.75000000  0.09407975  0.74971004  1
  O  O322  1  0.75000000  0.59407975  0.24971004  1
  O  O323  1  0.75000000  0.59407975  0.74971004  1
  O  O324  1  0.25000000  0.34407975  0.49971004  1
  O  O325  1  0.25000000  0.34407975  0.99971004  1
  O  O326  1  0.25000000  0.84407975  0.49971004  1
  O  O327  1  0.25000000  0.84407975  0.99971004  1
  O  O328  1  0.58333333  0.34407975  0.49971004  1
  O  O329  1  0.58333333  0.34407975  0.99971004  1
  O  O330  1  0.58333333  0.84407975  0.49971004  1
  O  O331  1  0.58333333  0.84407975  0.99971004  1
  O  O332  1  0.91666667  0.34407975  0.49971004  1
  O  O333  1  0.91666667  0.34407975  0.99971004  1
  O  O334  1  0.91666667  0.84407975  0.49971004  1
  O  O335  1  0.91666667  0.84407975  0.99971004  1
  O  O336  1  0.14557626  0.18582282  0.15075343  1
  O  O337  1  0.14557626  0.18582282  0.65075343  1
  O  O338  1  0.14557626  0.68582282  0.15075343  1
  O  O339  1  0.14557626  0.68582282  0.65075343  1
  O  O340  1  0.47890959  0.18582282  0.15075343  1
  O  O341  1  0.47890959  0.18582282  0.65075343  1
  O  O342  1  0.47890959  0.68582282  0.15075343  1
  O  O343  1  0.47890959  0.68582282  0.65075343  1
  O  O344  1  0.81224293  0.18582282  0.15075343  1
  O  O345  1  0.81224293  0.18582282  0.65075343  1
  O  O346  1  0.81224293  0.68582282  0.15075343  1
  O  O347  1  0.81224293  0.68582282  0.65075343  1
  O  O348  1  0.31224293  0.43582282  0.40075343  1
  O  O349  1  0.31224293  0.43582282  0.90075343  1
  O  O350  1  0.31224293  0.93582282  0.40075343  1
  O  O351  1  0.31224293  0.93582282  0.90075343  1
  O  O352  1  0.64557626  0.43582282  0.40075343  1
  O  O353  1  0.64557626  0.43582282  0.90075343  1
  O  O354  1  0.64557626  0.93582282  0.40075343  1
  O  O355  1  0.64557626  0.93582282  0.90075343  1
  O  O356  1  0.97890959  0.43582282  0.40075343  1
  O  O357  1  0.97890959  0.43582282  0.90075343  1
  O  O358  1  0.97890959  0.93582282  0.40075343  1
  O  O359  1  0.97890959  0.93582282  0.90075343  1
  O  O360  1  0.18748431  -0.06370731  0.09175524  1
  O  O361  1  0.18748431  -0.06370731  0.59175524  1
  O  O362  1  0.18748431  0.43629269  0.09175524  1
  O  O363  1  0.18748431  0.43629269  0.59175524  1
  O  O364  1  0.52081764  -0.06370731  0.09175524  1
  O  O365  1  0.52081764  -0.06370731  0.59175524  1
  O  O366  1  0.52081764  0.43629269  0.09175524  1
  O  O367  1  0.52081764  0.43629269  0.59175524  1
  O  O368  1  0.85415097  -0.06370731  0.09175524  1
  O  O369  1  0.85415097  -0.06370731  0.59175524  1
  O  O370  1  0.85415097  0.43629269  0.09175524  1
  O  O371  1  0.85415097  0.43629269  0.59175524  1
  O  O372  1  0.35415097  0.18629269  0.34175524  1
  O  O373  1  0.35415097  0.18629269  0.84175524  1
  O  O374  1  0.35415097  0.68629269  0.34175524  1
  O  O375  1  0.35415097  0.68629269  0.84175524  1
  O  O376  1  0.68748431  0.18629269  0.34175524  1
  O  O377  1  0.68748431  0.18629269  0.84175524  1
  O  O378  1  0.68748431  0.68629269  0.34175524  1
  O  O379  1  0.68748431  0.68629269  0.84175524  1
  O  O380  1  1.02081764  0.18629269  0.34175524  1
  O  O381  1  1.02081764  0.18629269  0.84175524  1
  O  O382  1  1.02081764  0.68629269  0.34175524  1
  O  O383  1  1.02081764  0.68629269  0.84175524  1
  O  O384  1  0.14584903  0.18629269  -0.15824476  1
  O  O385  1  0.14584903  0.18629269  0.34175524  1
  O  O386  1  0.14584903  0.68629269  -0.15824476  1
  O  O387  1  0.14584903  0.68629269  0.34175524  1
  O  O388  1  0.47918236  0.18629269  -0.15824476  1
  O  O389  1  0.47918236  0.18629269  0.34175524  1
  O  O390  1  0.47918236  0.68629269  -0.15824476  1
  O  O391  1  0.47918236  0.68629269  0.34175524  1
  O  O392  1  0.81251569  0.18629269  -0.15824476  1
  O  O393  1  0.81251569  0.18629269  0.34175524  1
  O  O394  1  0.81251569  0.68629269  -0.15824476  1
  O  O395  1  0.81251569  0.68629269  0.34175524  1
  O  O396  1  0.31251569  0.43629269  0.09175524  1
  O  O397  1  0.31251569  0.43629269  0.59175524  1
  O  O398  1  0.31251569  0.93629269  0.09175524  1
  O  O399  1  0.31251569  0.93629269  0.59175524  1
  O  O400  1  0.64584903  0.43629269  0.09175524  1
  O  O401  1  0.64584903  0.43629269  0.59175524  1
  O  O402  1  0.64584903  0.93629269  0.09175524  1
  O  O403  1  0.64584903  0.93629269  0.59175524  1
  O  O404  1  0.97918236  0.43629269  0.09175524  1
  O  O405  1  0.97918236  0.43629269  0.59175524  1
  O  O406  1  0.97918236  0.93629269  0.09175524  1
  O  O407  1  0.97918236  0.93629269  0.59175524  1
  O  O408  1  0.02109041  0.18582282  0.15075343  1
  O  O409  1  0.02109041  0.18582282  0.65075343  1
  O  O410  1  0.02109041  0.68582282  0.15075343  1
  O  O411  1  0.02109041  0.68582282  0.65075343  1
  O  O412  1  0.35442374  0.18582282  0.15075343  1
  O  O413  1  0.35442374  0.18582282  0.65075343  1
  O  O414  1  0.35442374  0.68582282  0.15075343  1
  O  O415  1  0.35442374  0.68582282  0.65075343  1
  O  O416  1  0.68775707  0.18582282  0.15075343  1
  O  O417  1  0.68775707  0.18582282  0.65075343  1
  O  O418  1  0.68775707  0.68582282  0.15075343  1
  O  O419  1  0.68775707  0.68582282  0.65075343  1
  O  O420  1  0.18775707  0.43582282  0.40075343  1
  O  O421  1  0.18775707  0.43582282  0.90075343  1
  O  O422  1  0.18775707  0.93582282  0.40075343  1
  O  O423  1  0.18775707  0.93582282  0.90075343  1
  O  O424  1  0.52109041  0.43582282  0.40075343  1
  O  O425  1  0.52109041  0.43582282  0.90075343  1
  O  O426  1  0.52109041  0.93582282  0.40075343  1
  O  O427  1  0.52109041  0.93582282  0.90075343  1
  O  O428  1  0.85442374  0.43582282  0.40075343  1
  O  O429  1  0.85442374  0.43582282  0.90075343  1
  O  O430  1  0.85442374  0.93582282  0.40075343  1
  O  O431  1  0.85442374  0.93582282  0.90075343  1
