# generated using pymatgen
data_K2PbO3
_symmetry_space_group_name_H-M   'P 1'
_cell_length_a   12.08980118
_cell_length_b   12.08980118
_cell_length_c   12.48978255
_cell_angle_alpha   90.00000000
_cell_angle_beta   90.00000000
_cell_angle_gamma   120.00000000
_symmetry_Int_Tables_number   1
_chemical_formula_structural   K2PbO3
_chemical_formula_sum   'K32 Pb16 O48'
_cell_volume   1580.97072033
_cell_formula_units_Z   16
loop_
 _symmetry_equiv_pos_site_id
 _symmetry_equiv_pos_as_xyz
  1  'x, y, z'
loop_
 _atom_site_type_symbol
 _atom_site_label
 _atom_site_symmetry_multiplicity
 _atom_site_fract_x
 _atom_site_fract_y
 _atom_site_fract_z
 _atom_site_occupancy
  K  K0  1  0.34388723  0.34388723  0.75000000  1
  K  K1  1  0.34388723  0.84388723  0.75000000  1
  K  K2  1  0.84388723  0.34388723  0.75000000  1
  K  K3  1  0.84388723  0.84388723  0.75000000  1
  K  K4  1  0.15611277  0.00000000  0.75000000  1
  K  K5  1  0.15611277  0.50000000  0.75000000  1
  K  K6  1  0.65611277  0.00000000  0.75000000  1
  K  K7  1  0.65611277  0.50000000  0.75000000  1
  K  K8  1  0.15611277  0.15611277  0.25000000  1
  K  K9  1  0.15611277  0.65611277  0.25000000  1
  K  K10  1  0.65611277  0.15611277  0.25000000  1
  K  K11  1  0.65611277  0.65611277  0.25000000  1
  K  K12  1  0.00000000  0.15611277  0.75000000  1
  K  K13  1  0.00000000  0.65611277  0.75000000  1
  K  K14  1  0.50000000  0.15611277  0.75000000  1
  K  K15  1  0.50000000  0.65611277  0.75000000  1
  K  K16  1  0.00000000  0.00000000  0.50000000  1
  K  K17  1  0.00000000  0.50000000  0.50000000  1
  K  K18  1  0.50000000  0.00000000  0.50000000  1
  K  K19  1  0.50000000  0.50000000  0.50000000  1
  K  K20  1  0.34388723  0.00000000  0.25000000  1
  K  K21  1  0.34388723  0.50000000  0.25000000  1
  K  K22  1  0.84388723  0.00000000  0.25000000  1
  K  K23  1  0.84388723  0.50000000  0.25000000  1
  K  K24  1  0.00000000  0.00000000  0.00000000  1
  K  K25  1  0.00000000  0.50000000  0.00000000  1
  K  K26  1  0.50000000  0.00000000  0.00000000  1
  K  K27  1  0.50000000  0.50000000  0.00000000  1
  K  K28  1  -0.00000000  0.34388723  0.25000000  1
  K  K29  1  -0.00000000  0.84388723  0.25000000  1
  K  K30  1  0.50000000  0.34388723  0.25000000  1
  K  K31  1  0.50000000  0.84388723  0.25000000  1
  Pb  Pb32  1  0.16666667  0.33333333  0.00000000  1
  Pb  Pb33  1  0.16666667  0.83333333  0.00000000  1
  Pb  Pb34  1  0.66666667  0.33333333  0.00000000  1
  Pb  Pb35  1  0.66666667  0.83333333  0.00000000  1
  Pb  Pb36  1  0.33333333  0.16666667  0.00000000  1
  Pb  Pb37  1  0.33333333  0.66666667  0.00000000  1
  Pb  Pb38  1  0.83333333  0.16666667  0.00000000  1
  Pb  Pb39  1  0.83333333  0.66666667  0.00000000  1
  Pb  Pb40  1  0.16666667  0.33333333  0.50000000  1
  Pb  Pb41  1  0.16666667  0.83333333  0.50000000  1
  Pb  Pb42  1  0.66666667  0.33333333  0.50000000  1
  Pb  Pb43  1  0.66666667  0.83333333  0.50000000  1
  Pb  Pb44  1  0.33333333  0.16666667  0.50000000  1
  Pb  Pb45  1  0.33333333  0.66666667  0.50000000  1
  Pb  Pb46  1  0.83333333  0.16666667  0.50000000  1
  Pb  Pb47  1  0.83333333  0.66666667  0.50000000  1
  O  O48  1  0.30641911  0.30641911  0.39971205  1
  O  O49  1  0.30641911  0.80641911  0.39971205  1
  O  O50  1  0.80641911  0.30641911  0.39971205  1
  O  O51  1  0.80641911  0.80641911  0.39971205  1
  O  O52  1  -0.00000000  0.19358089  0.39971205  1
  O  O53  1  0.00000000  0.69358089  0.39971205  1
  O  O54  1  0.50000000  0.19358089  0.39971205  1
  O  O55  1  0.50000000  0.69358089  0.39971205  1
  O  O56  1  0.30641911  0.00000000  0.60028795  1
  O  O57  1  0.30641911  0.50000000  0.60028795  1
  O  O58  1  0.80641911  0.00000000  0.60028795  1
  O  O59  1  0.80641911  0.50000000  0.60028795  1
  O  O60  1  0.19358089  0.19358089  0.89971205  1
  O  O61  1  0.19358089  0.69358089  0.89971205  1
  O  O62  1  0.69358089  0.19358089  0.89971205  1
  O  O63  1  0.69358089  0.69358089  0.89971205  1
  O  O64  1  -0.00000000  0.30641911  0.89971205  1
  O  O65  1  -0.00000000  0.80641911  0.89971205  1
  O  O66  1  0.50000000  0.30641911  0.89971205  1
  O  O67  1  0.50000000  0.80641911  0.89971205  1
  O  O68  1  -0.00000000  0.30641911  0.60028795  1
  O  O69  1  -0.00000000  0.80641911  0.60028795  1
  O  O70  1  0.50000000  0.30641911  0.60028795  1
  O  O71  1  0.50000000  0.80641911  0.60028795  1
  O  O72  1  -0.00000000  0.19358089  0.10028795  1
  O  O73  1  0.00000000  0.69358089  0.10028795  1
  O  O74  1  0.50000000  0.19358089  0.10028795  1
  O  O75  1  0.50000000  0.69358089  0.10028795  1
  O  O76  1  0.19358089  0.19358089  0.60028795  1
  O  O77  1  0.19358089  0.69358089  0.60028795  1
  O  O78  1  0.69358089  0.19358089  0.60028795  1
  O  O79  1  0.69358089  0.69358089  0.60028795  1
  O  O80  1  0.30641911  0.30641911  0.10028795  1
  O  O81  1  0.30641911  0.80641911  0.10028795  1
  O  O82  1  0.80641911  0.30641911  0.10028795  1
  O  O83  1  0.80641911  0.80641911  0.10028795  1
  O  O84  1  0.30641911  0.00000000  0.89971205  1
  O  O85  1  0.30641911  0.50000000  0.89971205  1
  O  O86  1  0.80641911  0.00000000  0.89971205  1
  O  O87  1  0.80641911  0.50000000  0.89971205  1
  O  O88  1  0.19358089  0.00000000  0.10028795  1
  O  O89  1  0.19358089  0.50000000  0.10028795  1
  O  O90  1  0.69358089  0.00000000  0.10028795  1
  O  O91  1  0.69358089  0.50000000  0.10028795  1
  O  O92  1  0.19358089  0.00000000  0.39971205  1
  O  O93  1  0.19358089  0.50000000  0.39971205  1
  O  O94  1  0.69358089  0.00000000  0.39971205  1
  O  O95  1  0.69358089  0.50000000  0.39971205  1
