# generated using pymatgen
data_Rb3YV2O8
_symmetry_space_group_name_H-M   'P 1'
_cell_length_a   17.94805379
_cell_length_b   17.94805379
_cell_length_c   15.62174994
_cell_angle_alpha   90.00000000
_cell_angle_beta   90.00000000
_cell_angle_gamma   120.00000000
_symmetry_Int_Tables_number   1
_chemical_formula_structural   Rb3YV2O8
_chemical_formula_sum   'Rb54 Y18 V36 O144'
_cell_volume   4358.07839693
_cell_formula_units_Z   18
loop_
 _symmetry_equiv_pos_site_id
 _symmetry_equiv_pos_as_xyz
  1  'x, y, z'
loop_
 _atom_site_type_symbol
 _atom_site_label
 _atom_site_symmetry_multiplicity
 _atom_site_fract_x
 _atom_site_fract_y
 _atom_site_fract_z
 _atom_site_occupancy
  Rb  Rb0  1  0.11111111  0.22222222  0.34828037  1
  Rb  Rb1  1  0.11111111  0.22222222  0.84828037  1
  Rb  Rb2  1  0.11111111  0.55555556  0.34828037  1
  Rb  Rb3  1  0.11111111  0.55555556  0.84828037  1
  Rb  Rb4  1  0.11111111  0.88888889  0.34828037  1
  Rb  Rb5  1  0.11111111  0.88888889  0.84828037  1
  Rb  Rb6  1  0.44444444  0.22222222  0.34828037  1
  Rb  Rb7  1  0.44444444  0.22222222  0.84828037  1
  Rb  Rb8  1  0.44444444  0.55555556  0.34828037  1
  Rb  Rb9  1  0.44444444  0.55555556  0.84828037  1
  Rb  Rb10  1  0.44444444  0.88888889  0.34828037  1
  Rb  Rb11  1  0.44444444  0.88888889  0.84828037  1
  Rb  Rb12  1  0.77777778  0.22222222  0.34828037  1
  Rb  Rb13  1  0.77777778  0.22222222  0.84828037  1
  Rb  Rb14  1  0.77777778  0.55555556  0.34828037  1
  Rb  Rb15  1  0.77777778  0.55555556  0.84828037  1
  Rb  Rb16  1  0.77777778  0.88888889  0.34828037  1
  Rb  Rb17  1  0.77777778  0.88888889  0.84828037  1
  Rb  Rb18  1  0.22222222  0.11111111  0.15171963  1
  Rb  Rb19  1  0.22222222  0.11111111  0.65171963  1
  Rb  Rb20  1  0.22222222  0.44444444  0.15171963  1
  Rb  Rb21  1  0.22222222  0.44444444  0.65171963  1
  Rb  Rb22  1  0.22222222  0.77777778  0.15171963  1
  Rb  Rb23  1  0.22222222  0.77777778  0.65171963  1
  Rb  Rb24  1  0.55555556  0.11111111  0.15171963  1
  Rb  Rb25  1  0.55555556  0.11111111  0.65171963  1
  Rb  Rb26  1  0.55555556  0.44444444  0.15171963  1
  Rb  Rb27  1  0.55555556  0.44444444  0.65171963  1
  Rb  Rb28  1  0.55555556  0.77777778  0.15171963  1
  Rb  Rb29  1  0.55555556  0.77777778  0.65171963  1
  Rb  Rb30  1  0.88888889  0.11111111  0.15171963  1
  Rb  Rb31  1  0.88888889  0.11111111  0.65171963  1
  Rb  Rb32  1  0.88888889  0.44444444  0.15171963  1
  Rb  Rb33  1  0.88888889  0.44444444  0.65171963  1
  Rb  Rb34  1  0.88888889  0.77777778  0.15171963  1
  Rb  Rb35  1  0.88888889  0.77777778  0.65171963  1
  Rb  Rb36  1  0.00000000  0.00000000  0.00000000  1
  Rb  Rb37  1  0.00000000  0.00000000  0.50000000  1
  Rb  Rb38  1  -0.00000000  0.33333333  0.00000000  1
  Rb  Rb39  1  -0.00000000  0.33333333  0.50000000  1
  Rb  Rb40  1  -0.00000000  0.66666667  0.00000000  1
  Rb  Rb41  1  -0.00000000  0.66666667  0.50000000  1
  Rb  Rb42  1  0.33333333  0.00000000  0.00000000  1
  Rb  Rb43  1  0.33333333  0.00000000  0.50000000  1
  Rb  Rb44  1  0.33333333  0.33333333  0.00000000  1
  Rb  Rb45  1  0.33333333  0.33333333  0.50000000  1
  Rb  Rb46  1  0.33333333  0.66666667  0.00000000  1
  Rb  Rb47  1  0.33333333  0.66666667  0.50000000  1
  Rb  Rb48  1  0.66666667  0.00000000  0.00000000  1
  Rb  Rb49  1  0.66666667  0.00000000  0.50000000  1
  Rb  Rb50  1  0.66666667  0.33333333  0.00000000  1
  Rb  Rb51  1  0.66666667  0.33333333  0.50000000  1
  Rb  Rb52  1  0.66666667  0.66666667  0.00000000  1
  Rb  Rb53  1  0.66666667  0.66666667  0.50000000  1
  Y  Y54  1  0.00000000  0.00000000  0.25000000  1
  Y  Y55  1  0.00000000  0.00000000  0.75000000  1
  Y  Y56  1  -0.00000000  0.33333333  0.25000000  1
  Y  Y57  1  -0.00000000  0.33333333  0.75000000  1
  Y  Y58  1  -0.00000000  0.66666667  0.25000000  1
  Y  Y59  1  -0.00000000  0.66666667  0.75000000  1
  Y  Y60  1  0.33333333  0.00000000  0.25000000  1
  Y  Y61  1  0.33333333  0.00000000  0.75000000  1
  Y  Y62  1  0.33333333  0.33333333  0.25000000  1
  Y  Y63  1  0.33333333  0.33333333  0.75000000  1
  Y  Y64  1  0.33333333  0.66666667  0.25000000  1
  Y  Y65  1  0.33333333  0.66666667  0.75000000  1
  Y  Y66  1  0.66666667  0.00000000  0.25000000  1
  Y  Y67  1  0.66666667  0.00000000  0.75000000  1
  Y  Y68  1  0.66666667  0.33333333  0.25000000  1
  Y  Y69  1  0.66666667  0.33333333  0.75000000  1
  Y  Y70  1  0.66666667  0.66666667  0.25000000  1
  Y  Y71  1  0.66666667  0.66666667  0.75000000  1
  V  V72  1  0.11111111  0.22222222  0.12761245  1
  V  V73  1  0.11111111  0.22222222  0.62761245  1
  V  V74  1  0.11111111  0.55555556  0.12761245  1
  V  V75  1  0.11111111  0.55555556  0.62761245  1
  V  V76  1  0.11111111  0.88888889  0.12761245  1
  V  V77  1  0.11111111  0.88888889  0.62761245  1
  V  V78  1  0.44444444  0.22222222  0.12761245  1
  V  V79  1  0.44444444  0.22222222  0.62761245  1
  V  V80  1  0.44444444  0.55555556  0.12761245  1
  V  V81  1  0.44444444  0.55555556  0.62761245  1
  V  V82  1  0.44444444  0.88888889  0.12761245  1
  V  V83  1  0.44444444  0.88888889  0.62761245  1
  V  V84  1  0.77777778  0.22222222  0.12761245  1
  V  V85  1  0.77777778  0.22222222  0.62761245  1
  V  V86  1  0.77777778  0.55555556  0.12761245  1
  V  V87  1  0.77777778  0.55555556  0.62761245  1
  V  V88  1  0.77777778  0.88888889  0.12761245  1
  V  V89  1  0.77777778  0.88888889  0.62761245  1
  V  V90  1  0.22222222  0.11111111  0.37238755  1
  V  V91  1  0.22222222  0.11111111  0.87238755  1
  V  V92  1  0.22222222  0.44444444  0.37238755  1
  V  V93  1  0.22222222  0.44444444  0.87238755  1
  V  V94  1  0.22222222  0.77777778  0.37238755  1
  V  V95  1  0.22222222  0.77777778  0.87238755  1
  V  V96  1  0.55555556  0.11111111  0.37238755  1
  V  V97  1  0.55555556  0.11111111  0.87238755  1
  V  V98  1  0.55555556  0.44444444  0.37238755  1
  V  V99  1  0.55555556  0.44444444  0.87238755  1
  V  V100  1  0.55555556  0.77777778  0.37238755  1
  V  V101  1  0.55555556  0.77777778  0.87238755  1
  V  V102  1  0.88888889  0.11111111  0.37238755  1
  V  V103  1  0.88888889  0.11111111  0.87238755  1
  V  V104  1  0.88888889  0.44444444  0.37238755  1
  V  V105  1  0.88888889  0.44444444  0.87238755  1
  V  V106  1  0.88888889  0.77777778  0.37238755  1
  V  V107  1  0.88888889  0.77777778  0.87238755  1
  O  O108  1  0.11111111  0.22222222  0.02093567  1
  O  O109  1  0.11111111  0.22222222  0.52093567  1
  O  O110  1  0.11111111  0.55555556  0.02093567  1
  O  O111  1  0.11111111  0.55555556  0.52093567  1
  O  O112  1  0.11111111  0.88888889  0.02093567  1
  O  O113  1  0.11111111  0.88888889  0.52093567  1
  O  O114  1  0.44444444  0.22222222  0.02093567  1
  O  O115  1  0.44444444  0.22222222  0.52093567  1
  O  O116  1  0.44444444  0.55555556  0.02093567  1
  O  O117  1  0.44444444  0.55555556  0.52093567  1
  O  O118  1  0.44444444  0.88888889  0.02093567  1
  O  O119  1  0.44444444  0.88888889  0.52093567  1
  O  O120  1  0.77777778  0.22222222  0.02093567  1
  O  O121  1  0.77777778  0.22222222  0.52093567  1
  O  O122  1  0.77777778  0.55555556  0.02093567  1
  O  O123  1  0.77777778  0.55555556  0.52093567  1
  O  O124  1  0.77777778  0.88888889  0.02093567  1
  O  O125  1  0.77777778  0.88888889  0.52093567  1
  O  O126  1  0.22222222  0.11111111  0.47906433  1
  O  O127  1  0.22222222  0.11111111  0.97906433  1
  O  O128  1  0.22222222  0.44444444  0.47906433  1
  O  O129  1  0.22222222  0.44444444  0.97906433  1
  O  O130  1  0.22222222  0.77777778  0.47906433  1
  O  O131  1  0.22222222  0.77777778  0.97906433  1
  O  O132  1  0.55555556  0.11111111  0.47906433  1
  O  O133  1  0.55555556  0.11111111  0.97906433  1
  O  O134  1  0.55555556  0.44444444  0.47906433  1
  O  O135  1  0.55555556  0.44444444  0.97906433  1
  O  O136  1  0.55555556  0.77777778  0.47906433  1
  O  O137  1  0.55555556  0.77777778  0.97906433  1
  O  O138  1  0.88888889  0.11111111  0.47906433  1
  O  O139  1  0.88888889  0.11111111  0.97906433  1
  O  O140  1  0.88888889  0.44444444  0.47906433  1
  O  O141  1  0.88888889  0.44444444  0.97906433  1
  O  O142  1  0.88888889  0.77777778  0.47906433  1
  O  O143  1  0.88888889  0.77777778  0.97906433  1
  O  O144  1  0.05826705  0.27506629  0.16535211  1
  O  O145  1  0.05826705  0.27506629  0.66535211  1
  O  O146  1  0.05826705  0.60839962  0.16535211  1
  O  O147  1  0.05826705  0.60839962  0.66535211  1
  O  O148  1  0.05826705  0.94173295  0.16535211  1
  O  O149  1  0.05826705  0.94173295  0.66535211  1
  O  O150  1  0.39160038  0.27506629  0.16535211  1
  O  O151  1  0.39160038  0.27506629  0.66535211  1
  O  O152  1  0.39160038  0.60839962  0.16535211  1
  O  O153  1  0.39160038  0.60839962  0.66535211  1
  O  O154  1  0.39160038  0.94173295  0.16535211  1
  O  O155  1  0.39160038  0.94173295  0.66535211  1
  O  O156  1  0.72493371  0.27506629  0.16535211  1
  O  O157  1  0.72493371  0.27506629  0.66535211  1
  O  O158  1  0.72493371  0.60839962  0.16535211  1
  O  O159  1  0.72493371  0.60839962  0.66535211  1
  O  O160  1  0.72493371  0.94173295  0.16535211  1
  O  O161  1  0.72493371  0.94173295  0.66535211  1
  O  O162  1  0.27506629  0.05826705  0.33464789  1
  O  O163  1  0.27506629  0.05826705  0.83464789  1
  O  O164  1  0.27506629  0.39160038  0.33464789  1
  O  O165  1  0.27506629  0.39160038  0.83464789  1
  O  O166  1  0.27506629  0.72493371  0.33464789  1
  O  O167  1  0.27506629  0.72493371  0.83464789  1
  O  O168  1  0.60839962  0.05826705  0.33464789  1
  O  O169  1  0.60839962  0.05826705  0.83464789  1
  O  O170  1  0.60839962  0.39160038  0.33464789  1
  O  O171  1  0.60839962  0.39160038  0.83464789  1
  O  O172  1  0.60839962  0.72493371  0.33464789  1
  O  O173  1  0.60839962  0.72493371  0.83464789  1
  O  O174  1  0.94173295  0.05826705  0.33464789  1
  O  O175  1  0.94173295  0.05826705  0.83464789  1
  O  O176  1  0.94173295  0.39160038  0.33464789  1
  O  O177  1  0.94173295  0.39160038  0.83464789  1
  O  O178  1  0.94173295  0.72493371  0.33464789  1
  O  O179  1  0.94173295  0.72493371  0.83464789  1
  O  O180  1  0.05826705  0.11653409  0.16535211  1
  O  O181  1  0.05826705  0.11653409  0.66535211  1
  O  O182  1  0.05826705  0.44986743  0.16535211  1
  O  O183  1  0.05826705  0.44986743  0.66535211  1
  O  O184  1  0.05826705  0.78320076  0.16535211  1
  O  O185  1  0.05826705  0.78320076  0.66535211  1
  O  O186  1  0.39160038  0.11653409  0.16535211  1
  O  O187  1  0.39160038  0.11653409  0.66535211  1
  O  O188  1  0.39160038  0.44986743  0.16535211  1
  O  O189  1  0.39160038  0.44986743  0.66535211  1
  O  O190  1  0.39160038  0.78320076  0.16535211  1
  O  O191  1  0.39160038  0.78320076  0.66535211  1
  O  O192  1  0.72493371  0.11653409  0.16535211  1
  O  O193  1  0.72493371  0.11653409  0.66535211  1
  O  O194  1  0.72493371  0.44986743  0.16535211  1
  O  O195  1  0.72493371  0.44986743  0.66535211  1
  O  O196  1  0.72493371  0.78320076  0.16535211  1
  O  O197  1  0.72493371  0.78320076  0.66535211  1
  O  O198  1  0.27506629  0.21679924  0.33464789  1
  O  O199  1  0.27506629  0.21679924  0.83464789  1
  O  O200  1  0.27506629  0.55013257  0.33464789  1
  O  O201  1  0.27506629  0.55013257  0.83464789  1
  O  O202  1  0.27506629  0.88346591  0.33464789  1
  O  O203  1  0.27506629  0.88346591  0.83464789  1
  O  O204  1  0.60839962  0.21679924  0.33464789  1
  O  O205  1  0.60839962  0.21679924  0.83464789  1
  O  O206  1  0.60839962  0.55013257  0.33464789  1
  O  O207  1  0.60839962  0.55013257  0.83464789  1
  O  O208  1  0.60839962  0.88346591  0.33464789  1
  O  O209  1  0.60839962  0.88346591  0.83464789  1
  O  O210  1  0.94173295  0.21679924  0.33464789  1
  O  O211  1  0.94173295  0.21679924  0.83464789  1
  O  O212  1  0.94173295  0.55013257  0.33464789  1
  O  O213  1  0.94173295  0.55013257  0.83464789  1
  O  O214  1  0.94173295  0.88346591  0.33464789  1
  O  O215  1  0.94173295  0.88346591  0.83464789  1
  O  O216  1  0.21679924  0.27506629  0.16535211  1
  O  O217  1  0.21679924  0.27506629  0.66535211  1
  O  O218  1  0.21679924  0.60839962  0.16535211  1
  O  O219  1  0.21679924  0.60839962  0.66535211  1
  O  O220  1  0.21679924  0.94173295  0.16535211  1
  O  O221  1  0.21679924  0.94173295  0.66535211  1
  O  O222  1  0.55013257  0.27506629  0.16535211  1
  O  O223  1  0.55013257  0.27506629  0.66535211  1
  O  O224  1  0.55013257  0.60839962  0.16535211  1
  O  O225  1  0.55013257  0.60839962  0.66535211  1
  O  O226  1  0.55013257  0.94173295  0.16535211  1
  O  O227  1  0.55013257  0.94173295  0.66535211  1
  O  O228  1  0.88346591  0.27506629  0.16535211  1
  O  O229  1  0.88346591  0.27506629  0.66535211  1
  O  O230  1  0.88346591  0.60839962  0.16535211  1
  O  O231  1  0.88346591  0.60839962  0.66535211  1
  O  O232  1  0.88346591  0.94173295  0.16535211  1
  O  O233  1  0.88346591  0.94173295  0.66535211  1
  O  O234  1  0.11653409  0.05826705  0.33464789  1
  O  O235  1  0.11653409  0.05826705  0.83464789  1
  O  O236  1  0.11653409  0.39160038  0.33464789  1
  O  O237  1  0.11653409  0.39160038  0.83464789  1
  O  O238  1  0.11653409  0.72493371  0.33464789  1
  O  O239  1  0.11653409  0.72493371  0.83464789  1
  O  O240  1  0.44986743  0.05826705  0.33464789  1
  O  O241  1  0.44986743  0.05826705  0.83464789  1
  O  O242  1  0.44986743  0.39160038  0.33464789  1
  O  O243  1  0.44986743  0.39160038  0.83464789  1
  O  O244  1  0.44986743  0.72493371  0.33464789  1
  O  O245  1  0.44986743  0.72493371  0.83464789  1
  O  O246  1  0.78320076  0.05826705  0.33464789  1
  O  O247  1  0.78320076  0.05826705  0.83464789  1
  O  O248  1  0.78320076  0.39160038  0.33464789  1
  O  O249  1  0.78320076  0.39160038  0.83464789  1
  O  O250  1  0.78320076  0.72493371  0.33464789  1
  O  O251  1  0.78320076  0.72493371  0.83464789  1
