# generated using pymatgen
data_CaWO4
_symmetry_space_group_name_H-M   'P 1'
_cell_length_a   10.45337333
_cell_length_b   10.45337333
_cell_length_c   11.24273663
_cell_angle_alpha   90.00000000
_cell_angle_beta   90.00000000
_cell_angle_gamma   90.00000000
_symmetry_Int_Tables_number   1
_chemical_formula_structural   CaWO4
_chemical_formula_sum   'Ca16 W16 O64'
_cell_volume   1228.52771749
_cell_formula_units_Z   16
loop_
 _symmetry_equiv_pos_site_id
 _symmetry_equiv_pos_as_xyz
  1  'x, y, z'
loop_
 _atom_site_type_symbol
 _atom_site_label
 _atom_site_symmetry_multiplicity
 _atom_site_fract_x
 _atom_site_fract_y
 _atom_site_fract_z
 _atom_site_occupancy
  Ca  Ca0  1  0.00000000  0.25000000  0.25000000  1
  Ca  Ca1  1  0.50000000  0.25000000  0.25000000  1
  Ca  Ca2  1  0.00000000  -0.25000000  0.25000000  1
  Ca  Ca3  1  0.50000000  -0.25000000  0.25000000  1
  Ca  Ca4  1  0.25000000  0.00000000  0.75000000  1
  Ca  Ca5  1  0.75000000  0.00000000  0.75000000  1
  Ca  Ca6  1  0.25000000  -0.50000000  0.75000000  1
  Ca  Ca7  1  0.75000000  -0.50000000  0.75000000  1
  Ca  Ca8  1  0.00000000  0.50000000  0.50000000  1
  Ca  Ca9  1  0.50000000  0.50000000  0.50000000  1
  Ca  Ca10  1  0.00000000  0.00000000  0.50000000  1
  Ca  Ca11  1  0.50000000  0.00000000  0.50000000  1
  Ca  Ca12  1  0.25000000  0.25000000  1.00000000  1
  Ca  Ca13  1  0.75000000  0.25000000  1.00000000  1
  Ca  Ca14  1  0.25000000  -0.25000000  1.00000000  1
  Ca  Ca15  1  0.75000000  -0.25000000  1.00000000  1
  W  W16  1  0.25000000  0.50000000  0.25000000  1
  W  W17  1  0.75000000  0.50000000  0.25000000  1
  W  W18  1  0.25000000  0.00000000  0.25000000  1
  W  W19  1  0.75000000  0.00000000  0.25000000  1
  W  W20  1  0.50000000  0.25000000  0.75000000  1
  W  W21  1  1.00000000  0.25000000  0.75000000  1
  W  W22  1  0.50000000  -0.25000000  0.75000000  1
  W  W23  1  1.00000000  -0.25000000  0.75000000  1
  W  W24  1  0.00000000  0.50000000  0.00000000  1
  W  W25  1  0.50000000  0.50000000  0.00000000  1
  W  W26  1  0.00000000  0.00000000  0.00000000  1
  W  W27  1  0.50000000  0.00000000  0.00000000  1
  W  W28  1  0.25000000  0.25000000  0.50000000  1
  W  W29  1  0.75000000  0.25000000  0.50000000  1
  W  W30  1  0.25000000  -0.25000000  0.50000000  1
  W  W31  1  0.75000000  -0.25000000  0.50000000  1
  O  O32  1  0.07866912  0.12106086  0.08759618  1
  O  O33  1  0.57866912  0.12106086  0.08759618  1
  O  O34  1  0.07866912  -0.37893914  0.08759618  1
  O  O35  1  0.57866912  -0.37893914  0.08759618  1
  O  O36  1  0.32866912  -0.12893914  0.58759618  1
  O  O37  1  0.82866912  -0.12893914  0.58759618  1
  O  O38  1  0.32866912  -0.62893914  0.58759618  1
  O  O39  1  0.82866912  -0.62893914  0.58759618  1
  O  O40  1  0.12893914  0.57866912  0.33759618  1
  O  O41  1  0.62893914  0.57866912  0.33759618  1
  O  O42  1  0.12893914  0.07866912  0.33759618  1
  O  O43  1  0.62893914  0.07866912  0.33759618  1
  O  O44  1  0.37893914  0.32866912  0.83759618  1
  O  O45  1  0.87893914  0.32866912  0.83759618  1
  O  O46  1  0.37893914  -0.17133088  0.83759618  1
  O  O47  1  0.87893914  -0.17133088  0.83759618  1
  O  O48  1  0.12106086  0.17133088  -0.16240382  1
  O  O49  1  0.62106086  0.17133088  -0.16240382  1
  O  O50  1  0.12106086  -0.32866912  -0.16240382  1
  O  O51  1  0.62106086  -0.32866912  -0.16240382  1
  O  O52  1  0.37106086  -0.07866912  0.33759618  1
  O  O53  1  0.87106086  -0.07866912  0.33759618  1
  O  O54  1  0.37106086  -0.57866912  0.33759618  1
  O  O55  1  0.87106086  -0.57866912  0.33759618  1
  O  O56  1  0.17133088  0.62893914  0.58759618  1
  O  O57  1  0.67133088  0.62893914  0.58759618  1
  O  O58  1  0.17133088  0.12893914  0.58759618  1
  O  O59  1  0.67133088  0.12893914  0.58759618  1
  O  O60  1  0.42133088  0.37893914  1.08759618  1
  O  O61  1  0.92133088  0.37893914  1.08759618  1
  O  O62  1  0.42133088  -0.12106086  1.08759618  1
  O  O63  1  0.92133088  -0.12106086  1.08759618  1
  O  O64  1  0.07866912  0.37106086  0.66240382  1
  O  O65  1  0.57866912  0.37106086  0.66240382  1
  O  O66  1  0.07866912  -0.12893914  0.66240382  1
  O  O67  1  0.57866912  -0.12893914  0.66240382  1
  O  O68  1  0.32866912  0.12106086  1.16240382  1
  O  O69  1  0.82866912  0.12106086  1.16240382  1
  O  O70  1  0.32866912  -0.37893914  1.16240382  1
  O  O71  1  0.82866912  -0.37893914  1.16240382  1
  O  O72  1  0.12893914  0.32866912  0.41240382  1
  O  O73  1  0.62893914  0.32866912  0.41240382  1
  O  O74  1  0.12893914  -0.17133088  0.41240382  1
  O  O75  1  0.62893914  -0.17133088  0.41240382  1
  O  O76  1  0.37893914  0.07866912  0.91240382  1
  O  O77  1  0.87893914  0.07866912  0.91240382  1
  O  O78  1  0.37893914  -0.42133088  0.91240382  1
  O  O79  1  0.87893914  -0.42133088  0.91240382  1
  O  O80  1  0.17133088  0.37893914  0.16240382  1
  O  O81  1  0.67133088  0.37893914  0.16240382  1
  O  O82  1  0.17133088  -0.12106086  0.16240382  1
  O  O83  1  0.67133088  -0.12106086  0.16240382  1
  O  O84  1  0.42133088  0.12893914  0.66240382  1
  O  O85  1  0.92133088  0.12893914  0.66240382  1
  O  O86  1  0.42133088  -0.37106086  0.66240382  1
  O  O87  1  0.92133088  -0.37106086  0.66240382  1
  O  O88  1  0.12106086  0.42133088  -0.08759618  1
  O  O89  1  0.62106086  0.42133088  -0.08759618  1
  O  O90  1  0.12106086  -0.07866912  -0.08759618  1
  O  O91  1  0.62106086  -0.07866912  -0.08759618  1
  O  O92  1  0.37106086  0.17133088  0.41240382  1
  O  O93  1  0.87106086  0.17133088  0.41240382  1
  O  O94  1  0.37106086  -0.32866912  0.41240382  1
  O  O95  1  0.87106086  -0.32866912  0.41240382  1
