# generated using pymatgen
data_Hg3(BO3)2
_symmetry_space_group_name_H-M   'P 1'
_cell_length_a   17.87195451
_cell_length_b   17.87195451
_cell_length_c   13.22493273
_cell_angle_alpha   90.00000000
_cell_angle_beta   90.00000000
_cell_angle_gamma   120.00000000
_symmetry_Int_Tables_number   1
_chemical_formula_structural   Hg3(BO3)2
_chemical_formula_sum   'Hg72 B48 O144'
_cell_volume   3658.20639080
_cell_formula_units_Z   24
loop_
 _symmetry_equiv_pos_site_id
 _symmetry_equiv_pos_as_xyz
  1  'x, y, z'
loop_
 _atom_site_type_symbol
 _atom_site_label
 _atom_site_symmetry_multiplicity
 _atom_site_fract_x
 _atom_site_fract_y
 _atom_site_fract_z
 _atom_site_occupancy
  Hg  Hg0  1  -0.16666667  -0.15657067  0.58333333  1
  Hg  Hg1  1  -0.16666667  0.34342933  0.58333333  1
  Hg  Hg2  1  0.33333333  -0.15657067  0.58333333  1
  Hg  Hg3  1  0.33333333  0.34342933  0.58333333  1
  Hg  Hg4  1  0.16666667  0.01009600  0.91666667  1
  Hg  Hg5  1  0.16666667  0.51009600  0.91666667  1
  Hg  Hg6  1  0.66666667  0.01009600  0.91666667  1
  Hg  Hg7  1  0.66666667  0.51009600  0.91666667  1
  Hg  Hg8  1  -0.00000000  0.17676267  1.25000000  1
  Hg  Hg9  1  -0.00000000  0.67676267  1.25000000  1
  Hg  Hg10  1  0.50000000  0.17676267  1.25000000  1
  Hg  Hg11  1  0.50000000  0.67676267  1.25000000  1
  Hg  Hg12  1  0.15657067  -0.01009600  0.58333333  1
  Hg  Hg13  1  0.15657067  0.48990400  0.58333333  1
  Hg  Hg14  1  0.65657067  -0.01009600  0.58333333  1
  Hg  Hg15  1  0.65657067  0.48990400  0.58333333  1
  Hg  Hg16  1  0.48990400  0.15657067  0.91666667  1
  Hg  Hg17  1  0.48990400  0.65657067  0.91666667  1
  Hg  Hg18  1  0.98990400  0.15657067  0.91666667  1
  Hg  Hg19  1  0.98990400  0.65657067  0.91666667  1
  Hg  Hg20  1  0.32323733  0.32323733  1.25000000  1
  Hg  Hg21  1  0.32323733  0.82323733  1.25000000  1
  Hg  Hg22  1  0.82323733  0.32323733  1.25000000  1
  Hg  Hg23  1  0.82323733  0.82323733  1.25000000  1
  Hg  Hg24  1  0.01009600  0.16666667  0.58333333  1
  Hg  Hg25  1  0.01009600  0.66666667  0.58333333  1
  Hg  Hg26  1  0.51009600  0.16666667  0.58333333  1
  Hg  Hg27  1  0.51009600  0.66666667  0.58333333  1
  Hg  Hg28  1  0.34342933  0.33333333  0.91666667  1
  Hg  Hg29  1  0.34342933  0.83333333  0.91666667  1
  Hg  Hg30  1  0.84342933  0.33333333  0.91666667  1
  Hg  Hg31  1  0.84342933  0.83333333  0.91666667  1
  Hg  Hg32  1  0.17676267  0.50000000  1.25000000  1
  Hg  Hg33  1  0.17676267  1.00000000  1.25000000  1
  Hg  Hg34  1  0.67676267  0.50000000  1.25000000  1
  Hg  Hg35  1  0.67676267  1.00000000  1.25000000  1
  Hg  Hg36  1  0.16666667  0.15657067  0.41666667  1
  Hg  Hg37  1  0.16666667  0.65657067  0.41666667  1
  Hg  Hg38  1  0.66666667  0.15657067  0.41666667  1
  Hg  Hg39  1  0.66666667  0.65657067  0.41666667  1
  Hg  Hg40  1  0.50000000  0.32323733  0.75000000  1
  Hg  Hg41  1  0.50000000  0.82323733  0.75000000  1
  Hg  Hg42  1  1.00000000  0.32323733  0.75000000  1
  Hg  Hg43  1  1.00000000  0.82323733  0.75000000  1
  Hg  Hg44  1  0.33333333  0.48990400  1.08333333  1
  Hg  Hg45  1  0.33333333  0.98990400  1.08333333  1
  Hg  Hg46  1  0.83333333  0.48990400  1.08333333  1
  Hg  Hg47  1  0.83333333  0.98990400  1.08333333  1
  Hg  Hg48  1  -0.15657067  0.01009600  0.41666667  1
  Hg  Hg49  1  -0.15657067  0.51009600  0.41666667  1
  Hg  Hg50  1  0.34342933  0.01009600  0.41666667  1
  Hg  Hg51  1  0.34342933  0.51009600  0.41666667  1
  Hg  Hg52  1  0.17676267  0.17676267  0.75000000  1
  Hg  Hg53  1  0.17676267  0.67676267  0.75000000  1
  Hg  Hg54  1  0.67676267  0.17676267  0.75000000  1
  Hg  Hg55  1  0.67676267  0.67676267  0.75000000  1
  Hg  Hg56  1  0.01009600  0.34342933  1.08333333  1
  Hg  Hg57  1  0.01009600  0.84342933  1.08333333  1
  Hg  Hg58  1  0.51009600  0.34342933  1.08333333  1
  Hg  Hg59  1  0.51009600  0.84342933  1.08333333  1
  Hg  Hg60  1  -0.01009600  -0.16666667  0.41666667  1
  Hg  Hg61  1  -0.01009600  0.33333333  0.41666667  1
  Hg  Hg62  1  0.48990400  -0.16666667  0.41666667  1
  Hg  Hg63  1  0.48990400  0.33333333  0.41666667  1
  Hg  Hg64  1  0.32323733  -0.00000000  0.75000000  1
  Hg  Hg65  1  0.32323733  0.50000000  0.75000000  1
  Hg  Hg66  1  0.82323733  -0.00000000  0.75000000  1
  Hg  Hg67  1  0.82323733  0.50000000  0.75000000  1
  Hg  Hg68  1  0.15657067  0.16666667  1.08333333  1
  Hg  Hg69  1  0.15657067  0.66666667  1.08333333  1
  Hg  Hg70  1  0.65657067  0.16666667  1.08333333  1
  Hg  Hg71  1  0.65657067  0.66666667  1.08333333  1
  B  B72  1  -0.00000000  -0.00000000  0.61050317  1
  B  B73  1  -0.00000000  0.50000000  0.61050317  1
  B  B74  1  0.50000000  -0.00000000  0.61050317  1
  B  B75  1  0.50000000  0.50000000  0.61050317  1
  B  B76  1  0.33333333  0.16666667  0.94383650  1
  B  B77  1  0.33333333  0.66666667  0.94383650  1
  B  B78  1  0.83333333  0.16666667  0.94383650  1
  B  B79  1  0.83333333  0.66666667  0.94383650  1
  B  B80  1  0.16666667  0.33333333  1.27716983  1
  B  B81  1  0.16666667  0.83333333  1.27716983  1
  B  B82  1  0.66666667  0.33333333  1.27716983  1
  B  B83  1  0.66666667  0.83333333  1.27716983  1
  B  B84  1  0.00000000  0.00000000  0.38949683  1
  B  B85  1  0.00000000  0.50000000  0.38949683  1
  B  B86  1  0.50000000  0.00000000  0.38949683  1
  B  B87  1  0.50000000  0.50000000  0.38949683  1
  B  B88  1  0.33333333  0.16666667  0.72283017  1
  B  B89  1  0.33333333  0.66666667  0.72283017  1
  B  B90  1  0.83333333  0.16666667  0.72283017  1
  B  B91  1  0.83333333  0.66666667  0.72283017  1
  B  B92  1  0.16666667  0.33333333  1.05616350  1
  B  B93  1  0.16666667  0.83333333  1.05616350  1
  B  B94  1  0.66666667  0.33333333  1.05616350  1
  B  B95  1  0.66666667  0.83333333  1.05616350  1
  B  B96  1  0.00000000  0.00000000  0.11050317  1
  B  B97  1  0.00000000  0.50000000  0.11050317  1
  B  B98  1  0.50000000  0.00000000  0.11050317  1
  B  B99  1  0.50000000  0.50000000  0.11050317  1
  B  B100  1  0.33333333  0.16666667  0.44383650  1
  B  B101  1  0.33333333  0.66666667  0.44383650  1
  B  B102  1  0.83333333  0.16666667  0.44383650  1
  B  B103  1  0.83333333  0.66666667  0.44383650  1
  B  B104  1  0.16666667  0.33333333  0.77716983  1
  B  B105  1  0.16666667  0.83333333  0.77716983  1
  B  B106  1  0.66666667  0.33333333  0.77716983  1
  B  B107  1  0.66666667  0.83333333  0.77716983  1
  B  B108  1  -0.00000000  -0.00000000  0.88949683  1
  B  B109  1  -0.00000000  0.50000000  0.88949683  1
  B  B110  1  0.50000000  -0.00000000  0.88949683  1
  B  B111  1  0.50000000  0.50000000  0.88949683  1
  B  B112  1  0.33333333  0.16666667  1.22283017  1
  B  B113  1  0.33333333  0.66666667  1.22283017  1
  B  B114  1  0.83333333  0.16666667  1.22283017  1
  B  B115  1  0.83333333  0.66666667  1.22283017  1
  B  B116  1  0.16666667  0.33333333  1.55616350  1
  B  B117  1  0.16666667  0.83333333  1.55616350  1
  B  B118  1  0.66666667  0.33333333  1.55616350  1
  B  B119  1  0.66666667  0.83333333  1.55616350  1
  O  O120  1  -0.08882833  -0.05190503  0.38932146  1
  O  O121  1  -0.08882833  0.44809497  0.38932146  1
  O  O122  1  0.41117167  -0.05190503  0.38932146  1
  O  O123  1  0.41117167  0.44809497  0.38932146  1
  O  O124  1  0.24450500  0.11476163  0.72265480  1
  O  O125  1  0.24450500  0.61476163  0.72265480  1
  O  O126  1  0.74450500  0.11476163  0.72265480  1
  O  O127  1  0.74450500  0.61476163  0.72265480  1
  O  O128  1  0.07783833  0.28142830  1.05598813  1
  O  O129  1  0.07783833  0.78142830  1.05598813  1
  O  O130  1  0.57783833  0.28142830  1.05598813  1
  O  O131  1  0.57783833  0.78142830  1.05598813  1
  O  O132  1  0.05190503  -0.03692330  0.38932146  1
  O  O133  1  0.05190503  0.46307670  0.38932146  1
  O  O134  1  0.55190503  -0.03692330  0.38932146  1
  O  O135  1  0.55190503  0.46307670  0.38932146  1
  O  O136  1  0.38523837  0.12974337  0.72265480  1
  O  O137  1  0.38523837  0.62974337  0.72265480  1
  O  O138  1  0.88523837  0.12974337  0.72265480  1
  O  O139  1  0.88523837  0.62974337  0.72265480  1
  O  O140  1  0.21857170  0.29641003  1.05598813  1
  O  O141  1  0.21857170  0.79641003  1.05598813  1
  O  O142  1  0.71857170  0.29641003  1.05598813  1
  O  O143  1  0.71857170  0.79641003  1.05598813  1
  O  O144  1  0.03692330  0.08882833  0.38932146  1
  O  O145  1  0.03692330  0.58882833  0.38932146  1
  O  O146  1  0.53692330  0.08882833  0.38932146  1
  O  O147  1  0.53692330  0.58882833  0.38932146  1
  O  O148  1  0.37025663  0.25549500  0.72265480  1
  O  O149  1  0.37025663  0.75549500  0.72265480  1
  O  O150  1  0.87025663  0.25549500  0.72265480  1
  O  O151  1  0.87025663  0.75549500  0.72265480  1
  O  O152  1  0.20358997  0.42216167  1.05598813  1
  O  O153  1  0.20358997  0.92216167  1.05598813  1
  O  O154  1  0.70358997  0.42216167  1.05598813  1
  O  O155  1  0.70358997  0.92216167  1.05598813  1
  O  O156  1  -0.03692330  0.05190503  0.11067854  1
  O  O157  1  -0.03692330  0.55190503  0.11067854  1
  O  O158  1  0.46307670  0.05190503  0.11067854  1
  O  O159  1  0.46307670  0.55190503  0.11067854  1
  O  O160  1  0.29641003  0.21857170  0.44401187  1
  O  O161  1  0.29641003  0.71857170  0.44401187  1
  O  O162  1  0.79641003  0.21857170  0.44401187  1
  O  O163  1  0.79641003  0.71857170  0.44401187  1
  O  O164  1  0.12974337  0.38523837  0.77734520  1
  O  O165  1  0.12974337  0.88523837  0.77734520  1
  O  O166  1  0.62974337  0.38523837  0.77734520  1
  O  O167  1  0.62974337  0.88523837  0.77734520  1
  O  O168  1  0.08882833  0.03692330  0.11067854  1
  O  O169  1  0.08882833  0.53692330  0.11067854  1
  O  O170  1  0.58882833  0.03692330  0.11067854  1
  O  O171  1  0.58882833  0.53692330  0.11067854  1
  O  O172  1  0.42216167  0.20358997  0.44401187  1
  O  O173  1  0.42216167  0.70358997  0.44401187  1
  O  O174  1  0.92216167  0.20358997  0.44401187  1
  O  O175  1  0.92216167  0.70358997  0.44401187  1
  O  O176  1  0.25549500  0.37025663  0.77734520  1
  O  O177  1  0.25549500  0.87025663  0.77734520  1
  O  O178  1  0.75549500  0.37025663  0.77734520  1
  O  O179  1  0.75549500  0.87025663  0.77734520  1
  O  O180  1  -0.05190503  -0.08882833  0.11067854  1
  O  O181  1  -0.05190503  0.41117167  0.11067854  1
  O  O182  1  0.44809497  -0.08882833  0.11067854  1
  O  O183  1  0.44809497  0.41117167  0.11067854  1
  O  O184  1  0.28142830  0.07783833  0.44401187  1
  O  O185  1  0.28142830  0.57783833  0.44401187  1
  O  O186  1  0.78142830  0.07783833  0.44401187  1
  O  O187  1  0.78142830  0.57783833  0.44401187  1
  O  O188  1  0.11476163  0.24450500  0.77734520  1
  O  O189  1  0.11476163  0.74450500  0.77734520  1
  O  O190  1  0.61476163  0.24450500  0.77734520  1
  O  O191  1  0.61476163  0.74450500  0.77734520  1
  O  O192  1  -0.05190503  0.03692330  0.61067854  1
  O  O193  1  -0.05190503  0.53692330  0.61067854  1
  O  O194  1  0.44809497  0.03692330  0.61067854  1
  O  O195  1  0.44809497  0.53692330  0.61067854  1
  O  O196  1  0.28142830  0.20358997  0.94401187  1
  O  O197  1  0.28142830  0.70358997  0.94401187  1
  O  O198  1  0.78142830  0.20358997  0.94401187  1
  O  O199  1  0.78142830  0.70358997  0.94401187  1
  O  O200  1  0.11476163  0.37025663  1.27734520  1
  O  O201  1  0.11476163  0.87025663  1.27734520  1
  O  O202  1  0.61476163  0.37025663  1.27734520  1
  O  O203  1  0.61476163  0.87025663  1.27734520  1
  O  O204  1  0.08882833  0.05190503  0.61067854  1
  O  O205  1  0.08882833  0.55190503  0.61067854  1
  O  O206  1  0.58882833  0.05190503  0.61067854  1
  O  O207  1  0.58882833  0.55190503  0.61067854  1
  O  O208  1  0.42216167  0.21857170  0.94401187  1
  O  O209  1  0.42216167  0.71857170  0.94401187  1
  O  O210  1  0.92216167  0.21857170  0.94401187  1
  O  O211  1  0.92216167  0.71857170  0.94401187  1
  O  O212  1  0.25549500  0.38523837  1.27734520  1
  O  O213  1  0.25549500  0.88523837  1.27734520  1
  O  O214  1  0.75549500  0.38523837  1.27734520  1
  O  O215  1  0.75549500  0.88523837  1.27734520  1
  O  O216  1  -0.03692330  -0.08882833  0.61067854  1
  O  O217  1  -0.03692330  0.41117167  0.61067854  1
  O  O218  1  0.46307670  -0.08882833  0.61067854  1
  O  O219  1  0.46307670  0.41117167  0.61067854  1
  O  O220  1  0.29641003  0.07783833  0.94401187  1
  O  O221  1  0.29641003  0.57783833  0.94401187  1
  O  O222  1  0.79641003  0.07783833  0.94401187  1
  O  O223  1  0.79641003  0.57783833  0.94401187  1
  O  O224  1  0.12974337  0.24450500  1.27734520  1
  O  O225  1  0.12974337  0.74450500  1.27734520  1
  O  O226  1  0.62974337  0.24450500  1.27734520  1
  O  O227  1  0.62974337  0.74450500  1.27734520  1
  O  O228  1  -0.08882833  -0.03692330  0.88932146  1
  O  O229  1  -0.08882833  0.46307670  0.88932146  1
  O  O230  1  0.41117167  -0.03692330  0.88932146  1
  O  O231  1  0.41117167  0.46307670  0.88932146  1
  O  O232  1  0.24450500  0.12974337  1.22265480  1
  O  O233  1  0.24450500  0.62974337  1.22265480  1
  O  O234  1  0.74450500  0.12974337  1.22265480  1
  O  O235  1  0.74450500  0.62974337  1.22265480  1
  O  O236  1  0.07783833  0.29641003  1.55598813  1
  O  O237  1  0.07783833  0.79641003  1.55598813  1
  O  O238  1  0.57783833  0.29641003  1.55598813  1
  O  O239  1  0.57783833  0.79641003  1.55598813  1
  O  O240  1  0.05190503  0.08882833  0.88932146  1
  O  O241  1  0.05190503  0.58882833  0.88932146  1
  O  O242  1  0.55190503  0.08882833  0.88932146  1
  O  O243  1  0.55190503  0.58882833  0.88932146  1
  O  O244  1  0.38523837  0.25549500  1.22265480  1
  O  O245  1  0.38523837  0.75549500  1.22265480  1
  O  O246  1  0.88523837  0.25549500  1.22265480  1
  O  O247  1  0.88523837  0.75549500  1.22265480  1
  O  O248  1  0.21857170  0.42216167  1.55598813  1
  O  O249  1  0.21857170  0.92216167  1.55598813  1
  O  O250  1  0.71857170  0.42216167  1.55598813  1
  O  O251  1  0.71857170  0.92216167  1.55598813  1
  O  O252  1  0.03692330  -0.05190503  0.88932146  1
  O  O253  1  0.03692330  0.44809497  0.88932146  1
  O  O254  1  0.53692330  -0.05190503  0.88932146  1
  O  O255  1  0.53692330  0.44809497  0.88932146  1
  O  O256  1  0.37025663  0.11476163  1.22265480  1
  O  O257  1  0.37025663  0.61476163  1.22265480  1
  O  O258  1  0.87025663  0.11476163  1.22265480  1
  O  O259  1  0.87025663  0.61476163  1.22265480  1
  O  O260  1  0.20358997  0.28142830  1.55598813  1
  O  O261  1  0.20358997  0.78142830  1.55598813  1
  O  O262  1  0.70358997  0.28142830  1.55598813  1
  O  O263  1  0.70358997  0.78142830  1.55598813  1
