# generated using pymatgen
data_TiCdO3
_symmetry_space_group_name_H-M   'P 1'
_cell_length_a   15.76055842
_cell_length_b   15.76055842
_cell_length_c   14.84968376
_cell_angle_alpha   90.00000000
_cell_angle_beta   90.00000000
_cell_angle_gamma   120.00000000
_symmetry_Int_Tables_number   1
_chemical_formula_structural   TiCdO3
_chemical_formula_sum   'Ti54 Cd54 O162'
_cell_volume   3194.41280979
_cell_formula_units_Z   54
loop_
 _symmetry_equiv_pos_site_id
 _symmetry_equiv_pos_as_xyz
  1  'x, y, z'
loop_
 _atom_site_type_symbol
 _atom_site_label
 _atom_site_symmetry_multiplicity
 _atom_site_fract_x
 _atom_site_fract_y
 _atom_site_fract_z
 _atom_site_occupancy
  Ti  Ti0  1  -0.00000000  -0.00000000  0.84907492  1
  Ti  Ti1  1  -0.00000000  0.33333333  0.84907492  1
  Ti  Ti2  1  -0.00000000  0.66666667  0.84907492  1
  Ti  Ti3  1  0.33333333  -0.00000000  0.84907492  1
  Ti  Ti4  1  0.33333333  0.33333333  0.84907492  1
  Ti  Ti5  1  0.33333333  0.66666667  0.84907492  1
  Ti  Ti6  1  0.66666667  -0.00000000  0.84907492  1
  Ti  Ti7  1  0.66666667  0.33333333  0.84907492  1
  Ti  Ti8  1  0.66666667  0.66666667  0.84907492  1
  Ti  Ti9  1  0.22222222  0.11111111  1.18240825  1
  Ti  Ti10  1  0.22222222  0.44444444  1.18240825  1
  Ti  Ti11  1  0.22222222  0.77777778  1.18240825  1
  Ti  Ti12  1  0.55555556  0.11111111  1.18240825  1
  Ti  Ti13  1  0.55555556  0.44444444  1.18240825  1
  Ti  Ti14  1  0.55555556  0.77777778  1.18240825  1
  Ti  Ti15  1  0.88888889  0.11111111  1.18240825  1
  Ti  Ti16  1  0.88888889  0.44444444  1.18240825  1
  Ti  Ti17  1  0.88888889  0.77777778  1.18240825  1
  Ti  Ti18  1  0.11111111  0.22222222  1.51574158  1
  Ti  Ti19  1  0.11111111  0.55555556  1.51574158  1
  Ti  Ti20  1  0.11111111  0.88888889  1.51574158  1
  Ti  Ti21  1  0.44444444  0.22222222  1.51574158  1
  Ti  Ti22  1  0.44444444  0.55555556  1.51574158  1
  Ti  Ti23  1  0.44444444  0.88888889  1.51574158  1
  Ti  Ti24  1  0.77777778  0.22222222  1.51574158  1
  Ti  Ti25  1  0.77777778  0.55555556  1.51574158  1
  Ti  Ti26  1  0.77777778  0.88888889  1.51574158  1
  Ti  Ti27  1  -0.00000000  -0.00000000  0.15092508  1
  Ti  Ti28  1  -0.00000000  0.33333333  0.15092508  1
  Ti  Ti29  1  -0.00000000  0.66666667  0.15092508  1
  Ti  Ti30  1  0.33333333  -0.00000000  0.15092508  1
  Ti  Ti31  1  0.33333333  0.33333333  0.15092508  1
  Ti  Ti32  1  0.33333333  0.66666667  0.15092508  1
  Ti  Ti33  1  0.66666667  -0.00000000  0.15092508  1
  Ti  Ti34  1  0.66666667  0.33333333  0.15092508  1
  Ti  Ti35  1  0.66666667  0.66666667  0.15092508  1
  Ti  Ti36  1  0.22222222  0.11111111  0.48425842  1
  Ti  Ti37  1  0.22222222  0.44444444  0.48425842  1
  Ti  Ti38  1  0.22222222  0.77777778  0.48425842  1
  Ti  Ti39  1  0.55555556  0.11111111  0.48425842  1
  Ti  Ti40  1  0.55555556  0.44444444  0.48425842  1
  Ti  Ti41  1  0.55555556  0.77777778  0.48425842  1
  Ti  Ti42  1  0.88888889  0.11111111  0.48425842  1
  Ti  Ti43  1  0.88888889  0.44444444  0.48425842  1
  Ti  Ti44  1  0.88888889  0.77777778  0.48425842  1
  Ti  Ti45  1  0.11111111  0.22222222  0.81759175  1
  Ti  Ti46  1  0.11111111  0.55555556  0.81759175  1
  Ti  Ti47  1  0.11111111  0.88888889  0.81759175  1
  Ti  Ti48  1  0.44444444  0.22222222  0.81759175  1
  Ti  Ti49  1  0.44444444  0.55555556  0.81759175  1
  Ti  Ti50  1  0.44444444  0.88888889  0.81759175  1
  Ti  Ti51  1  0.77777778  0.22222222  0.81759175  1
  Ti  Ti52  1  0.77777778  0.55555556  0.81759175  1
  Ti  Ti53  1  0.77777778  0.88888889  0.81759175  1
  Cd  Cd54  1  -0.00000000  -0.00000000  0.63625082  1
  Cd  Cd55  1  -0.00000000  0.33333333  0.63625082  1
  Cd  Cd56  1  -0.00000000  0.66666667  0.63625082  1
  Cd  Cd57  1  0.33333333  -0.00000000  0.63625082  1
  Cd  Cd58  1  0.33333333  0.33333333  0.63625082  1
  Cd  Cd59  1  0.33333333  0.66666667  0.63625082  1
  Cd  Cd60  1  0.66666667  -0.00000000  0.63625082  1
  Cd  Cd61  1  0.66666667  0.33333333  0.63625082  1
  Cd  Cd62  1  0.66666667  0.66666667  0.63625082  1
  Cd  Cd63  1  0.22222222  0.11111111  0.96958416  1
  Cd  Cd64  1  0.22222222  0.44444444  0.96958416  1
  Cd  Cd65  1  0.22222222  0.77777778  0.96958416  1
  Cd  Cd66  1  0.55555556  0.11111111  0.96958416  1
  Cd  Cd67  1  0.55555556  0.44444444  0.96958416  1
  Cd  Cd68  1  0.55555556  0.77777778  0.96958416  1
  Cd  Cd69  1  0.88888889  0.11111111  0.96958416  1
  Cd  Cd70  1  0.88888889  0.44444444  0.96958416  1
  Cd  Cd71  1  0.88888889  0.77777778  0.96958416  1
  Cd  Cd72  1  0.11111111  0.22222222  1.30291749  1
  Cd  Cd73  1  0.11111111  0.55555556  1.30291749  1
  Cd  Cd74  1  0.11111111  0.88888889  1.30291749  1
  Cd  Cd75  1  0.44444444  0.22222222  1.30291749  1
  Cd  Cd76  1  0.44444444  0.55555556  1.30291749  1
  Cd  Cd77  1  0.44444444  0.88888889  1.30291749  1
  Cd  Cd78  1  0.77777778  0.22222222  1.30291749  1
  Cd  Cd79  1  0.77777778  0.55555556  1.30291749  1
  Cd  Cd80  1  0.77777778  0.88888889  1.30291749  1
  Cd  Cd81  1  -0.00000000  0.00000000  0.36374918  1
  Cd  Cd82  1  -0.00000000  0.33333333  0.36374918  1
  Cd  Cd83  1  -0.00000000  0.66666667  0.36374918  1
  Cd  Cd84  1  0.33333333  0.00000000  0.36374918  1
  Cd  Cd85  1  0.33333333  0.33333333  0.36374918  1
  Cd  Cd86  1  0.33333333  0.66666667  0.36374918  1
  Cd  Cd87  1  0.66666667  0.00000000  0.36374918  1
  Cd  Cd88  1  0.66666667  0.33333333  0.36374918  1
  Cd  Cd89  1  0.66666667  0.66666667  0.36374918  1
  Cd  Cd90  1  0.22222222  0.11111111  0.69708251  1
  Cd  Cd91  1  0.22222222  0.44444444  0.69708251  1
  Cd  Cd92  1  0.22222222  0.77777778  0.69708251  1
  Cd  Cd93  1  0.55555556  0.11111111  0.69708251  1
  Cd  Cd94  1  0.55555556  0.44444444  0.69708251  1
  Cd  Cd95  1  0.55555556  0.77777778  0.69708251  1
  Cd  Cd96  1  0.88888889  0.11111111  0.69708251  1
  Cd  Cd97  1  0.88888889  0.44444444  0.69708251  1
  Cd  Cd98  1  0.88888889  0.77777778  0.69708251  1
  Cd  Cd99  1  0.11111111  0.22222222  1.03041584  1
  Cd  Cd100  1  0.11111111  0.55555556  1.03041584  1
  Cd  Cd101  1  0.11111111  0.88888889  1.03041584  1
  Cd  Cd102  1  0.44444444  0.22222222  1.03041584  1
  Cd  Cd103  1  0.44444444  0.55555556  1.03041584  1
  Cd  Cd104  1  0.44444444  0.88888889  1.03041584  1
  Cd  Cd105  1  0.77777778  0.22222222  1.03041584  1
  Cd  Cd106  1  0.77777778  0.55555556  1.03041584  1
  Cd  Cd107  1  0.77777778  0.88888889  1.03041584  1
  O  O108  1  0.12568534  -0.00454993  0.42566569  1
  O  O109  1  0.12568534  0.32878340  0.42566569  1
  O  O110  1  0.12568534  0.66211674  0.42566569  1
  O  O111  1  0.45901868  -0.00454993  0.42566569  1
  O  O112  1  0.45901868  0.32878340  0.42566569  1
  O  O113  1  0.45901868  0.66211674  0.42566569  1
  O  O114  1  0.79235201  -0.00454993  0.42566569  1
  O  O115  1  0.79235201  0.32878340  0.42566569  1
  O  O116  1  0.79235201  0.66211674  0.42566569  1
  O  O117  1  0.34790757  0.10656118  0.75899902  1
  O  O118  1  0.34790757  0.43989451  0.75899902  1
  O  O119  1  0.34790757  0.77322785  0.75899902  1
  O  O120  1  0.68124090  0.10656118  0.75899902  1
  O  O121  1  0.68124090  0.43989451  0.75899902  1
  O  O122  1  0.68124090  0.77322785  0.75899902  1
  O  O123  1  1.01457423  0.10656118  0.75899902  1
  O  O124  1  1.01457423  0.43989451  0.75899902  1
  O  O125  1  1.01457423  0.77322785  0.75899902  1
  O  O126  1  0.23679646  0.21767229  1.09233235  1
  O  O127  1  0.23679646  0.55100562  1.09233235  1
  O  O128  1  0.23679646  0.88433896  1.09233235  1
  O  O129  1  0.57012979  0.21767229  1.09233235  1
  O  O130  1  0.57012979  0.55100562  1.09233235  1
  O  O131  1  0.57012979  0.88433896  1.09233235  1
  O  O132  1  0.90346312  0.21767229  1.09233235  1
  O  O133  1  0.90346312  0.55100562  1.09233235  1
  O  O134  1  0.90346312  0.88433896  1.09233235  1
  O  O135  1  0.00454993  0.13023528  0.42566569  1
  O  O136  1  0.00454993  0.46356861  0.42566569  1
  O  O137  1  0.00454993  0.79690194  0.42566569  1
  O  O138  1  0.33788326  0.13023528  0.42566569  1
  O  O139  1  0.33788326  0.46356861  0.42566569  1
  O  O140  1  0.33788326  0.79690194  0.42566569  1
  O  O141  1  0.67121660  0.13023528  0.42566569  1
  O  O142  1  0.67121660  0.46356861  0.42566569  1
  O  O143  1  0.67121660  0.79690194  0.42566569  1
  O  O144  1  0.22677215  0.24134639  0.75899902  1
  O  O145  1  0.22677215  0.57467972  0.75899902  1
  O  O146  1  0.22677215  0.90801305  0.75899902  1
  O  O147  1  0.56010549  0.24134639  0.75899902  1
  O  O148  1  0.56010549  0.57467972  0.75899902  1
  O  O149  1  0.56010549  0.90801305  0.75899902  1
  O  O150  1  0.89343882  0.24134639  0.75899902  1
  O  O151  1  0.89343882  0.57467972  0.75899902  1
  O  O152  1  0.89343882  0.90801305  0.75899902  1
  O  O153  1  0.11566104  0.35245750  1.09233235  1
  O  O154  1  0.11566104  0.68579083  1.09233235  1
  O  O155  1  0.11566104  1.01912416  1.09233235  1
  O  O156  1  0.44899438  0.35245750  1.09233235  1
  O  O157  1  0.44899438  0.68579083  1.09233235  1
  O  O158  1  0.44899438  1.01912416  1.09233235  1
  O  O159  1  0.78232771  0.35245750  1.09233235  1
  O  O160  1  0.78232771  0.68579083  1.09233235  1
  O  O161  1  0.78232771  1.01912416  1.09233235  1
  O  O162  1  -0.13023528  -0.12568534  0.42566569  1
  O  O163  1  -0.13023528  0.20764799  0.42566569  1
  O  O164  1  -0.13023528  0.54098132  0.42566569  1
  O  O165  1  0.20309806  -0.12568534  0.42566569  1
  O  O166  1  0.20309806  0.20764799  0.42566569  1
  O  O167  1  0.20309806  0.54098132  0.42566569  1
  O  O168  1  0.53643139  -0.12568534  0.42566569  1
  O  O169  1  0.53643139  0.20764799  0.42566569  1
  O  O170  1  0.53643139  0.54098132  0.42566569  1
  O  O171  1  0.09198695  -0.01457423  0.75899902  1
  O  O172  1  0.09198695  0.31875910  0.75899902  1
  O  O173  1  0.09198695  0.65209243  0.75899902  1
  O  O174  1  0.42532028  -0.01457423  0.75899902  1
  O  O175  1  0.42532028  0.31875910  0.75899902  1
  O  O176  1  0.42532028  0.65209243  0.75899902  1
  O  O177  1  0.75865361  -0.01457423  0.75899902  1
  O  O178  1  0.75865361  0.31875910  0.75899902  1
  O  O179  1  0.75865361  0.65209243  0.75899902  1
  O  O180  1  -0.01912416  0.09653688  1.09233235  1
  O  O181  1  -0.01912416  0.42987021  1.09233235  1
  O  O182  1  -0.01912416  0.76320354  1.09233235  1
  O  O183  1  0.31420917  0.09653688  1.09233235  1
  O  O184  1  0.31420917  0.42987021  1.09233235  1
  O  O185  1  0.31420917  0.76320354  1.09233235  1
  O  O186  1  0.64754250  0.09653688  1.09233235  1
  O  O187  1  0.64754250  0.42987021  1.09233235  1
  O  O188  1  0.64754250  0.76320354  1.09233235  1
  O  O189  1  -0.12568534  0.00454993  0.57433431  1
  O  O190  1  -0.12568534  0.33788326  0.57433431  1
  O  O191  1  -0.12568534  0.67121660  0.57433431  1
  O  O192  1  0.20764799  0.00454993  0.57433431  1
  O  O193  1  0.20764799  0.33788326  0.57433431  1
  O  O194  1  0.20764799  0.67121660  0.57433431  1
  O  O195  1  0.54098132  0.00454993  0.57433431  1
  O  O196  1  0.54098132  0.33788326  0.57433431  1
  O  O197  1  0.54098132  0.67121660  0.57433431  1
  O  O198  1  0.09653688  0.11566104  0.90766765  1
  O  O199  1  0.09653688  0.44899438  0.90766765  1
  O  O200  1  0.09653688  0.78232771  0.90766765  1
  O  O201  1  0.42987021  0.11566104  0.90766765  1
  O  O202  1  0.42987021  0.44899438  0.90766765  1
  O  O203  1  0.42987021  0.78232771  0.90766765  1
  O  O204  1  0.76320354  0.11566104  0.90766765  1
  O  O205  1  0.76320354  0.44899438  0.90766765  1
  O  O206  1  0.76320354  0.78232771  0.90766765  1
  O  O207  1  -0.01457423  0.22677215  1.24100098  1
  O  O208  1  -0.01457423  0.56010549  1.24100098  1
  O  O209  1  -0.01457423  0.89343882  1.24100098  1
  O  O210  1  0.31875910  0.22677215  1.24100098  1
  O  O211  1  0.31875910  0.56010549  1.24100098  1
  O  O212  1  0.31875910  0.89343882  1.24100098  1
  O  O213  1  0.65209243  0.22677215  1.24100098  1
  O  O214  1  0.65209243  0.56010549  1.24100098  1
  O  O215  1  0.65209243  0.89343882  1.24100098  1
  O  O216  1  0.13023528  0.12568534  0.57433431  1
  O  O217  1  0.13023528  0.45901868  0.57433431  1
  O  O218  1  0.13023528  0.79235201  0.57433431  1
  O  O219  1  0.46356861  0.12568534  0.57433431  1
  O  O220  1  0.46356861  0.45901868  0.57433431  1
  O  O221  1  0.46356861  0.79235201  0.57433431  1
  O  O222  1  0.79690194  0.12568534  0.57433431  1
  O  O223  1  0.79690194  0.45901868  0.57433431  1
  O  O224  1  0.79690194  0.79235201  0.57433431  1
  O  O225  1  0.35245750  0.23679646  0.90766765  1
  O  O226  1  0.35245750  0.57012979  0.90766765  1
  O  O227  1  0.35245750  0.90346312  0.90766765  1
  O  O228  1  0.68579083  0.23679646  0.90766765  1
  O  O229  1  0.68579083  0.57012979  0.90766765  1
  O  O230  1  0.68579083  0.90346312  0.90766765  1
  O  O231  1  1.01912416  0.23679646  0.90766765  1
  O  O232  1  1.01912416  0.57012979  0.90766765  1
  O  O233  1  1.01912416  0.90346312  0.90766765  1
  O  O234  1  0.24134639  0.34790757  1.24100098  1
  O  O235  1  0.24134639  0.68124090  1.24100098  1
  O  O236  1  0.24134639  1.01457423  1.24100098  1
  O  O237  1  0.57467972  0.34790757  1.24100098  1
  O  O238  1  0.57467972  0.68124090  1.24100098  1
  O  O239  1  0.57467972  1.01457423  1.24100098  1
  O  O240  1  0.90801305  0.34790757  1.24100098  1
  O  O241  1  0.90801305  0.68124090  1.24100098  1
  O  O242  1  0.90801305  1.01457423  1.24100098  1
  O  O243  1  -0.00454993  -0.13023528  0.57433431  1
  O  O244  1  -0.00454993  0.20309806  0.57433431  1
  O  O245  1  -0.00454993  0.53643139  0.57433431  1
  O  O246  1  0.32878340  -0.13023528  0.57433431  1
  O  O247  1  0.32878340  0.20309806  0.57433431  1
  O  O248  1  0.32878340  0.53643139  0.57433431  1
  O  O249  1  0.66211674  -0.13023528  0.57433431  1
  O  O250  1  0.66211674  0.20309806  0.57433431  1
  O  O251  1  0.66211674  0.53643139  0.57433431  1
  O  O252  1  0.21767229  -0.01912416  0.90766765  1
  O  O253  1  0.21767229  0.31420917  0.90766765  1
  O  O254  1  0.21767229  0.64754250  0.90766765  1
  O  O255  1  0.55100562  -0.01912416  0.90766765  1
  O  O256  1  0.55100562  0.31420917  0.90766765  1
  O  O257  1  0.55100562  0.64754250  0.90766765  1
  O  O258  1  0.88433896  -0.01912416  0.90766765  1
  O  O259  1  0.88433896  0.31420917  0.90766765  1
  O  O260  1  0.88433896  0.64754250  0.90766765  1
  O  O261  1  0.10656118  0.09198695  1.24100098  1
  O  O262  1  0.10656118  0.42532028  1.24100098  1
  O  O263  1  0.10656118  0.75865361  1.24100098  1
  O  O264  1  0.43989451  0.09198695  1.24100098  1
  O  O265  1  0.43989451  0.42532028  1.24100098  1
  O  O266  1  0.43989451  0.75865361  1.24100098  1
  O  O267  1  0.77322785  0.09198695  1.24100098  1
  O  O268  1  0.77322785  0.42532028  1.24100098  1
  O  O269  1  0.77322785  0.75865361  1.24100098  1
