# generated using pymatgen
data_Ba3BAsO3
_symmetry_space_group_name_H-M   'P 1'
_cell_length_a   16.56808573
_cell_length_b   16.56808573
_cell_length_c   13.75249605
_cell_angle_alpha   90.00000000
_cell_angle_beta   90.00000000
_cell_angle_gamma   120.00000000
_symmetry_Int_Tables_number   1
_chemical_formula_structural   Ba3BAsO3
_chemical_formula_sum   'Ba54 B18 As18 O54'
_cell_volume   3269.31545032
_cell_formula_units_Z   18
loop_
 _symmetry_equiv_pos_site_id
 _symmetry_equiv_pos_as_xyz
  1  'x, y, z'
loop_
 _atom_site_type_symbol
 _atom_site_label
 _atom_site_symmetry_multiplicity
 _atom_site_fract_x
 _atom_site_fract_y
 _atom_site_fract_z
 _atom_site_occupancy
  Ba  Ba0  1  0.22222222  0.11111111  0.89894228  1
  Ba  Ba1  1  0.22222222  0.44444444  0.89894228  1
  Ba  Ba2  1  0.22222222  0.77777778  0.89894228  1
  Ba  Ba3  1  0.55555556  0.11111111  0.89894228  1
  Ba  Ba4  1  0.55555556  0.44444444  0.89894228  1
  Ba  Ba5  1  0.55555556  0.77777778  0.89894228  1
  Ba  Ba6  1  0.88888889  0.11111111  0.89894228  1
  Ba  Ba7  1  0.88888889  0.44444444  0.89894228  1
  Ba  Ba8  1  0.88888889  0.77777778  0.89894228  1
  Ba  Ba9  1  0.00000000  0.00000000  0.75000000  1
  Ba  Ba10  1  -0.00000000  0.33333333  0.75000000  1
  Ba  Ba11  1  -0.00000000  0.66666667  0.75000000  1
  Ba  Ba12  1  0.33333333  0.00000000  0.75000000  1
  Ba  Ba13  1  0.33333333  0.33333333  0.75000000  1
  Ba  Ba14  1  0.33333333  0.66666667  0.75000000  1
  Ba  Ba15  1  0.66666667  0.00000000  0.75000000  1
  Ba  Ba16  1  0.66666667  0.33333333  0.75000000  1
  Ba  Ba17  1  0.66666667  0.66666667  0.75000000  1
  Ba  Ba18  1  0.00000000  0.00000000  0.25000000  1
  Ba  Ba19  1  -0.00000000  0.33333333  0.25000000  1
  Ba  Ba20  1  -0.00000000  0.66666667  0.25000000  1
  Ba  Ba21  1  0.33333333  0.00000000  0.25000000  1
  Ba  Ba22  1  0.33333333  0.33333333  0.25000000  1
  Ba  Ba23  1  0.33333333  0.66666667  0.25000000  1
  Ba  Ba24  1  0.66666667  0.00000000  0.25000000  1
  Ba  Ba25  1  0.66666667  0.33333333  0.25000000  1
  Ba  Ba26  1  0.66666667  0.66666667  0.25000000  1
  Ba  Ba27  1  0.11111111  0.22222222  0.39894228  1
  Ba  Ba28  1  0.11111111  0.55555556  0.39894228  1
  Ba  Ba29  1  0.11111111  0.88888889  0.39894228  1
  Ba  Ba30  1  0.44444444  0.22222222  0.39894228  1
  Ba  Ba31  1  0.44444444  0.55555556  0.39894228  1
  Ba  Ba32  1  0.44444444  0.88888889  0.39894228  1
  Ba  Ba33  1  0.77777778  0.22222222  0.39894228  1
  Ba  Ba34  1  0.77777778  0.55555556  0.39894228  1
  Ba  Ba35  1  0.77777778  0.88888889  0.39894228  1
  Ba  Ba36  1  0.11111111  0.22222222  0.10105772  1
  Ba  Ba37  1  0.11111111  0.55555556  0.10105772  1
  Ba  Ba38  1  0.11111111  0.88888889  0.10105772  1
  Ba  Ba39  1  0.44444444  0.22222222  0.10105772  1
  Ba  Ba40  1  0.44444444  0.55555556  0.10105772  1
  Ba  Ba41  1  0.44444444  0.88888889  0.10105772  1
  Ba  Ba42  1  0.77777778  0.22222222  0.10105772  1
  Ba  Ba43  1  0.77777778  0.55555556  0.10105772  1
  Ba  Ba44  1  0.77777778  0.88888889  0.10105772  1
  Ba  Ba45  1  0.22222222  0.11111111  0.60105772  1
  Ba  Ba46  1  0.22222222  0.44444444  0.60105772  1
  Ba  Ba47  1  0.22222222  0.77777778  0.60105772  1
  Ba  Ba48  1  0.55555556  0.11111111  0.60105772  1
  Ba  Ba49  1  0.55555556  0.44444444  0.60105772  1
  Ba  Ba50  1  0.55555556  0.77777778  0.60105772  1
  Ba  Ba51  1  0.88888889  0.11111111  0.60105772  1
  Ba  Ba52  1  0.88888889  0.44444444  0.60105772  1
  Ba  Ba53  1  0.88888889  0.77777778  0.60105772  1
  B  B54  1  0.11111111  0.22222222  0.75000000  1
  B  B55  1  0.11111111  0.55555556  0.75000000  1
  B  B56  1  0.11111111  0.88888889  0.75000000  1
  B  B57  1  0.44444444  0.22222222  0.75000000  1
  B  B58  1  0.44444444  0.55555556  0.75000000  1
  B  B59  1  0.44444444  0.88888889  0.75000000  1
  B  B60  1  0.77777778  0.22222222  0.75000000  1
  B  B61  1  0.77777778  0.55555556  0.75000000  1
  B  B62  1  0.77777778  0.88888889  0.75000000  1
  B  B63  1  0.22222222  0.11111111  0.25000000  1
  B  B64  1  0.22222222  0.44444444  0.25000000  1
  B  B65  1  0.22222222  0.77777778  0.25000000  1
  B  B66  1  0.55555556  0.11111111  0.25000000  1
  B  B67  1  0.55555556  0.44444444  0.25000000  1
  B  B68  1  0.55555556  0.77777778  0.25000000  1
  B  B69  1  0.88888889  0.11111111  0.25000000  1
  B  B70  1  0.88888889  0.44444444  0.25000000  1
  B  B71  1  0.88888889  0.77777778  0.25000000  1
  As  As72  1  0.00000000  0.00000000  0.50000000  1
  As  As73  1  -0.00000000  0.33333333  0.50000000  1
  As  As74  1  -0.00000000  0.66666667  0.50000000  1
  As  As75  1  0.33333333  0.00000000  0.50000000  1
  As  As76  1  0.33333333  0.33333333  0.50000000  1
  As  As77  1  0.33333333  0.66666667  0.50000000  1
  As  As78  1  0.66666667  0.00000000  0.50000000  1
  As  As79  1  0.66666667  0.33333333  0.50000000  1
  As  As80  1  0.66666667  0.66666667  0.50000000  1
  As  As81  1  0.00000000  0.00000000  0.00000000  1
  As  As82  1  -0.00000000  0.33333333  0.00000000  1
  As  As83  1  -0.00000000  0.66666667  0.00000000  1
  As  As84  1  0.33333333  0.00000000  0.00000000  1
  As  As85  1  0.33333333  0.33333333  0.00000000  1
  As  As86  1  0.33333333  0.66666667  0.00000000  1
  As  As87  1  0.66666667  0.00000000  0.00000000  1
  As  As88  1  0.66666667  0.33333333  0.00000000  1
  As  As89  1  0.66666667  0.66666667  0.00000000  1
  O  O90  1  0.31940564  0.15970282  0.25000000  1
  O  O91  1  0.31940564  0.49303615  0.25000000  1
  O  O92  1  0.31940564  0.82636949  0.25000000  1
  O  O93  1  0.65273897  0.15970282  0.25000000  1
  O  O94  1  0.65273897  0.49303615  0.25000000  1
  O  O95  1  0.65273897  0.82636949  0.25000000  1
  O  O96  1  0.98607231  0.15970282  0.25000000  1
  O  O97  1  0.98607231  0.49303615  0.25000000  1
  O  O98  1  0.98607231  0.82636949  0.25000000  1
  O  O99  1  0.15970282  0.31940564  0.75000000  1
  O  O100  1  0.15970282  0.65273897  0.75000000  1
  O  O101  1  0.15970282  0.98607231  0.75000000  1
  O  O102  1  0.49303615  0.31940564  0.75000000  1
  O  O103  1  0.49303615  0.65273897  0.75000000  1
  O  O104  1  0.49303615  0.98607231  0.75000000  1
  O  O105  1  0.82636949  0.31940564  0.75000000  1
  O  O106  1  0.82636949  0.65273897  0.75000000  1
  O  O107  1  0.82636949  0.98607231  0.75000000  1
  O  O108  1  0.01392769  0.17363051  0.75000000  1
  O  O109  1  0.01392769  0.50696385  0.75000000  1
  O  O110  1  0.01392769  0.84029718  0.75000000  1
  O  O111  1  0.34726103  0.17363051  0.75000000  1
  O  O112  1  0.34726103  0.50696385  0.75000000  1
  O  O113  1  0.34726103  0.84029718  0.75000000  1
  O  O114  1  0.68059436  0.17363051  0.75000000  1
  O  O115  1  0.68059436  0.50696385  0.75000000  1
  O  O116  1  0.68059436  0.84029718  0.75000000  1
  O  O117  1  0.17363051  0.15970282  0.25000000  1
  O  O118  1  0.17363051  0.49303615  0.25000000  1
  O  O119  1  0.17363051  0.82636949  0.25000000  1
  O  O120  1  0.50696385  0.15970282  0.25000000  1
  O  O121  1  0.50696385  0.49303615  0.25000000  1
  O  O122  1  0.50696385  0.82636949  0.25000000  1
  O  O123  1  0.84029718  0.15970282  0.25000000  1
  O  O124  1  0.84029718  0.49303615  0.25000000  1
  O  O125  1  0.84029718  0.82636949  0.25000000  1
  O  O126  1  0.17363051  0.01392769  0.25000000  1
  O  O127  1  0.17363051  0.34726103  0.25000000  1
  O  O128  1  0.17363051  0.68059436  0.25000000  1
  O  O129  1  0.50696385  0.01392769  0.25000000  1
  O  O130  1  0.50696385  0.34726103  0.25000000  1
  O  O131  1  0.50696385  0.68059436  0.25000000  1
  O  O132  1  0.84029718  0.01392769  0.25000000  1
  O  O133  1  0.84029718  0.34726103  0.25000000  1
  O  O134  1  0.84029718  0.68059436  0.25000000  1
  O  O135  1  0.15970282  0.17363051  0.75000000  1
  O  O136  1  0.15970282  0.50696385  0.75000000  1
  O  O137  1  0.15970282  0.84029718  0.75000000  1
  O  O138  1  0.49303615  0.17363051  0.75000000  1
  O  O139  1  0.49303615  0.50696385  0.75000000  1
  O  O140  1  0.49303615  0.84029718  0.75000000  1
  O  O141  1  0.82636949  0.17363051  0.75000000  1
  O  O142  1  0.82636949  0.50696385  0.75000000  1
  O  O143  1  0.82636949  0.84029718  0.75000000  1
