# generated using pymatgen
data_TiBi2O5
_symmetry_space_group_name_H-M   'P 1'
_cell_length_a   15.75419896
_cell_length_b   16.70907165
_cell_length_c   16.42524877
_cell_angle_alpha   90.00000000
_cell_angle_beta   90.00000000
_cell_angle_gamma   90.00000000
_symmetry_Int_Tables_number   1
_chemical_formula_structural   TiBi2O5
_chemical_formula_sum   'Ti36 Bi72 O180'
_cell_volume   4323.75027958
_cell_formula_units_Z   36
loop_
 _symmetry_equiv_pos_site_id
 _symmetry_equiv_pos_as_xyz
  1  'x, y, z'
loop_
 _atom_site_type_symbol
 _atom_site_label
 _atom_site_symmetry_multiplicity
 _atom_site_fract_x
 _atom_site_fract_y
 _atom_site_fract_z
 _atom_site_occupancy
  Ti  Ti0  1  0.50000000  0.10390345  0.08778668  1
  Ti  Ti1  1  0.50000000  0.10390345  0.42112002  1
  Ti  Ti2  1  0.50000000  0.10390345  0.75445335  1
  Ti  Ti3  1  0.50000000  0.43723679  0.08778668  1
  Ti  Ti4  1  0.50000000  0.43723679  0.42112002  1
  Ti  Ti5  1  0.50000000  0.43723679  0.75445335  1
  Ti  Ti6  1  0.50000000  0.77057012  0.08778668  1
  Ti  Ti7  1  0.50000000  0.77057012  0.42112002  1
  Ti  Ti8  1  0.50000000  0.77057012  0.75445335  1
  Ti  Ti9  1  1.00000000  0.27057012  0.08778668  1
  Ti  Ti10  1  1.00000000  0.27057012  0.42112002  1
  Ti  Ti11  1  1.00000000  0.27057012  0.75445335  1
  Ti  Ti12  1  1.00000000  0.60390345  0.08778668  1
  Ti  Ti13  1  1.00000000  0.60390345  0.42112002  1
  Ti  Ti14  1  1.00000000  0.60390345  0.75445335  1
  Ti  Ti15  1  1.00000000  0.93723679  0.08778668  1
  Ti  Ti16  1  1.00000000  0.93723679  0.42112002  1
  Ti  Ti17  1  1.00000000  0.93723679  0.75445335  1
  Ti  Ti18  1  0.50000000  -0.10390345  0.25445335  1
  Ti  Ti19  1  0.50000000  -0.10390345  0.58778668  1
  Ti  Ti20  1  0.50000000  -0.10390345  0.92112002  1
  Ti  Ti21  1  0.50000000  0.22942988  0.25445335  1
  Ti  Ti22  1  0.50000000  0.22942988  0.58778668  1
  Ti  Ti23  1  0.50000000  0.22942988  0.92112002  1
  Ti  Ti24  1  0.50000000  0.56276321  0.25445335  1
  Ti  Ti25  1  0.50000000  0.56276321  0.58778668  1
  Ti  Ti26  1  0.50000000  0.56276321  0.92112002  1
  Ti  Ti27  1  1.00000000  0.06276321  0.25445335  1
  Ti  Ti28  1  1.00000000  0.06276321  0.58778668  1
  Ti  Ti29  1  1.00000000  0.06276321  0.92112002  1
  Ti  Ti30  1  1.00000000  0.39609655  0.25445335  1
  Ti  Ti31  1  1.00000000  0.39609655  0.58778668  1
  Ti  Ti32  1  1.00000000  0.39609655  0.92112002  1
  Ti  Ti33  1  1.00000000  0.72942988  0.25445335  1
  Ti  Ti34  1  1.00000000  0.72942988  0.58778668  1
  Ti  Ti35  1  1.00000000  0.72942988  0.92112002  1
  Bi  Bi36  1  0.66985353  -0.07152001  0.08033818  1
  Bi  Bi37  1  0.66985353  -0.07152001  0.41367151  1
  Bi  Bi38  1  0.66985353  -0.07152001  0.74700484  1
  Bi  Bi39  1  0.66985353  0.26181333  0.08033818  1
  Bi  Bi40  1  0.66985353  0.26181333  0.41367151  1
  Bi  Bi41  1  0.66985353  0.26181333  0.74700484  1
  Bi  Bi42  1  0.66985353  0.59514666  0.08033818  1
  Bi  Bi43  1  0.66985353  0.59514666  0.41367151  1
  Bi  Bi44  1  0.66985353  0.59514666  0.74700484  1
  Bi  Bi45  1  1.16985353  0.09514666  0.08033818  1
  Bi  Bi46  1  1.16985353  0.09514666  0.41367151  1
  Bi  Bi47  1  1.16985353  0.09514666  0.74700484  1
  Bi  Bi48  1  1.16985353  0.42847999  0.08033818  1
  Bi  Bi49  1  1.16985353  0.42847999  0.41367151  1
  Bi  Bi50  1  1.16985353  0.42847999  0.74700484  1
  Bi  Bi51  1  1.16985353  0.76181333  0.08033818  1
  Bi  Bi52  1  1.16985353  0.76181333  0.41367151  1
  Bi  Bi53  1  1.16985353  0.76181333  0.74700484  1
  Bi  Bi54  1  0.66985353  0.07152001  0.24700484  1
  Bi  Bi55  1  0.66985353  0.07152001  0.58033818  1
  Bi  Bi56  1  0.66985353  0.07152001  0.91367151  1
  Bi  Bi57  1  0.66985353  0.40485334  0.24700484  1
  Bi  Bi58  1  0.66985353  0.40485334  0.58033818  1
  Bi  Bi59  1  0.66985353  0.40485334  0.91367151  1
  Bi  Bi60  1  0.66985353  0.73818667  0.24700484  1
  Bi  Bi61  1  0.66985353  0.73818667  0.58033818  1
  Bi  Bi62  1  0.66985353  0.73818667  0.91367151  1
  Bi  Bi63  1  1.16985353  0.23818667  0.24700484  1
  Bi  Bi64  1  1.16985353  0.23818667  0.58033818  1
  Bi  Bi65  1  1.16985353  0.23818667  0.91367151  1
  Bi  Bi66  1  1.16985353  0.57152001  0.24700484  1
  Bi  Bi67  1  1.16985353  0.57152001  0.58033818  1
  Bi  Bi68  1  1.16985353  0.57152001  0.91367151  1
  Bi  Bi69  1  1.16985353  0.90485334  0.24700484  1
  Bi  Bi70  1  1.16985353  0.90485334  0.58033818  1
  Bi  Bi71  1  1.16985353  0.90485334  0.91367151  1
  Bi  Bi72  1  0.33014647  -0.07152001  0.08033818  1
  Bi  Bi73  1  0.33014647  -0.07152001  0.41367151  1
  Bi  Bi74  1  0.33014647  -0.07152001  0.74700484  1
  Bi  Bi75  1  0.33014647  0.26181333  0.08033818  1
  Bi  Bi76  1  0.33014647  0.26181333  0.41367151  1
  Bi  Bi77  1  0.33014647  0.26181333  0.74700484  1
  Bi  Bi78  1  0.33014647  0.59514666  0.08033818  1
  Bi  Bi79  1  0.33014647  0.59514666  0.41367151  1
  Bi  Bi80  1  0.33014647  0.59514666  0.74700484  1
  Bi  Bi81  1  0.83014647  0.09514666  0.08033818  1
  Bi  Bi82  1  0.83014647  0.09514666  0.41367151  1
  Bi  Bi83  1  0.83014647  0.09514666  0.74700484  1
  Bi  Bi84  1  0.83014647  0.42847999  0.08033818  1
  Bi  Bi85  1  0.83014647  0.42847999  0.41367151  1
  Bi  Bi86  1  0.83014647  0.42847999  0.74700484  1
  Bi  Bi87  1  0.83014647  0.76181333  0.08033818  1
  Bi  Bi88  1  0.83014647  0.76181333  0.41367151  1
  Bi  Bi89  1  0.83014647  0.76181333  0.74700484  1
  Bi  Bi90  1  0.33014647  0.07152001  0.24700484  1
  Bi  Bi91  1  0.33014647  0.07152001  0.58033818  1
  Bi  Bi92  1  0.33014647  0.07152001  0.91367151  1
  Bi  Bi93  1  0.33014647  0.40485334  0.24700484  1
  Bi  Bi94  1  0.33014647  0.40485334  0.58033818  1
  Bi  Bi95  1  0.33014647  0.40485334  0.91367151  1
  Bi  Bi96  1  0.33014647  0.73818667  0.24700484  1
  Bi  Bi97  1  0.33014647  0.73818667  0.58033818  1
  Bi  Bi98  1  0.33014647  0.73818667  0.91367151  1
  Bi  Bi99  1  0.83014647  0.23818667  0.24700484  1
  Bi  Bi100  1  0.83014647  0.23818667  0.58033818  1
  Bi  Bi101  1  0.83014647  0.23818667  0.91367151  1
  Bi  Bi102  1  0.83014647  0.57152001  0.24700484  1
  Bi  Bi103  1  0.83014647  0.57152001  0.58033818  1
  Bi  Bi104  1  0.83014647  0.57152001  0.91367151  1
  Bi  Bi105  1  0.83014647  0.90485334  0.24700484  1
  Bi  Bi106  1  0.83014647  0.90485334  0.58033818  1
  Bi  Bi107  1  0.83014647  0.90485334  0.91367151  1
  O  O108  1  0.59649291  0.05172805  0.11464068  1
  O  O109  1  0.59649291  0.05172805  0.44797401  1
  O  O110  1  0.59649291  0.05172805  0.78130735  1
  O  O111  1  0.59649291  0.38506139  0.11464068  1
  O  O112  1  0.59649291  0.38506139  0.44797401  1
  O  O113  1  0.59649291  0.38506139  0.78130735  1
  O  O114  1  0.59649291  0.71839472  0.11464068  1
  O  O115  1  0.59649291  0.71839472  0.44797401  1
  O  O116  1  0.59649291  0.71839472  0.78130735  1
  O  O117  1  1.09649291  0.21839472  0.11464068  1
  O  O118  1  1.09649291  0.21839472  0.44797401  1
  O  O119  1  1.09649291  0.21839472  0.78130735  1
  O  O120  1  1.09649291  0.55172805  0.11464068  1
  O  O121  1  1.09649291  0.55172805  0.44797401  1
  O  O122  1  1.09649291  0.55172805  0.78130735  1
  O  O123  1  1.09649291  0.88506139  0.11464068  1
  O  O124  1  1.09649291  0.88506139  0.44797401  1
  O  O125  1  1.09649291  0.88506139  0.78130735  1
  O  O126  1  0.59649291  -0.05172805  0.28130735  1
  O  O127  1  0.59649291  -0.05172805  0.61464068  1
  O  O128  1  0.59649291  -0.05172805  0.94797401  1
  O  O129  1  0.59649291  0.28160528  0.28130735  1
  O  O130  1  0.59649291  0.28160528  0.61464068  1
  O  O131  1  0.59649291  0.28160528  0.94797401  1
  O  O132  1  0.59649291  0.61493861  0.28130735  1
  O  O133  1  0.59649291  0.61493861  0.61464068  1
  O  O134  1  0.59649291  0.61493861  0.94797401  1
  O  O135  1  1.09649291  0.11493861  0.28130735  1
  O  O136  1  1.09649291  0.11493861  0.61464068  1
  O  O137  1  1.09649291  0.11493861  0.94797401  1
  O  O138  1  1.09649291  0.44827195  0.28130735  1
  O  O139  1  1.09649291  0.44827195  0.61464068  1
  O  O140  1  1.09649291  0.44827195  0.94797401  1
  O  O141  1  1.09649291  0.78160528  0.28130735  1
  O  O142  1  1.09649291  0.78160528  0.61464068  1
  O  O143  1  1.09649291  0.78160528  0.94797401  1
  O  O144  1  0.75219362  -0.00406019  0.17089126  1
  O  O145  1  0.75219362  -0.00406019  0.50422459  1
  O  O146  1  0.75219362  -0.00406019  0.83755792  1
  O  O147  1  0.75219362  0.32927314  0.17089126  1
  O  O148  1  0.75219362  0.32927314  0.50422459  1
  O  O149  1  0.75219362  0.32927314  0.83755792  1
  O  O150  1  0.75219362  0.66260647  0.17089126  1
  O  O151  1  0.75219362  0.66260647  0.50422459  1
  O  O152  1  0.75219362  0.66260647  0.83755792  1
  O  O153  1  1.25219362  0.16260647  0.17089126  1
  O  O154  1  1.25219362  0.16260647  0.50422459  1
  O  O155  1  1.25219362  0.16260647  0.83755792  1
  O  O156  1  1.25219362  0.49593981  0.17089126  1
  O  O157  1  1.25219362  0.49593981  0.50422459  1
  O  O158  1  1.25219362  0.49593981  0.83755792  1
  O  O159  1  1.25219362  0.82927314  0.17089126  1
  O  O160  1  1.25219362  0.82927314  0.50422459  1
  O  O161  1  1.25219362  0.82927314  0.83755792  1
  O  O162  1  0.75219362  0.00406019  0.00422459  1
  O  O163  1  0.75219362  0.00406019  0.33755792  1
  O  O164  1  0.75219362  0.00406019  0.67089126  1
  O  O165  1  0.75219362  0.33739353  0.00422459  1
  O  O166  1  0.75219362  0.33739353  0.33755792  1
  O  O167  1  0.75219362  0.33739353  0.67089126  1
  O  O168  1  0.75219362  0.67072686  0.00422459  1
  O  O169  1  0.75219362  0.67072686  0.33755792  1
  O  O170  1  0.75219362  0.67072686  0.67089126  1
  O  O171  1  1.25219362  0.17072686  0.00422459  1
  O  O172  1  1.25219362  0.17072686  0.33755792  1
  O  O173  1  1.25219362  0.17072686  0.67089126  1
  O  O174  1  1.25219362  0.50406019  0.00422459  1
  O  O175  1  1.25219362  0.50406019  0.33755792  1
  O  O176  1  1.25219362  0.50406019  0.67089126  1
  O  O177  1  1.25219362  0.83739353  0.00422459  1
  O  O178  1  1.25219362  0.83739353  0.33755792  1
  O  O179  1  1.25219362  0.83739353  0.67089126  1
  O  O180  1  0.24780638  0.00406019  0.00422459  1
  O  O181  1  0.24780638  0.00406019  0.33755792  1
  O  O182  1  0.24780638  0.00406019  0.67089126  1
  O  O183  1  0.24780638  0.33739353  0.00422459  1
  O  O184  1  0.24780638  0.33739353  0.33755792  1
  O  O185  1  0.24780638  0.33739353  0.67089126  1
  O  O186  1  0.24780638  0.67072686  0.00422459  1
  O  O187  1  0.24780638  0.67072686  0.33755792  1
  O  O188  1  0.24780638  0.67072686  0.67089126  1
  O  O189  1  0.74780638  0.17072686  0.00422459  1
  O  O190  1  0.74780638  0.17072686  0.33755792  1
  O  O191  1  0.74780638  0.17072686  0.67089126  1
  O  O192  1  0.74780638  0.50406019  0.00422459  1
  O  O193  1  0.74780638  0.50406019  0.33755792  1
  O  O194  1  0.74780638  0.50406019  0.67089126  1
  O  O195  1  0.74780638  0.83739353  0.00422459  1
  O  O196  1  0.74780638  0.83739353  0.33755792  1
  O  O197  1  0.74780638  0.83739353  0.67089126  1
  O  O198  1  0.24780638  -0.00406019  0.17089126  1
  O  O199  1  0.24780638  -0.00406019  0.50422459  1
  O  O200  1  0.24780638  -0.00406019  0.83755792  1
  O  O201  1  0.24780638  0.32927314  0.17089126  1
  O  O202  1  0.24780638  0.32927314  0.50422459  1
  O  O203  1  0.24780638  0.32927314  0.83755792  1
  O  O204  1  0.24780638  0.66260647  0.17089126  1
  O  O205  1  0.24780638  0.66260647  0.50422459  1
  O  O206  1  0.24780638  0.66260647  0.83755792  1
  O  O207  1  0.74780638  0.16260647  0.17089126  1
  O  O208  1  0.74780638  0.16260647  0.50422459  1
  O  O209  1  0.74780638  0.16260647  0.83755792  1
  O  O210  1  0.74780638  0.49593981  0.17089126  1
  O  O211  1  0.74780638  0.49593981  0.50422459  1
  O  O212  1  0.74780638  0.49593981  0.83755792  1
  O  O213  1  0.74780638  0.82927314  0.17089126  1
  O  O214  1  0.74780638  0.82927314  0.50422459  1
  O  O215  1  0.74780638  0.82927314  0.83755792  1
  O  O216  1  0.40350709  0.05172805  0.11464068  1
  O  O217  1  0.40350709  0.05172805  0.44797401  1
  O  O218  1  0.40350709  0.05172805  0.78130735  1
  O  O219  1  0.40350709  0.38506139  0.11464068  1
  O  O220  1  0.40350709  0.38506139  0.44797401  1
  O  O221  1  0.40350709  0.38506139  0.78130735  1
  O  O222  1  0.40350709  0.71839472  0.11464068  1
  O  O223  1  0.40350709  0.71839472  0.44797401  1
  O  O224  1  0.40350709  0.71839472  0.78130735  1
  O  O225  1  0.90350709  0.21839472  0.11464068  1
  O  O226  1  0.90350709  0.21839472  0.44797401  1
  O  O227  1  0.90350709  0.21839472  0.78130735  1
  O  O228  1  0.90350709  0.55172805  0.11464068  1
  O  O229  1  0.90350709  0.55172805  0.44797401  1
  O  O230  1  0.90350709  0.55172805  0.78130735  1
  O  O231  1  0.90350709  0.88506139  0.11464068  1
  O  O232  1  0.90350709  0.88506139  0.44797401  1
  O  O233  1  0.90350709  0.88506139  0.78130735  1
  O  O234  1  0.40350709  -0.05172805  0.28130735  1
  O  O235  1  0.40350709  -0.05172805  0.61464068  1
  O  O236  1  0.40350709  -0.05172805  0.94797401  1
  O  O237  1  0.40350709  0.28160528  0.28130735  1
  O  O238  1  0.40350709  0.28160528  0.61464068  1
  O  O239  1  0.40350709  0.28160528  0.94797401  1
  O  O240  1  0.40350709  0.61493861  0.28130735  1
  O  O241  1  0.40350709  0.61493861  0.61464068  1
  O  O242  1  0.40350709  0.61493861  0.94797401  1
  O  O243  1  0.90350709  0.11493861  0.28130735  1
  O  O244  1  0.90350709  0.11493861  0.61464068  1
  O  O245  1  0.90350709  0.11493861  0.94797401  1
  O  O246  1  0.90350709  0.44827195  0.28130735  1
  O  O247  1  0.90350709  0.44827195  0.61464068  1
  O  O248  1  0.90350709  0.44827195  0.94797401  1
  O  O249  1  0.90350709  0.78160528  0.28130735  1
  O  O250  1  0.90350709  0.78160528  0.61464068  1
  O  O251  1  0.90350709  0.78160528  0.94797401  1
  O  O252  1  0.50000000  -0.13264602  0.14422309  1
  O  O253  1  0.50000000  -0.13264602  0.47755642  1
  O  O254  1  0.50000000  -0.13264602  0.81088976  1
  O  O255  1  0.50000000  0.20068732  0.14422309  1
  O  O256  1  0.50000000  0.20068732  0.47755642  1
  O  O257  1  0.50000000  0.20068732  0.81088976  1
  O  O258  1  0.50000000  0.53402065  0.14422309  1
  O  O259  1  0.50000000  0.53402065  0.47755642  1
  O  O260  1  0.50000000  0.53402065  0.81088976  1
  O  O261  1  1.00000000  0.03402065  0.14422309  1
  O  O262  1  1.00000000  0.03402065  0.47755642  1
  O  O263  1  1.00000000  0.03402065  0.81088976  1
  O  O264  1  1.00000000  0.36735398  0.14422309  1
  O  O265  1  1.00000000  0.36735398  0.47755642  1
  O  O266  1  1.00000000  0.36735398  0.81088976  1
  O  O267  1  1.00000000  0.70068732  0.14422309  1
  O  O268  1  1.00000000  0.70068732  0.47755642  1
  O  O269  1  1.00000000  0.70068732  0.81088976  1
  O  O270  1  0.50000000  0.13264602  0.31088976  1
  O  O271  1  0.50000000  0.13264602  0.64422309  1
  O  O272  1  0.50000000  0.13264602  0.97755642  1
  O  O273  1  0.50000000  0.46597935  0.31088976  1
  O  O274  1  0.50000000  0.46597935  0.64422309  1
  O  O275  1  0.50000000  0.46597935  0.97755642  1
  O  O276  1  0.50000000  0.79931268  0.31088976  1
  O  O277  1  0.50000000  0.79931268  0.64422309  1
  O  O278  1  0.50000000  0.79931268  0.97755642  1
  O  O279  1  1.00000000  0.29931268  0.31088976  1
  O  O280  1  1.00000000  0.29931268  0.64422309  1
  O  O281  1  1.00000000  0.29931268  0.97755642  1
  O  O282  1  1.00000000  0.63264602  0.31088976  1
  O  O283  1  1.00000000  0.63264602  0.64422309  1
  O  O284  1  1.00000000  0.63264602  0.97755642  1
  O  O285  1  1.00000000  0.96597935  0.31088976  1
  O  O286  1  1.00000000  0.96597935  0.64422309  1
  O  O287  1  1.00000000  0.96597935  0.97755642  1
