# generated using pymatgen
data_CaAl4O7
_symmetry_space_group_name_H-M   'P 1'
_cell_length_a   12.88940348
_cell_length_b   17.81842200
_cell_length_c   16.31845790
_cell_angle_alpha   90.00000000
_cell_angle_beta   107.01932884
_cell_angle_gamma   90.00000000
_symmetry_Int_Tables_number   1
_chemical_formula_structural   CaAl4O7
_chemical_formula_sum   'Ca24 Al96 O168'
_cell_volume   3583.70844632
_cell_formula_units_Z   24
loop_
 _symmetry_equiv_pos_site_id
 _symmetry_equiv_pos_as_xyz
  1  'x, y, z'
loop_
 _atom_site_type_symbol
 _atom_site_label
 _atom_site_symmetry_multiplicity
 _atom_site_fract_x
 _atom_site_fract_y
 _atom_site_fract_z
 _atom_site_occupancy
  Ca  Ca0  1  0.50000000  0.15461432  0.08333333  1
  Ca  Ca1  1  0.50000000  0.15461432  0.41666667  1
  Ca  Ca2  1  0.50000000  0.15461432  0.75000000  1
  Ca  Ca3  1  0.50000000  0.65461432  0.08333333  1
  Ca  Ca4  1  0.50000000  0.65461432  0.41666667  1
  Ca  Ca5  1  0.50000000  0.65461432  0.75000000  1
  Ca  Ca6  1  1.00000000  0.40461432  0.08333333  1
  Ca  Ca7  1  1.00000000  0.40461432  0.41666667  1
  Ca  Ca8  1  1.00000000  0.40461432  0.75000000  1
  Ca  Ca9  1  1.00000000  0.90461432  0.08333333  1
  Ca  Ca10  1  1.00000000  0.90461432  0.41666667  1
  Ca  Ca11  1  1.00000000  0.90461432  0.75000000  1
  Ca  Ca12  1  0.50000000  -0.15461432  0.25000000  1
  Ca  Ca13  1  0.50000000  -0.15461432  0.58333333  1
  Ca  Ca14  1  0.50000000  -0.15461432  0.91666667  1
  Ca  Ca15  1  0.50000000  0.34538568  0.25000000  1
  Ca  Ca16  1  0.50000000  0.34538568  0.58333333  1
  Ca  Ca17  1  0.50000000  0.34538568  0.91666667  1
  Ca  Ca18  1  1.00000000  0.09538568  0.25000000  1
  Ca  Ca19  1  1.00000000  0.09538568  0.58333333  1
  Ca  Ca20  1  1.00000000  0.09538568  0.91666667  1
  Ca  Ca21  1  1.00000000  0.59538568  0.25000000  1
  Ca  Ca22  1  1.00000000  0.59538568  0.58333333  1
  Ca  Ca23  1  1.00000000  0.59538568  0.91666667  1
  Al  Al24  1  0.61911704  -0.02964000  0.07806929  1
  Al  Al25  1  0.61911704  -0.02964000  0.41140262  1
  Al  Al26  1  0.61911704  -0.02964000  0.74473596  1
  Al  Al27  1  0.61911704  0.47036000  0.07806929  1
  Al  Al28  1  0.61911704  0.47036000  0.41140262  1
  Al  Al29  1  0.61911704  0.47036000  0.74473596  1
  Al  Al30  1  1.11911704  0.22036000  0.07806929  1
  Al  Al31  1  1.11911704  0.22036000  0.41140262  1
  Al  Al32  1  1.11911704  0.22036000  0.74473596  1
  Al  Al33  1  1.11911704  0.72036000  0.07806929  1
  Al  Al34  1  1.11911704  0.72036000  0.41140262  1
  Al  Al35  1  1.11911704  0.72036000  0.74473596  1
  Al  Al36  1  0.38088296  -0.02964000  0.08859738  1
  Al  Al37  1  0.38088296  -0.02964000  0.42193071  1
  Al  Al38  1  0.38088296  -0.02964000  0.75526404  1
  Al  Al39  1  0.38088296  0.47036000  0.08859738  1
  Al  Al40  1  0.38088296  0.47036000  0.42193071  1
  Al  Al41  1  0.38088296  0.47036000  0.75526404  1
  Al  Al42  1  0.88088296  0.22036000  0.08859738  1
  Al  Al43  1  0.88088296  0.22036000  0.42193071  1
  Al  Al44  1  0.88088296  0.22036000  0.75526404  1
  Al  Al45  1  0.88088296  0.72036000  0.08859738  1
  Al  Al46  1  0.88088296  0.72036000  0.42193071  1
  Al  Al47  1  0.88088296  0.72036000  0.75526404  1
  Al  Al48  1  0.38088296  0.02964000  0.25526404  1
  Al  Al49  1  0.38088296  0.02964000  0.58859738  1
  Al  Al50  1  0.38088296  0.02964000  0.92193071  1
  Al  Al51  1  0.38088296  0.52964000  0.25526404  1
  Al  Al52  1  0.38088296  0.52964000  0.58859738  1
  Al  Al53  1  0.38088296  0.52964000  0.92193071  1
  Al  Al54  1  0.88088296  0.27964000  0.25526404  1
  Al  Al55  1  0.88088296  0.27964000  0.58859738  1
  Al  Al56  1  0.88088296  0.27964000  0.92193071  1
  Al  Al57  1  0.88088296  0.77964000  0.25526404  1
  Al  Al58  1  0.88088296  0.77964000  0.58859738  1
  Al  Al59  1  0.88088296  0.77964000  0.92193071  1
  Al  Al60  1  0.61911704  0.02964000  0.24473596  1
  Al  Al61  1  0.61911704  0.02964000  0.57806929  1
  Al  Al62  1  0.61911704  0.02964000  0.91140262  1
  Al  Al63  1  0.61911704  0.52964000  0.24473596  1
  Al  Al64  1  0.61911704  0.52964000  0.57806929  1
  Al  Al65  1  0.61911704  0.52964000  0.91140262  1
  Al  Al66  1  1.11911704  0.27964000  0.24473596  1
  Al  Al67  1  1.11911704  0.27964000  0.57806929  1
  Al  Al68  1  1.11911704  0.27964000  0.91140262  1
  Al  Al69  1  1.11911704  0.77964000  0.24473596  1
  Al  Al70  1  1.11911704  0.77964000  0.57806929  1
  Al  Al71  1  1.11911704  0.77964000  0.91140262  1
  Al  Al72  1  0.16300720  0.04322390  0.10204591  1
  Al  Al73  1  0.16300720  0.04322390  0.43537924  1
  Al  Al74  1  0.16300720  0.04322390  0.76871257  1
  Al  Al75  1  0.16300720  0.54322390  0.10204591  1
  Al  Al76  1  0.16300720  0.54322390  0.43537924  1
  Al  Al77  1  0.16300720  0.54322390  0.76871257  1
  Al  Al78  1  0.66300720  0.29322390  0.10204591  1
  Al  Al79  1  0.66300720  0.29322390  0.43537924  1
  Al  Al80  1  0.66300720  0.29322390  0.76871257  1
  Al  Al81  1  0.66300720  0.79322390  0.10204591  1
  Al  Al82  1  0.66300720  0.79322390  0.43537924  1
  Al  Al83  1  0.66300720  0.79322390  0.76871257  1
  Al  Al84  1  0.83699280  0.04322390  0.06462076  1
  Al  Al85  1  0.83699280  0.04322390  0.39795409  1
  Al  Al86  1  0.83699280  0.04322390  0.73128743  1
  Al  Al87  1  0.83699280  0.54322390  0.06462076  1
  Al  Al88  1  0.83699280  0.54322390  0.39795409  1
  Al  Al89  1  0.83699280  0.54322390  0.73128743  1
  Al  Al90  1  1.33699280  0.29322390  0.06462076  1
  Al  Al91  1  1.33699280  0.29322390  0.39795409  1
  Al  Al92  1  1.33699280  0.29322390  0.73128743  1
  Al  Al93  1  1.33699280  0.79322390  0.06462076  1
  Al  Al94  1  1.33699280  0.79322390  0.39795409  1
  Al  Al95  1  1.33699280  0.79322390  0.73128743  1
  Al  Al96  1  0.83699280  -0.04322390  0.23128743  1
  Al  Al97  1  0.83699280  -0.04322390  0.56462076  1
  Al  Al98  1  0.83699280  -0.04322390  0.89795409  1
  Al  Al99  1  0.83699280  0.45677610  0.23128743  1
  Al  Al100  1  0.83699280  0.45677610  0.56462076  1
  Al  Al101  1  0.83699280  0.45677610  0.89795409  1
  Al  Al102  1  1.33699280  0.20677610  0.23128743  1
  Al  Al103  1  1.33699280  0.20677610  0.56462076  1
  Al  Al104  1  1.33699280  0.20677610  0.89795409  1
  Al  Al105  1  1.33699280  0.70677610  0.23128743  1
  Al  Al106  1  1.33699280  0.70677610  0.56462076  1
  Al  Al107  1  1.33699280  0.70677610  0.89795409  1
  Al  Al108  1  0.16300720  -0.04322390  0.26871257  1
  Al  Al109  1  0.16300720  -0.04322390  0.60204591  1
  Al  Al110  1  0.16300720  -0.04322390  0.93537924  1
  Al  Al111  1  0.16300720  0.45677610  0.26871257  1
  Al  Al112  1  0.16300720  0.45677610  0.60204591  1
  Al  Al113  1  0.16300720  0.45677610  0.93537924  1
  Al  Al114  1  0.66300720  0.20677610  0.26871257  1
  Al  Al115  1  0.66300720  0.20677610  0.60204591  1
  Al  Al116  1  0.66300720  0.20677610  0.93537924  1
  Al  Al117  1  0.66300720  0.70677610  0.26871257  1
  Al  Al118  1  0.66300720  0.70677610  0.60204591  1
  Al  Al119  1  0.66300720  0.70677610  0.93537924  1
  O  O120  1  0.69280062  -0.02828692  0.19145225  1
  O  O121  1  0.69280062  -0.02828692  0.52478559  1
  O  O122  1  0.69280062  -0.02828692  0.85811892  1
  O  O123  1  0.69280062  0.47171308  0.19145225  1
  O  O124  1  0.69280062  0.47171308  0.52478559  1
  O  O125  1  0.69280062  0.47171308  0.85811892  1
  O  O126  1  1.19280062  0.22171308  0.19145225  1
  O  O127  1  1.19280062  0.22171308  0.52478559  1
  O  O128  1  1.19280062  0.22171308  0.85811892  1
  O  O129  1  1.19280062  0.72171308  0.19145225  1
  O  O130  1  1.19280062  0.72171308  0.52478559  1
  O  O131  1  1.19280062  0.72171308  0.85811892  1
  O  O132  1  0.30719938  -0.02828692  0.30854775  1
  O  O133  1  0.30719938  -0.02828692  0.64188108  1
  O  O134  1  0.30719938  -0.02828692  0.97521441  1
  O  O135  1  0.30719938  0.47171308  0.30854775  1
  O  O136  1  0.30719938  0.47171308  0.64188108  1
  O  O137  1  0.30719938  0.47171308  0.97521441  1
  O  O138  1  0.80719938  0.22171308  0.30854775  1
  O  O139  1  0.80719938  0.22171308  0.64188108  1
  O  O140  1  0.80719938  0.22171308  0.97521441  1
  O  O141  1  0.80719938  0.72171308  0.30854775  1
  O  O142  1  0.80719938  0.72171308  0.64188108  1
  O  O143  1  0.80719938  0.72171308  0.97521441  1
  O  O144  1  0.30719938  0.02828692  0.14188108  1
  O  O145  1  0.30719938  0.02828692  0.47521441  1
  O  O146  1  0.30719938  0.02828692  0.80854775  1
  O  O147  1  0.30719938  0.52828692  0.14188108  1
  O  O148  1  0.30719938  0.52828692  0.47521441  1
  O  O149  1  0.30719938  0.52828692  0.80854775  1
  O  O150  1  0.80719938  0.27828692  0.14188108  1
  O  O151  1  0.80719938  0.27828692  0.47521441  1
  O  O152  1  0.80719938  0.27828692  0.80854775  1
  O  O153  1  0.80719938  0.77828692  0.14188108  1
  O  O154  1  0.80719938  0.77828692  0.47521441  1
  O  O155  1  0.80719938  0.77828692  0.80854775  1
  O  O156  1  0.69280062  0.02828692  0.02478559  1
  O  O157  1  0.69280062  0.02828692  0.35811892  1
  O  O158  1  0.69280062  0.02828692  0.69145225  1
  O  O159  1  0.69280062  0.52828692  0.02478559  1
  O  O160  1  0.69280062  0.52828692  0.35811892  1
  O  O161  1  0.69280062  0.52828692  0.69145225  1
  O  O162  1  1.19280062  0.27828692  0.02478559  1
  O  O163  1  1.19280062  0.27828692  0.35811892  1
  O  O164  1  1.19280062  0.27828692  0.69145225  1
  O  O165  1  1.19280062  0.77828692  0.02478559  1
  O  O166  1  1.19280062  0.77828692  0.35811892  1
  O  O167  1  1.19280062  0.77828692  0.69145225  1
  O  O168  1  0.61749058  -0.12307225  0.04822910  1
  O  O169  1  0.61749058  -0.12307225  0.38156243  1
  O  O170  1  0.61749058  -0.12307225  0.71489576  1
  O  O171  1  0.61749058  0.37692775  0.04822910  1
  O  O172  1  0.61749058  0.37692775  0.38156243  1
  O  O173  1  0.61749058  0.37692775  0.71489576  1
  O  O174  1  1.11749058  0.12692775  0.04822910  1
  O  O175  1  1.11749058  0.12692775  0.38156243  1
  O  O176  1  1.11749058  0.12692775  0.71489576  1
  O  O177  1  1.11749058  0.62692775  0.04822910  1
  O  O178  1  1.11749058  0.62692775  0.38156243  1
  O  O179  1  1.11749058  0.62692775  0.71489576  1
  O  O180  1  0.38250942  -0.12307225  0.11843757  1
  O  O181  1  0.38250942  -0.12307225  0.45177090  1
  O  O182  1  0.38250942  -0.12307225  0.78510424  1
  O  O183  1  0.38250942  0.37692775  0.11843757  1
  O  O184  1  0.38250942  0.37692775  0.45177090  1
  O  O185  1  0.38250942  0.37692775  0.78510424  1
  O  O186  1  0.88250942  0.12692775  0.11843757  1
  O  O187  1  0.88250942  0.12692775  0.45177090  1
  O  O188  1  0.88250942  0.12692775  0.78510424  1
  O  O189  1  0.88250942  0.62692775  0.11843757  1
  O  O190  1  0.88250942  0.62692775  0.45177090  1
  O  O191  1  0.88250942  0.62692775  0.78510424  1
  O  O192  1  0.38250942  0.12307225  0.28510424  1
  O  O193  1  0.38250942  0.12307225  0.61843757  1
  O  O194  1  0.38250942  0.12307225  0.95177090  1
  O  O195  1  0.38250942  0.62307225  0.28510424  1
  O  O196  1  0.38250942  0.62307225  0.61843757  1
  O  O197  1  0.38250942  0.62307225  0.95177090  1
  O  O198  1  0.88250942  0.37307225  0.28510424  1
  O  O199  1  0.88250942  0.37307225  0.61843757  1
  O  O200  1  0.88250942  0.37307225  0.95177090  1
  O  O201  1  0.88250942  0.87307225  0.28510424  1
  O  O202  1  0.88250942  0.87307225  0.61843757  1
  O  O203  1  0.88250942  0.87307225  0.95177090  1
  O  O204  1  0.61749058  0.12307225  0.21489576  1
  O  O205  1  0.61749058  0.12307225  0.54822910  1
  O  O206  1  0.61749058  0.12307225  0.88156243  1
  O  O207  1  0.61749058  0.62307225  0.21489576  1
  O  O208  1  0.61749058  0.62307225  0.54822910  1
  O  O209  1  0.61749058  0.62307225  0.88156243  1
  O  O210  1  1.11749058  0.37307225  0.21489576  1
  O  O211  1  1.11749058  0.37307225  0.54822910  1
  O  O212  1  1.11749058  0.37307225  0.88156243  1
  O  O213  1  1.11749058  0.87307225  0.21489576  1
  O  O214  1  1.11749058  0.87307225  0.54822910  1
  O  O215  1  1.11749058  0.87307225  0.88156243  1
  O  O216  1  0.11435925  0.02713592  0.19037642  1
  O  O217  1  0.11435925  0.02713592  0.52370976  1
  O  O218  1  0.11435925  0.02713592  0.85704309  1
  O  O219  1  0.11435925  0.52713592  0.19037642  1
  O  O220  1  0.11435925  0.52713592  0.52370976  1
  O  O221  1  0.11435925  0.52713592  0.85704309  1
  O  O222  1  0.61435925  0.27713592  0.19037642  1
  O  O223  1  0.61435925  0.27713592  0.52370976  1
  O  O224  1  0.61435925  0.27713592  0.85704309  1
  O  O225  1  0.61435925  0.77713592  0.19037642  1
  O  O226  1  0.61435925  0.77713592  0.52370976  1
  O  O227  1  0.61435925  0.77713592  0.85704309  1
  O  O228  1  0.88564075  0.02713592  0.30962358  1
  O  O229  1  0.88564075  0.02713592  0.64295691  1
  O  O230  1  0.88564075  0.02713592  0.97629024  1
  O  O231  1  0.88564075  0.52713592  0.30962358  1
  O  O232  1  0.88564075  0.52713592  0.64295691  1
  O  O233  1  0.88564075  0.52713592  0.97629024  1
  O  O234  1  1.38564075  0.27713592  0.30962358  1
  O  O235  1  1.38564075  0.27713592  0.64295691  1
  O  O236  1  1.38564075  0.27713592  0.97629024  1
  O  O237  1  1.38564075  0.77713592  0.30962358  1
  O  O238  1  1.38564075  0.77713592  0.64295691  1
  O  O239  1  1.38564075  0.77713592  0.97629024  1
  O  O240  1  0.50000000  -0.01717348  0.25000000  1
  O  O241  1  0.50000000  -0.01717348  0.58333333  1
  O  O242  1  0.50000000  -0.01717348  0.91666667  1
  O  O243  1  0.50000000  0.48282652  0.25000000  1
  O  O244  1  0.50000000  0.48282652  0.58333333  1
  O  O245  1  0.50000000  0.48282652  0.91666667  1
  O  O246  1  1.00000000  0.23282652  0.25000000  1
  O  O247  1  1.00000000  0.23282652  0.58333333  1
  O  O248  1  1.00000000  0.23282652  0.91666667  1
  O  O249  1  1.00000000  0.73282652  0.25000000  1
  O  O250  1  1.00000000  0.73282652  0.58333333  1
  O  O251  1  1.00000000  0.73282652  0.91666667  1
  O  O252  1  0.50000000  0.01717348  0.08333333  1
  O  O253  1  0.50000000  0.01717348  0.41666667  1
  O  O254  1  0.50000000  0.01717348  0.75000000  1
  O  O255  1  0.50000000  0.51717348  0.08333333  1
  O  O256  1  0.50000000  0.51717348  0.41666667  1
  O  O257  1  0.50000000  0.51717348  0.75000000  1
  O  O258  1  1.00000000  0.26717348  0.08333333  1
  O  O259  1  1.00000000  0.26717348  0.41666667  1
  O  O260  1  1.00000000  0.26717348  0.75000000  1
  O  O261  1  1.00000000  0.76717348  0.08333333  1
  O  O262  1  1.00000000  0.76717348  0.41666667  1
  O  O263  1  1.00000000  0.76717348  0.75000000  1
  O  O264  1  0.11435925  -0.02713592  0.02370976  1
  O  O265  1  0.11435925  -0.02713592  0.35704309  1
  O  O266  1  0.11435925  -0.02713592  0.69037642  1
  O  O267  1  0.11435925  0.47286408  0.02370976  1
  O  O268  1  0.11435925  0.47286408  0.35704309  1
  O  O269  1  0.11435925  0.47286408  0.69037642  1
  O  O270  1  0.61435925  0.22286408  0.02370976  1
  O  O271  1  0.61435925  0.22286408  0.35704309  1
  O  O272  1  0.61435925  0.22286408  0.69037642  1
  O  O273  1  0.61435925  0.72286408  0.02370976  1
  O  O274  1  0.61435925  0.72286408  0.35704309  1
  O  O275  1  0.61435925  0.72286408  0.69037642  1
  O  O276  1  0.88564075  -0.02713592  0.14295691  1
  O  O277  1  0.88564075  -0.02713592  0.47629024  1
  O  O278  1  0.88564075  -0.02713592  0.80962358  1
  O  O279  1  0.88564075  0.47286408  0.14295691  1
  O  O280  1  0.88564075  0.47286408  0.47629024  1
  O  O281  1  0.88564075  0.47286408  0.80962358  1
  O  O282  1  1.38564075  0.22286408  0.14295691  1
  O  O283  1  1.38564075  0.22286408  0.47629024  1
  O  O284  1  1.38564075  0.22286408  0.80962358  1
  O  O285  1  1.38564075  0.72286408  0.14295691  1
  O  O286  1  1.38564075  0.72286408  0.47629024  1
  O  O287  1  1.38564075  0.72286408  0.80962358  1
