# generated using pymatgen
data_KReO4
_symmetry_space_group_name_H-M   'P 1'
_cell_length_a   11.48769866
_cell_length_b   11.48769866
_cell_length_c   12.57472596
_cell_angle_alpha   90.00000000
_cell_angle_beta   90.00000000
_cell_angle_gamma   90.00000000
_symmetry_Int_Tables_number   1
_chemical_formula_structural   KReO4
_chemical_formula_sum   'K16 Re16 O64'
_cell_volume   1659.45163391
_cell_formula_units_Z   16
loop_
 _symmetry_equiv_pos_site_id
 _symmetry_equiv_pos_as_xyz
  1  'x, y, z'
loop_
 _atom_site_type_symbol
 _atom_site_label
 _atom_site_symmetry_multiplicity
 _atom_site_fract_x
 _atom_site_fract_y
 _atom_site_fract_z
 _atom_site_occupancy
  K  K0  1  0.00000000  0.50000000  0.50000000  1
  K  K1  1  0.50000000  0.50000000  0.50000000  1
  K  K2  1  0.00000000  -0.00000000  0.50000000  1
  K  K3  1  0.50000000  -0.00000000  0.50000000  1
  K  K4  1  0.25000000  0.25000000  1.00000000  1
  K  K5  1  0.75000000  0.25000000  1.00000000  1
  K  K6  1  0.25000000  -0.25000000  1.00000000  1
  K  K7  1  0.75000000  -0.25000000  1.00000000  1
  K  K8  1  0.00000000  0.25000000  0.25000000  1
  K  K9  1  0.50000000  0.25000000  0.25000000  1
  K  K10  1  0.00000000  -0.25000000  0.25000000  1
  K  K11  1  0.50000000  -0.25000000  0.25000000  1
  K  K12  1  0.25000000  0.00000000  0.75000000  1
  K  K13  1  0.75000000  0.00000000  0.75000000  1
  K  K14  1  0.25000000  -0.50000000  0.75000000  1
  K  K15  1  0.75000000  -0.50000000  0.75000000  1
  Re  Re16  1  0.25000000  0.50000000  0.25000000  1
  Re  Re17  1  0.75000000  0.50000000  0.25000000  1
  Re  Re18  1  0.25000000  0.00000000  0.25000000  1
  Re  Re19  1  0.75000000  0.00000000  0.25000000  1
  Re  Re20  1  0.50000000  0.25000000  0.75000000  1
  Re  Re21  1  1.00000000  0.25000000  0.75000000  1
  Re  Re22  1  0.50000000  -0.25000000  0.75000000  1
  Re  Re23  1  1.00000000  -0.25000000  0.75000000  1
  Re  Re24  1  0.00000000  0.50000000  -0.00000000  1
  Re  Re25  1  0.50000000  0.50000000  -0.00000000  1
  Re  Re26  1  0.00000000  -0.00000000  -0.00000000  1
  Re  Re27  1  0.50000000  -0.00000000  -0.00000000  1
  Re  Re28  1  0.25000000  0.25000000  0.50000000  1
  Re  Re29  1  0.75000000  0.25000000  0.50000000  1
  Re  Re30  1  0.25000000  -0.25000000  0.50000000  1
  Re  Re31  1  0.75000000  -0.25000000  0.50000000  1
  O  O32  1  0.14188914  0.31280295  0.42083092  1
  O  O33  1  0.64188914  0.31280295  0.42083092  1
  O  O34  1  0.14188914  -0.18719705  0.42083092  1
  O  O35  1  0.64188914  -0.18719705  0.42083092  1
  O  O36  1  0.39188914  0.06280295  0.92083092  1
  O  O37  1  0.89188914  0.06280295  0.92083092  1
  O  O38  1  0.39188914  -0.43719705  0.92083092  1
  O  O39  1  0.89188914  -0.43719705  0.92083092  1
  O  O40  1  0.06280295  0.35811086  0.67083092  1
  O  O41  1  0.56280295  0.35811086  0.67083092  1
  O  O42  1  0.06280295  -0.14188914  0.67083092  1
  O  O43  1  0.56280295  -0.14188914  0.67083092  1
  O  O44  1  0.31280295  0.10811086  1.17083092  1
  O  O45  1  0.81280295  0.10811086  1.17083092  1
  O  O46  1  0.31280295  -0.39188914  1.17083092  1
  O  O47  1  0.81280295  -0.39188914  1.17083092  1
  O  O48  1  0.18719705  0.39188914  0.17083092  1
  O  O49  1  0.68719705  0.39188914  0.17083092  1
  O  O50  1  0.18719705  -0.10811086  0.17083092  1
  O  O51  1  0.68719705  -0.10811086  0.17083092  1
  O  O52  1  0.43719705  0.14188914  0.67083092  1
  O  O53  1  0.93719705  0.14188914  0.67083092  1
  O  O54  1  0.43719705  -0.35811086  0.67083092  1
  O  O55  1  0.93719705  -0.35811086  0.67083092  1
  O  O56  1  0.10811086  0.43719705  -0.07916908  1
  O  O57  1  0.60811086  0.43719705  -0.07916908  1
  O  O58  1  0.10811086  -0.06280295  -0.07916908  1
  O  O59  1  0.60811086  -0.06280295  -0.07916908  1
  O  O60  1  0.35811086  0.18719705  0.42083092  1
  O  O61  1  0.85811086  0.18719705  0.42083092  1
  O  O62  1  0.35811086  -0.31280295  0.42083092  1
  O  O63  1  0.85811086  -0.31280295  0.42083092  1
  O  O64  1  0.14188914  0.56280295  0.32916908  1
  O  O65  1  0.64188914  0.56280295  0.32916908  1
  O  O66  1  0.14188914  0.06280295  0.32916908  1
  O  O67  1  0.64188914  0.06280295  0.32916908  1
  O  O68  1  0.39188914  0.31280295  0.82916908  1
  O  O69  1  0.89188914  0.31280295  0.82916908  1
  O  O70  1  0.39188914  -0.18719705  0.82916908  1
  O  O71  1  0.89188914  -0.18719705  0.82916908  1
  O  O72  1  0.06280295  0.10811086  0.07916908  1
  O  O73  1  0.56280295  0.10811086  0.07916908  1
  O  O74  1  0.06280295  -0.39188914  0.07916908  1
  O  O75  1  0.56280295  -0.39188914  0.07916908  1
  O  O76  1  0.31280295  -0.14188914  0.57916908  1
  O  O77  1  0.81280295  -0.14188914  0.57916908  1
  O  O78  1  0.31280295  -0.64188914  0.57916908  1
  O  O79  1  0.81280295  -0.64188914  0.57916908  1
  O  O80  1  0.18719705  0.64188914  0.57916908  1
  O  O81  1  0.68719705  0.64188914  0.57916908  1
  O  O82  1  0.18719705  0.14188914  0.57916908  1
  O  O83  1  0.68719705  0.14188914  0.57916908  1
  O  O84  1  0.43719705  0.39188914  1.07916908  1
  O  O85  1  0.93719705  0.39188914  1.07916908  1
  O  O86  1  0.43719705  -0.10811086  1.07916908  1
  O  O87  1  0.93719705  -0.10811086  1.07916908  1
  O  O88  1  0.10811086  0.18719705  -0.17083092  1
  O  O89  1  0.60811086  0.18719705  -0.17083092  1
  O  O90  1  0.10811086  -0.31280295  -0.17083092  1
  O  O91  1  0.60811086  -0.31280295  -0.17083092  1
  O  O92  1  0.35811086  -0.06280295  0.32916908  1
  O  O93  1  0.85811086  -0.06280295  0.32916908  1
  O  O94  1  0.35811086  -0.56280295  0.32916908  1
  O  O95  1  0.85811086  -0.56280295  0.32916908  1
