# generated using pymatgen
data_CdBiO3
_symmetry_space_group_name_H-M   'P 1'
_cell_length_a   17.47029579
_cell_length_b   17.47029579
_cell_length_c   14.79998299
_cell_angle_alpha   90.00000000
_cell_angle_beta   90.00000000
_cell_angle_gamma   120.00000000
_symmetry_Int_Tables_number   1
_chemical_formula_structural   CdBiO3
_chemical_formula_sum   'Cd54 Bi54 O162'
_cell_volume   3911.94161175
_cell_formula_units_Z   54
loop_
 _symmetry_equiv_pos_site_id
 _symmetry_equiv_pos_as_xyz
  1  'x, y, z'
loop_
 _atom_site_type_symbol
 _atom_site_label
 _atom_site_symmetry_multiplicity
 _atom_site_fract_x
 _atom_site_fract_y
 _atom_site_fract_z
 _atom_site_occupancy
  Cd  Cd0  1  0.00000000  0.00000000  0.36267418  1
  Cd  Cd1  1  0.00000000  0.33333333  0.36267418  1
  Cd  Cd2  1  0.00000000  0.66666667  0.36267418  1
  Cd  Cd3  1  0.33333333  0.00000000  0.36267418  1
  Cd  Cd4  1  0.33333333  0.33333333  0.36267418  1
  Cd  Cd5  1  0.33333333  0.66666667  0.36267418  1
  Cd  Cd6  1  0.66666667  0.00000000  0.36267418  1
  Cd  Cd7  1  0.66666667  0.33333333  0.36267418  1
  Cd  Cd8  1  0.66666667  0.66666667  0.36267418  1
  Cd  Cd9  1  0.22222222  0.11111111  0.69600751  1
  Cd  Cd10  1  0.22222222  0.44444444  0.69600751  1
  Cd  Cd11  1  0.22222222  0.77777778  0.69600751  1
  Cd  Cd12  1  0.55555556  0.11111111  0.69600751  1
  Cd  Cd13  1  0.55555556  0.44444444  0.69600751  1
  Cd  Cd14  1  0.55555556  0.77777778  0.69600751  1
  Cd  Cd15  1  0.88888889  0.11111111  0.69600751  1
  Cd  Cd16  1  0.88888889  0.44444444  0.69600751  1
  Cd  Cd17  1  0.88888889  0.77777778  0.69600751  1
  Cd  Cd18  1  0.11111111  0.22222222  1.02934084  1
  Cd  Cd19  1  0.11111111  0.55555556  1.02934084  1
  Cd  Cd20  1  0.11111111  0.88888889  1.02934084  1
  Cd  Cd21  1  0.44444444  0.22222222  1.02934084  1
  Cd  Cd22  1  0.44444444  0.55555556  1.02934084  1
  Cd  Cd23  1  0.44444444  0.88888889  1.02934084  1
  Cd  Cd24  1  0.77777778  0.22222222  1.02934084  1
  Cd  Cd25  1  0.77777778  0.55555556  1.02934084  1
  Cd  Cd26  1  0.77777778  0.88888889  1.02934084  1
  Cd  Cd27  1  -0.00000000  -0.00000000  0.63326860  1
  Cd  Cd28  1  0.00000000  0.33333333  0.63326860  1
  Cd  Cd29  1  0.00000000  0.66666667  0.63326860  1
  Cd  Cd30  1  0.33333333  -0.00000000  0.63326860  1
  Cd  Cd31  1  0.33333333  0.33333333  0.63326860  1
  Cd  Cd32  1  0.33333333  0.66666667  0.63326860  1
  Cd  Cd33  1  0.66666667  -0.00000000  0.63326860  1
  Cd  Cd34  1  0.66666667  0.33333333  0.63326860  1
  Cd  Cd35  1  0.66666667  0.66666667  0.63326860  1
  Cd  Cd36  1  0.22222222  0.11111111  0.96660193  1
  Cd  Cd37  1  0.22222222  0.44444444  0.96660193  1
  Cd  Cd38  1  0.22222222  0.77777778  0.96660193  1
  Cd  Cd39  1  0.55555556  0.11111111  0.96660193  1
  Cd  Cd40  1  0.55555556  0.44444444  0.96660193  1
  Cd  Cd41  1  0.55555556  0.77777778  0.96660193  1
  Cd  Cd42  1  0.88888889  0.11111111  0.96660193  1
  Cd  Cd43  1  0.88888889  0.44444444  0.96660193  1
  Cd  Cd44  1  0.88888889  0.77777778  0.96660193  1
  Cd  Cd45  1  0.11111111  0.22222222  1.29993527  1
  Cd  Cd46  1  0.11111111  0.55555556  1.29993527  1
  Cd  Cd47  1  0.11111111  0.88888889  1.29993527  1
  Cd  Cd48  1  0.44444444  0.22222222  1.29993527  1
  Cd  Cd49  1  0.44444444  0.55555556  1.29993527  1
  Cd  Cd50  1  0.44444444  0.88888889  1.29993527  1
  Cd  Cd51  1  0.77777778  0.22222222  1.29993527  1
  Cd  Cd52  1  0.77777778  0.55555556  1.29993527  1
  Cd  Cd53  1  0.77777778  0.88888889  1.29993527  1
  Bi  Bi54  1  -0.00000000  -0.00000000  0.13914356  1
  Bi  Bi55  1  0.00000000  0.33333333  0.13914356  1
  Bi  Bi56  1  0.00000000  0.66666667  0.13914356  1
  Bi  Bi57  1  0.33333333  -0.00000000  0.13914356  1
  Bi  Bi58  1  0.33333333  0.33333333  0.13914356  1
  Bi  Bi59  1  0.33333333  0.66666667  0.13914356  1
  Bi  Bi60  1  0.66666667  -0.00000000  0.13914356  1
  Bi  Bi61  1  0.66666667  0.33333333  0.13914356  1
  Bi  Bi62  1  0.66666667  0.66666667  0.13914356  1
  Bi  Bi63  1  0.22222222  0.11111111  0.47247689  1
  Bi  Bi64  1  0.22222222  0.44444444  0.47247689  1
  Bi  Bi65  1  0.22222222  0.77777778  0.47247689  1
  Bi  Bi66  1  0.55555556  0.11111111  0.47247689  1
  Bi  Bi67  1  0.55555556  0.44444444  0.47247689  1
  Bi  Bi68  1  0.55555556  0.77777778  0.47247689  1
  Bi  Bi69  1  0.88888889  0.11111111  0.47247689  1
  Bi  Bi70  1  0.88888889  0.44444444  0.47247689  1
  Bi  Bi71  1  0.88888889  0.77777778  0.47247689  1
  Bi  Bi72  1  0.11111111  0.22222222  0.80581022  1
  Bi  Bi73  1  0.11111111  0.55555556  0.80581022  1
  Bi  Bi74  1  0.11111111  0.88888889  0.80581022  1
  Bi  Bi75  1  0.44444444  0.22222222  0.80581022  1
  Bi  Bi76  1  0.44444444  0.55555556  0.80581022  1
  Bi  Bi77  1  0.44444444  0.88888889  0.80581022  1
  Bi  Bi78  1  0.77777778  0.22222222  0.80581022  1
  Bi  Bi79  1  0.77777778  0.55555556  0.80581022  1
  Bi  Bi80  1  0.77777778  0.88888889  0.80581022  1
  Bi  Bi81  1  -0.00000000  0.00000000  0.85052447  1
  Bi  Bi82  1  0.00000000  0.33333333  0.85052447  1
  Bi  Bi83  1  -0.00000000  0.66666667  0.85052447  1
  Bi  Bi84  1  0.33333333  0.00000000  0.85052447  1
  Bi  Bi85  1  0.33333333  0.33333333  0.85052447  1
  Bi  Bi86  1  0.33333333  0.66666667  0.85052447  1
  Bi  Bi87  1  0.66666667  0.00000000  0.85052447  1
  Bi  Bi88  1  0.66666667  0.33333333  0.85052447  1
  Bi  Bi89  1  0.66666667  0.66666667  0.85052447  1
  Bi  Bi90  1  0.22222222  0.11111111  1.18385781  1
  Bi  Bi91  1  0.22222222  0.44444444  1.18385781  1
  Bi  Bi92  1  0.22222222  0.77777778  1.18385781  1
  Bi  Bi93  1  0.55555556  0.11111111  1.18385781  1
  Bi  Bi94  1  0.55555556  0.44444444  1.18385781  1
  Bi  Bi95  1  0.55555556  0.77777778  1.18385781  1
  Bi  Bi96  1  0.88888889  0.11111111  1.18385781  1
  Bi  Bi97  1  0.88888889  0.44444444  1.18385781  1
  Bi  Bi98  1  0.88888889  0.77777778  1.18385781  1
  Bi  Bi99  1  0.11111111  0.22222222  1.51719114  1
  Bi  Bi100  1  0.11111111  0.55555556  1.51719114  1
  Bi  Bi101  1  0.11111111  0.88888889  1.51719114  1
  Bi  Bi102  1  0.44444444  0.22222222  1.51719114  1
  Bi  Bi103  1  0.44444444  0.55555556  1.51719114  1
  Bi  Bi104  1  0.44444444  0.88888889  1.51719114  1
  Bi  Bi105  1  0.77777778  0.22222222  1.51719114  1
  Bi  Bi106  1  0.77777778  0.55555556  1.51719114  1
  Bi  Bi107  1  0.77777778  0.88888889  1.51719114  1
  O  O108  1  0.02127001  0.12606726  0.42160976  1
  O  O109  1  0.02127001  0.45940059  0.42160976  1
  O  O110  1  0.02127001  0.79273393  0.42160976  1
  O  O111  1  0.35460334  0.12606726  0.42160976  1
  O  O112  1  0.35460334  0.45940059  0.42160976  1
  O  O113  1  0.35460334  0.79273393  0.42160976  1
  O  O114  1  0.68793668  0.12606726  0.42160976  1
  O  O115  1  0.68793668  0.45940059  0.42160976  1
  O  O116  1  0.68793668  0.79273393  0.42160976  1
  O  O117  1  0.24349223  0.23717837  0.75494310  1
  O  O118  1  0.24349223  0.57051171  0.75494310  1
  O  O119  1  0.24349223  0.90384504  0.75494310  1
  O  O120  1  0.57682556  0.23717837  0.75494310  1
  O  O121  1  0.57682556  0.57051171  0.75494310  1
  O  O122  1  0.57682556  0.90384504  0.75494310  1
  O  O123  1  0.91015890  0.23717837  0.75494310  1
  O  O124  1  0.91015890  0.57051171  0.75494310  1
  O  O125  1  0.91015890  0.90384504  0.75494310  1
  O  O126  1  0.13238112  0.34828948  1.08827643  1
  O  O127  1  0.13238112  0.68162282  1.08827643  1
  O  O128  1  0.13238112  1.01495615  1.08827643  1
  O  O129  1  0.46571445  0.34828948  1.08827643  1
  O  O130  1  0.46571445  0.68162282  1.08827643  1
  O  O131  1  0.46571445  1.01495615  1.08827643  1
  O  O132  1  0.79904779  0.34828948  1.08827643  1
  O  O133  1  0.79904779  0.68162282  1.08827643  1
  O  O134  1  0.79904779  1.01495615  1.08827643  1
  O  O135  1  0.10479725  -0.02127001  0.42160976  1
  O  O136  1  0.10479725  0.31206332  0.42160976  1
  O  O137  1  0.10479725  0.64539666  0.42160976  1
  O  O138  1  0.43813059  -0.02127001  0.42160976  1
  O  O139  1  0.43813059  0.31206332  0.42160976  1
  O  O140  1  0.43813059  0.64539666  0.42160976  1
  O  O141  1  0.77146392  -0.02127001  0.42160976  1
  O  O142  1  0.77146392  0.31206332  0.42160976  1
  O  O143  1  0.77146392  0.64539666  0.42160976  1
  O  O144  1  0.32701947  0.08984110  0.75494310  1
  O  O145  1  0.32701947  0.42317444  0.75494310  1
  O  O146  1  0.32701947  0.75650777  0.75494310  1
  O  O147  1  0.66035281  0.08984110  0.75494310  1
  O  O148  1  0.66035281  0.42317444  0.75494310  1
  O  O149  1  0.66035281  0.75650777  0.75494310  1
  O  O150  1  0.99368614  0.08984110  0.75494310  1
  O  O151  1  0.99368614  0.42317444  0.75494310  1
  O  O152  1  0.99368614  0.75650777  0.75494310  1
  O  O153  1  0.21590836  0.20095221  1.08827643  1
  O  O154  1  0.21590836  0.53428555  1.08827643  1
  O  O155  1  0.21590836  0.86761888  1.08827643  1
  O  O156  1  0.54924170  0.20095221  1.08827643  1
  O  O157  1  0.54924170  0.53428555  1.08827643  1
  O  O158  1  0.54924170  0.86761888  1.08827643  1
  O  O159  1  0.88257503  0.20095221  1.08827643  1
  O  O160  1  0.88257503  0.53428555  1.08827643  1
  O  O161  1  0.88257503  0.86761888  1.08827643  1
  O  O162  1  -0.12606726  -0.10479725  0.42160976  1
  O  O163  1  -0.12606726  0.22853608  0.42160976  1
  O  O164  1  -0.12606726  0.56186941  0.42160976  1
  O  O165  1  0.20726607  -0.10479725  0.42160976  1
  O  O166  1  0.20726607  0.22853608  0.42160976  1
  O  O167  1  0.20726607  0.56186941  0.42160976  1
  O  O168  1  0.54059941  -0.10479725  0.42160976  1
  O  O169  1  0.54059941  0.22853608  0.42160976  1
  O  O170  1  0.54059941  0.56186941  0.42160976  1
  O  O171  1  0.09615496  0.00631386  0.75494310  1
  O  O172  1  0.09615496  0.33964719  0.75494310  1
  O  O173  1  0.09615496  0.67298053  0.75494310  1
  O  O174  1  0.42948829  0.00631386  0.75494310  1
  O  O175  1  0.42948829  0.33964719  0.75494310  1
  O  O176  1  0.42948829  0.67298053  0.75494310  1
  O  O177  1  0.76282163  0.00631386  0.75494310  1
  O  O178  1  0.76282163  0.33964719  0.75494310  1
  O  O179  1  0.76282163  0.67298053  0.75494310  1
  O  O180  1  -0.01495615  0.11742497  1.08827643  1
  O  O181  1  -0.01495615  0.45075830  1.08827643  1
  O  O182  1  -0.01495615  0.78409164  1.08827643  1
  O  O183  1  0.31837718  0.11742497  1.08827643  1
  O  O184  1  0.31837718  0.45075830  1.08827643  1
  O  O185  1  0.31837718  0.78409164  1.08827643  1
  O  O186  1  0.65171052  0.11742497  1.08827643  1
  O  O187  1  0.65171052  0.45075830  1.08827643  1
  O  O188  1  0.65171052  0.78409164  1.08827643  1
  O  O189  1  0.12761585  0.12196795  0.58304330  1
  O  O190  1  0.12761585  0.45530128  0.58304330  1
  O  O191  1  0.12761585  0.78863461  0.58304330  1
  O  O192  1  0.46094918  0.12196795  0.58304330  1
  O  O193  1  0.46094918  0.45530128  0.58304330  1
  O  O194  1  0.46094918  0.78863461  0.58304330  1
  O  O195  1  0.79428252  0.12196795  0.58304330  1
  O  O196  1  0.79428252  0.45530128  0.58304330  1
  O  O197  1  0.79428252  0.78863461  0.58304330  1
  O  O198  1  0.34983807  0.23307906  0.91637663  1
  O  O199  1  0.34983807  0.56641239  0.91637663  1
  O  O200  1  0.34983807  0.89974573  0.91637663  1
  O  O201  1  0.68317141  0.23307906  0.91637663  1
  O  O202  1  0.68317141  0.56641239  0.91637663  1
  O  O203  1  0.68317141  0.89974573  0.91637663  1
  O  O204  1  1.01650474  0.23307906  0.91637663  1
  O  O205  1  1.01650474  0.56641239  0.91637663  1
  O  O206  1  1.01650474  0.89974573  0.91637663  1
  O  O207  1  0.23872696  0.34419017  1.24970997  1
  O  O208  1  0.23872696  0.67752350  1.24970997  1
  O  O209  1  0.23872696  1.01085684  1.24970997  1
  O  O210  1  0.57206030  0.34419017  1.24970997  1
  O  O211  1  0.57206030  0.67752350  1.24970997  1
  O  O212  1  0.57206030  1.01085684  1.24970997  1
  O  O213  1  0.90539363  0.34419017  1.24970997  1
  O  O214  1  0.90539363  0.67752350  1.24970997  1
  O  O215  1  0.90539363  1.01085684  1.24970997  1
  O  O216  1  -0.12196795  0.00564790  0.58304330  1
  O  O217  1  -0.12196795  0.33898124  0.58304330  1
  O  O218  1  -0.12196795  0.67231457  0.58304330  1
  O  O219  1  0.21136539  0.00564790  0.58304330  1
  O  O220  1  0.21136539  0.33898124  0.58304330  1
  O  O221  1  0.21136539  0.67231457  0.58304330  1
  O  O222  1  0.54469872  0.00564790  0.58304330  1
  O  O223  1  0.54469872  0.33898124  0.58304330  1
  O  O224  1  0.54469872  0.67231457  0.58304330  1
  O  O225  1  0.10025427  0.11675901  0.91637663  1
  O  O226  1  0.10025427  0.45009235  0.91637663  1
  O  O227  1  0.10025427  0.78342568  0.91637663  1
  O  O228  1  0.43358761  0.11675901  0.91637663  1
  O  O229  1  0.43358761  0.45009235  0.91637663  1
  O  O230  1  0.43358761  0.78342568  0.91637663  1
  O  O231  1  0.76692094  0.11675901  0.91637663  1
  O  O232  1  0.76692094  0.45009235  0.91637663  1
  O  O233  1  0.76692094  0.78342568  0.91637663  1
  O  O234  1  -0.01085684  0.22787013  1.24970997  1
  O  O235  1  -0.01085684  0.56120346  1.24970997  1
  O  O236  1  -0.01085684  0.89453679  1.24970997  1
  O  O237  1  0.32247650  0.22787013  1.24970997  1
  O  O238  1  0.32247650  0.56120346  1.24970997  1
  O  O239  1  0.32247650  0.89453679  1.24970997  1
  O  O240  1  0.65580983  0.22787013  1.24970997  1
  O  O241  1  0.65580983  0.56120346  1.24970997  1
  O  O242  1  0.65580983  0.89453679  1.24970997  1
  O  O243  1  -0.00564790  -0.12761585  0.58304330  1
  O  O244  1  -0.00564790  0.20571748  0.58304330  1
  O  O245  1  -0.00564790  0.53905082  0.58304330  1
  O  O246  1  0.32768543  -0.12761585  0.58304330  1
  O  O247  1  0.32768543  0.20571748  0.58304330  1
  O  O248  1  0.32768543  0.53905082  0.58304330  1
  O  O249  1  0.66101876  -0.12761585  0.58304330  1
  O  O250  1  0.66101876  0.20571748  0.58304330  1
  O  O251  1  0.66101876  0.53905082  0.58304330  1
  O  O252  1  0.21657432  -0.01650474  0.91637663  1
  O  O253  1  0.21657432  0.31682859  0.91637663  1
  O  O254  1  0.21657432  0.65016193  0.91637663  1
  O  O255  1  0.54990765  -0.01650474  0.91637663  1
  O  O256  1  0.54990765  0.31682859  0.91637663  1
  O  O257  1  0.54990765  0.65016193  0.91637663  1
  O  O258  1  0.88324099  -0.01650474  0.91637663  1
  O  O259  1  0.88324099  0.31682859  0.91637663  1
  O  O260  1  0.88324099  0.65016193  0.91637663  1
  O  O261  1  0.10546321  0.09460637  1.24970997  1
  O  O262  1  0.10546321  0.42793970  1.24970997  1
  O  O263  1  0.10546321  0.76127304  1.24970997  1
  O  O264  1  0.43879654  0.09460637  1.24970997  1
  O  O265  1  0.43879654  0.42793970  1.24970997  1
  O  O266  1  0.43879654  0.76127304  1.24970997  1
  O  O267  1  0.77212987  0.09460637  1.24970997  1
  O  O268  1  0.77212987  0.42793970  1.24970997  1
  O  O269  1  0.77212987  0.76127304  1.24970997  1
