# generated using pymatgen
data_Rb2MoO4
_symmetry_space_group_name_H-M   'P 1'
_cell_length_a   12.78729351
_cell_length_b   12.45580380
_cell_length_c   15.67000925
_cell_angle_alpha   90.00000000
_cell_angle_beta   115.71747706
_cell_angle_gamma   90.00000000
_symmetry_Int_Tables_number   1
_chemical_formula_structural   Rb2MoO4
_chemical_formula_sum   'Rb32 Mo16 O64'
_cell_volume   2248.62885761
_cell_formula_units_Z   16
loop_
 _symmetry_equiv_pos_site_id
 _symmetry_equiv_pos_as_xyz
  1  'x, y, z'
loop_
 _atom_site_type_symbol
 _atom_site_label
 _atom_site_symmetry_multiplicity
 _atom_site_fract_x
 _atom_site_fract_y
 _atom_site_fract_z
 _atom_site_occupancy
  Rb  Rb0  1  0.15653595  -0.00000000  0.37361396  1
  Rb  Rb1  1  0.15653595  -0.00000000  0.87361396  1
  Rb  Rb2  1  0.15653595  0.50000000  0.37361396  1
  Rb  Rb3  1  0.15653595  0.50000000  0.87361396  1
  Rb  Rb4  1  0.65653595  0.25000000  0.37361396  1
  Rb  Rb5  1  0.65653595  0.25000000  0.87361396  1
  Rb  Rb6  1  0.65653595  0.75000000  0.37361396  1
  Rb  Rb7  1  0.65653595  0.75000000  0.87361396  1
  Rb  Rb8  1  0.84346405  0.00000000  0.12638604  1
  Rb  Rb9  1  0.84346405  0.00000000  0.62638604  1
  Rb  Rb10  1  0.84346405  0.50000000  0.12638604  1
  Rb  Rb11  1  0.84346405  0.50000000  0.62638604  1
  Rb  Rb12  1  1.34346405  0.25000000  0.12638604  1
  Rb  Rb13  1  1.34346405  0.25000000  0.62638604  1
  Rb  Rb14  1  1.34346405  0.75000000  0.12638604  1
  Rb  Rb15  1  1.34346405  0.75000000  0.62638604  1
  Rb  Rb16  1  0.51324387  0.00000000  0.11933047  1
  Rb  Rb17  1  0.51324387  0.00000000  0.61933047  1
  Rb  Rb18  1  0.51324387  0.50000000  0.11933047  1
  Rb  Rb19  1  0.51324387  0.50000000  0.61933047  1
  Rb  Rb20  1  1.01324387  0.25000000  0.11933047  1
  Rb  Rb21  1  1.01324387  0.25000000  0.61933047  1
  Rb  Rb22  1  1.01324387  0.75000000  0.11933047  1
  Rb  Rb23  1  1.01324387  0.75000000  0.61933047  1
  Rb  Rb24  1  0.48675613  -0.00000000  0.38066953  1
  Rb  Rb25  1  0.48675613  -0.00000000  0.88066953  1
  Rb  Rb26  1  0.48675613  0.50000000  0.38066953  1
  Rb  Rb27  1  0.48675613  0.50000000  0.88066953  1
  Rb  Rb28  1  0.98675613  0.25000000  0.38066953  1
  Rb  Rb29  1  0.98675613  0.25000000  0.88066953  1
  Rb  Rb30  1  0.98675613  0.75000000  0.38066953  1
  Rb  Rb31  1  0.98675613  0.75000000  0.88066953  1
  Mo  Mo32  1  0.82534907  0.00000000  0.38897955  1
  Mo  Mo33  1  0.82534907  0.00000000  0.88897955  1
  Mo  Mo34  1  0.82534907  0.50000000  0.38897955  1
  Mo  Mo35  1  0.82534907  0.50000000  0.88897955  1
  Mo  Mo36  1  1.32534907  0.25000000  0.38897955  1
  Mo  Mo37  1  1.32534907  0.25000000  0.88897955  1
  Mo  Mo38  1  1.32534907  0.75000000  0.38897955  1
  Mo  Mo39  1  1.32534907  0.75000000  0.88897955  1
  Mo  Mo40  1  0.17465093  -0.00000000  0.11102045  1
  Mo  Mo41  1  0.17465093  -0.00000000  0.61102045  1
  Mo  Mo42  1  0.17465093  0.50000000  0.11102045  1
  Mo  Mo43  1  0.17465093  0.50000000  0.61102045  1
  Mo  Mo44  1  0.67465093  0.25000000  0.11102045  1
  Mo  Mo45  1  0.67465093  0.25000000  0.61102045  1
  Mo  Mo46  1  0.67465093  0.75000000  0.11102045  1
  Mo  Mo47  1  0.67465093  0.75000000  0.61102045  1
  O  O48  1  0.35840174  0.13257048  0.46190084  1
  O  O49  1  0.35840174  0.13257048  0.96190084  1
  O  O50  1  0.35840174  0.63257048  0.46190084  1
  O  O51  1  0.35840174  0.63257048  0.96190084  1
  O  O52  1  0.85840174  0.38257048  0.46190084  1
  O  O53  1  0.85840174  0.38257048  0.96190084  1
  O  O54  1  0.85840174  0.88257048  0.46190084  1
  O  O55  1  0.85840174  0.88257048  0.96190084  1
  O  O56  1  0.64159826  0.13257048  0.03809916  1
  O  O57  1  0.64159826  0.13257048  0.53809916  1
  O  O58  1  0.64159826  0.63257048  0.03809916  1
  O  O59  1  0.64159826  0.63257048  0.53809916  1
  O  O60  1  1.14159826  0.38257048  0.03809916  1
  O  O61  1  1.14159826  0.38257048  0.53809916  1
  O  O62  1  1.14159826  0.88257048  0.03809916  1
  O  O63  1  1.14159826  0.88257048  0.53809916  1
  O  O64  1  0.64159826  -0.13257048  0.03809916  1
  O  O65  1  0.64159826  -0.13257048  0.53809916  1
  O  O66  1  0.64159826  0.36742952  0.03809916  1
  O  O67  1  0.64159826  0.36742952  0.53809916  1
  O  O68  1  1.14159826  0.11742952  0.03809916  1
  O  O69  1  1.14159826  0.11742952  0.53809916  1
  O  O70  1  1.14159826  0.61742952  0.03809916  1
  O  O71  1  1.14159826  0.61742952  0.53809916  1
  O  O72  1  0.35840174  -0.13257048  0.46190084  1
  O  O73  1  0.35840174  -0.13257048  0.96190084  1
  O  O74  1  0.35840174  0.36742952  0.46190084  1
  O  O75  1  0.35840174  0.36742952  0.96190084  1
  O  O76  1  0.85840174  0.11742952  0.46190084  1
  O  O77  1  0.85840174  0.11742952  0.96190084  1
  O  O78  1  0.85840174  0.61742952  0.46190084  1
  O  O79  1  0.85840174  0.61742952  0.96190084  1
  O  O80  1  0.32775929  0.00000000  0.18649814  1
  O  O81  1  0.32775929  0.00000000  0.68649814  1
  O  O82  1  0.32775929  0.50000000  0.18649814  1
  O  O83  1  0.32775929  0.50000000  0.68649814  1
  O  O84  1  0.82775929  0.25000000  0.18649814  1
  O  O85  1  0.82775929  0.25000000  0.68649814  1
  O  O86  1  0.82775929  0.75000000  0.18649814  1
  O  O87  1  0.82775929  0.75000000  0.68649814  1
  O  O88  1  0.67224071  0.00000000  0.31350186  1
  O  O89  1  0.67224071  0.00000000  0.81350186  1
  O  O90  1  0.67224071  0.50000000  0.31350186  1
  O  O91  1  0.67224071  0.50000000  0.81350186  1
  O  O92  1  1.17224071  0.25000000  0.31350186  1
  O  O93  1  1.17224071  0.25000000  0.81350186  1
  O  O94  1  1.17224071  0.75000000  0.31350186  1
  O  O95  1  1.17224071  0.75000000  0.81350186  1
  O  O96  1  0.90937802  0.00000000  0.32238130  1
  O  O97  1  0.90937802  0.00000000  0.82238130  1
  O  O98  1  0.90937802  0.50000000  0.32238130  1
  O  O99  1  0.90937802  0.50000000  0.82238130  1
  O  O100  1  1.40937802  0.25000000  0.32238130  1
  O  O101  1  1.40937802  0.25000000  0.82238130  1
  O  O102  1  1.40937802  0.75000000  0.32238130  1
  O  O103  1  1.40937802  0.75000000  0.82238130  1
  O  O104  1  0.09062198  0.00000000  0.17761870  1
  O  O105  1  0.09062198  0.00000000  0.67761870  1
  O  O106  1  0.09062198  0.50000000  0.17761870  1
  O  O107  1  0.09062198  0.50000000  0.67761870  1
  O  O108  1  0.59062198  0.25000000  0.17761870  1
  O  O109  1  0.59062198  0.25000000  0.67761870  1
  O  O110  1  0.59062198  0.75000000  0.17761870  1
  O  O111  1  0.59062198  0.75000000  0.67761870  1
