# generated using pymatgen
data_AlAsO4
_symmetry_space_group_name_H-M   'P 1'
_cell_length_a   15.36748686
_cell_length_b   15.36748686
_cell_length_c   15.13167249
_cell_angle_alpha   90.00000000
_cell_angle_beta   90.00000000
_cell_angle_gamma   90.00000000
_symmetry_Int_Tables_number   1
_chemical_formula_structural   AlAsO4
_chemical_formula_sum   'Al36 As36 O144'
_cell_volume   3573.49051811
_cell_formula_units_Z   36
loop_
 _symmetry_equiv_pos_site_id
 _symmetry_equiv_pos_as_xyz
  1  'x, y, z'
loop_
 _atom_site_type_symbol
 _atom_site_label
 _atom_site_symmetry_multiplicity
 _atom_site_fract_x
 _atom_site_fract_y
 _atom_site_fract_z
 _atom_site_occupancy
  Al  Al0  1  0.00000000  0.00000000  0.00000000  1
  Al  Al1  1  0.00000000  0.00000000  0.50000000  1
  Al  Al2  1  0.00000000  0.33333333  0.00000000  1
  Al  Al3  1  0.00000000  0.33333333  0.50000000  1
  Al  Al4  1  0.00000000  0.66666667  0.00000000  1
  Al  Al5  1  0.00000000  0.66666667  0.50000000  1
  Al  Al6  1  0.33333333  0.00000000  0.00000000  1
  Al  Al7  1  0.33333333  0.00000000  0.50000000  1
  Al  Al8  1  0.33333333  0.33333333  0.00000000  1
  Al  Al9  1  0.33333333  0.33333333  0.50000000  1
  Al  Al10  1  0.33333333  0.66666667  0.00000000  1
  Al  Al11  1  0.33333333  0.66666667  0.50000000  1
  Al  Al12  1  0.66666667  0.00000000  0.00000000  1
  Al  Al13  1  0.66666667  0.00000000  0.50000000  1
  Al  Al14  1  0.66666667  0.33333333  0.00000000  1
  Al  Al15  1  0.66666667  0.33333333  0.50000000  1
  Al  Al16  1  0.66666667  0.66666667  0.00000000  1
  Al  Al17  1  0.66666667  0.66666667  0.50000000  1
  Al  Al18  1  0.16666667  0.16666667  0.25000000  1
  Al  Al19  1  0.16666667  0.16666667  0.75000000  1
  Al  Al20  1  0.16666667  0.50000000  0.25000000  1
  Al  Al21  1  0.16666667  0.50000000  0.75000000  1
  Al  Al22  1  0.16666667  0.83333333  0.25000000  1
  Al  Al23  1  0.16666667  0.83333333  0.75000000  1
  Al  Al24  1  0.50000000  0.16666667  0.25000000  1
  Al  Al25  1  0.50000000  0.16666667  0.75000000  1
  Al  Al26  1  0.50000000  0.50000000  0.25000000  1
  Al  Al27  1  0.50000000  0.50000000  0.75000000  1
  Al  Al28  1  0.50000000  0.83333333  0.25000000  1
  Al  Al29  1  0.50000000  0.83333333  0.75000000  1
  Al  Al30  1  0.83333333  0.16666667  0.25000000  1
  Al  Al31  1  0.83333333  0.16666667  0.75000000  1
  Al  Al32  1  0.83333333  0.50000000  0.25000000  1
  Al  Al33  1  0.83333333  0.50000000  0.75000000  1
  Al  Al34  1  0.83333333  0.83333333  0.25000000  1
  Al  Al35  1  0.83333333  0.83333333  0.75000000  1
  As  As36  1  0.00000000  0.16666667  0.12500000  1
  As  As37  1  0.00000000  0.16666667  0.62500000  1
  As  As38  1  0.00000000  0.50000000  0.12500000  1
  As  As39  1  0.00000000  0.50000000  0.62500000  1
  As  As40  1  0.00000000  0.83333333  0.12500000  1
  As  As41  1  0.00000000  0.83333333  0.62500000  1
  As  As42  1  0.33333333  0.16666667  0.12500000  1
  As  As43  1  0.33333333  0.16666667  0.62500000  1
  As  As44  1  0.33333333  0.50000000  0.12500000  1
  As  As45  1  0.33333333  0.50000000  0.62500000  1
  As  As46  1  0.33333333  0.83333333  0.12500000  1
  As  As47  1  0.33333333  0.83333333  0.62500000  1
  As  As48  1  0.66666667  0.16666667  0.12500000  1
  As  As49  1  0.66666667  0.16666667  0.62500000  1
  As  As50  1  0.66666667  0.50000000  0.12500000  1
  As  As51  1  0.66666667  0.50000000  0.62500000  1
  As  As52  1  0.66666667  0.83333333  0.12500000  1
  As  As53  1  0.66666667  0.83333333  0.62500000  1
  As  As54  1  0.16666667  0.33333333  0.37500000  1
  As  As55  1  0.16666667  0.33333333  0.87500000  1
  As  As56  1  0.16666667  0.66666667  0.37500000  1
  As  As57  1  0.16666667  0.66666667  0.87500000  1
  As  As58  1  0.16666667  1.00000000  0.37500000  1
  As  As59  1  0.16666667  1.00000000  0.87500000  1
  As  As60  1  0.50000000  0.33333333  0.37500000  1
  As  As61  1  0.50000000  0.33333333  0.87500000  1
  As  As62  1  0.50000000  0.66666667  0.37500000  1
  As  As63  1  0.50000000  0.66666667  0.87500000  1
  As  As64  1  0.50000000  1.00000000  0.37500000  1
  As  As65  1  0.50000000  1.00000000  0.87500000  1
  As  As66  1  0.83333333  0.33333333  0.37500000  1
  As  As67  1  0.83333333  0.33333333  0.87500000  1
  As  As68  1  0.83333333  0.66666667  0.37500000  1
  As  As69  1  0.83333333  0.66666667  0.87500000  1
  As  As70  1  0.83333333  1.00000000  0.37500000  1
  As  As71  1  0.83333333  1.00000000  0.87500000  1
  O  O72  1  0.24744608  0.04339192  -0.06261289  1
  O  O73  1  0.24744608  0.04339192  0.43738711  1
  O  O74  1  0.24744608  0.37672525  -0.06261289  1
  O  O75  1  0.24744608  0.37672525  0.43738711  1
  O  O76  1  0.24744608  0.71005858  -0.06261289  1
  O  O77  1  0.24744608  0.71005858  0.43738711  1
  O  O78  1  0.58077942  0.04339192  -0.06261289  1
  O  O79  1  0.58077942  0.04339192  0.43738711  1
  O  O80  1  0.58077942  0.37672525  -0.06261289  1
  O  O81  1  0.58077942  0.37672525  0.43738711  1
  O  O82  1  0.58077942  0.71005858  -0.06261289  1
  O  O83  1  0.58077942  0.71005858  0.43738711  1
  O  O84  1  0.91411275  0.04339192  -0.06261289  1
  O  O85  1  0.91411275  0.04339192  0.43738711  1
  O  O86  1  0.91411275  0.37672525  -0.06261289  1
  O  O87  1  0.91411275  0.37672525  0.43738711  1
  O  O88  1  0.91411275  0.71005858  -0.06261289  1
  O  O89  1  0.91411275  0.71005858  0.43738711  1
  O  O90  1  0.41411275  0.21005858  0.18738711  1
  O  O91  1  0.41411275  0.21005858  0.68738711  1
  O  O92  1  0.41411275  0.54339192  0.18738711  1
  O  O93  1  0.41411275  0.54339192  0.68738711  1
  O  O94  1  0.41411275  0.87672525  0.18738711  1
  O  O95  1  0.41411275  0.87672525  0.68738711  1
  O  O96  1  0.74744608  0.21005858  0.18738711  1
  O  O97  1  0.74744608  0.21005858  0.68738711  1
  O  O98  1  0.74744608  0.54339192  0.18738711  1
  O  O99  1  0.74744608  0.54339192  0.68738711  1
  O  O100  1  0.74744608  0.87672525  0.18738711  1
  O  O101  1  0.74744608  0.87672525  0.68738711  1
  O  O102  1  1.08077942  0.21005858  0.18738711  1
  O  O103  1  1.08077942  0.21005858  0.68738711  1
  O  O104  1  1.08077942  0.54339192  0.18738711  1
  O  O105  1  1.08077942  0.54339192  0.68738711  1
  O  O106  1  1.08077942  0.87672525  0.18738711  1
  O  O107  1  1.08077942  0.87672525  0.68738711  1
  O  O108  1  0.12327475  0.08077942  0.31261289  1
  O  O109  1  0.12327475  0.08077942  0.81261289  1
  O  O110  1  0.12327475  0.41411275  0.31261289  1
  O  O111  1  0.12327475  0.41411275  0.81261289  1
  O  O112  1  0.12327475  0.74744608  0.31261289  1
  O  O113  1  0.12327475  0.74744608  0.81261289  1
  O  O114  1  0.45660808  0.08077942  0.31261289  1
  O  O115  1  0.45660808  0.08077942  0.81261289  1
  O  O116  1  0.45660808  0.41411275  0.31261289  1
  O  O117  1  0.45660808  0.41411275  0.81261289  1
  O  O118  1  0.45660808  0.74744608  0.31261289  1
  O  O119  1  0.45660808  0.74744608  0.81261289  1
  O  O120  1  0.78994142  0.08077942  0.31261289  1
  O  O121  1  0.78994142  0.08077942  0.81261289  1
  O  O122  1  0.78994142  0.41411275  0.31261289  1
  O  O123  1  0.78994142  0.41411275  0.81261289  1
  O  O124  1  0.78994142  0.74744608  0.31261289  1
  O  O125  1  0.78994142  0.74744608  0.81261289  1
  O  O126  1  0.28994142  0.24744608  0.56261289  1
  O  O127  1  0.28994142  0.24744608  1.06261289  1
  O  O128  1  0.28994142  0.58077942  0.56261289  1
  O  O129  1  0.28994142  0.58077942  1.06261289  1
  O  O130  1  0.28994142  0.91411275  0.56261289  1
  O  O131  1  0.28994142  0.91411275  1.06261289  1
  O  O132  1  0.62327475  0.24744608  0.56261289  1
  O  O133  1  0.62327475  0.24744608  1.06261289  1
  O  O134  1  0.62327475  0.58077942  0.56261289  1
  O  O135  1  0.62327475  0.58077942  1.06261289  1
  O  O136  1  0.62327475  0.91411275  0.56261289  1
  O  O137  1  0.62327475  0.91411275  1.06261289  1
  O  O138  1  0.95660808  0.24744608  0.56261289  1
  O  O139  1  0.95660808  0.24744608  1.06261289  1
  O  O140  1  0.95660808  0.58077942  0.56261289  1
  O  O141  1  0.95660808  0.58077942  1.06261289  1
  O  O142  1  0.95660808  0.91411275  0.56261289  1
  O  O143  1  0.95660808  0.91411275  1.06261289  1
  O  O144  1  -0.08077942  0.12327475  0.18738711  1
  O  O145  1  -0.08077942  0.12327475  0.68738711  1
  O  O146  1  -0.08077942  0.45660808  0.18738711  1
  O  O147  1  -0.08077942  0.45660808  0.68738711  1
  O  O148  1  -0.08077942  0.78994142  0.18738711  1
  O  O149  1  -0.08077942  0.78994142  0.68738711  1
  O  O150  1  0.25255392  0.12327475  0.18738711  1
  O  O151  1  0.25255392  0.12327475  0.68738711  1
  O  O152  1  0.25255392  0.45660808  0.18738711  1
  O  O153  1  0.25255392  0.45660808  0.68738711  1
  O  O154  1  0.25255392  0.78994142  0.18738711  1
  O  O155  1  0.25255392  0.78994142  0.68738711  1
  O  O156  1  0.58588725  0.12327475  0.18738711  1
  O  O157  1  0.58588725  0.12327475  0.68738711  1
  O  O158  1  0.58588725  0.45660808  0.18738711  1
  O  O159  1  0.58588725  0.45660808  0.68738711  1
  O  O160  1  0.58588725  0.78994142  0.18738711  1
  O  O161  1  0.58588725  0.78994142  0.68738711  1
  O  O162  1  0.08588725  0.28994142  0.43738711  1
  O  O163  1  0.08588725  0.28994142  0.93738711  1
  O  O164  1  0.08588725  0.62327475  0.43738711  1
  O  O165  1  0.08588725  0.62327475  0.93738711  1
  O  O166  1  0.08588725  0.95660808  0.43738711  1
  O  O167  1  0.08588725  0.95660808  0.93738711  1
  O  O168  1  0.41922058  0.28994142  0.43738711  1
  O  O169  1  0.41922058  0.28994142  0.93738711  1
  O  O170  1  0.41922058  0.62327475  0.43738711  1
  O  O171  1  0.41922058  0.62327475  0.93738711  1
  O  O172  1  0.41922058  0.95660808  0.43738711  1
  O  O173  1  0.41922058  0.95660808  0.93738711  1
  O  O174  1  0.75255392  0.28994142  0.43738711  1
  O  O175  1  0.75255392  0.28994142  0.93738711  1
  O  O176  1  0.75255392  0.62327475  0.43738711  1
  O  O177  1  0.75255392  0.62327475  0.93738711  1
  O  O178  1  0.75255392  0.95660808  0.43738711  1
  O  O179  1  0.75255392  0.95660808  0.93738711  1
  O  O180  1  0.04339192  0.08588725  0.06261289  1
  O  O181  1  0.04339192  0.08588725  0.56261289  1
  O  O182  1  0.04339192  0.41922058  0.06261289  1
  O  O183  1  0.04339192  0.41922058  0.56261289  1
  O  O184  1  0.04339192  0.75255392  0.06261289  1
  O  O185  1  0.04339192  0.75255392  0.56261289  1
  O  O186  1  0.37672525  0.08588725  0.06261289  1
  O  O187  1  0.37672525  0.08588725  0.56261289  1
  O  O188  1  0.37672525  0.41922058  0.06261289  1
  O  O189  1  0.37672525  0.41922058  0.56261289  1
  O  O190  1  0.37672525  0.75255392  0.06261289  1
  O  O191  1  0.37672525  0.75255392  0.56261289  1
  O  O192  1  0.71005858  0.08588725  0.06261289  1
  O  O193  1  0.71005858  0.08588725  0.56261289  1
  O  O194  1  0.71005858  0.41922058  0.06261289  1
  O  O195  1  0.71005858  0.41922058  0.56261289  1
  O  O196  1  0.71005858  0.75255392  0.06261289  1
  O  O197  1  0.71005858  0.75255392  0.56261289  1
  O  O198  1  0.21005858  0.25255392  0.31261289  1
  O  O199  1  0.21005858  0.25255392  0.81261289  1
  O  O200  1  0.21005858  0.58588725  0.31261289  1
  O  O201  1  0.21005858  0.58588725  0.81261289  1
  O  O202  1  0.21005858  0.91922058  0.31261289  1
  O  O203  1  0.21005858  0.91922058  0.81261289  1
  O  O204  1  0.54339192  0.25255392  0.31261289  1
  O  O205  1  0.54339192  0.25255392  0.81261289  1
  O  O206  1  0.54339192  0.58588725  0.31261289  1
  O  O207  1  0.54339192  0.58588725  0.81261289  1
  O  O208  1  0.54339192  0.91922058  0.31261289  1
  O  O209  1  0.54339192  0.91922058  0.81261289  1
  O  O210  1  0.87672525  0.25255392  0.31261289  1
  O  O211  1  0.87672525  0.25255392  0.81261289  1
  O  O212  1  0.87672525  0.58588725  0.31261289  1
  O  O213  1  0.87672525  0.58588725  0.81261289  1
  O  O214  1  0.87672525  0.91922058  0.31261289  1
  O  O215  1  0.87672525  0.91922058  0.81261289  1
