# generated using pymatgen
data_Rb2Li2GeO4
_symmetry_space_group_name_H-M   'P 1'
_cell_length_a   16.86963917
_cell_length_b   17.24088004
_cell_length_c   17.57911678
_cell_angle_alpha   83.30515004
_cell_angle_beta   73.83800197
_cell_angle_gamma   84.93425527
_symmetry_Int_Tables_number   1
_chemical_formula_structural   Rb2Li2GeO4
_chemical_formula_sum   'Rb72 Li72 Ge36 O144'
_cell_volume   4868.92220024
_cell_formula_units_Z   36
loop_
 _symmetry_equiv_pos_site_id
 _symmetry_equiv_pos_as_xyz
  1  'x, y, z'
loop_
 _atom_site_type_symbol
 _atom_site_label
 _atom_site_symmetry_multiplicity
 _atom_site_fract_x
 _atom_site_fract_y
 _atom_site_fract_z
 _atom_site_occupancy
  Rb  Rb0  1  0.15684081  0.28306554  0.36481429  1
  Rb  Rb1  1  0.15684081  0.28306554  0.86481429  1
  Rb  Rb2  1  0.15684081  0.61639888  0.36481429  1
  Rb  Rb3  1  0.15684081  0.61639888  0.86481429  1
  Rb  Rb4  1  0.15684081  0.94973221  0.36481429  1
  Rb  Rb5  1  0.15684081  0.94973221  0.86481429  1
  Rb  Rb6  1  0.49017414  0.28306554  0.36481429  1
  Rb  Rb7  1  0.49017414  0.28306554  0.86481429  1
  Rb  Rb8  1  0.49017414  0.61639888  0.36481429  1
  Rb  Rb9  1  0.49017414  0.61639888  0.86481429  1
  Rb  Rb10  1  0.49017414  0.94973221  0.36481429  1
  Rb  Rb11  1  0.49017414  0.94973221  0.86481429  1
  Rb  Rb12  1  0.82350748  0.28306554  0.36481429  1
  Rb  Rb13  1  0.82350748  0.28306554  0.86481429  1
  Rb  Rb14  1  0.82350748  0.61639888  0.36481429  1
  Rb  Rb15  1  0.82350748  0.61639888  0.86481429  1
  Rb  Rb16  1  0.82350748  0.94973221  0.36481429  1
  Rb  Rb17  1  0.82350748  0.94973221  0.86481429  1
  Rb  Rb18  1  0.17649252  0.05026779  0.13518571  1
  Rb  Rb19  1  0.17649252  0.05026779  0.63518571  1
  Rb  Rb20  1  0.17649252  0.38360112  0.13518571  1
  Rb  Rb21  1  0.17649252  0.38360112  0.63518571  1
  Rb  Rb22  1  0.17649252  0.71693446  0.13518571  1
  Rb  Rb23  1  0.17649252  0.71693446  0.63518571  1
  Rb  Rb24  1  0.50982586  0.05026779  0.13518571  1
  Rb  Rb25  1  0.50982586  0.05026779  0.63518571  1
  Rb  Rb26  1  0.50982586  0.38360112  0.13518571  1
  Rb  Rb27  1  0.50982586  0.38360112  0.63518571  1
  Rb  Rb28  1  0.50982586  0.71693446  0.13518571  1
  Rb  Rb29  1  0.50982586  0.71693446  0.63518571  1
  Rb  Rb30  1  0.84315919  0.05026779  0.13518571  1
  Rb  Rb31  1  0.84315919  0.05026779  0.63518571  1
  Rb  Rb32  1  0.84315919  0.38360112  0.13518571  1
  Rb  Rb33  1  0.84315919  0.38360112  0.63518571  1
  Rb  Rb34  1  0.84315919  0.71693446  0.13518571  1
  Rb  Rb35  1  0.84315919  0.71693446  0.63518571  1
  Rb  Rb36  1  0.26206215  0.24133263  0.01072869  1
  Rb  Rb37  1  0.26206215  0.24133263  0.51072869  1
  Rb  Rb38  1  0.26206215  0.57466596  0.01072869  1
  Rb  Rb39  1  0.26206215  0.57466596  0.51072869  1
  Rb  Rb40  1  0.26206215  0.90799929  0.01072869  1
  Rb  Rb41  1  0.26206215  0.90799929  0.51072869  1
  Rb  Rb42  1  0.59539548  0.24133263  0.01072869  1
  Rb  Rb43  1  0.59539548  0.24133263  0.51072869  1
  Rb  Rb44  1  0.59539548  0.57466596  0.01072869  1
  Rb  Rb45  1  0.59539548  0.57466596  0.51072869  1
  Rb  Rb46  1  0.59539548  0.90799929  0.01072869  1
  Rb  Rb47  1  0.59539548  0.90799929  0.51072869  1
  Rb  Rb48  1  0.92872882  0.24133263  0.01072869  1
  Rb  Rb49  1  0.92872882  0.24133263  0.51072869  1
  Rb  Rb50  1  0.92872882  0.57466596  0.01072869  1
  Rb  Rb51  1  0.92872882  0.57466596  0.51072869  1
  Rb  Rb52  1  0.92872882  0.90799929  0.01072869  1
  Rb  Rb53  1  0.92872882  0.90799929  0.51072869  1
  Rb  Rb54  1  0.07127118  0.09200071  0.48927131  1
  Rb  Rb55  1  0.07127118  0.09200071  0.98927131  1
  Rb  Rb56  1  0.07127118  0.42533404  0.48927131  1
  Rb  Rb57  1  0.07127118  0.42533404  0.98927131  1
  Rb  Rb58  1  0.07127118  0.75866737  0.48927131  1
  Rb  Rb59  1  0.07127118  0.75866737  0.98927131  1
  Rb  Rb60  1  0.40460452  0.09200071  0.48927131  1
  Rb  Rb61  1  0.40460452  0.09200071  0.98927131  1
  Rb  Rb62  1  0.40460452  0.42533404  0.48927131  1
  Rb  Rb63  1  0.40460452  0.42533404  0.98927131  1
  Rb  Rb64  1  0.40460452  0.75866737  0.48927131  1
  Rb  Rb65  1  0.40460452  0.75866737  0.98927131  1
  Rb  Rb66  1  0.73793785  0.09200071  0.48927131  1
  Rb  Rb67  1  0.73793785  0.09200071  0.98927131  1
  Rb  Rb68  1  0.73793785  0.42533404  0.48927131  1
  Rb  Rb69  1  0.73793785  0.42533404  0.98927131  1
  Rb  Rb70  1  0.73793785  0.75866737  0.48927131  1
  Rb  Rb71  1  0.73793785  0.75866737  0.98927131  1
  Li  Li72  1  0.02409878  0.27178479  0.28033706  1
  Li  Li73  1  0.02409878  0.27178479  0.78033706  1
  Li  Li74  1  0.02409878  0.60511812  0.28033706  1
  Li  Li75  1  0.02409878  0.60511812  0.78033706  1
  Li  Li76  1  0.02409878  0.93845146  0.28033706  1
  Li  Li77  1  0.02409878  0.93845146  0.78033706  1
  Li  Li78  1  0.35743211  0.27178479  0.28033706  1
  Li  Li79  1  0.35743211  0.27178479  0.78033706  1
  Li  Li80  1  0.35743211  0.60511812  0.28033706  1
  Li  Li81  1  0.35743211  0.60511812  0.78033706  1
  Li  Li82  1  0.35743211  0.93845146  0.28033706  1
  Li  Li83  1  0.35743211  0.93845146  0.78033706  1
  Li  Li84  1  0.69076544  0.27178479  0.28033706  1
  Li  Li85  1  0.69076544  0.27178479  0.78033706  1
  Li  Li86  1  0.69076544  0.60511812  0.28033706  1
  Li  Li87  1  0.69076544  0.60511812  0.78033706  1
  Li  Li88  1  0.69076544  0.93845146  0.28033706  1
  Li  Li89  1  0.69076544  0.93845146  0.78033706  1
  Li  Li90  1  0.30923456  0.06154854  0.21966294  1
  Li  Li91  1  0.30923456  0.06154854  0.71966294  1
  Li  Li92  1  0.30923456  0.39488188  0.21966294  1
  Li  Li93  1  0.30923456  0.39488188  0.71966294  1
  Li  Li94  1  0.30923456  0.72821521  0.21966294  1
  Li  Li95  1  0.30923456  0.72821521  0.71966294  1
  Li  Li96  1  0.64256789  0.06154854  0.21966294  1
  Li  Li97  1  0.64256789  0.06154854  0.71966294  1
  Li  Li98  1  0.64256789  0.39488188  0.21966294  1
  Li  Li99  1  0.64256789  0.39488188  0.71966294  1
  Li  Li100  1  0.64256789  0.72821521  0.21966294  1
  Li  Li101  1  0.64256789  0.72821521  0.71966294  1
  Li  Li102  1  0.97590122  0.06154854  0.21966294  1
  Li  Li103  1  0.97590122  0.06154854  0.71966294  1
  Li  Li104  1  0.97590122  0.39488188  0.21966294  1
  Li  Li105  1  0.97590122  0.39488188  0.71966294  1
  Li  Li106  1  0.97590122  0.72821521  0.21966294  1
  Li  Li107  1  0.97590122  0.72821521  0.71966294  1
  Li  Li108  1  0.10153453  0.13643112  0.29022902  1
  Li  Li109  1  0.10153453  0.13643112  0.79022902  1
  Li  Li110  1  0.10153453  0.46976445  0.29022902  1
  Li  Li111  1  0.10153453  0.46976445  0.79022902  1
  Li  Li112  1  0.10153453  0.80309779  0.29022902  1
  Li  Li113  1  0.10153453  0.80309779  0.79022902  1
  Li  Li114  1  0.43486786  0.13643112  0.29022902  1
  Li  Li115  1  0.43486786  0.13643112  0.79022902  1
  Li  Li116  1  0.43486786  0.46976445  0.29022902  1
  Li  Li117  1  0.43486786  0.46976445  0.79022902  1
  Li  Li118  1  0.43486786  0.80309779  0.29022902  1
  Li  Li119  1  0.43486786  0.80309779  0.79022902  1
  Li  Li120  1  0.76820120  0.13643112  0.29022902  1
  Li  Li121  1  0.76820120  0.13643112  0.79022902  1
  Li  Li122  1  0.76820120  0.46976445  0.29022902  1
  Li  Li123  1  0.76820120  0.46976445  0.79022902  1
  Li  Li124  1  0.76820120  0.80309779  0.29022902  1
  Li  Li125  1  0.76820120  0.80309779  0.79022902  1
  Li  Li126  1  0.23179880  0.19690221  0.20977098  1
  Li  Li127  1  0.23179880  0.19690221  0.70977098  1
  Li  Li128  1  0.23179880  0.53023555  0.20977098  1
  Li  Li129  1  0.23179880  0.53023555  0.70977098  1
  Li  Li130  1  0.23179880  0.86356888  0.20977098  1
  Li  Li131  1  0.23179880  0.86356888  0.70977098  1
  Li  Li132  1  0.56513214  0.19690221  0.20977098  1
  Li  Li133  1  0.56513214  0.19690221  0.70977098  1
  Li  Li134  1  0.56513214  0.53023555  0.20977098  1
  Li  Li135  1  0.56513214  0.53023555  0.70977098  1
  Li  Li136  1  0.56513214  0.86356888  0.20977098  1
  Li  Li137  1  0.56513214  0.86356888  0.70977098  1
  Li  Li138  1  0.89846547  0.19690221  0.20977098  1
  Li  Li139  1  0.89846547  0.19690221  0.70977098  1
  Li  Li140  1  0.89846547  0.53023555  0.20977098  1
  Li  Li141  1  0.89846547  0.53023555  0.70977098  1
  Li  Li142  1  0.89846547  0.86356888  0.20977098  1
  Li  Li143  1  0.89846547  0.86356888  0.70977098  1
  Ge  Ge144  1  0.04844205  0.22888750  0.13666492  1
  Ge  Ge145  1  0.04844205  0.22888750  0.63666492  1
  Ge  Ge146  1  0.04844205  0.56222083  0.13666492  1
  Ge  Ge147  1  0.04844205  0.56222083  0.63666492  1
  Ge  Ge148  1  0.04844205  0.89555416  0.13666492  1
  Ge  Ge149  1  0.04844205  0.89555416  0.63666492  1
  Ge  Ge150  1  0.38177538  0.22888750  0.13666492  1
  Ge  Ge151  1  0.38177538  0.22888750  0.63666492  1
  Ge  Ge152  1  0.38177538  0.56222083  0.13666492  1
  Ge  Ge153  1  0.38177538  0.56222083  0.63666492  1
  Ge  Ge154  1  0.38177538  0.89555416  0.13666492  1
  Ge  Ge155  1  0.38177538  0.89555416  0.63666492  1
  Ge  Ge156  1  0.71510871  0.22888750  0.13666492  1
  Ge  Ge157  1  0.71510871  0.22888750  0.63666492  1
  Ge  Ge158  1  0.71510871  0.56222083  0.13666492  1
  Ge  Ge159  1  0.71510871  0.56222083  0.63666492  1
  Ge  Ge160  1  0.71510871  0.89555416  0.13666492  1
  Ge  Ge161  1  0.71510871  0.89555416  0.63666492  1
  Ge  Ge162  1  0.28489129  0.10444584  0.36333508  1
  Ge  Ge163  1  0.28489129  0.10444584  0.86333508  1
  Ge  Ge164  1  0.28489129  0.43777917  0.36333508  1
  Ge  Ge165  1  0.28489129  0.43777917  0.86333508  1
  Ge  Ge166  1  0.28489129  0.77111250  0.36333508  1
  Ge  Ge167  1  0.28489129  0.77111250  0.86333508  1
  Ge  Ge168  1  0.61822462  0.10444584  0.36333508  1
  Ge  Ge169  1  0.61822462  0.10444584  0.86333508  1
  Ge  Ge170  1  0.61822462  0.43777917  0.36333508  1
  Ge  Ge171  1  0.61822462  0.43777917  0.86333508  1
  Ge  Ge172  1  0.61822462  0.77111250  0.36333508  1
  Ge  Ge173  1  0.61822462  0.77111250  0.86333508  1
  Ge  Ge174  1  0.95155795  0.10444584  0.36333508  1
  Ge  Ge175  1  0.95155795  0.10444584  0.86333508  1
  Ge  Ge176  1  0.95155795  0.43777917  0.36333508  1
  Ge  Ge177  1  0.95155795  0.43777917  0.86333508  1
  Ge  Ge178  1  0.95155795  0.77111250  0.36333508  1
  Ge  Ge179  1  0.95155795  0.77111250  0.86333508  1
  O  O180  1  0.00465737  0.19086305  0.36253305  1
  O  O181  1  0.00465737  0.19086305  0.86253305  1
  O  O182  1  0.00465737  0.52419639  0.36253305  1
  O  O183  1  0.00465737  0.52419639  0.86253305  1
  O  O184  1  0.00465737  0.85752972  0.36253305  1
  O  O185  1  0.00465737  0.85752972  0.86253305  1
  O  O186  1  0.33799070  0.19086305  0.36253305  1
  O  O187  1  0.33799070  0.19086305  0.86253305  1
  O  O188  1  0.33799070  0.52419639  0.36253305  1
  O  O189  1  0.33799070  0.52419639  0.86253305  1
  O  O190  1  0.33799070  0.85752972  0.36253305  1
  O  O191  1  0.33799070  0.85752972  0.86253305  1
  O  O192  1  0.67132403  0.19086305  0.36253305  1
  O  O193  1  0.67132403  0.19086305  0.86253305  1
  O  O194  1  0.67132403  0.52419639  0.36253305  1
  O  O195  1  0.67132403  0.52419639  0.86253305  1
  O  O196  1  0.67132403  0.85752972  0.36253305  1
  O  O197  1  0.67132403  0.85752972  0.86253305  1
  O  O198  1  0.32867597  0.14247028  0.13746695  1
  O  O199  1  0.32867597  0.14247028  0.63746695  1
  O  O200  1  0.32867597  0.47580361  0.13746695  1
  O  O201  1  0.32867597  0.47580361  0.63746695  1
  O  O202  1  0.32867597  0.80913695  0.13746695  1
  O  O203  1  0.32867597  0.80913695  0.63746695  1
  O  O204  1  0.66200930  0.14247028  0.13746695  1
  O  O205  1  0.66200930  0.14247028  0.63746695  1
  O  O206  1  0.66200930  0.47580361  0.13746695  1
  O  O207  1  0.66200930  0.47580361  0.63746695  1
  O  O208  1  0.66200930  0.80913695  0.13746695  1
  O  O209  1  0.66200930  0.80913695  0.63746695  1
  O  O210  1  0.99534263  0.14247028  0.13746695  1
  O  O211  1  0.99534263  0.14247028  0.63746695  1
  O  O212  1  0.99534263  0.47580361  0.13746695  1
  O  O213  1  0.99534263  0.47580361  0.63746695  1
  O  O214  1  0.99534263  0.80913695  0.13746695  1
  O  O215  1  0.99534263  0.80913695  0.63746695  1
  O  O216  1  0.29889583  0.28987778  0.19618004  1
  O  O217  1  0.29889583  0.28987778  0.69618004  1
  O  O218  1  0.29889583  0.62321112  0.19618004  1
  O  O219  1  0.29889583  0.62321112  0.69618004  1
  O  O220  1  0.29889583  0.95654445  0.19618004  1
  O  O221  1  0.29889583  0.95654445  0.69618004  1
  O  O222  1  0.63222916  0.28987778  0.19618004  1
  O  O223  1  0.63222916  0.28987778  0.69618004  1
  O  O224  1  0.63222916  0.62321112  0.19618004  1
  O  O225  1  0.63222916  0.62321112  0.69618004  1
  O  O226  1  0.63222916  0.95654445  0.19618004  1
  O  O227  1  0.63222916  0.95654445  0.69618004  1
  O  O228  1  0.96556250  0.28987778  0.19618004  1
  O  O229  1  0.96556250  0.28987778  0.69618004  1
  O  O230  1  0.96556250  0.62321112  0.19618004  1
  O  O231  1  0.96556250  0.62321112  0.69618004  1
  O  O232  1  0.96556250  0.95654445  0.19618004  1
  O  O233  1  0.96556250  0.95654445  0.69618004  1
  O  O234  1  0.03443750  0.04345555  0.30381996  1
  O  O235  1  0.03443750  0.04345555  0.80381996  1
  O  O236  1  0.03443750  0.37678888  0.30381996  1
  O  O237  1  0.03443750  0.37678888  0.80381996  1
  O  O238  1  0.03443750  0.71012222  0.30381996  1
  O  O239  1  0.03443750  0.71012222  0.80381996  1
  O  O240  1  0.36777084  0.04345555  0.30381996  1
  O  O241  1  0.36777084  0.04345555  0.80381996  1
  O  O242  1  0.36777084  0.37678888  0.30381996  1
  O  O243  1  0.36777084  0.37678888  0.80381996  1
  O  O244  1  0.36777084  0.71012222  0.30381996  1
  O  O245  1  0.36777084  0.71012222  0.80381996  1
  O  O246  1  0.70110417  0.04345555  0.30381996  1
  O  O247  1  0.70110417  0.04345555  0.80381996  1
  O  O248  1  0.70110417  0.37678888  0.30381996  1
  O  O249  1  0.70110417  0.37678888  0.80381996  1
  O  O250  1  0.70110417  0.71012222  0.30381996  1
  O  O251  1  0.70110417  0.71012222  0.80381996  1
  O  O252  1  0.09150479  0.26691444  0.03718148  1
  O  O253  1  0.09150479  0.26691444  0.53718148  1
  O  O254  1  0.09150479  0.60024777  0.03718148  1
  O  O255  1  0.09150479  0.60024777  0.53718148  1
  O  O256  1  0.09150479  0.93358110  0.03718148  1
  O  O257  1  0.09150479  0.93358110  0.53718148  1
  O  O258  1  0.42483813  0.26691444  0.03718148  1
  O  O259  1  0.42483813  0.26691444  0.53718148  1
  O  O260  1  0.42483813  0.60024777  0.03718148  1
  O  O261  1  0.42483813  0.60024777  0.53718148  1
  O  O262  1  0.42483813  0.93358110  0.03718148  1
  O  O263  1  0.42483813  0.93358110  0.53718148  1
  O  O264  1  0.75817146  0.26691444  0.03718148  1
  O  O265  1  0.75817146  0.26691444  0.53718148  1
  O  O266  1  0.75817146  0.60024777  0.03718148  1
  O  O267  1  0.75817146  0.60024777  0.53718148  1
  O  O268  1  0.75817146  0.93358110  0.03718148  1
  O  O269  1  0.75817146  0.93358110  0.53718148  1
  O  O270  1  0.24182854  0.06641890  0.46281852  1
  O  O271  1  0.24182854  0.06641890  0.96281852  1
  O  O272  1  0.24182854  0.39975223  0.46281852  1
  O  O273  1  0.24182854  0.39975223  0.96281852  1
  O  O274  1  0.24182854  0.73308556  0.46281852  1
  O  O275  1  0.24182854  0.73308556  0.96281852  1
  O  O276  1  0.57516187  0.06641890  0.46281852  1
  O  O277  1  0.57516187  0.06641890  0.96281852  1
  O  O278  1  0.57516187  0.39975223  0.46281852  1
  O  O279  1  0.57516187  0.39975223  0.96281852  1
  O  O280  1  0.57516187  0.73308556  0.46281852  1
  O  O281  1  0.57516187  0.73308556  0.96281852  1
  O  O282  1  0.90849521  0.06641890  0.46281852  1
  O  O283  1  0.90849521  0.06641890  0.96281852  1
  O  O284  1  0.90849521  0.39975223  0.46281852  1
  O  O285  1  0.90849521  0.39975223  0.96281852  1
  O  O286  1  0.90849521  0.73308556  0.46281852  1
  O  O287  1  0.90849521  0.73308556  0.96281852  1
  O  O288  1  0.12300686  0.21371314  0.19469737  1
  O  O289  1  0.12300686  0.21371314  0.69469737  1
  O  O290  1  0.12300686  0.54704647  0.19469737  1
  O  O291  1  0.12300686  0.54704647  0.69469737  1
  O  O292  1  0.12300686  0.88037981  0.19469737  1
  O  O293  1  0.12300686  0.88037981  0.69469737  1
  O  O294  1  0.45634019  0.21371314  0.19469737  1
  O  O295  1  0.45634019  0.21371314  0.69469737  1
  O  O296  1  0.45634019  0.54704647  0.19469737  1
  O  O297  1  0.45634019  0.54704647  0.69469737  1
  O  O298  1  0.45634019  0.88037981  0.19469737  1
  O  O299  1  0.45634019  0.88037981  0.69469737  1
  O  O300  1  0.78967352  0.21371314  0.19469737  1
  O  O301  1  0.78967352  0.21371314  0.69469737  1
  O  O302  1  0.78967352  0.54704647  0.19469737  1
  O  O303  1  0.78967352  0.54704647  0.69469737  1
  O  O304  1  0.78967352  0.88037981  0.19469737  1
  O  O305  1  0.78967352  0.88037981  0.69469737  1
  O  O306  1  0.21032648  0.11962019  0.30530263  1
  O  O307  1  0.21032648  0.11962019  0.80530263  1
  O  O308  1  0.21032648  0.45295353  0.30530263  1
  O  O309  1  0.21032648  0.45295353  0.80530263  1
  O  O310  1  0.21032648  0.78628686  0.30530263  1
  O  O311  1  0.21032648  0.78628686  0.80530263  1
  O  O312  1  0.54365981  0.11962019  0.30530263  1
  O  O313  1  0.54365981  0.11962019  0.80530263  1
  O  O314  1  0.54365981  0.45295353  0.30530263  1
  O  O315  1  0.54365981  0.45295353  0.80530263  1
  O  O316  1  0.54365981  0.78628686  0.30530263  1
  O  O317  1  0.54365981  0.78628686  0.80530263  1
  O  O318  1  0.87699314  0.11962019  0.30530263  1
  O  O319  1  0.87699314  0.11962019  0.80530263  1
  O  O320  1  0.87699314  0.45295353  0.30530263  1
  O  O321  1  0.87699314  0.45295353  0.80530263  1
  O  O322  1  0.87699314  0.78628686  0.30530263  1
  O  O323  1  0.87699314  0.78628686  0.80530263  1
