# generated using pymatgen
data_Na2Zn2Si2O7
_symmetry_space_group_name_H-M   'P 1'
_cell_length_a   13.58490886
_cell_length_b   18.29102309
_cell_length_c   15.12287364
_cell_angle_alpha   90.00000000
_cell_angle_beta   90.00000000
_cell_angle_gamma   90.00000000
_symmetry_Int_Tables_number   1
_chemical_formula_structural   Na2Zn2Si2O7
_chemical_formula_sum   'Na48 Zn48 Si48 O168'
_cell_volume   3757.76009781
_cell_formula_units_Z   24
loop_
 _symmetry_equiv_pos_site_id
 _symmetry_equiv_pos_as_xyz
  1  'x, y, z'
loop_
 _atom_site_type_symbol
 _atom_site_label
 _atom_site_symmetry_multiplicity
 _atom_site_fract_x
 _atom_site_fract_y
 _atom_site_fract_z
 _atom_site_occupancy
  Na  Na0  1  0.25000000  0.23172365  0.16006912  1
  Na  Na1  1  0.25000000  0.23172365  0.49340246  1
  Na  Na2  1  0.25000000  0.23172365  0.82673579  1
  Na  Na3  1  0.25000000  0.73172365  0.16006912  1
  Na  Na4  1  0.25000000  0.73172365  0.49340246  1
  Na  Na5  1  0.25000000  0.73172365  0.82673579  1
  Na  Na6  1  0.25000000  0.48172365  0.32673579  1
  Na  Na7  1  0.25000000  0.48172365  0.66006912  1
  Na  Na8  1  0.25000000  0.48172365  0.99340246  1
  Na  Na9  1  0.25000000  0.98172365  0.32673579  1
  Na  Na10  1  0.25000000  0.98172365  0.66006912  1
  Na  Na11  1  0.25000000  0.98172365  0.99340246  1
  Na  Na12  1  0.75000000  -0.23172365  0.16006912  1
  Na  Na13  1  0.75000000  -0.23172365  0.49340246  1
  Na  Na14  1  0.75000000  -0.23172365  0.82673579  1
  Na  Na15  1  0.75000000  0.26827635  0.16006912  1
  Na  Na16  1  0.75000000  0.26827635  0.49340246  1
  Na  Na17  1  0.75000000  0.26827635  0.82673579  1
  Na  Na18  1  0.75000000  0.01827635  0.32673579  1
  Na  Na19  1  0.75000000  0.01827635  0.66006912  1
  Na  Na20  1  0.75000000  0.01827635  0.99340246  1
  Na  Na21  1  0.75000000  0.51827635  0.32673579  1
  Na  Na22  1  0.75000000  0.51827635  0.66006912  1
  Na  Na23  1  0.75000000  0.51827635  0.99340246  1
  Na  Na24  1  0.50000000  0.00000000  0.33145796  1
  Na  Na25  1  0.50000000  0.00000000  0.66479130  1
  Na  Na26  1  0.50000000  0.00000000  0.99812463  1
  Na  Na27  1  0.50000000  0.50000000  0.33145796  1
  Na  Na28  1  0.50000000  0.50000000  0.66479130  1
  Na  Na29  1  0.50000000  0.50000000  0.99812463  1
  Na  Na30  1  0.50000000  0.25000000  0.49812463  1
  Na  Na31  1  0.50000000  0.25000000  0.83145796  1
  Na  Na32  1  0.50000000  0.25000000  1.16479130  1
  Na  Na33  1  0.50000000  0.75000000  0.49812463  1
  Na  Na34  1  0.50000000  0.75000000  0.83145796  1
  Na  Na35  1  0.50000000  0.75000000  1.16479130  1
  Na  Na36  1  0.00000000  0.00000000  0.33145796  1
  Na  Na37  1  0.00000000  0.00000000  0.66479130  1
  Na  Na38  1  0.00000000  0.00000000  0.99812463  1
  Na  Na39  1  0.00000000  0.50000000  0.33145796  1
  Na  Na40  1  0.00000000  0.50000000  0.66479130  1
  Na  Na41  1  0.00000000  0.50000000  0.99812463  1
  Na  Na42  1  0.00000000  0.25000000  0.49812463  1
  Na  Na43  1  0.00000000  0.25000000  0.83145796  1
  Na  Na44  1  0.00000000  0.25000000  1.16479130  1
  Na  Na45  1  0.00000000  0.75000000  0.49812463  1
  Na  Na46  1  0.00000000  0.75000000  0.83145796  1
  Na  Na47  1  0.00000000  0.75000000  1.16479130  1
  Zn  Zn48  1  0.42159256  -0.10795031  0.14720976  1
  Zn  Zn49  1  0.42159256  -0.10795031  0.48054309  1
  Zn  Zn50  1  0.42159256  -0.10795031  0.81387642  1
  Zn  Zn51  1  0.42159256  0.39204969  0.14720976  1
  Zn  Zn52  1  0.42159256  0.39204969  0.48054309  1
  Zn  Zn53  1  0.42159256  0.39204969  0.81387642  1
  Zn  Zn54  1  0.42159256  0.14204969  0.31387642  1
  Zn  Zn55  1  0.42159256  0.14204969  0.64720976  1
  Zn  Zn56  1  0.42159256  0.14204969  0.98054309  1
  Zn  Zn57  1  0.42159256  0.64204969  0.31387642  1
  Zn  Zn58  1  0.42159256  0.64204969  0.64720976  1
  Zn  Zn59  1  0.42159256  0.64204969  0.98054309  1
  Zn  Zn60  1  0.57840744  0.10795031  0.14720976  1
  Zn  Zn61  1  0.57840744  0.10795031  0.48054309  1
  Zn  Zn62  1  0.57840744  0.10795031  0.81387642  1
  Zn  Zn63  1  0.57840744  0.60795031  0.14720976  1
  Zn  Zn64  1  0.57840744  0.60795031  0.48054309  1
  Zn  Zn65  1  0.57840744  0.60795031  0.81387642  1
  Zn  Zn66  1  0.57840744  0.35795031  0.31387642  1
  Zn  Zn67  1  0.57840744  0.35795031  0.64720976  1
  Zn  Zn68  1  0.57840744  0.35795031  0.98054309  1
  Zn  Zn69  1  0.57840744  0.85795031  0.31387642  1
  Zn  Zn70  1  0.57840744  0.85795031  0.64720976  1
  Zn  Zn71  1  0.57840744  0.85795031  0.98054309  1
  Zn  Zn72  1  0.07840744  -0.10795031  0.14720976  1
  Zn  Zn73  1  0.07840744  -0.10795031  0.48054309  1
  Zn  Zn74  1  0.07840744  -0.10795031  0.81387642  1
  Zn  Zn75  1  0.07840744  0.39204969  0.14720976  1
  Zn  Zn76  1  0.07840744  0.39204969  0.48054309  1
  Zn  Zn77  1  0.07840744  0.39204969  0.81387642  1
  Zn  Zn78  1  0.07840744  0.14204969  0.31387642  1
  Zn  Zn79  1  0.07840744  0.14204969  0.64720976  1
  Zn  Zn80  1  0.07840744  0.14204969  0.98054309  1
  Zn  Zn81  1  0.07840744  0.64204969  0.31387642  1
  Zn  Zn82  1  0.07840744  0.64204969  0.64720976  1
  Zn  Zn83  1  0.07840744  0.64204969  0.98054309  1
  Zn  Zn84  1  0.92159256  0.10795031  0.14720976  1
  Zn  Zn85  1  0.92159256  0.10795031  0.48054309  1
  Zn  Zn86  1  0.92159256  0.10795031  0.81387642  1
  Zn  Zn87  1  0.92159256  0.60795031  0.14720976  1
  Zn  Zn88  1  0.92159256  0.60795031  0.48054309  1
  Zn  Zn89  1  0.92159256  0.60795031  0.81387642  1
  Zn  Zn90  1  0.92159256  0.35795031  0.31387642  1
  Zn  Zn91  1  0.92159256  0.35795031  0.64720976  1
  Zn  Zn92  1  0.92159256  0.35795031  0.98054309  1
  Zn  Zn93  1  0.92159256  0.85795031  0.31387642  1
  Zn  Zn94  1  0.92159256  0.85795031  0.64720976  1
  Zn  Zn95  1  0.92159256  0.85795031  0.98054309  1
  Si  Si96  1  0.36024718  0.05976937  0.15030289  1
  Si  Si97  1  0.36024718  0.05976937  0.48363623  1
  Si  Si98  1  0.36024718  0.05976937  0.81696956  1
  Si  Si99  1  0.36024718  0.55976937  0.15030289  1
  Si  Si100  1  0.36024718  0.55976937  0.48363623  1
  Si  Si101  1  0.36024718  0.55976937  0.81696956  1
  Si  Si102  1  0.36024718  0.30976937  0.31696956  1
  Si  Si103  1  0.36024718  0.30976937  0.65030289  1
  Si  Si104  1  0.36024718  0.30976937  0.98363623  1
  Si  Si105  1  0.36024718  0.80976937  0.31696956  1
  Si  Si106  1  0.36024718  0.80976937  0.65030289  1
  Si  Si107  1  0.36024718  0.80976937  0.98363623  1
  Si  Si108  1  0.63975282  -0.05976937  0.15030289  1
  Si  Si109  1  0.63975282  -0.05976937  0.48363623  1
  Si  Si110  1  0.63975282  -0.05976937  0.81696956  1
  Si  Si111  1  0.63975282  0.44023063  0.15030289  1
  Si  Si112  1  0.63975282  0.44023063  0.48363623  1
  Si  Si113  1  0.63975282  0.44023063  0.81696956  1
  Si  Si114  1  0.63975282  0.19023063  0.31696956  1
  Si  Si115  1  0.63975282  0.19023063  0.65030289  1
  Si  Si116  1  0.63975282  0.19023063  0.98363623  1
  Si  Si117  1  0.63975282  0.69023063  0.31696956  1
  Si  Si118  1  0.63975282  0.69023063  0.65030289  1
  Si  Si119  1  0.63975282  0.69023063  0.98363623  1
  Si  Si120  1  0.13975282  0.05976937  0.15030289  1
  Si  Si121  1  0.13975282  0.05976937  0.48363623  1
  Si  Si122  1  0.13975282  0.05976937  0.81696956  1
  Si  Si123  1  0.13975282  0.55976937  0.15030289  1
  Si  Si124  1  0.13975282  0.55976937  0.48363623  1
  Si  Si125  1  0.13975282  0.55976937  0.81696956  1
  Si  Si126  1  0.13975282  0.30976937  0.31696956  1
  Si  Si127  1  0.13975282  0.30976937  0.65030289  1
  Si  Si128  1  0.13975282  0.30976937  0.98363623  1
  Si  Si129  1  0.13975282  0.80976937  0.31696956  1
  Si  Si130  1  0.13975282  0.80976937  0.65030289  1
  Si  Si131  1  0.13975282  0.80976937  0.98363623  1
  Si  Si132  1  0.86024718  -0.05976937  0.15030289  1
  Si  Si133  1  0.86024718  -0.05976937  0.48363623  1
  Si  Si134  1  0.86024718  -0.05976937  0.81696956  1
  Si  Si135  1  0.86024718  0.44023063  0.15030289  1
  Si  Si136  1  0.86024718  0.44023063  0.48363623  1
  Si  Si137  1  0.86024718  0.44023063  0.81696956  1
  Si  Si138  1  0.86024718  0.19023063  0.31696956  1
  Si  Si139  1  0.86024718  0.19023063  0.65030289  1
  Si  Si140  1  0.86024718  0.19023063  0.98363623  1
  Si  Si141  1  0.86024718  0.69023063  0.31696956  1
  Si  Si142  1  0.86024718  0.69023063  0.65030289  1
  Si  Si143  1  0.86024718  0.69023063  0.98363623  1
  O  O144  1  0.37173953  -0.02032039  0.10487478  1
  O  O145  1  0.37173953  -0.02032039  0.43820811  1
  O  O146  1  0.37173953  -0.02032039  0.77154145  1
  O  O147  1  0.37173953  0.47967961  0.10487478  1
  O  O148  1  0.37173953  0.47967961  0.43820811  1
  O  O149  1  0.37173953  0.47967961  0.77154145  1
  O  O150  1  0.37173953  0.22967961  0.27154145  1
  O  O151  1  0.37173953  0.22967961  0.60487478  1
  O  O152  1  0.37173953  0.22967961  0.93820811  1
  O  O153  1  0.37173953  0.72967961  0.27154145  1
  O  O154  1  0.37173953  0.72967961  0.60487478  1
  O  O155  1  0.37173953  0.72967961  0.93820811  1
  O  O156  1  0.62826047  0.02032039  0.10487478  1
  O  O157  1  0.62826047  0.02032039  0.43820811  1
  O  O158  1  0.62826047  0.02032039  0.77154145  1
  O  O159  1  0.62826047  0.52032039  0.10487478  1
  O  O160  1  0.62826047  0.52032039  0.43820811  1
  O  O161  1  0.62826047  0.52032039  0.77154145  1
  O  O162  1  0.62826047  0.27032039  0.27154145  1
  O  O163  1  0.62826047  0.27032039  0.60487478  1
  O  O164  1  0.62826047  0.27032039  0.93820811  1
  O  O165  1  0.62826047  0.77032039  0.27154145  1
  O  O166  1  0.62826047  0.77032039  0.60487478  1
  O  O167  1  0.62826047  0.77032039  0.93820811  1
  O  O168  1  0.12826047  -0.02032039  0.10487478  1
  O  O169  1  0.12826047  -0.02032039  0.43820811  1
  O  O170  1  0.12826047  -0.02032039  0.77154145  1
  O  O171  1  0.12826047  0.47967961  0.10487478  1
  O  O172  1  0.12826047  0.47967961  0.43820811  1
  O  O173  1  0.12826047  0.47967961  0.77154145  1
  O  O174  1  0.12826047  0.22967961  0.27154145  1
  O  O175  1  0.12826047  0.22967961  0.60487478  1
  O  O176  1  0.12826047  0.22967961  0.93820811  1
  O  O177  1  0.12826047  0.72967961  0.27154145  1
  O  O178  1  0.12826047  0.72967961  0.60487478  1
  O  O179  1  0.12826047  0.72967961  0.93820811  1
  O  O180  1  0.87173953  0.02032039  0.10487478  1
  O  O181  1  0.87173953  0.02032039  0.43820811  1
  O  O182  1  0.87173953  0.02032039  0.77154145  1
  O  O183  1  0.87173953  0.52032039  0.10487478  1
  O  O184  1  0.87173953  0.52032039  0.43820811  1
  O  O185  1  0.87173953  0.52032039  0.77154145  1
  O  O186  1  0.87173953  0.27032039  0.27154145  1
  O  O187  1  0.87173953  0.27032039  0.60487478  1
  O  O188  1  0.87173953  0.27032039  0.93820811  1
  O  O189  1  0.87173953  0.77032039  0.27154145  1
  O  O190  1  0.87173953  0.77032039  0.60487478  1
  O  O191  1  0.87173953  0.77032039  0.93820811  1
  O  O192  1  0.43899826  0.11749126  0.10426162  1
  O  O193  1  0.43899826  0.11749126  0.43759495  1
  O  O194  1  0.43899826  0.11749126  0.77092828  1
  O  O195  1  0.43899826  0.61749126  0.10426162  1
  O  O196  1  0.43899826  0.61749126  0.43759495  1
  O  O197  1  0.43899826  0.61749126  0.77092828  1
  O  O198  1  0.43899826  0.36749126  0.27092828  1
  O  O199  1  0.43899826  0.36749126  0.60426162  1
  O  O200  1  0.43899826  0.36749126  0.93759495  1
  O  O201  1  0.43899826  0.86749126  0.27092828  1
  O  O202  1  0.43899826  0.86749126  0.60426162  1
  O  O203  1  0.43899826  0.86749126  0.93759495  1
  O  O204  1  0.56100174  -0.11749126  0.10426162  1
  O  O205  1  0.56100174  -0.11749126  0.43759495  1
  O  O206  1  0.56100174  -0.11749126  0.77092828  1
  O  O207  1  0.56100174  0.38250874  0.10426162  1
  O  O208  1  0.56100174  0.38250874  0.43759495  1
  O  O209  1  0.56100174  0.38250874  0.77092828  1
  O  O210  1  0.56100174  0.13250874  0.27092828  1
  O  O211  1  0.56100174  0.13250874  0.60426162  1
  O  O212  1  0.56100174  0.13250874  0.93759495  1
  O  O213  1  0.56100174  0.63250874  0.27092828  1
  O  O214  1  0.56100174  0.63250874  0.60426162  1
  O  O215  1  0.56100174  0.63250874  0.93759495  1
  O  O216  1  0.06100174  0.11749126  0.10426162  1
  O  O217  1  0.06100174  0.11749126  0.43759495  1
  O  O218  1  0.06100174  0.11749126  0.77092828  1
  O  O219  1  0.06100174  0.61749126  0.10426162  1
  O  O220  1  0.06100174  0.61749126  0.43759495  1
  O  O221  1  0.06100174  0.61749126  0.77092828  1
  O  O222  1  0.06100174  0.36749126  0.27092828  1
  O  O223  1  0.06100174  0.36749126  0.60426162  1
  O  O224  1  0.06100174  0.36749126  0.93759495  1
  O  O225  1  0.06100174  0.86749126  0.27092828  1
  O  O226  1  0.06100174  0.86749126  0.60426162  1
  O  O227  1  0.06100174  0.86749126  0.93759495  1
  O  O228  1  0.93899826  -0.11749126  0.10426162  1
  O  O229  1  0.93899826  -0.11749126  0.43759495  1
  O  O230  1  0.93899826  -0.11749126  0.77092828  1
  O  O231  1  0.93899826  0.38250874  0.10426162  1
  O  O232  1  0.93899826  0.38250874  0.43759495  1
  O  O233  1  0.93899826  0.38250874  0.77092828  1
  O  O234  1  0.93899826  0.13250874  0.27092828  1
  O  O235  1  0.93899826  0.13250874  0.60426162  1
  O  O236  1  0.93899826  0.13250874  0.93759495  1
  O  O237  1  0.93899826  0.63250874  0.27092828  1
  O  O238  1  0.93899826  0.63250874  0.60426162  1
  O  O239  1  0.93899826  0.63250874  0.93759495  1
  O  O240  1  0.37349106  0.05628881  0.25674082  1
  O  O241  1  0.37349106  0.05628881  0.59007415  1
  O  O242  1  0.37349106  0.05628881  0.92340749  1
  O  O243  1  0.37349106  0.55628881  0.25674082  1
  O  O244  1  0.37349106  0.55628881  0.59007415  1
  O  O245  1  0.37349106  0.55628881  0.92340749  1
  O  O246  1  0.37349106  0.30628881  0.42340749  1
  O  O247  1  0.37349106  0.30628881  0.75674082  1
  O  O248  1  0.37349106  0.30628881  1.09007415  1
  O  O249  1  0.37349106  0.80628881  0.42340749  1
  O  O250  1  0.37349106  0.80628881  0.75674082  1
  O  O251  1  0.37349106  0.80628881  1.09007415  1
  O  O252  1  0.62650894  -0.05628881  0.25674082  1
  O  O253  1  0.62650894  -0.05628881  0.59007415  1
  O  O254  1  0.62650894  -0.05628881  0.92340749  1
  O  O255  1  0.62650894  0.44371119  0.25674082  1
  O  O256  1  0.62650894  0.44371119  0.59007415  1
  O  O257  1  0.62650894  0.44371119  0.92340749  1
  O  O258  1  0.62650894  0.19371119  0.42340749  1
  O  O259  1  0.62650894  0.19371119  0.75674082  1
  O  O260  1  0.62650894  0.19371119  1.09007415  1
  O  O261  1  0.62650894  0.69371119  0.42340749  1
  O  O262  1  0.62650894  0.69371119  0.75674082  1
  O  O263  1  0.62650894  0.69371119  1.09007415  1
  O  O264  1  0.12650894  0.05628881  0.25674082  1
  O  O265  1  0.12650894  0.05628881  0.59007415  1
  O  O266  1  0.12650894  0.05628881  0.92340749  1
  O  O267  1  0.12650894  0.55628881  0.25674082  1
  O  O268  1  0.12650894  0.55628881  0.59007415  1
  O  O269  1  0.12650894  0.55628881  0.92340749  1
  O  O270  1  0.12650894  0.30628881  0.42340749  1
  O  O271  1  0.12650894  0.30628881  0.75674082  1
  O  O272  1  0.12650894  0.30628881  1.09007415  1
  O  O273  1  0.12650894  0.80628881  0.42340749  1
  O  O274  1  0.12650894  0.80628881  0.75674082  1
  O  O275  1  0.12650894  0.80628881  1.09007415  1
  O  O276  1  0.87349106  -0.05628881  0.25674082  1
  O  O277  1  0.87349106  -0.05628881  0.59007415  1
  O  O278  1  0.87349106  -0.05628881  0.92340749  1
  O  O279  1  0.87349106  0.44371119  0.25674082  1
  O  O280  1  0.87349106  0.44371119  0.59007415  1
  O  O281  1  0.87349106  0.44371119  0.92340749  1
  O  O282  1  0.87349106  0.19371119  0.42340749  1
  O  O283  1  0.87349106  0.19371119  0.75674082  1
  O  O284  1  0.87349106  0.19371119  1.09007415  1
  O  O285  1  0.87349106  0.69371119  0.42340749  1
  O  O286  1  0.87349106  0.69371119  0.75674082  1
  O  O287  1  0.87349106  0.69371119  1.09007415  1
  O  O288  1  0.75000000  -0.09388431  0.12372651  1
  O  O289  1  0.75000000  -0.09388431  0.45705984  1
  O  O290  1  0.75000000  -0.09388431  0.79039317  1
  O  O291  1  0.75000000  0.40611569  0.12372651  1
  O  O292  1  0.75000000  0.40611569  0.45705984  1
  O  O293  1  0.75000000  0.40611569  0.79039317  1
  O  O294  1  0.75000000  0.15611569  0.29039317  1
  O  O295  1  0.75000000  0.15611569  0.62372651  1
  O  O296  1  0.75000000  0.15611569  0.95705984  1
  O  O297  1  0.75000000  0.65611569  0.29039317  1
  O  O298  1  0.75000000  0.65611569  0.62372651  1
  O  O299  1  0.75000000  0.65611569  0.95705984  1
  O  O300  1  0.25000000  0.09388431  0.12372651  1
  O  O301  1  0.25000000  0.09388431  0.45705984  1
  O  O302  1  0.25000000  0.09388431  0.79039317  1
  O  O303  1  0.25000000  0.59388431  0.12372651  1
  O  O304  1  0.25000000  0.59388431  0.45705984  1
  O  O305  1  0.25000000  0.59388431  0.79039317  1
  O  O306  1  0.25000000  0.34388431  0.29039317  1
  O  O307  1  0.25000000  0.34388431  0.62372651  1
  O  O308  1  0.25000000  0.34388431  0.95705984  1
  O  O309  1  0.25000000  0.84388431  0.29039317  1
  O  O310  1  0.25000000  0.84388431  0.62372651  1
  O  O311  1  0.25000000  0.84388431  0.95705984  1
