# generated using pymatgen
data_Sr3CdPtO6
_symmetry_space_group_name_H-M   'P 1'
_cell_length_a   9.57079175
_cell_length_b   9.57079175
_cell_length_c   11.69710192
_cell_angle_alpha   90.00000000
_cell_angle_beta   90.00000000
_cell_angle_gamma   120.00000000
_symmetry_Int_Tables_number   1
_chemical_formula_structural   Sr3CdPtO6
_chemical_formula_sum   'Sr18 Cd6 Pt6 O36'
_cell_volume   927.90740055
_cell_formula_units_Z   6
loop_
 _symmetry_equiv_pos_site_id
 _symmetry_equiv_pos_as_xyz
  1  'x, y, z'
loop_
 _atom_site_type_symbol
 _atom_site_label
 _atom_site_symmetry_multiplicity
 _atom_site_fract_x
 _atom_site_fract_y
 _atom_site_fract_z
 _atom_site_occupancy
  Sr  Sr0  1  -0.30367845  0.02965488  0.41666667  1
  Sr  Sr1  1  0.36298822  0.36298822  0.75000000  1
  Sr  Sr2  1  0.02965488  0.69632155  1.08333333  1
  Sr  Sr3  1  0.33333333  0.30367845  0.41666667  1
  Sr  Sr4  1  1.00000000  0.63701178  0.75000000  1
  Sr  Sr5  1  0.66666667  0.97034512  1.08333333  1
  Sr  Sr6  1  -0.02965488  -0.33333333  0.41666667  1
  Sr  Sr7  1  0.63701178  0.00000000  0.75000000  1
  Sr  Sr8  1  0.30367845  0.33333333  1.08333333  1
  Sr  Sr9  1  0.30367845  -0.02965488  0.58333333  1
  Sr  Sr10  1  0.97034512  0.30367845  0.91666667  1
  Sr  Sr11  1  0.63701178  0.63701178  1.25000000  1
  Sr  Sr12  1  0.02965488  0.33333333  0.58333333  1
  Sr  Sr13  1  0.69632155  0.66666667  0.91666667  1
  Sr  Sr14  1  0.36298822  1.00000000  1.25000000  1
  Sr  Sr15  1  -0.33333333  -0.30367845  0.58333333  1
  Sr  Sr16  1  0.33333333  0.02965488  0.91666667  1
  Sr  Sr17  1  0.00000000  0.36298822  1.25000000  1
  Cd  Cd18  1  0.00000000  0.00000000  0.75000000  1
  Cd  Cd19  1  0.66666667  0.33333333  1.08333333  1
  Cd  Cd20  1  0.33333333  0.66666667  1.41666667  1
  Cd  Cd21  1  -0.00000000  0.00000000  0.25000000  1
  Cd  Cd22  1  0.66666667  0.33333333  0.58333333  1
  Cd  Cd23  1  0.33333333  0.66666667  0.91666667  1
  Pt  Pt24  1  -0.00000000  0.00000000  0.50000000  1
  Pt  Pt25  1  0.66666667  0.33333333  0.83333333  1
  Pt  Pt26  1  0.33333333  0.66666667  1.16666667  1
  Pt  Pt27  1  0.00000000  -0.00000000  -0.00000000  1
  Pt  Pt28  1  0.66666667  0.33333333  0.33333333  1
  Pt  Pt29  1  0.33333333  0.66666667  0.66666667  1
  O  O30  1  -0.35507878  -0.50931289  0.43870541  1
  O  O31  1  0.31158789  -0.17597955  0.77203875  1
  O  O32  1  -0.02174544  0.15735378  1.10537208  1
  O  O33  1  0.50931289  0.15423411  0.43870541  1
  O  O34  1  1.17597955  0.48756744  0.77203875  1
  O  O35  1  0.84264622  0.82090078  1.10537208  1
  O  O36  1  -0.15423411  0.35507878  0.43870541  1
  O  O37  1  0.51243256  0.68841211  0.77203875  1
  O  O38  1  0.17909922  1.02174544  1.10537208  1
  O  O39  1  -0.17909922  -0.15735378  0.39462792  1
  O  O40  1  0.48756744  0.17597955  0.72796125  1
  O  O41  1  0.15423411  0.50931289  1.06129459  1
  O  O42  1  0.15735378  -0.02174544  0.39462792  1
  O  O43  1  0.82402045  0.31158789  0.72796125  1
  O  O44  1  0.49068711  0.64492122  1.06129459  1
  O  O45  1  0.02174544  0.17909922  0.39462792  1
  O  O46  1  0.68841211  0.51243256  0.72796125  1
  O  O47  1  0.35507878  0.84576589  1.06129459  1
  O  O48  1  0.35507878  0.50931289  0.56129459  1
  O  O49  1  1.02174544  0.84264622  0.89462792  1
  O  O50  1  0.68841211  1.17597955  1.22796125  1
  O  O51  1  -0.50931289  -0.15423411  0.56129459  1
  O  O52  1  0.15735378  0.17909922  0.89462792  1
  O  O53  1  -0.17597955  0.51243256  1.22796125  1
  O  O54  1  0.15423411  -0.35507878  0.56129459  1
  O  O55  1  0.82090078  -0.02174544  0.89462792  1
  O  O56  1  0.48756744  0.31158789  1.22796125  1
  O  O57  1  0.17909922  0.15735378  0.60537208  1
  O  O58  1  0.84576589  0.49068711  0.93870541  1
  O  O59  1  0.51243256  0.82402045  1.27203875  1
  O  O60  1  -0.02174544  -0.17909922  0.60537208  1
  O  O61  1  0.64492122  0.15423411  0.93870541  1
  O  O62  1  0.31158789  0.48756744  1.27203875  1
  O  O63  1  -0.15735378  0.02174544  0.60537208  1
  O  O64  1  0.50931289  0.35507878  0.93870541  1
  O  O65  1  0.17597955  0.68841211  1.27203875  1
