# generated using pymatgen
data_K3NaCr2O8
_symmetry_space_group_name_H-M   'P 1'
_cell_length_a   20.21196824
_cell_length_b   17.53195816
_cell_length_c   15.07759598
_cell_angle_alpha   90.00000000
_cell_angle_beta   90.12546532
_cell_angle_gamma   90.00000000
_symmetry_Int_Tables_number   1
_chemical_formula_structural   K3NaCr2O8
_chemical_formula_sum   'K72 Na24 Cr48 O192'
_cell_volume   5342.81446585
_cell_formula_units_Z   24
loop_
 _symmetry_equiv_pos_site_id
 _symmetry_equiv_pos_as_xyz
  1  'x, y, z'
loop_
 _atom_site_type_symbol
 _atom_site_label
 _atom_site_symmetry_multiplicity
 _atom_site_fract_x
 _atom_site_fract_y
 _atom_site_fract_z
 _atom_site_occupancy
  K  K0  1  0.25000000  0.14756350  0.75000000  1
  K  K1  1  0.25000000  0.48089683  0.75000000  1
  K  K2  1  0.25000000  0.81423017  0.75000000  1
  K  K3  1  0.75000000  0.14756350  0.75000000  1
  K  K4  1  0.75000000  0.48089683  0.75000000  1
  K  K5  1  0.75000000  0.81423017  0.75000000  1
  K  K6  1  0.50000000  0.31423017  0.75000000  1
  K  K7  1  0.50000000  0.64756350  0.75000000  1
  K  K8  1  0.50000000  0.98089683  0.75000000  1
  K  K9  1  1.00000000  0.31423017  0.75000000  1
  K  K10  1  1.00000000  0.64756350  0.75000000  1
  K  K11  1  1.00000000  0.98089683  0.75000000  1
  K  K12  1  0.25000000  -0.14756350  0.25000000  1
  K  K13  1  0.25000000  0.18576983  0.25000000  1
  K  K14  1  0.25000000  0.51910317  0.25000000  1
  K  K15  1  0.75000000  -0.14756350  0.25000000  1
  K  K16  1  0.75000000  0.18576983  0.25000000  1
  K  K17  1  0.75000000  0.51910317  0.25000000  1
  K  K18  1  0.50000000  0.01910317  0.25000000  1
  K  K19  1  0.50000000  0.35243650  0.25000000  1
  K  K20  1  0.50000000  0.68576983  0.25000000  1
  K  K21  1  1.00000000  0.01910317  0.25000000  1
  K  K22  1  1.00000000  0.35243650  0.25000000  1
  K  K23  1  1.00000000  0.68576983  0.25000000  1
  K  K24  1  0.33604677  0.00688628  0.41283753  1
  K  K25  1  0.33604677  0.34021961  0.41283753  1
  K  K26  1  0.33604677  0.67355295  0.41283753  1
  K  K27  1  0.83604677  0.00688628  0.41283753  1
  K  K28  1  0.83604677  0.34021961  0.41283753  1
  K  K29  1  0.83604677  0.67355295  0.41283753  1
  K  K30  1  0.58604677  0.17355295  0.41283753  1
  K  K31  1  0.58604677  0.50688628  0.41283753  1
  K  K32  1  0.58604677  0.84021961  0.41283753  1
  K  K33  1  1.08604677  0.17355295  0.41283753  1
  K  K34  1  1.08604677  0.50688628  0.41283753  1
  K  K35  1  1.08604677  0.84021961  0.41283753  1
  K  K36  1  0.16395323  0.00688628  0.08716247  1
  K  K37  1  0.16395323  0.34021961  0.08716247  1
  K  K38  1  0.16395323  0.67355295  0.08716247  1
  K  K39  1  0.66395323  0.00688628  0.08716247  1
  K  K40  1  0.66395323  0.34021961  0.08716247  1
  K  K41  1  0.66395323  0.67355295  0.08716247  1
  K  K42  1  0.41395323  0.17355295  0.08716247  1
  K  K43  1  0.41395323  0.50688628  0.08716247  1
  K  K44  1  0.41395323  0.84021961  0.08716247  1
  K  K45  1  0.91395323  0.17355295  0.08716247  1
  K  K46  1  0.91395323  0.50688628  0.08716247  1
  K  K47  1  0.91395323  0.84021961  0.08716247  1
  K  K48  1  0.33604677  -0.00688628  0.91283753  1
  K  K49  1  0.33604677  0.32644705  0.91283753  1
  K  K50  1  0.33604677  0.65978039  0.91283753  1
  K  K51  1  0.83604677  -0.00688628  0.91283753  1
  K  K52  1  0.83604677  0.32644705  0.91283753  1
  K  K53  1  0.83604677  0.65978039  0.91283753  1
  K  K54  1  0.58604677  0.15978039  0.91283753  1
  K  K55  1  0.58604677  0.49311372  0.91283753  1
  K  K56  1  0.58604677  0.82644705  0.91283753  1
  K  K57  1  1.08604677  0.15978039  0.91283753  1
  K  K58  1  1.08604677  0.49311372  0.91283753  1
  K  K59  1  1.08604677  0.82644705  0.91283753  1
  K  K60  1  0.16395323  -0.00688628  0.58716247  1
  K  K61  1  0.16395323  0.32644705  0.58716247  1
  K  K62  1  0.16395323  0.65978039  0.58716247  1
  K  K63  1  0.66395323  -0.00688628  0.58716247  1
  K  K64  1  0.66395323  0.32644705  0.58716247  1
  K  K65  1  0.66395323  0.65978039  0.58716247  1
  K  K66  1  0.41395323  0.15978039  0.58716247  1
  K  K67  1  0.41395323  0.49311372  0.58716247  1
  K  K68  1  0.41395323  0.82644705  0.58716247  1
  K  K69  1  0.91395323  0.15978039  0.58716247  1
  K  K70  1  0.91395323  0.49311372  0.58716247  1
  K  K71  1  0.91395323  0.82644705  0.58716247  1
  Na  Na72  1  0.00000000  -0.00000000  0.00000000  1
  Na  Na73  1  0.00000000  0.33333333  0.00000000  1
  Na  Na74  1  0.00000000  0.66666667  0.00000000  1
  Na  Na75  1  0.50000000  -0.00000000  0.00000000  1
  Na  Na76  1  0.50000000  0.33333333  0.00000000  1
  Na  Na77  1  0.50000000  0.66666667  0.00000000  1
  Na  Na78  1  0.25000000  0.16666667  0.00000000  1
  Na  Na79  1  0.25000000  0.50000000  0.00000000  1
  Na  Na80  1  0.25000000  0.83333333  0.00000000  1
  Na  Na81  1  0.75000000  0.16666667  0.00000000  1
  Na  Na82  1  0.75000000  0.50000000  0.00000000  1
  Na  Na83  1  0.75000000  0.83333333  0.00000000  1
  Na  Na84  1  0.00000000  -0.00000000  0.50000000  1
  Na  Na85  1  0.00000000  0.33333333  0.50000000  1
  Na  Na86  1  0.00000000  0.66666667  0.50000000  1
  Na  Na87  1  0.50000000  -0.00000000  0.50000000  1
  Na  Na88  1  0.50000000  0.33333333  0.50000000  1
  Na  Na89  1  0.50000000  0.66666667  0.50000000  1
  Na  Na90  1  0.25000000  0.16666667  0.50000000  1
  Na  Na91  1  0.25000000  0.50000000  0.50000000  1
  Na  Na92  1  0.25000000  0.83333333  0.50000000  1
  Na  Na93  1  0.75000000  0.16666667  0.50000000  1
  Na  Na94  1  0.75000000  0.50000000  0.50000000  1
  Na  Na95  1  0.75000000  0.83333333  0.50000000  1
  Cr  Cr96  1  0.33113862  0.00547500  0.13365523  1
  Cr  Cr97  1  0.33113862  0.33880833  0.13365523  1
  Cr  Cr98  1  0.33113862  0.67214167  0.13365523  1
  Cr  Cr99  1  0.83113862  0.00547500  0.13365523  1
  Cr  Cr100  1  0.83113862  0.33880833  0.13365523  1
  Cr  Cr101  1  0.83113862  0.67214167  0.13365523  1
  Cr  Cr102  1  0.58113862  0.17214167  0.13365523  1
  Cr  Cr103  1  0.58113862  0.50547500  0.13365523  1
  Cr  Cr104  1  0.58113862  0.83880833  0.13365523  1
  Cr  Cr105  1  1.08113862  0.17214167  0.13365523  1
  Cr  Cr106  1  1.08113862  0.50547500  0.13365523  1
  Cr  Cr107  1  1.08113862  0.83880833  0.13365523  1
  Cr  Cr108  1  0.16886138  0.00547500  0.36634477  1
  Cr  Cr109  1  0.16886138  0.33880833  0.36634477  1
  Cr  Cr110  1  0.16886138  0.67214167  0.36634477  1
  Cr  Cr111  1  0.66886138  0.00547500  0.36634477  1
  Cr  Cr112  1  0.66886138  0.33880833  0.36634477  1
  Cr  Cr113  1  0.66886138  0.67214167  0.36634477  1
  Cr  Cr114  1  0.41886138  0.17214167  0.36634477  1
  Cr  Cr115  1  0.41886138  0.50547500  0.36634477  1
  Cr  Cr116  1  0.41886138  0.83880833  0.36634477  1
  Cr  Cr117  1  0.91886138  0.17214167  0.36634477  1
  Cr  Cr118  1  0.91886138  0.50547500  0.36634477  1
  Cr  Cr119  1  0.91886138  0.83880833  0.36634477  1
  Cr  Cr120  1  0.16886138  -0.00547500  0.86634477  1
  Cr  Cr121  1  0.16886138  0.32785833  0.86634477  1
  Cr  Cr122  1  0.16886138  0.66119167  0.86634477  1
  Cr  Cr123  1  0.66886138  -0.00547500  0.86634477  1
  Cr  Cr124  1  0.66886138  0.32785833  0.86634477  1
  Cr  Cr125  1  0.66886138  0.66119167  0.86634477  1
  Cr  Cr126  1  0.41886138  0.16119167  0.86634477  1
  Cr  Cr127  1  0.41886138  0.49452500  0.86634477  1
  Cr  Cr128  1  0.41886138  0.82785833  0.86634477  1
  Cr  Cr129  1  0.91886138  0.16119167  0.86634477  1
  Cr  Cr130  1  0.91886138  0.49452500  0.86634477  1
  Cr  Cr131  1  0.91886138  0.82785833  0.86634477  1
  Cr  Cr132  1  0.33113862  -0.00547500  0.63365523  1
  Cr  Cr133  1  0.33113862  0.32785833  0.63365523  1
  Cr  Cr134  1  0.33113862  0.66119167  0.63365523  1
  Cr  Cr135  1  0.83113862  -0.00547500  0.63365523  1
  Cr  Cr136  1  0.83113862  0.32785833  0.63365523  1
  Cr  Cr137  1  0.83113862  0.66119167  0.63365523  1
  Cr  Cr138  1  0.58113862  0.16119167  0.63365523  1
  Cr  Cr139  1  0.58113862  0.49452500  0.63365523  1
  Cr  Cr140  1  0.58113862  0.82785833  0.63365523  1
  Cr  Cr141  1  1.08113862  0.16119167  0.63365523  1
  Cr  Cr142  1  1.08113862  0.49452500  0.63365523  1
  Cr  Cr143  1  1.08113862  0.82785833  0.63365523  1
  O  O144  1  0.40656655  0.01118667  0.08998359  1
  O  O145  1  0.40656655  0.34452000  0.08998359  1
  O  O146  1  0.40656655  0.67785333  0.08998359  1
  O  O147  1  0.90656655  0.01118667  0.08998359  1
  O  O148  1  0.90656655  0.34452000  0.08998359  1
  O  O149  1  0.90656655  0.67785333  0.08998359  1
  O  O150  1  0.65656655  0.17785333  0.08998359  1
  O  O151  1  0.65656655  0.51118667  0.08998359  1
  O  O152  1  0.65656655  0.84452000  0.08998359  1
  O  O153  1  1.15656655  0.17785333  0.08998359  1
  O  O154  1  1.15656655  0.51118667  0.08998359  1
  O  O155  1  1.15656655  0.84452000  0.08998359  1
  O  O156  1  0.09343345  0.01118667  0.41001641  1
  O  O157  1  0.09343345  0.34452000  0.41001641  1
  O  O158  1  0.09343345  0.67785333  0.41001641  1
  O  O159  1  0.59343345  0.01118667  0.41001641  1
  O  O160  1  0.59343345  0.34452000  0.41001641  1
  O  O161  1  0.59343345  0.67785333  0.41001641  1
  O  O162  1  0.34343345  0.17785333  0.41001641  1
  O  O163  1  0.34343345  0.51118667  0.41001641  1
  O  O164  1  0.34343345  0.84452000  0.41001641  1
  O  O165  1  0.84343345  0.17785333  0.41001641  1
  O  O166  1  0.84343345  0.51118667  0.41001641  1
  O  O167  1  0.84343345  0.84452000  0.41001641  1
  O  O168  1  0.09343345  -0.01118667  0.91001641  1
  O  O169  1  0.09343345  0.32214667  0.91001641  1
  O  O170  1  0.09343345  0.65548000  0.91001641  1
  O  O171  1  0.59343345  -0.01118667  0.91001641  1
  O  O172  1  0.59343345  0.32214667  0.91001641  1
  O  O173  1  0.59343345  0.65548000  0.91001641  1
  O  O174  1  0.34343345  0.15548000  0.91001641  1
  O  O175  1  0.34343345  0.48881333  0.91001641  1
  O  O176  1  0.34343345  0.82214667  0.91001641  1
  O  O177  1  0.84343345  0.15548000  0.91001641  1
  O  O178  1  0.84343345  0.48881333  0.91001641  1
  O  O179  1  0.84343345  0.82214667  0.91001641  1
  O  O180  1  0.40656655  -0.01118667  0.58998359  1
  O  O181  1  0.40656655  0.32214667  0.58998359  1
  O  O182  1  0.40656655  0.65548000  0.58998359  1
  O  O183  1  0.90656655  -0.01118667  0.58998359  1
  O  O184  1  0.90656655  0.32214667  0.58998359  1
  O  O185  1  0.90656655  0.65548000  0.58998359  1
  O  O186  1  0.65656655  0.15548000  0.58998359  1
  O  O187  1  0.65656655  0.48881333  0.58998359  1
  O  O188  1  0.65656655  0.82214667  0.58998359  1
  O  O189  1  1.15656655  0.15548000  0.58998359  1
  O  O190  1  1.15656655  0.48881333  0.58998359  1
  O  O191  1  1.15656655  0.82214667  0.58998359  1
  O  O192  1  0.29127495  0.08696983  0.11563286  1
  O  O193  1  0.29127495  0.42030317  0.11563286  1
  O  O194  1  0.29127495  0.75363650  0.11563286  1
  O  O195  1  0.79127495  0.08696983  0.11563286  1
  O  O196  1  0.79127495  0.42030317  0.11563286  1
  O  O197  1  0.79127495  0.75363650  0.11563286  1
  O  O198  1  0.54127495  0.25363650  0.11563286  1
  O  O199  1  0.54127495  0.58696983  0.11563286  1
  O  O200  1  0.54127495  0.92030317  0.11563286  1
  O  O201  1  1.04127495  0.25363650  0.11563286  1
  O  O202  1  1.04127495  0.58696983  0.11563286  1
  O  O203  1  1.04127495  0.92030317  0.11563286  1
  O  O204  1  0.20872505  0.08696983  0.38436714  1
  O  O205  1  0.20872505  0.42030317  0.38436714  1
  O  O206  1  0.20872505  0.75363650  0.38436714  1
  O  O207  1  0.70872505  0.08696983  0.38436714  1
  O  O208  1  0.70872505  0.42030317  0.38436714  1
  O  O209  1  0.70872505  0.75363650  0.38436714  1
  O  O210  1  0.45872505  0.25363650  0.38436714  1
  O  O211  1  0.45872505  0.58696983  0.38436714  1
  O  O212  1  0.45872505  0.92030317  0.38436714  1
  O  O213  1  0.95872505  0.25363650  0.38436714  1
  O  O214  1  0.95872505  0.58696983  0.38436714  1
  O  O215  1  0.95872505  0.92030317  0.38436714  1
  O  O216  1  0.20872505  -0.08696983  0.88436714  1
  O  O217  1  0.20872505  0.24636350  0.88436714  1
  O  O218  1  0.20872505  0.57969683  0.88436714  1
  O  O219  1  0.70872505  -0.08696983  0.88436714  1
  O  O220  1  0.70872505  0.24636350  0.88436714  1
  O  O221  1  0.70872505  0.57969683  0.88436714  1
  O  O222  1  0.45872505  0.07969683  0.88436714  1
  O  O223  1  0.45872505  0.41303017  0.88436714  1
  O  O224  1  0.45872505  0.74636350  0.88436714  1
  O  O225  1  0.95872505  0.07969683  0.88436714  1
  O  O226  1  0.95872505  0.41303017  0.88436714  1
  O  O227  1  0.95872505  0.74636350  0.88436714  1
  O  O228  1  0.29127495  -0.08696983  0.61563286  1
  O  O229  1  0.29127495  0.24636350  0.61563286  1
  O  O230  1  0.29127495  0.57969683  0.61563286  1
  O  O231  1  0.79127495  -0.08696983  0.61563286  1
  O  O232  1  0.79127495  0.24636350  0.61563286  1
  O  O233  1  0.79127495  0.57969683  0.61563286  1
  O  O234  1  0.54127495  0.07969683  0.61563286  1
  O  O235  1  0.54127495  0.41303017  0.61563286  1
  O  O236  1  0.54127495  0.74636350  0.61563286  1
  O  O237  1  1.04127495  0.07969683  0.61563286  1
  O  O238  1  1.04127495  0.41303017  0.61563286  1
  O  O239  1  1.04127495  0.74636350  0.61563286  1
  O  O240  1  0.29080072  -0.06490808  0.08252803  1
  O  O241  1  0.29080072  0.26842526  0.08252803  1
  O  O242  1  0.29080072  0.60175859  0.08252803  1
  O  O243  1  0.79080072  -0.06490808  0.08252803  1
  O  O244  1  0.79080072  0.26842526  0.08252803  1
  O  O245  1  0.79080072  0.60175859  0.08252803  1
  O  O246  1  0.54080072  0.10175859  0.08252803  1
  O  O247  1  0.54080072  0.43509192  0.08252803  1
  O  O248  1  0.54080072  0.76842526  0.08252803  1
  O  O249  1  1.04080072  0.10175859  0.08252803  1
  O  O250  1  1.04080072  0.43509192  0.08252803  1
  O  O251  1  1.04080072  0.76842526  0.08252803  1
  O  O252  1  0.20919928  -0.06490808  0.41747197  1
  O  O253  1  0.20919928  0.26842526  0.41747197  1
  O  O254  1  0.20919928  0.60175859  0.41747197  1
  O  O255  1  0.70919928  -0.06490808  0.41747197  1
  O  O256  1  0.70919928  0.26842526  0.41747197  1
  O  O257  1  0.70919928  0.60175859  0.41747197  1
  O  O258  1  0.45919928  0.10175859  0.41747197  1
  O  O259  1  0.45919928  0.43509192  0.41747197  1
  O  O260  1  0.45919928  0.76842526  0.41747197  1
  O  O261  1  0.95919928  0.10175859  0.41747197  1
  O  O262  1  0.95919928  0.43509192  0.41747197  1
  O  O263  1  0.95919928  0.76842526  0.41747197  1
  O  O264  1  0.20919928  0.06490808  0.91747197  1
  O  O265  1  0.20919928  0.39824141  0.91747197  1
  O  O266  1  0.20919928  0.73157474  0.91747197  1
  O  O267  1  0.70919928  0.06490808  0.91747197  1
  O  O268  1  0.70919928  0.39824141  0.91747197  1
  O  O269  1  0.70919928  0.73157474  0.91747197  1
  O  O270  1  0.45919928  0.23157474  0.91747197  1
  O  O271  1  0.45919928  0.56490808  0.91747197  1
  O  O272  1  0.45919928  0.89824141  0.91747197  1
  O  O273  1  0.95919928  0.23157474  0.91747197  1
  O  O274  1  0.95919928  0.56490808  0.91747197  1
  O  O275  1  0.95919928  0.89824141  0.91747197  1
  O  O276  1  0.29080072  0.06490808  0.58252803  1
  O  O277  1  0.29080072  0.39824141  0.58252803  1
  O  O278  1  0.29080072  0.73157474  0.58252803  1
  O  O279  1  0.79080072  0.06490808  0.58252803  1
  O  O280  1  0.79080072  0.39824141  0.58252803  1
  O  O281  1  0.79080072  0.73157474  0.58252803  1
  O  O282  1  0.54080072  0.23157474  0.58252803  1
  O  O283  1  0.54080072  0.56490808  0.58252803  1
  O  O284  1  0.54080072  0.89824141  0.58252803  1
  O  O285  1  1.04080072  0.23157474  0.58252803  1
  O  O286  1  1.04080072  0.56490808  0.58252803  1
  O  O287  1  1.04080072  0.89824141  0.58252803  1
  O  O288  1  0.33578195  0.01414429  0.73994840  1
  O  O289  1  0.33578195  0.34747762  0.73994840  1
  O  O290  1  0.33578195  0.68081096  0.73994840  1
  O  O291  1  0.83578195  0.01414429  0.73994840  1
  O  O292  1  0.83578195  0.34747762  0.73994840  1
  O  O293  1  0.83578195  0.68081096  0.73994840  1
  O  O294  1  0.58578195  0.18081096  0.73994840  1
  O  O295  1  0.58578195  0.51414429  0.73994840  1
  O  O296  1  0.58578195  0.84747762  0.73994840  1
  O  O297  1  1.08578195  0.18081096  0.73994840  1
  O  O298  1  1.08578195  0.51414429  0.73994840  1
  O  O299  1  1.08578195  0.84747762  0.73994840  1
  O  O300  1  0.16421805  0.01414429  0.76005160  1
  O  O301  1  0.16421805  0.34747762  0.76005160  1
  O  O302  1  0.16421805  0.68081096  0.76005160  1
  O  O303  1  0.66421805  0.01414429  0.76005160  1
  O  O304  1  0.66421805  0.34747762  0.76005160  1
  O  O305  1  0.66421805  0.68081096  0.76005160  1
  O  O306  1  0.41421805  0.18081096  0.76005160  1
  O  O307  1  0.41421805  0.51414429  0.76005160  1
  O  O308  1  0.41421805  0.84747762  0.76005160  1
  O  O309  1  0.91421805  0.18081096  0.76005160  1
  O  O310  1  0.91421805  0.51414429  0.76005160  1
  O  O311  1  0.91421805  0.84747762  0.76005160  1
  O  O312  1  0.33578195  -0.01414429  0.23994840  1
  O  O313  1  0.33578195  0.31918904  0.23994840  1
  O  O314  1  0.33578195  0.65252238  0.23994840  1
  O  O315  1  0.83578195  -0.01414429  0.23994840  1
  O  O316  1  0.83578195  0.31918904  0.23994840  1
  O  O317  1  0.83578195  0.65252238  0.23994840  1
  O  O318  1  0.58578195  0.15252238  0.23994840  1
  O  O319  1  0.58578195  0.48585571  0.23994840  1
  O  O320  1  0.58578195  0.81918904  0.23994840  1
  O  O321  1  1.08578195  0.15252238  0.23994840  1
  O  O322  1  1.08578195  0.48585571  0.23994840  1
  O  O323  1  1.08578195  0.81918904  0.23994840  1
  O  O324  1  0.16421805  -0.01414429  0.26005160  1
  O  O325  1  0.16421805  0.31918904  0.26005160  1
  O  O326  1  0.16421805  0.65252238  0.26005160  1
  O  O327  1  0.66421805  -0.01414429  0.26005160  1
  O  O328  1  0.66421805  0.31918904  0.26005160  1
  O  O329  1  0.66421805  0.65252238  0.26005160  1
  O  O330  1  0.41421805  0.15252238  0.26005160  1
  O  O331  1  0.41421805  0.48585571  0.26005160  1
  O  O332  1  0.41421805  0.81918904  0.26005160  1
  O  O333  1  0.91421805  0.15252238  0.26005160  1
  O  O334  1  0.91421805  0.48585571  0.26005160  1
  O  O335  1  0.91421805  0.81918904  0.26005160  1
