# generated using pymatgen
data_Cs2LiVO4
_symmetry_space_group_name_H-M   'P 1'
_cell_length_a   12.01607233
_cell_length_b   12.12358179
_cell_length_c   16.29065481
_cell_angle_alpha   90.00000000
_cell_angle_beta   90.00000000
_cell_angle_gamma   90.00000000
_symmetry_Int_Tables_number   1
_chemical_formula_structural   Cs2LiVO4
_chemical_formula_sum   'Cs32 Li16 V16 O64'
_cell_volume   2373.18733536
_cell_formula_units_Z   16
loop_
 _symmetry_equiv_pos_site_id
 _symmetry_equiv_pos_as_xyz
  1  'x, y, z'
loop_
 _atom_site_type_symbol
 _atom_site_label
 _atom_site_symmetry_multiplicity
 _atom_site_fract_x
 _atom_site_fract_y
 _atom_site_fract_z
 _atom_site_occupancy
  Cs  Cs0  1  0.25000000  0.10648638  0.27143302  1
  Cs  Cs1  1  0.25000000  0.10648638  0.77143302  1
  Cs  Cs2  1  0.75000000  0.10648638  0.27143302  1
  Cs  Cs3  1  0.75000000  0.10648638  0.77143302  1
  Cs  Cs4  1  0.50000000  0.60648638  0.27143302  1
  Cs  Cs5  1  0.50000000  0.60648638  0.77143302  1
  Cs  Cs6  1  1.00000000  0.60648638  0.27143302  1
  Cs  Cs7  1  1.00000000  0.60648638  0.77143302  1
  Cs  Cs8  1  0.25000000  -0.10648638  0.02143302  1
  Cs  Cs9  1  0.25000000  -0.10648638  0.52143302  1
  Cs  Cs10  1  0.75000000  -0.10648638  0.02143302  1
  Cs  Cs11  1  0.75000000  -0.10648638  0.52143302  1
  Cs  Cs12  1  0.50000000  0.39351362  0.02143302  1
  Cs  Cs13  1  0.50000000  0.39351362  0.52143302  1
  Cs  Cs14  1  1.00000000  0.39351362  0.02143302  1
  Cs  Cs15  1  1.00000000  0.39351362  0.52143302  1
  Cs  Cs16  1  0.25000000  0.42955218  0.20530415  1
  Cs  Cs17  1  0.25000000  0.42955218  0.70530415  1
  Cs  Cs18  1  0.75000000  0.42955218  0.20530415  1
  Cs  Cs19  1  0.75000000  0.42955218  0.70530415  1
  Cs  Cs20  1  0.50000000  0.92955218  0.20530415  1
  Cs  Cs21  1  0.50000000  0.92955218  0.70530415  1
  Cs  Cs22  1  1.00000000  0.92955218  0.20530415  1
  Cs  Cs23  1  1.00000000  0.92955218  0.70530415  1
  Cs  Cs24  1  0.25000000  -0.42955218  0.45530415  1
  Cs  Cs25  1  0.25000000  -0.42955218  0.95530415  1
  Cs  Cs26  1  0.75000000  -0.42955218  0.45530415  1
  Cs  Cs27  1  0.75000000  -0.42955218  0.95530415  1
  Cs  Cs28  1  0.50000000  0.07044782  0.45530415  1
  Cs  Cs29  1  0.50000000  0.07044782  0.95530415  1
  Cs  Cs30  1  1.00000000  0.07044782  0.45530415  1
  Cs  Cs31  1  1.00000000  0.07044782  0.95530415  1
  Li  Li32  1  0.25000000  0.29644829  0.41187372  1
  Li  Li33  1  0.25000000  0.29644829  0.91187372  1
  Li  Li34  1  0.75000000  0.29644829  0.41187372  1
  Li  Li35  1  0.75000000  0.29644829  0.91187372  1
  Li  Li36  1  0.50000000  0.79644829  0.41187372  1
  Li  Li37  1  0.50000000  0.79644829  0.91187372  1
  Li  Li38  1  1.00000000  0.79644829  0.41187372  1
  Li  Li39  1  1.00000000  0.79644829  0.91187372  1
  Li  Li40  1  0.25000000  -0.29644829  0.16187372  1
  Li  Li41  1  0.25000000  -0.29644829  0.66187372  1
  Li  Li42  1  0.75000000  -0.29644829  0.16187372  1
  Li  Li43  1  0.75000000  -0.29644829  0.66187372  1
  Li  Li44  1  0.50000000  0.20355171  0.16187372  1
  Li  Li45  1  0.50000000  0.20355171  0.66187372  1
  Li  Li46  1  1.00000000  0.20355171  0.16187372  1
  Li  Li47  1  1.00000000  0.20355171  0.66187372  1
  V  V48  1  0.25000000  -0.19842453  0.30230898  1
  V  V49  1  0.25000000  -0.19842453  0.80230898  1
  V  V50  1  0.75000000  -0.19842453  0.30230898  1
  V  V51  1  0.75000000  -0.19842453  0.80230898  1
  V  V52  1  0.50000000  0.30157547  0.30230898  1
  V  V53  1  0.50000000  0.30157547  0.80230898  1
  V  V54  1  1.00000000  0.30157547  0.30230898  1
  V  V55  1  1.00000000  0.30157547  0.80230898  1
  V  V56  1  0.25000000  0.19842453  0.05230898  1
  V  V57  1  0.25000000  0.19842453  0.55230898  1
  V  V58  1  0.75000000  0.19842453  0.05230898  1
  V  V59  1  0.75000000  0.19842453  0.55230898  1
  V  V60  1  0.50000000  0.69842453  0.05230898  1
  V  V61  1  0.50000000  0.69842453  0.55230898  1
  V  V62  1  1.00000000  0.69842453  0.05230898  1
  V  V63  1  1.00000000  0.69842453  0.55230898  1
  O  O64  1  0.13196195  0.16057796  0.10554331  1
  O  O65  1  0.13196195  0.16057796  0.60554331  1
  O  O66  1  0.63196195  0.16057796  0.10554331  1
  O  O67  1  0.63196195  0.16057796  0.60554331  1
  O  O68  1  0.38196195  0.66057796  0.10554331  1
  O  O69  1  0.38196195  0.66057796  0.60554331  1
  O  O70  1  0.88196195  0.66057796  0.10554331  1
  O  O71  1  0.88196195  0.66057796  0.60554331  1
  O  O72  1  0.36803805  -0.16057796  0.35554331  1
  O  O73  1  0.36803805  -0.16057796  0.85554331  1
  O  O74  1  0.86803805  -0.16057796  0.35554331  1
  O  O75  1  0.86803805  -0.16057796  0.85554331  1
  O  O76  1  0.61803805  0.33942204  0.35554331  1
  O  O77  1  0.61803805  0.33942204  0.85554331  1
  O  O78  1  1.11803805  0.33942204  0.35554331  1
  O  O79  1  1.11803805  0.33942204  0.85554331  1
  O  O80  1  0.25000000  0.13758610  0.45653106  1
  O  O81  1  0.25000000  0.13758610  0.95653106  1
  O  O82  1  0.75000000  0.13758610  0.45653106  1
  O  O83  1  0.75000000  0.13758610  0.95653106  1
  O  O84  1  0.50000000  0.63758610  0.45653106  1
  O  O85  1  0.50000000  0.63758610  0.95653106  1
  O  O86  1  1.00000000  0.63758610  0.45653106  1
  O  O87  1  1.00000000  0.63758610  0.95653106  1
  O  O88  1  0.25000000  -0.13758610  0.20653106  1
  O  O89  1  0.25000000  -0.13758610  0.70653106  1
  O  O90  1  0.75000000  -0.13758610  0.20653106  1
  O  O91  1  0.75000000  -0.13758610  0.70653106  1
  O  O92  1  0.50000000  0.36241390  0.20653106  1
  O  O93  1  0.50000000  0.36241390  0.70653106  1
  O  O94  1  1.00000000  0.36241390  0.20653106  1
  O  O95  1  1.00000000  0.36241390  0.70653106  1
  O  O96  1  0.36803805  0.16057796  0.10554331  1
  O  O97  1  0.36803805  0.16057796  0.60554331  1
  O  O98  1  0.86803805  0.16057796  0.10554331  1
  O  O99  1  0.86803805  0.16057796  0.60554331  1
  O  O100  1  0.61803805  0.66057796  0.10554331  1
  O  O101  1  0.61803805  0.66057796  0.60554331  1
  O  O102  1  1.11803805  0.66057796  0.10554331  1
  O  O103  1  1.11803805  0.66057796  0.60554331  1
  O  O104  1  0.13196195  -0.16057796  0.35554331  1
  O  O105  1  0.13196195  -0.16057796  0.85554331  1
  O  O106  1  0.63196195  -0.16057796  0.35554331  1
  O  O107  1  0.63196195  -0.16057796  0.85554331  1
  O  O108  1  0.38196195  0.33942204  0.35554331  1
  O  O109  1  0.38196195  0.33942204  0.85554331  1
  O  O110  1  0.88196195  0.33942204  0.35554331  1
  O  O111  1  0.88196195  0.33942204  0.85554331  1
  O  O112  1  0.25000000  -0.33830027  0.28096245  1
  O  O113  1  0.25000000  -0.33830027  0.78096245  1
  O  O114  1  0.75000000  -0.33830027  0.28096245  1
  O  O115  1  0.75000000  -0.33830027  0.78096245  1
  O  O116  1  0.50000000  0.16169973  0.28096245  1
  O  O117  1  0.50000000  0.16169973  0.78096245  1
  O  O118  1  1.00000000  0.16169973  0.28096245  1
  O  O119  1  1.00000000  0.16169973  0.78096245  1
  O  O120  1  0.25000000  0.33830027  0.03096245  1
  O  O121  1  0.25000000  0.33830027  0.53096245  1
  O  O122  1  0.75000000  0.33830027  0.03096245  1
  O  O123  1  0.75000000  0.33830027  0.53096245  1
  O  O124  1  0.50000000  0.83830027  0.03096245  1
  O  O125  1  0.50000000  0.83830027  0.53096245  1
  O  O126  1  1.00000000  0.83830027  0.03096245  1
  O  O127  1  1.00000000  0.83830027  0.53096245  1
