# generated using pymatgen
data_Ca3TaGa3(SiO7)2
_symmetry_space_group_name_H-M   'P 1'
_cell_length_a   16.17055885
_cell_length_b   16.17055885
_cell_length_c   14.92095140
_cell_angle_alpha   90.00000000
_cell_angle_beta   90.00000000
_cell_angle_gamma   120.00000000
_symmetry_Int_Tables_number   1
_chemical_formula_structural   Ca3TaGa3(SiO7)2
_chemical_formula_sum   'Ca36 Ta12 Ga36 Si24 O168'
_cell_volume   3378.91452733
_cell_formula_units_Z   12
loop_
 _symmetry_equiv_pos_site_id
 _symmetry_equiv_pos_as_xyz
  1  'x, y, z'
loop_
 _atom_site_type_symbol
 _atom_site_label
 _atom_site_symmetry_multiplicity
 _atom_site_fract_x
 _atom_site_fract_y
 _atom_site_fract_z
 _atom_site_occupancy
  Ca  Ca0  1  -0.00000000  0.21176856  0.00000000  1
  Ca  Ca1  1  -0.00000000  0.21176856  0.33333333  1
  Ca  Ca2  1  -0.00000000  0.21176856  0.66666667  1
  Ca  Ca3  1  -0.00000000  0.71176856  0.00000000  1
  Ca  Ca4  1  -0.00000000  0.71176856  0.33333333  1
  Ca  Ca5  1  -0.00000000  0.71176856  0.66666667  1
  Ca  Ca6  1  0.50000000  0.21176856  0.00000000  1
  Ca  Ca7  1  0.50000000  0.21176856  0.33333333  1
  Ca  Ca8  1  0.50000000  0.21176856  0.66666667  1
  Ca  Ca9  1  0.50000000  0.71176856  0.00000000  1
  Ca  Ca10  1  0.50000000  0.71176856  0.33333333  1
  Ca  Ca11  1  0.50000000  0.71176856  0.66666667  1
  Ca  Ca12  1  0.28823144  0.28823144  0.00000000  1
  Ca  Ca13  1  0.28823144  0.28823144  0.33333333  1
  Ca  Ca14  1  0.28823144  0.28823144  0.66666667  1
  Ca  Ca15  1  0.28823144  0.78823144  0.00000000  1
  Ca  Ca16  1  0.28823144  0.78823144  0.33333333  1
  Ca  Ca17  1  0.28823144  0.78823144  0.66666667  1
  Ca  Ca18  1  0.78823144  0.28823144  0.00000000  1
  Ca  Ca19  1  0.78823144  0.28823144  0.33333333  1
  Ca  Ca20  1  0.78823144  0.28823144  0.66666667  1
  Ca  Ca21  1  0.78823144  0.78823144  0.00000000  1
  Ca  Ca22  1  0.78823144  0.78823144  0.33333333  1
  Ca  Ca23  1  0.78823144  0.78823144  0.66666667  1
  Ca  Ca24  1  0.21176856  0.00000000  0.00000000  1
  Ca  Ca25  1  0.21176856  0.00000000  0.33333333  1
  Ca  Ca26  1  0.21176856  0.00000000  0.66666667  1
  Ca  Ca27  1  0.21176856  0.50000000  0.00000000  1
  Ca  Ca28  1  0.21176856  0.50000000  0.33333333  1
  Ca  Ca29  1  0.21176856  0.50000000  0.66666667  1
  Ca  Ca30  1  0.71176856  0.00000000  0.00000000  1
  Ca  Ca31  1  0.71176856  0.00000000  0.33333333  1
  Ca  Ca32  1  0.71176856  0.00000000  0.66666667  1
  Ca  Ca33  1  0.71176856  0.50000000  0.00000000  1
  Ca  Ca34  1  0.71176856  0.50000000  0.33333333  1
  Ca  Ca35  1  0.71176856  0.50000000  0.66666667  1
  Ta  Ta36  1  0.00000000  0.00000000  0.00000000  1
  Ta  Ta37  1  0.00000000  0.00000000  0.33333333  1
  Ta  Ta38  1  0.00000000  0.00000000  0.66666667  1
  Ta  Ta39  1  -0.00000000  0.50000000  0.00000000  1
  Ta  Ta40  1  -0.00000000  0.50000000  0.33333333  1
  Ta  Ta41  1  -0.00000000  0.50000000  0.66666667  1
  Ta  Ta42  1  0.50000000  0.00000000  0.00000000  1
  Ta  Ta43  1  0.50000000  0.00000000  0.33333333  1
  Ta  Ta44  1  0.50000000  0.00000000  0.66666667  1
  Ta  Ta45  1  0.50000000  0.50000000  0.00000000  1
  Ta  Ta46  1  0.50000000  0.50000000  0.33333333  1
  Ta  Ta47  1  0.50000000  0.50000000  0.66666667  1
  Ga  Ga48  1  0.12690776  0.12690776  0.16666667  1
  Ga  Ga49  1  0.12690776  0.12690776  0.50000000  1
  Ga  Ga50  1  0.12690776  0.12690776  0.83333333  1
  Ga  Ga51  1  0.12690776  0.62690776  0.16666667  1
  Ga  Ga52  1  0.12690776  0.62690776  0.50000000  1
  Ga  Ga53  1  0.12690776  0.62690776  0.83333333  1
  Ga  Ga54  1  0.62690776  0.12690776  0.16666667  1
  Ga  Ga55  1  0.62690776  0.12690776  0.50000000  1
  Ga  Ga56  1  0.62690776  0.12690776  0.83333333  1
  Ga  Ga57  1  0.62690776  0.62690776  0.16666667  1
  Ga  Ga58  1  0.62690776  0.62690776  0.50000000  1
  Ga  Ga59  1  0.62690776  0.62690776  0.83333333  1
  Ga  Ga60  1  0.37309224  0.00000000  0.16666667  1
  Ga  Ga61  1  0.37309224  0.00000000  0.50000000  1
  Ga  Ga62  1  0.37309224  0.00000000  0.83333333  1
  Ga  Ga63  1  0.37309224  0.50000000  0.16666667  1
  Ga  Ga64  1  0.37309224  0.50000000  0.50000000  1
  Ga  Ga65  1  0.37309224  0.50000000  0.83333333  1
  Ga  Ga66  1  0.87309224  0.00000000  0.16666667  1
  Ga  Ga67  1  0.87309224  0.00000000  0.50000000  1
  Ga  Ga68  1  0.87309224  0.00000000  0.83333333  1
  Ga  Ga69  1  0.87309224  0.50000000  0.16666667  1
  Ga  Ga70  1  0.87309224  0.50000000  0.50000000  1
  Ga  Ga71  1  0.87309224  0.50000000  0.83333333  1
  Ga  Ga72  1  0.00000000  0.37309224  0.16666667  1
  Ga  Ga73  1  0.00000000  0.37309224  0.50000000  1
  Ga  Ga74  1  0.00000000  0.37309224  0.83333333  1
  Ga  Ga75  1  0.00000000  0.87309224  0.16666667  1
  Ga  Ga76  1  0.00000000  0.87309224  0.50000000  1
  Ga  Ga77  1  0.00000000  0.87309224  0.83333333  1
  Ga  Ga78  1  0.50000000  0.37309224  0.16666667  1
  Ga  Ga79  1  0.50000000  0.37309224  0.50000000  1
  Ga  Ga80  1  0.50000000  0.37309224  0.83333333  1
  Ga  Ga81  1  0.50000000  0.87309224  0.16666667  1
  Ga  Ga82  1  0.50000000  0.87309224  0.50000000  1
  Ga  Ga83  1  0.50000000  0.87309224  0.83333333  1
  Si  Si84  1  0.16666667  0.33333333  0.18381777  1
  Si  Si85  1  0.16666667  0.33333333  0.51715110  1
  Si  Si86  1  0.16666667  0.33333333  0.85048443  1
  Si  Si87  1  0.16666667  0.83333333  0.18381777  1
  Si  Si88  1  0.16666667  0.83333333  0.51715110  1
  Si  Si89  1  0.16666667  0.83333333  0.85048443  1
  Si  Si90  1  0.66666667  0.33333333  0.18381777  1
  Si  Si91  1  0.66666667  0.33333333  0.51715110  1
  Si  Si92  1  0.66666667  0.33333333  0.85048443  1
  Si  Si93  1  0.66666667  0.83333333  0.18381777  1
  Si  Si94  1  0.66666667  0.83333333  0.51715110  1
  Si  Si95  1  0.66666667  0.83333333  0.85048443  1
  Si  Si96  1  0.33333333  0.16666667  0.14951557  1
  Si  Si97  1  0.33333333  0.16666667  0.48284890  1
  Si  Si98  1  0.33333333  0.16666667  0.81618223  1
  Si  Si99  1  0.33333333  0.66666667  0.14951557  1
  Si  Si100  1  0.33333333  0.66666667  0.48284890  1
  Si  Si101  1  0.33333333  0.66666667  0.81618223  1
  Si  Si102  1  0.83333333  0.16666667  0.14951557  1
  Si  Si103  1  0.83333333  0.16666667  0.48284890  1
  Si  Si104  1  0.83333333  0.16666667  0.81618223  1
  Si  Si105  1  0.83333333  0.66666667  0.14951557  1
  Si  Si106  1  0.83333333  0.66666667  0.48284890  1
  Si  Si107  1  0.83333333  0.66666667  0.81618223  1
  O  O108  1  0.04084733  0.11279836  0.07894002  1
  O  O109  1  0.04084733  0.11279836  0.41227335  1
  O  O110  1  0.04084733  0.11279836  0.74560668  1
  O  O111  1  0.04084733  0.61279836  0.07894002  1
  O  O112  1  0.04084733  0.61279836  0.41227335  1
  O  O113  1  0.04084733  0.61279836  0.74560668  1
  O  O114  1  0.54084733  0.11279836  0.07894002  1
  O  O115  1  0.54084733  0.11279836  0.41227335  1
  O  O116  1  0.54084733  0.11279836  0.74560668  1
  O  O117  1  0.54084733  0.61279836  0.07894002  1
  O  O118  1  0.54084733  0.61279836  0.41227335  1
  O  O119  1  0.54084733  0.61279836  0.74560668  1
  O  O120  1  0.38720164  0.42804896  0.07894002  1
  O  O121  1  0.38720164  0.42804896  0.41227335  1
  O  O122  1  0.38720164  0.42804896  0.74560668  1
  O  O123  1  0.38720164  0.92804896  0.07894002  1
  O  O124  1  0.38720164  0.92804896  0.41227335  1
  O  O125  1  0.38720164  0.92804896  0.74560668  1
  O  O126  1  0.88720164  0.42804896  0.07894002  1
  O  O127  1  0.88720164  0.42804896  0.41227335  1
  O  O128  1  0.88720164  0.42804896  0.74560668  1
  O  O129  1  0.88720164  0.92804896  0.07894002  1
  O  O130  1  0.88720164  0.92804896  0.41227335  1
  O  O131  1  0.88720164  0.92804896  0.74560668  1
  O  O132  1  0.07195104  0.45915267  0.07894002  1
  O  O133  1  0.07195104  0.45915267  0.41227335  1
  O  O134  1  0.07195104  0.45915267  0.74560668  1
  O  O135  1  0.07195104  0.95915267  0.07894002  1
  O  O136  1  0.07195104  0.95915267  0.41227335  1
  O  O137  1  0.07195104  0.95915267  0.74560668  1
  O  O138  1  0.57195104  0.45915267  0.07894002  1
  O  O139  1  0.57195104  0.45915267  0.41227335  1
  O  O140  1  0.57195104  0.45915267  0.74560668  1
  O  O141  1  0.57195104  0.95915267  0.07894002  1
  O  O142  1  0.57195104  0.95915267  0.41227335  1
  O  O143  1  0.57195104  0.95915267  0.74560668  1
  O  O144  1  0.42804896  0.38720164  0.25439332  1
  O  O145  1  0.42804896  0.38720164  0.58772665  1
  O  O146  1  0.42804896  0.38720164  0.92105998  1
  O  O147  1  0.42804896  0.88720164  0.25439332  1
  O  O148  1  0.42804896  0.88720164  0.58772665  1
  O  O149  1  0.42804896  0.88720164  0.92105998  1
  O  O150  1  0.92804896  0.38720164  0.25439332  1
  O  O151  1  0.92804896  0.38720164  0.58772665  1
  O  O152  1  0.92804896  0.38720164  0.92105998  1
  O  O153  1  0.92804896  0.88720164  0.25439332  1
  O  O154  1  0.92804896  0.88720164  0.58772665  1
  O  O155  1  0.92804896  0.88720164  0.92105998  1
  O  O156  1  0.45915267  0.07195104  0.25439332  1
  O  O157  1  0.45915267  0.07195104  0.58772665  1
  O  O158  1  0.45915267  0.07195104  0.92105998  1
  O  O159  1  0.45915267  0.57195104  0.25439332  1
  O  O160  1  0.45915267  0.57195104  0.58772665  1
  O  O161  1  0.45915267  0.57195104  0.92105998  1
  O  O162  1  0.95915267  0.07195104  0.25439332  1
  O  O163  1  0.95915267  0.07195104  0.58772665  1
  O  O164  1  0.95915267  0.07195104  0.92105998  1
  O  O165  1  0.95915267  0.57195104  0.25439332  1
  O  O166  1  0.95915267  0.57195104  0.58772665  1
  O  O167  1  0.95915267  0.57195104  0.92105998  1
  O  O168  1  0.11279836  0.04084733  0.25439332  1
  O  O169  1  0.11279836  0.04084733  0.58772665  1
  O  O170  1  0.11279836  0.04084733  0.92105998  1
  O  O171  1  0.11279836  0.54084733  0.25439332  1
  O  O172  1  0.11279836  0.54084733  0.58772665  1
  O  O173  1  0.11279836  0.54084733  0.92105998  1
  O  O174  1  0.61279836  0.04084733  0.25439332  1
  O  O175  1  0.61279836  0.04084733  0.58772665  1
  O  O176  1  0.61279836  0.04084733  0.92105998  1
  O  O177  1  0.61279836  0.54084733  0.25439332  1
  O  O178  1  0.61279836  0.54084733  0.58772665  1
  O  O179  1  0.61279836  0.54084733  0.92105998  1
  O  O180  1  0.16095321  0.23787750  0.23122171  1
  O  O181  1  0.16095321  0.23787750  0.56455505  1
  O  O182  1  0.16095321  0.23787750  0.89788838  1
  O  O183  1  0.16095321  0.73787750  0.23122171  1
  O  O184  1  0.16095321  0.73787750  0.56455505  1
  O  O185  1  0.16095321  0.73787750  0.89788838  1
  O  O186  1  0.66095321  0.23787750  0.23122171  1
  O  O187  1  0.66095321  0.23787750  0.56455505  1
  O  O188  1  0.66095321  0.23787750  0.89788838  1
  O  O189  1  0.66095321  0.73787750  0.23122171  1
  O  O190  1  0.66095321  0.73787750  0.56455505  1
  O  O191  1  0.66095321  0.73787750  0.89788838  1
  O  O192  1  0.26212250  0.42307571  0.23122171  1
  O  O193  1  0.26212250  0.42307571  0.56455505  1
  O  O194  1  0.26212250  0.42307571  0.89788838  1
  O  O195  1  0.26212250  0.92307571  0.23122171  1
  O  O196  1  0.26212250  0.92307571  0.56455505  1
  O  O197  1  0.26212250  0.92307571  0.89788838  1
  O  O198  1  0.76212250  0.42307571  0.23122171  1
  O  O199  1  0.76212250  0.42307571  0.56455505  1
  O  O200  1  0.76212250  0.42307571  0.89788838  1
  O  O201  1  0.76212250  0.92307571  0.23122171  1
  O  O202  1  0.76212250  0.92307571  0.56455505  1
  O  O203  1  0.76212250  0.92307571  0.89788838  1
  O  O204  1  0.07692429  0.33904679  0.23122171  1
  O  O205  1  0.07692429  0.33904679  0.56455505  1
  O  O206  1  0.07692429  0.33904679  0.89788838  1
  O  O207  1  0.07692429  0.83904679  0.23122171  1
  O  O208  1  0.07692429  0.83904679  0.56455505  1
  O  O209  1  0.07692429  0.83904679  0.89788838  1
  O  O210  1  0.57692429  0.33904679  0.23122171  1
  O  O211  1  0.57692429  0.33904679  0.56455505  1
  O  O212  1  0.57692429  0.33904679  0.89788838  1
  O  O213  1  0.57692429  0.83904679  0.23122171  1
  O  O214  1  0.57692429  0.83904679  0.56455505  1
  O  O215  1  0.57692429  0.83904679  0.89788838  1
  O  O216  1  0.16666667  0.33333333  0.07604016  1
  O  O217  1  0.16666667  0.33333333  0.40937350  1
  O  O218  1  0.16666667  0.33333333  0.74270683  1
  O  O219  1  0.16666667  0.83333333  0.07604016  1
  O  O220  1  0.16666667  0.83333333  0.40937350  1
  O  O221  1  0.16666667  0.83333333  0.74270683  1
  O  O222  1  0.66666667  0.33333333  0.07604016  1
  O  O223  1  0.66666667  0.33333333  0.40937350  1
  O  O224  1  0.66666667  0.33333333  0.74270683  1
  O  O225  1  0.66666667  0.83333333  0.07604016  1
  O  O226  1  0.66666667  0.83333333  0.40937350  1
  O  O227  1  0.66666667  0.83333333  0.74270683  1
  O  O228  1  0.33333333  0.16666667  0.25729317  1
  O  O229  1  0.33333333  0.16666667  0.59062650  1
  O  O230  1  0.33333333  0.16666667  0.92395984  1
  O  O231  1  0.33333333  0.66666667  0.25729317  1
  O  O232  1  0.33333333  0.66666667  0.59062650  1
  O  O233  1  0.33333333  0.66666667  0.92395984  1
  O  O234  1  0.83333333  0.16666667  0.25729317  1
  O  O235  1  0.83333333  0.16666667  0.59062650  1
  O  O236  1  0.83333333  0.16666667  0.92395984  1
  O  O237  1  0.83333333  0.66666667  0.25729317  1
  O  O238  1  0.83333333  0.66666667  0.59062650  1
  O  O239  1  0.83333333  0.66666667  0.92395984  1
  O  O240  1  0.23787750  0.16095321  0.10211162  1
  O  O241  1  0.23787750  0.16095321  0.43544495  1
  O  O242  1  0.23787750  0.16095321  0.76877829  1
  O  O243  1  0.23787750  0.66095321  0.10211162  1
  O  O244  1  0.23787750  0.66095321  0.43544495  1
  O  O245  1  0.23787750  0.66095321  0.76877829  1
  O  O246  1  0.73787750  0.16095321  0.10211162  1
  O  O247  1  0.73787750  0.16095321  0.43544495  1
  O  O248  1  0.73787750  0.16095321  0.76877829  1
  O  O249  1  0.73787750  0.66095321  0.10211162  1
  O  O250  1  0.73787750  0.66095321  0.43544495  1
  O  O251  1  0.73787750  0.66095321  0.76877829  1
  O  O252  1  0.33904679  0.07692429  0.10211162  1
  O  O253  1  0.33904679  0.07692429  0.43544495  1
  O  O254  1  0.33904679  0.07692429  0.76877829  1
  O  O255  1  0.33904679  0.57692429  0.10211162  1
  O  O256  1  0.33904679  0.57692429  0.43544495  1
  O  O257  1  0.33904679  0.57692429  0.76877829  1
  O  O258  1  0.83904679  0.07692429  0.10211162  1
  O  O259  1  0.83904679  0.07692429  0.43544495  1
  O  O260  1  0.83904679  0.07692429  0.76877829  1
  O  O261  1  0.83904679  0.57692429  0.10211162  1
  O  O262  1  0.83904679  0.57692429  0.43544495  1
  O  O263  1  0.83904679  0.57692429  0.76877829  1
  O  O264  1  0.42307571  0.26212250  0.10211162  1
  O  O265  1  0.42307571  0.26212250  0.43544495  1
  O  O266  1  0.42307571  0.26212250  0.76877829  1
  O  O267  1  0.42307571  0.76212250  0.10211162  1
  O  O268  1  0.42307571  0.76212250  0.43544495  1
  O  O269  1  0.42307571  0.76212250  0.76877829  1
  O  O270  1  0.92307571  0.26212250  0.10211162  1
  O  O271  1  0.92307571  0.26212250  0.43544495  1
  O  O272  1  0.92307571  0.26212250  0.76877829  1
  O  O273  1  0.92307571  0.76212250  0.10211162  1
  O  O274  1  0.92307571  0.76212250  0.43544495  1
  O  O275  1  0.92307571  0.76212250  0.76877829  1
