# generated using pymatgen
data_Li2CdGeO4
_symmetry_space_group_name_H-M   'P 1'
_cell_length_a   13.29932885
_cell_length_b   16.50450220
_cell_length_c   15.50855232
_cell_angle_alpha   90.00000000
_cell_angle_beta   90.00000000
_cell_angle_gamma   90.00000000
_symmetry_Int_Tables_number   1
_chemical_formula_structural   Li2CdGeO4
_chemical_formula_sum   'Li72 Cd36 Ge36 O144'
_cell_volume   3404.10865882
_cell_formula_units_Z   36
loop_
 _symmetry_equiv_pos_site_id
 _symmetry_equiv_pos_as_xyz
  1  'x, y, z'
loop_
 _atom_site_type_symbol
 _atom_site_label
 _atom_site_symmetry_multiplicity
 _atom_site_fract_x
 _atom_site_fract_y
 _atom_site_fract_z
 _atom_site_occupancy
  Li  Li0  1  0.37484640  0.11008168  0.32940302  1
  Li  Li1  1  0.37484640  0.11008168  0.66273636  1
  Li  Li2  1  0.37484640  0.11008168  0.99606969  1
  Li  Li3  1  0.37484640  0.44341501  0.32940302  1
  Li  Li4  1  0.37484640  0.44341501  0.66273636  1
  Li  Li5  1  0.37484640  0.44341501  0.99606969  1
  Li  Li6  1  0.37484640  0.77674834  0.32940302  1
  Li  Li7  1  0.37484640  0.77674834  0.66273636  1
  Li  Li8  1  0.37484640  0.77674834  0.99606969  1
  Li  Li9  1  0.87484640  0.11008168  0.32940302  1
  Li  Li10  1  0.87484640  0.11008168  0.66273636  1
  Li  Li11  1  0.87484640  0.11008168  0.99606969  1
  Li  Li12  1  0.87484640  0.44341501  0.32940302  1
  Li  Li13  1  0.87484640  0.44341501  0.66273636  1
  Li  Li14  1  0.87484640  0.44341501  0.99606969  1
  Li  Li15  1  0.87484640  0.77674834  0.32940302  1
  Li  Li16  1  0.87484640  0.77674834  0.66273636  1
  Li  Li17  1  0.87484640  0.77674834  0.99606969  1
  Li  Li18  1  0.12484640  0.22325166  0.16273636  1
  Li  Li19  1  0.12484640  0.22325166  0.49606969  1
  Li  Li20  1  0.12484640  0.22325166  0.82940302  1
  Li  Li21  1  0.12484640  0.55658499  0.16273636  1
  Li  Li22  1  0.12484640  0.55658499  0.49606969  1
  Li  Li23  1  0.12484640  0.55658499  0.82940302  1
  Li  Li24  1  0.12484640  0.88991832  0.16273636  1
  Li  Li25  1  0.12484640  0.88991832  0.49606969  1
  Li  Li26  1  0.12484640  0.88991832  0.82940302  1
  Li  Li27  1  0.62484640  0.22325166  0.16273636  1
  Li  Li28  1  0.62484640  0.22325166  0.49606969  1
  Li  Li29  1  0.62484640  0.22325166  0.82940302  1
  Li  Li30  1  0.62484640  0.55658499  0.16273636  1
  Li  Li31  1  0.62484640  0.55658499  0.49606969  1
  Li  Li32  1  0.62484640  0.55658499  0.82940302  1
  Li  Li33  1  0.62484640  0.88991832  0.16273636  1
  Li  Li34  1  0.62484640  0.88991832  0.49606969  1
  Li  Li35  1  0.62484640  0.88991832  0.82940302  1
  Li  Li36  1  0.12515360  0.11008168  0.32940302  1
  Li  Li37  1  0.12515360  0.11008168  0.66273636  1
  Li  Li38  1  0.12515360  0.11008168  0.99606969  1
  Li  Li39  1  0.12515360  0.44341501  0.32940302  1
  Li  Li40  1  0.12515360  0.44341501  0.66273636  1
  Li  Li41  1  0.12515360  0.44341501  0.99606969  1
  Li  Li42  1  0.12515360  0.77674834  0.32940302  1
  Li  Li43  1  0.12515360  0.77674834  0.66273636  1
  Li  Li44  1  0.12515360  0.77674834  0.99606969  1
  Li  Li45  1  0.62515360  0.11008168  0.32940302  1
  Li  Li46  1  0.62515360  0.11008168  0.66273636  1
  Li  Li47  1  0.62515360  0.11008168  0.99606969  1
  Li  Li48  1  0.62515360  0.44341501  0.32940302  1
  Li  Li49  1  0.62515360  0.44341501  0.66273636  1
  Li  Li50  1  0.62515360  0.44341501  0.99606969  1
  Li  Li51  1  0.62515360  0.77674834  0.32940302  1
  Li  Li52  1  0.62515360  0.77674834  0.66273636  1
  Li  Li53  1  0.62515360  0.77674834  0.99606969  1
  Li  Li54  1  0.37515360  0.22325166  0.16273636  1
  Li  Li55  1  0.37515360  0.22325166  0.49606969  1
  Li  Li56  1  0.37515360  0.22325166  0.82940302  1
  Li  Li57  1  0.37515360  0.55658499  0.16273636  1
  Li  Li58  1  0.37515360  0.55658499  0.49606969  1
  Li  Li59  1  0.37515360  0.55658499  0.82940302  1
  Li  Li60  1  0.37515360  0.88991832  0.16273636  1
  Li  Li61  1  0.37515360  0.88991832  0.49606969  1
  Li  Li62  1  0.37515360  0.88991832  0.82940302  1
  Li  Li63  1  0.87515360  0.22325166  0.16273636  1
  Li  Li64  1  0.87515360  0.22325166  0.49606969  1
  Li  Li65  1  0.87515360  0.22325166  0.82940302  1
  Li  Li66  1  0.87515360  0.55658499  0.16273636  1
  Li  Li67  1  0.87515360  0.55658499  0.49606969  1
  Li  Li68  1  0.87515360  0.55658499  0.82940302  1
  Li  Li69  1  0.87515360  0.88991832  0.16273636  1
  Li  Li70  1  0.87515360  0.88991832  0.49606969  1
  Li  Li71  1  0.87515360  0.88991832  0.82940302  1
  Cd  Cd72  1  0.25000000  0.05954167  0.16366233  1
  Cd  Cd73  1  0.25000000  0.05954167  0.49699567  1
  Cd  Cd74  1  0.25000000  0.05954167  0.83032900  1
  Cd  Cd75  1  0.25000000  0.39287500  0.16366233  1
  Cd  Cd76  1  0.25000000  0.39287500  0.49699567  1
  Cd  Cd77  1  0.25000000  0.39287500  0.83032900  1
  Cd  Cd78  1  0.25000000  0.72620833  0.16366233  1
  Cd  Cd79  1  0.25000000  0.72620833  0.49699567  1
  Cd  Cd80  1  0.25000000  0.72620833  0.83032900  1
  Cd  Cd81  1  0.75000000  0.05954167  0.16366233  1
  Cd  Cd82  1  0.75000000  0.05954167  0.49699567  1
  Cd  Cd83  1  0.75000000  0.05954167  0.83032900  1
  Cd  Cd84  1  0.75000000  0.39287500  0.16366233  1
  Cd  Cd85  1  0.75000000  0.39287500  0.49699567  1
  Cd  Cd86  1  0.75000000  0.39287500  0.83032900  1
  Cd  Cd87  1  0.75000000  0.72620833  0.16366233  1
  Cd  Cd88  1  0.75000000  0.72620833  0.49699567  1
  Cd  Cd89  1  0.75000000  0.72620833  0.83032900  1
  Cd  Cd90  1  0.00000000  0.27379167  0.33032900  1
  Cd  Cd91  1  0.00000000  0.27379167  0.66366233  1
  Cd  Cd92  1  0.00000000  0.27379167  0.99699567  1
  Cd  Cd93  1  0.00000000  0.60712500  0.33032900  1
  Cd  Cd94  1  0.00000000  0.60712500  0.66366233  1
  Cd  Cd95  1  0.00000000  0.60712500  0.99699567  1
  Cd  Cd96  1  0.00000000  0.94045833  0.33032900  1
  Cd  Cd97  1  0.00000000  0.94045833  0.66366233  1
  Cd  Cd98  1  0.00000000  0.94045833  0.99699567  1
  Cd  Cd99  1  0.50000000  0.27379167  0.33032900  1
  Cd  Cd100  1  0.50000000  0.27379167  0.66366233  1
  Cd  Cd101  1  0.50000000  0.27379167  0.99699567  1
  Cd  Cd102  1  0.50000000  0.60712500  0.33032900  1
  Cd  Cd103  1  0.50000000  0.60712500  0.66366233  1
  Cd  Cd104  1  0.50000000  0.60712500  0.99699567  1
  Cd  Cd105  1  0.50000000  0.94045833  0.33032900  1
  Cd  Cd106  1  0.50000000  0.94045833  0.66366233  1
  Cd  Cd107  1  0.50000000  0.94045833  0.99699567  1
  Ge  Ge108  1  0.00000000  0.06142615  0.16068459  1
  Ge  Ge109  1  0.00000000  0.06142615  0.49401792  1
  Ge  Ge110  1  0.00000000  0.06142615  0.82735125  1
  Ge  Ge111  1  0.00000000  0.39475948  0.16068459  1
  Ge  Ge112  1  0.00000000  0.39475948  0.49401792  1
  Ge  Ge113  1  0.00000000  0.39475948  0.82735125  1
  Ge  Ge114  1  0.00000000  0.72809281  0.16068459  1
  Ge  Ge115  1  0.00000000  0.72809281  0.49401792  1
  Ge  Ge116  1  0.00000000  0.72809281  0.82735125  1
  Ge  Ge117  1  0.50000000  0.06142615  0.16068459  1
  Ge  Ge118  1  0.50000000  0.06142615  0.49401792  1
  Ge  Ge119  1  0.50000000  0.06142615  0.82735125  1
  Ge  Ge120  1  0.50000000  0.39475948  0.16068459  1
  Ge  Ge121  1  0.50000000  0.39475948  0.49401792  1
  Ge  Ge122  1  0.50000000  0.39475948  0.82735125  1
  Ge  Ge123  1  0.50000000  0.72809281  0.16068459  1
  Ge  Ge124  1  0.50000000  0.72809281  0.49401792  1
  Ge  Ge125  1  0.50000000  0.72809281  0.82735125  1
  Ge  Ge126  1  0.25000000  0.27190719  0.32735125  1
  Ge  Ge127  1  0.25000000  0.27190719  0.66068459  1
  Ge  Ge128  1  0.25000000  0.27190719  0.99401792  1
  Ge  Ge129  1  0.25000000  0.60524052  0.32735125  1
  Ge  Ge130  1  0.25000000  0.60524052  0.66068459  1
  Ge  Ge131  1  0.25000000  0.60524052  0.99401792  1
  Ge  Ge132  1  0.25000000  0.93857385  0.32735125  1
  Ge  Ge133  1  0.25000000  0.93857385  0.66068459  1
  Ge  Ge134  1  0.25000000  0.93857385  0.99401792  1
  Ge  Ge135  1  0.75000000  0.27190719  0.32735125  1
  Ge  Ge136  1  0.75000000  0.27190719  0.66068459  1
  Ge  Ge137  1  0.75000000  0.27190719  0.99401792  1
  Ge  Ge138  1  0.75000000  0.60524052  0.32735125  1
  Ge  Ge139  1  0.75000000  0.60524052  0.66068459  1
  Ge  Ge140  1  0.75000000  0.60524052  0.99401792  1
  Ge  Ge141  1  0.75000000  0.93857385  0.32735125  1
  Ge  Ge142  1  0.75000000  0.93857385  0.66068459  1
  Ge  Ge143  1  0.75000000  0.93857385  0.99401792  1
  O  O144  1  0.00000000  0.28858913  0.18785247  1
  O  O145  1  0.00000000  0.28858913  0.52118580  1
  O  O146  1  0.00000000  0.28858913  0.85451914  1
  O  O147  1  0.00000000  0.62192246  0.18785247  1
  O  O148  1  0.00000000  0.62192246  0.52118580  1
  O  O149  1  0.00000000  0.62192246  0.85451914  1
  O  O150  1  0.00000000  0.95525579  0.18785247  1
  O  O151  1  0.00000000  0.95525579  0.52118580  1
  O  O152  1  0.00000000  0.95525579  0.85451914  1
  O  O153  1  0.50000000  0.28858913  0.18785247  1
  O  O154  1  0.50000000  0.28858913  0.52118580  1
  O  O155  1  0.50000000  0.28858913  0.85451914  1
  O  O156  1  0.50000000  0.62192246  0.18785247  1
  O  O157  1  0.50000000  0.62192246  0.52118580  1
  O  O158  1  0.50000000  0.62192246  0.85451914  1
  O  O159  1  0.50000000  0.95525579  0.18785247  1
  O  O160  1  0.50000000  0.95525579  0.52118580  1
  O  O161  1  0.50000000  0.95525579  0.85451914  1
  O  O162  1  0.00000000  0.06762915  0.04528732  1
  O  O163  1  0.00000000  0.06762915  0.37862065  1
  O  O164  1  0.00000000  0.06762915  0.71195398  1
  O  O165  1  0.00000000  0.40096248  0.04528732  1
  O  O166  1  0.00000000  0.40096248  0.37862065  1
  O  O167  1  0.00000000  0.40096248  0.71195398  1
  O  O168  1  0.00000000  0.73429581  0.04528732  1
  O  O169  1  0.00000000  0.73429581  0.37862065  1
  O  O170  1  0.00000000  0.73429581  0.71195398  1
  O  O171  1  0.50000000  0.06762915  0.04528732  1
  O  O172  1  0.50000000  0.06762915  0.37862065  1
  O  O173  1  0.50000000  0.06762915  0.71195398  1
  O  O174  1  0.50000000  0.40096248  0.04528732  1
  O  O175  1  0.50000000  0.40096248  0.37862065  1
  O  O176  1  0.50000000  0.40096248  0.71195398  1
  O  O177  1  0.50000000  0.73429581  0.04528732  1
  O  O178  1  0.50000000  0.73429581  0.37862065  1
  O  O179  1  0.50000000  0.73429581  0.71195398  1
  O  O180  1  0.25000000  0.04474421  0.02118580  1
  O  O181  1  0.25000000  0.04474421  0.35451914  1
  O  O182  1  0.25000000  0.04474421  0.68785247  1
  O  O183  1  0.25000000  0.37807754  0.02118580  1
  O  O184  1  0.25000000  0.37807754  0.35451914  1
  O  O185  1  0.25000000  0.37807754  0.68785247  1
  O  O186  1  0.25000000  0.71141087  0.02118580  1
  O  O187  1  0.25000000  0.71141087  0.35451914  1
  O  O188  1  0.25000000  0.71141087  0.68785247  1
  O  O189  1  0.75000000  0.04474421  0.02118580  1
  O  O190  1  0.75000000  0.04474421  0.35451914  1
  O  O191  1  0.75000000  0.04474421  0.68785247  1
  O  O192  1  0.75000000  0.37807754  0.02118580  1
  O  O193  1  0.75000000  0.37807754  0.35451914  1
  O  O194  1  0.75000000  0.37807754  0.68785247  1
  O  O195  1  0.75000000  0.71141087  0.02118580  1
  O  O196  1  0.75000000  0.71141087  0.35451914  1
  O  O197  1  0.75000000  0.71141087  0.68785247  1
  O  O198  1  0.25000000  0.26570419  0.21195398  1
  O  O199  1  0.25000000  0.26570419  0.54528732  1
  O  O200  1  0.25000000  0.26570419  0.87862065  1
  O  O201  1  0.25000000  0.59903752  0.21195398  1
  O  O202  1  0.25000000  0.59903752  0.54528732  1
  O  O203  1  0.25000000  0.59903752  0.87862065  1
  O  O204  1  0.25000000  0.93237085  0.21195398  1
  O  O205  1  0.25000000  0.93237085  0.54528732  1
  O  O206  1  0.25000000  0.93237085  0.87862065  1
  O  O207  1  0.75000000  0.26570419  0.21195398  1
  O  O208  1  0.75000000  0.26570419  0.54528732  1
  O  O209  1  0.75000000  0.26570419  0.87862065  1
  O  O210  1  0.75000000  0.59903752  0.21195398  1
  O  O211  1  0.75000000  0.59903752  0.54528732  1
  O  O212  1  0.75000000  0.59903752  0.87862065  1
  O  O213  1  0.75000000  0.93237085  0.21195398  1
  O  O214  1  0.75000000  0.93237085  0.54528732  1
  O  O215  1  0.75000000  0.93237085  0.87862065  1
  O  O216  1  0.35775918  0.22105243  0.03718695  1
  O  O217  1  0.35775918  0.22105243  0.37052029  1
  O  O218  1  0.35775918  0.22105243  0.70385362  1
  O  O219  1  0.35775918  0.55438576  0.03718695  1
  O  O220  1  0.35775918  0.55438576  0.37052029  1
  O  O221  1  0.35775918  0.55438576  0.70385362  1
  O  O222  1  0.35775918  0.88771909  0.03718695  1
  O  O223  1  0.35775918  0.88771909  0.37052029  1
  O  O224  1  0.35775918  0.88771909  0.70385362  1
  O  O225  1  0.85775918  0.22105243  0.03718695  1
  O  O226  1  0.85775918  0.22105243  0.37052029  1
  O  O227  1  0.85775918  0.22105243  0.70385362  1
  O  O228  1  0.85775918  0.55438576  0.03718695  1
  O  O229  1  0.85775918  0.55438576  0.37052029  1
  O  O230  1  0.85775918  0.55438576  0.70385362  1
  O  O231  1  0.85775918  0.88771909  0.03718695  1
  O  O232  1  0.85775918  0.88771909  0.37052029  1
  O  O233  1  0.85775918  0.88771909  0.70385362  1
  O  O234  1  0.39224082  0.11228091  0.20385362  1
  O  O235  1  0.39224082  0.11228091  0.53718695  1
  O  O236  1  0.39224082  0.11228091  0.87052029  1
  O  O237  1  0.39224082  0.44561424  0.20385362  1
  O  O238  1  0.39224082  0.44561424  0.53718695  1
  O  O239  1  0.39224082  0.44561424  0.87052029  1
  O  O240  1  0.39224082  0.77894757  0.20385362  1
  O  O241  1  0.39224082  0.77894757  0.53718695  1
  O  O242  1  0.39224082  0.77894757  0.87052029  1
  O  O243  1  0.89224082  0.11228091  0.20385362  1
  O  O244  1  0.89224082  0.11228091  0.53718695  1
  O  O245  1  0.89224082  0.11228091  0.87052029  1
  O  O246  1  0.89224082  0.44561424  0.20385362  1
  O  O247  1  0.89224082  0.44561424  0.53718695  1
  O  O248  1  0.89224082  0.44561424  0.87052029  1
  O  O249  1  0.89224082  0.77894757  0.20385362  1
  O  O250  1  0.89224082  0.77894757  0.53718695  1
  O  O251  1  0.89224082  0.77894757  0.87052029  1
  O  O252  1  0.10775918  0.11228091  0.20385362  1
  O  O253  1  0.10775918  0.11228091  0.53718695  1
  O  O254  1  0.10775918  0.11228091  0.87052029  1
  O  O255  1  0.10775918  0.44561424  0.20385362  1
  O  O256  1  0.10775918  0.44561424  0.53718695  1
  O  O257  1  0.10775918  0.44561424  0.87052029  1
  O  O258  1  0.10775918  0.77894757  0.20385362  1
  O  O259  1  0.10775918  0.77894757  0.53718695  1
  O  O260  1  0.10775918  0.77894757  0.87052029  1
  O  O261  1  0.60775918  0.11228091  0.20385362  1
  O  O262  1  0.60775918  0.11228091  0.53718695  1
  O  O263  1  0.60775918  0.11228091  0.87052029  1
  O  O264  1  0.60775918  0.44561424  0.20385362  1
  O  O265  1  0.60775918  0.44561424  0.53718695  1
  O  O266  1  0.60775918  0.44561424  0.87052029  1
  O  O267  1  0.60775918  0.77894757  0.20385362  1
  O  O268  1  0.60775918  0.77894757  0.53718695  1
  O  O269  1  0.60775918  0.77894757  0.87052029  1
  O  O270  1  0.14224082  0.22105243  0.03718695  1
  O  O271  1  0.14224082  0.22105243  0.37052029  1
  O  O272  1  0.14224082  0.22105243  0.70385362  1
  O  O273  1  0.14224082  0.55438576  0.03718695  1
  O  O274  1  0.14224082  0.55438576  0.37052029  1
  O  O275  1  0.14224082  0.55438576  0.70385362  1
  O  O276  1  0.14224082  0.88771909  0.03718695  1
  O  O277  1  0.14224082  0.88771909  0.37052029  1
  O  O278  1  0.14224082  0.88771909  0.70385362  1
  O  O279  1  0.64224082  0.22105243  0.03718695  1
  O  O280  1  0.64224082  0.22105243  0.37052029  1
  O  O281  1  0.64224082  0.22105243  0.70385362  1
  O  O282  1  0.64224082  0.55438576  0.03718695  1
  O  O283  1  0.64224082  0.55438576  0.37052029  1
  O  O284  1  0.64224082  0.55438576  0.70385362  1
  O  O285  1  0.64224082  0.88771909  0.03718695  1
  O  O286  1  0.64224082  0.88771909  0.37052029  1
  O  O287  1  0.64224082  0.88771909  0.70385362  1
