# generated using pymatgen
data_K3Nb3(BO6)2
_symmetry_space_group_name_H-M   'P 1'
_cell_length_a   17.73397657
_cell_length_b   17.73397657
_cell_length_c   15.84487375
_cell_angle_alpha   90.00000000
_cell_angle_beta   90.00000000
_cell_angle_gamma   120.00000000
_symmetry_Int_Tables_number   1
_chemical_formula_structural   K3Nb3(BO6)2
_chemical_formula_sum   'K48 Nb48 B32 O192'
_cell_volume   4315.50551223
_cell_formula_units_Z   16
loop_
 _symmetry_equiv_pos_site_id
 _symmetry_equiv_pos_as_xyz
  1  'x, y, z'
loop_
 _atom_site_type_symbol
 _atom_site_label
 _atom_site_symmetry_multiplicity
 _atom_site_fract_x
 _atom_site_fract_y
 _atom_site_fract_z
 _atom_site_occupancy
  K  K0  1  0.00000000  0.29822098  0.12438643  1
  K  K1  1  0.00000000  0.29822098  0.37438643  1
  K  K2  1  0.00000000  0.29822098  0.62438643  1
  K  K3  1  0.00000000  0.29822098  0.87438643  1
  K  K4  1  -0.00000000  0.79822098  0.12438643  1
  K  K5  1  -0.00000000  0.79822098  0.37438643  1
  K  K6  1  -0.00000000  0.79822098  0.62438643  1
  K  K7  1  -0.00000000  0.79822098  0.87438643  1
  K  K8  1  0.50000000  0.29822098  0.12438643  1
  K  K9  1  0.50000000  0.29822098  0.37438643  1
  K  K10  1  0.50000000  0.29822098  0.62438643  1
  K  K11  1  0.50000000  0.29822098  0.87438643  1
  K  K12  1  0.50000000  0.79822098  0.12438643  1
  K  K13  1  0.50000000  0.79822098  0.37438643  1
  K  K14  1  0.50000000  0.79822098  0.62438643  1
  K  K15  1  0.50000000  0.79822098  0.87438643  1
  K  K16  1  0.29822098  0.00000000  0.12438643  1
  K  K17  1  0.29822098  0.00000000  0.37438643  1
  K  K18  1  0.29822098  0.00000000  0.62438643  1
  K  K19  1  0.29822098  0.00000000  0.87438643  1
  K  K20  1  0.29822098  0.50000000  0.12438643  1
  K  K21  1  0.29822098  0.50000000  0.37438643  1
  K  K22  1  0.29822098  0.50000000  0.62438643  1
  K  K23  1  0.29822098  0.50000000  0.87438643  1
  K  K24  1  0.79822098  0.00000000  0.12438643  1
  K  K25  1  0.79822098  0.00000000  0.37438643  1
  K  K26  1  0.79822098  0.00000000  0.62438643  1
  K  K27  1  0.79822098  0.00000000  0.87438643  1
  K  K28  1  0.79822098  0.50000000  0.12438643  1
  K  K29  1  0.79822098  0.50000000  0.37438643  1
  K  K30  1  0.79822098  0.50000000  0.62438643  1
  K  K31  1  0.79822098  0.50000000  0.87438643  1
  K  K32  1  0.20177902  0.20177902  0.12438643  1
  K  K33  1  0.20177902  0.20177902  0.37438643  1
  K  K34  1  0.20177902  0.20177902  0.62438643  1
  K  K35  1  0.20177902  0.20177902  0.87438643  1
  K  K36  1  0.20177902  0.70177902  0.12438643  1
  K  K37  1  0.20177902  0.70177902  0.37438643  1
  K  K38  1  0.20177902  0.70177902  0.62438643  1
  K  K39  1  0.20177902  0.70177902  0.87438643  1
  K  K40  1  0.70177902  0.20177902  0.12438643  1
  K  K41  1  0.70177902  0.20177902  0.37438643  1
  K  K42  1  0.70177902  0.20177902  0.62438643  1
  K  K43  1  0.70177902  0.20177902  0.87438643  1
  K  K44  1  0.70177902  0.70177902  0.12438643  1
  K  K45  1  0.70177902  0.70177902  0.37438643  1
  K  K46  1  0.70177902  0.70177902  0.62438643  1
  K  K47  1  0.70177902  0.70177902  0.87438643  1
  Nb  Nb48  1  0.12358421  0.00000000  0.00309977  1
  Nb  Nb49  1  0.12358421  0.00000000  0.25309977  1
  Nb  Nb50  1  0.12358421  0.00000000  0.50309977  1
  Nb  Nb51  1  0.12358421  0.00000000  0.75309977  1
  Nb  Nb52  1  0.12358421  0.50000000  0.00309977  1
  Nb  Nb53  1  0.12358421  0.50000000  0.25309977  1
  Nb  Nb54  1  0.12358421  0.50000000  0.50309977  1
  Nb  Nb55  1  0.12358421  0.50000000  0.75309977  1
  Nb  Nb56  1  0.62358421  0.00000000  0.00309977  1
  Nb  Nb57  1  0.62358421  0.00000000  0.25309977  1
  Nb  Nb58  1  0.62358421  0.00000000  0.50309977  1
  Nb  Nb59  1  0.62358421  0.00000000  0.75309977  1
  Nb  Nb60  1  0.62358421  0.50000000  0.00309977  1
  Nb  Nb61  1  0.62358421  0.50000000  0.25309977  1
  Nb  Nb62  1  0.62358421  0.50000000  0.50309977  1
  Nb  Nb63  1  0.62358421  0.50000000  0.75309977  1
  Nb  Nb64  1  0.37641579  0.37641579  0.00309977  1
  Nb  Nb65  1  0.37641579  0.37641579  0.25309977  1
  Nb  Nb66  1  0.37641579  0.37641579  0.50309977  1
  Nb  Nb67  1  0.37641579  0.37641579  0.75309977  1
  Nb  Nb68  1  0.37641579  0.87641579  0.00309977  1
  Nb  Nb69  1  0.37641579  0.87641579  0.25309977  1
  Nb  Nb70  1  0.37641579  0.87641579  0.50309977  1
  Nb  Nb71  1  0.37641579  0.87641579  0.75309977  1
  Nb  Nb72  1  0.87641579  0.37641579  0.00309977  1
  Nb  Nb73  1  0.87641579  0.37641579  0.25309977  1
  Nb  Nb74  1  0.87641579  0.37641579  0.50309977  1
  Nb  Nb75  1  0.87641579  0.37641579  0.75309977  1
  Nb  Nb76  1  0.87641579  0.87641579  0.00309977  1
  Nb  Nb77  1  0.87641579  0.87641579  0.25309977  1
  Nb  Nb78  1  0.87641579  0.87641579  0.50309977  1
  Nb  Nb79  1  0.87641579  0.87641579  0.75309977  1
  Nb  Nb80  1  -0.00000000  0.12358421  0.00309977  1
  Nb  Nb81  1  -0.00000000  0.12358421  0.25309977  1
  Nb  Nb82  1  -0.00000000  0.12358421  0.50309977  1
  Nb  Nb83  1  -0.00000000  0.12358421  0.75309977  1
  Nb  Nb84  1  0.00000000  0.62358421  0.00309977  1
  Nb  Nb85  1  0.00000000  0.62358421  0.25309977  1
  Nb  Nb86  1  0.00000000  0.62358421  0.50309977  1
  Nb  Nb87  1  0.00000000  0.62358421  0.75309977  1
  Nb  Nb88  1  0.50000000  0.12358421  0.00309977  1
  Nb  Nb89  1  0.50000000  0.12358421  0.25309977  1
  Nb  Nb90  1  0.50000000  0.12358421  0.50309977  1
  Nb  Nb91  1  0.50000000  0.12358421  0.75309977  1
  Nb  Nb92  1  0.50000000  0.62358421  0.00309977  1
  Nb  Nb93  1  0.50000000  0.62358421  0.25309977  1
  Nb  Nb94  1  0.50000000  0.62358421  0.50309977  1
  Nb  Nb95  1  0.50000000  0.62358421  0.75309977  1
  B  B96  1  0.16666667  0.33333333  0.24568831  1
  B  B97  1  0.16666667  0.33333333  0.49568831  1
  B  B98  1  0.16666667  0.33333333  0.74568831  1
  B  B99  1  0.16666667  0.33333333  0.99568831  1
  B  B100  1  0.16666667  0.83333333  0.24568831  1
  B  B101  1  0.16666667  0.83333333  0.49568831  1
  B  B102  1  0.16666667  0.83333333  0.74568831  1
  B  B103  1  0.16666667  0.83333333  0.99568831  1
  B  B104  1  0.66666667  0.33333333  0.24568831  1
  B  B105  1  0.66666667  0.33333333  0.49568831  1
  B  B106  1  0.66666667  0.33333333  0.74568831  1
  B  B107  1  0.66666667  0.33333333  0.99568831  1
  B  B108  1  0.66666667  0.83333333  0.24568831  1
  B  B109  1  0.66666667  0.83333333  0.49568831  1
  B  B110  1  0.66666667  0.83333333  0.74568831  1
  B  B111  1  0.66666667  0.83333333  0.99568831  1
  B  B112  1  0.33333333  0.16666667  0.24568831  1
  B  B113  1  0.33333333  0.16666667  0.49568831  1
  B  B114  1  0.33333333  0.16666667  0.74568831  1
  B  B115  1  0.33333333  0.16666667  0.99568831  1
  B  B116  1  0.33333333  0.66666667  0.24568831  1
  B  B117  1  0.33333333  0.66666667  0.49568831  1
  B  B118  1  0.33333333  0.66666667  0.74568831  1
  B  B119  1  0.33333333  0.66666667  0.99568831  1
  B  B120  1  0.83333333  0.16666667  0.24568831  1
  B  B121  1  0.83333333  0.16666667  0.49568831  1
  B  B122  1  0.83333333  0.16666667  0.74568831  1
  B  B123  1  0.83333333  0.16666667  0.99568831  1
  B  B124  1  0.83333333  0.66666667  0.24568831  1
  B  B125  1  0.83333333  0.66666667  0.49568831  1
  B  B126  1  0.83333333  0.66666667  0.74568831  1
  B  B127  1  0.83333333  0.66666667  0.99568831  1
  O  O128  1  0.13281031  0.00000000  0.12161377  1
  O  O129  1  0.13281031  0.00000000  0.37161377  1
  O  O130  1  0.13281031  0.00000000  0.62161377  1
  O  O131  1  0.13281031  0.00000000  0.87161377  1
  O  O132  1  0.13281031  0.50000000  0.12161377  1
  O  O133  1  0.13281031  0.50000000  0.37161377  1
  O  O134  1  0.13281031  0.50000000  0.62161377  1
  O  O135  1  0.13281031  0.50000000  0.87161377  1
  O  O136  1  0.63281031  0.00000000  0.12161377  1
  O  O137  1  0.63281031  0.00000000  0.37161377  1
  O  O138  1  0.63281031  0.00000000  0.62161377  1
  O  O139  1  0.63281031  0.00000000  0.87161377  1
  O  O140  1  0.63281031  0.50000000  0.12161377  1
  O  O141  1  0.63281031  0.50000000  0.37161377  1
  O  O142  1  0.63281031  0.50000000  0.62161377  1
  O  O143  1  0.63281031  0.50000000  0.87161377  1
  O  O144  1  0.15720865  0.40552956  0.24564973  1
  O  O145  1  0.15720865  0.40552956  0.49564973  1
  O  O146  1  0.15720865  0.40552956  0.74564973  1
  O  O147  1  0.15720865  0.40552956  0.99564973  1
  O  O148  1  0.15720865  0.90552956  0.24564973  1
  O  O149  1  0.15720865  0.90552956  0.49564973  1
  O  O150  1  0.15720865  0.90552956  0.74564973  1
  O  O151  1  0.15720865  0.90552956  0.99564973  1
  O  O152  1  0.65720865  0.40552956  0.24564973  1
  O  O153  1  0.65720865  0.40552956  0.49564973  1
  O  O154  1  0.65720865  0.40552956  0.74564973  1
  O  O155  1  0.65720865  0.40552956  0.99564973  1
  O  O156  1  0.65720865  0.90552956  0.24564973  1
  O  O157  1  0.65720865  0.90552956  0.49564973  1
  O  O158  1  0.65720865  0.90552956  0.74564973  1
  O  O159  1  0.65720865  0.90552956  0.99564973  1
  O  O160  1  0.09447044  0.25167908  0.24564973  1
  O  O161  1  0.09447044  0.25167908  0.49564973  1
  O  O162  1  0.09447044  0.25167908  0.74564973  1
  O  O163  1  0.09447044  0.25167908  0.99564973  1
  O  O164  1  0.09447044  0.75167908  0.24564973  1
  O  O165  1  0.09447044  0.75167908  0.49564973  1
  O  O166  1  0.09447044  0.75167908  0.74564973  1
  O  O167  1  0.09447044  0.75167908  0.99564973  1
  O  O168  1  0.59447044  0.25167908  0.24564973  1
  O  O169  1  0.59447044  0.25167908  0.49564973  1
  O  O170  1  0.59447044  0.25167908  0.74564973  1
  O  O171  1  0.59447044  0.25167908  0.99564973  1
  O  O172  1  0.59447044  0.75167908  0.24564973  1
  O  O173  1  0.59447044  0.75167908  0.49564973  1
  O  O174  1  0.59447044  0.75167908  0.74564973  1
  O  O175  1  0.59447044  0.75167908  0.99564973  1
  O  O176  1  0.41087598  0.00000000  0.24696686  1
  O  O177  1  0.41087598  0.00000000  0.49696686  1
  O  O178  1  0.41087598  0.00000000  0.74696686  1
  O  O179  1  0.41087598  0.00000000  0.99696686  1
  O  O180  1  0.41087598  0.50000000  0.24696686  1
  O  O181  1  0.41087598  0.50000000  0.49696686  1
  O  O182  1  0.41087598  0.50000000  0.74696686  1
  O  O183  1  0.41087598  0.50000000  0.99696686  1
  O  O184  1  0.91087598  0.00000000  0.24696686  1
  O  O185  1  0.91087598  0.00000000  0.49696686  1
  O  O186  1  0.91087598  0.00000000  0.74696686  1
  O  O187  1  0.91087598  0.00000000  0.99696686  1
  O  O188  1  0.91087598  0.50000000  0.24696686  1
  O  O189  1  0.91087598  0.50000000  0.49696686  1
  O  O190  1  0.91087598  0.50000000  0.74696686  1
  O  O191  1  0.91087598  0.50000000  0.99696686  1
  O  O192  1  0.40552956  0.15720865  0.24564973  1
  O  O193  1  0.40552956  0.15720865  0.49564973  1
  O  O194  1  0.40552956  0.15720865  0.74564973  1
  O  O195  1  0.40552956  0.15720865  0.99564973  1
  O  O196  1  0.40552956  0.65720865  0.24564973  1
  O  O197  1  0.40552956  0.65720865  0.49564973  1
  O  O198  1  0.40552956  0.65720865  0.74564973  1
  O  O199  1  0.40552956  0.65720865  0.99564973  1
  O  O200  1  0.90552956  0.15720865  0.24564973  1
  O  O201  1  0.90552956  0.15720865  0.49564973  1
  O  O202  1  0.90552956  0.15720865  0.74564973  1
  O  O203  1  0.90552956  0.15720865  0.99564973  1
  O  O204  1  0.90552956  0.65720865  0.24564973  1
  O  O205  1  0.90552956  0.65720865  0.49564973  1
  O  O206  1  0.90552956  0.65720865  0.74564973  1
  O  O207  1  0.90552956  0.65720865  0.99564973  1
  O  O208  1  0.24832092  0.34279135  0.24564973  1
  O  O209  1  0.24832092  0.34279135  0.49564973  1
  O  O210  1  0.24832092  0.34279135  0.74564973  1
  O  O211  1  0.24832092  0.34279135  0.99564973  1
  O  O212  1  0.24832092  0.84279135  0.24564973  1
  O  O213  1  0.24832092  0.84279135  0.49564973  1
  O  O214  1  0.24832092  0.84279135  0.74564973  1
  O  O215  1  0.24832092  0.84279135  0.99564973  1
  O  O216  1  0.74832092  0.34279135  0.24564973  1
  O  O217  1  0.74832092  0.34279135  0.49564973  1
  O  O218  1  0.74832092  0.34279135  0.74564973  1
  O  O219  1  0.74832092  0.34279135  0.99564973  1
  O  O220  1  0.74832092  0.84279135  0.24564973  1
  O  O221  1  0.74832092  0.84279135  0.49564973  1
  O  O222  1  0.74832092  0.84279135  0.74564973  1
  O  O223  1  0.74832092  0.84279135  0.99564973  1
  O  O224  1  0.00000000  0.41087598  0.24696686  1
  O  O225  1  0.00000000  0.41087598  0.49696686  1
  O  O226  1  0.00000000  0.41087598  0.74696686  1
  O  O227  1  0.00000000  0.41087598  0.99696686  1
  O  O228  1  0.00000000  0.91087598  0.24696686  1
  O  O229  1  0.00000000  0.91087598  0.49696686  1
  O  O230  1  0.00000000  0.91087598  0.74696686  1
  O  O231  1  0.00000000  0.91087598  0.99696686  1
  O  O232  1  0.50000000  0.41087598  0.24696686  1
  O  O233  1  0.50000000  0.41087598  0.49696686  1
  O  O234  1  0.50000000  0.41087598  0.74696686  1
  O  O235  1  0.50000000  0.41087598  0.99696686  1
  O  O236  1  0.50000000  0.91087598  0.24696686  1
  O  O237  1  0.50000000  0.91087598  0.49696686  1
  O  O238  1  0.50000000  0.91087598  0.74696686  1
  O  O239  1  0.50000000  0.91087598  0.99696686  1
  O  O240  1  0.08912402  0.08912402  0.24696686  1
  O  O241  1  0.08912402  0.08912402  0.49696686  1
  O  O242  1  0.08912402  0.08912402  0.74696686  1
  O  O243  1  0.08912402  0.08912402  0.99696686  1
  O  O244  1  0.08912402  0.58912402  0.24696686  1
  O  O245  1  0.08912402  0.58912402  0.49696686  1
  O  O246  1  0.08912402  0.58912402  0.74696686  1
  O  O247  1  0.08912402  0.58912402  0.99696686  1
  O  O248  1  0.58912402  0.08912402  0.24696686  1
  O  O249  1  0.58912402  0.08912402  0.49696686  1
  O  O250  1  0.58912402  0.08912402  0.74696686  1
  O  O251  1  0.58912402  0.08912402  0.99696686  1
  O  O252  1  0.58912402  0.58912402  0.24696686  1
  O  O253  1  0.58912402  0.58912402  0.49696686  1
  O  O254  1  0.58912402  0.58912402  0.74696686  1
  O  O255  1  0.58912402  0.58912402  0.99696686  1
  O  O256  1  0.34279135  0.24832092  0.24564973  1
  O  O257  1  0.34279135  0.24832092  0.49564973  1
  O  O258  1  0.34279135  0.24832092  0.74564973  1
  O  O259  1  0.34279135  0.24832092  0.99564973  1
  O  O260  1  0.34279135  0.74832092  0.24564973  1
  O  O261  1  0.34279135  0.74832092  0.49564973  1
  O  O262  1  0.34279135  0.74832092  0.74564973  1
  O  O263  1  0.34279135  0.74832092  0.99564973  1
  O  O264  1  0.84279135  0.24832092  0.24564973  1
  O  O265  1  0.84279135  0.24832092  0.49564973  1
  O  O266  1  0.84279135  0.24832092  0.74564973  1
  O  O267  1  0.84279135  0.24832092  0.99564973  1
  O  O268  1  0.84279135  0.74832092  0.24564973  1
  O  O269  1  0.84279135  0.74832092  0.49564973  1
  O  O270  1  0.84279135  0.74832092  0.74564973  1
  O  O271  1  0.84279135  0.74832092  0.99564973  1
  O  O272  1  0.36718969  0.36718969  0.12161377  1
  O  O273  1  0.36718969  0.36718969  0.37161377  1
  O  O274  1  0.36718969  0.36718969  0.62161377  1
  O  O275  1  0.36718969  0.36718969  0.87161377  1
  O  O276  1  0.36718969  0.86718969  0.12161377  1
  O  O277  1  0.36718969  0.86718969  0.37161377  1
  O  O278  1  0.36718969  0.86718969  0.62161377  1
  O  O279  1  0.36718969  0.86718969  0.87161377  1
  O  O280  1  0.86718969  0.36718969  0.12161377  1
  O  O281  1  0.86718969  0.36718969  0.37161377  1
  O  O282  1  0.86718969  0.36718969  0.62161377  1
  O  O283  1  0.86718969  0.36718969  0.87161377  1
  O  O284  1  0.86718969  0.86718969  0.12161377  1
  O  O285  1  0.86718969  0.86718969  0.37161377  1
  O  O286  1  0.86718969  0.86718969  0.62161377  1
  O  O287  1  0.86718969  0.86718969  0.87161377  1
  O  O288  1  0.25167908  0.09447044  0.24564973  1
  O  O289  1  0.25167908  0.09447044  0.49564973  1
  O  O290  1  0.25167908  0.09447044  0.74564973  1
  O  O291  1  0.25167908  0.09447044  0.99564973  1
  O  O292  1  0.25167908  0.59447044  0.24564973  1
  O  O293  1  0.25167908  0.59447044  0.49564973  1
  O  O294  1  0.25167908  0.59447044  0.74564973  1
  O  O295  1  0.25167908  0.59447044  0.99564973  1
  O  O296  1  0.75167908  0.09447044  0.24564973  1
  O  O297  1  0.75167908  0.09447044  0.49564973  1
  O  O298  1  0.75167908  0.09447044  0.74564973  1
  O  O299  1  0.75167908  0.09447044  0.99564973  1
  O  O300  1  0.75167908  0.59447044  0.24564973  1
  O  O301  1  0.75167908  0.59447044  0.49564973  1
  O  O302  1  0.75167908  0.59447044  0.74564973  1
  O  O303  1  0.75167908  0.59447044  0.99564973  1
  O  O304  1  0.00000000  0.13281031  0.12161377  1
  O  O305  1  0.00000000  0.13281031  0.37161377  1
  O  O306  1  0.00000000  0.13281031  0.62161377  1
  O  O307  1  0.00000000  0.13281031  0.87161377  1
  O  O308  1  0.00000000  0.63281031  0.12161377  1
  O  O309  1  0.00000000  0.63281031  0.37161377  1
  O  O310  1  0.00000000  0.63281031  0.62161377  1
  O  O311  1  0.00000000  0.63281031  0.87161377  1
  O  O312  1  0.50000000  0.13281031  0.12161377  1
  O  O313  1  0.50000000  0.13281031  0.37161377  1
  O  O314  1  0.50000000  0.13281031  0.62161377  1
  O  O315  1  0.50000000  0.13281031  0.87161377  1
  O  O316  1  0.50000000  0.63281031  0.12161377  1
  O  O317  1  0.50000000  0.63281031  0.37161377  1
  O  O318  1  0.50000000  0.63281031  0.62161377  1
  O  O319  1  0.50000000  0.63281031  0.87161377  1
