# generated using pymatgen
data_RbAlSiO4
_symmetry_space_group_name_H-M   'P 1'
_cell_length_a   17.49981855
_cell_length_b   18.42709950
_cell_length_c   15.98585124
_cell_angle_alpha   90.00000000
_cell_angle_beta   90.00000000
_cell_angle_gamma   90.00000000
_symmetry_Int_Tables_number   1
_chemical_formula_structural   RbAlSiO4
_chemical_formula_sum   'Rb48 Al48 Si48 O192'
_cell_volume   5154.97179888
_cell_formula_units_Z   48
loop_
 _symmetry_equiv_pos_site_id
 _symmetry_equiv_pos_as_xyz
  1  'x, y, z'
loop_
 _atom_site_type_symbol
 _atom_site_label
 _atom_site_symmetry_multiplicity
 _atom_site_fract_x
 _atom_site_fract_y
 _atom_site_fract_z
 _atom_site_occupancy
  Rb  Rb0  1  0.00057674  0.14662117  0.16313630  1
  Rb  Rb1  1  0.00057674  0.14662117  0.49646963  1
  Rb  Rb2  1  0.00057674  0.14662117  0.82980297  1
  Rb  Rb3  1  0.00057674  0.64662117  0.16313630  1
  Rb  Rb4  1  0.00057674  0.64662117  0.49646963  1
  Rb  Rb5  1  0.00057674  0.64662117  0.82980297  1
  Rb  Rb6  1  0.50057674  0.14662117  0.16313630  1
  Rb  Rb7  1  0.50057674  0.14662117  0.49646963  1
  Rb  Rb8  1  0.50057674  0.14662117  0.82980297  1
  Rb  Rb9  1  0.50057674  0.64662117  0.16313630  1
  Rb  Rb10  1  0.50057674  0.64662117  0.49646963  1
  Rb  Rb11  1  0.50057674  0.64662117  0.82980297  1
  Rb  Rb12  1  0.49942326  0.35337883  0.32980297  1
  Rb  Rb13  1  0.49942326  0.35337883  0.66313630  1
  Rb  Rb14  1  0.49942326  0.35337883  0.99646963  1
  Rb  Rb15  1  0.49942326  0.85337883  0.32980297  1
  Rb  Rb16  1  0.49942326  0.85337883  0.66313630  1
  Rb  Rb17  1  0.49942326  0.85337883  0.99646963  1
  Rb  Rb18  1  0.99942326  0.35337883  0.32980297  1
  Rb  Rb19  1  0.99942326  0.35337883  0.66313630  1
  Rb  Rb20  1  0.99942326  0.35337883  0.99646963  1
  Rb  Rb21  1  0.99942326  0.85337883  0.32980297  1
  Rb  Rb22  1  0.99942326  0.85337883  0.66313630  1
  Rb  Rb23  1  0.99942326  0.85337883  0.99646963  1
  Rb  Rb24  1  0.24942326  0.39662117  0.32980297  1
  Rb  Rb25  1  0.24942326  0.39662117  0.66313630  1
  Rb  Rb26  1  0.24942326  0.39662117  0.99646963  1
  Rb  Rb27  1  0.24942326  0.89662117  0.32980297  1
  Rb  Rb28  1  0.24942326  0.89662117  0.66313630  1
  Rb  Rb29  1  0.24942326  0.89662117  0.99646963  1
  Rb  Rb30  1  0.74942326  0.39662117  0.32980297  1
  Rb  Rb31  1  0.74942326  0.39662117  0.66313630  1
  Rb  Rb32  1  0.74942326  0.39662117  0.99646963  1
  Rb  Rb33  1  0.74942326  0.89662117  0.32980297  1
  Rb  Rb34  1  0.74942326  0.89662117  0.66313630  1
  Rb  Rb35  1  0.74942326  0.89662117  0.99646963  1
  Rb  Rb36  1  0.25057674  0.10337883  0.16313630  1
  Rb  Rb37  1  0.25057674  0.10337883  0.49646963  1
  Rb  Rb38  1  0.25057674  0.10337883  0.82980297  1
  Rb  Rb39  1  0.25057674  0.60337883  0.16313630  1
  Rb  Rb40  1  0.25057674  0.60337883  0.49646963  1
  Rb  Rb41  1  0.25057674  0.60337883  0.82980297  1
  Rb  Rb42  1  0.75057674  0.10337883  0.16313630  1
  Rb  Rb43  1  0.75057674  0.10337883  0.49646963  1
  Rb  Rb44  1  0.75057674  0.10337883  0.82980297  1
  Rb  Rb45  1  0.75057674  0.60337883  0.16313630  1
  Rb  Rb46  1  0.75057674  0.60337883  0.49646963  1
  Rb  Rb47  1  0.75057674  0.60337883  0.82980297  1
  Al  Al48  1  0.40587828  0.04139767  0.00378015  1
  Al  Al49  1  0.40587828  0.04139767  0.33711348  1
  Al  Al50  1  0.40587828  0.04139767  0.67044682  1
  Al  Al51  1  0.40587828  0.54139767  0.00378015  1
  Al  Al52  1  0.40587828  0.54139767  0.33711348  1
  Al  Al53  1  0.40587828  0.54139767  0.67044682  1
  Al  Al54  1  0.90587828  0.04139767  0.00378015  1
  Al  Al55  1  0.90587828  0.04139767  0.33711348  1
  Al  Al56  1  0.90587828  0.04139767  0.67044682  1
  Al  Al57  1  0.90587828  0.54139767  0.00378015  1
  Al  Al58  1  0.90587828  0.54139767  0.33711348  1
  Al  Al59  1  0.90587828  0.54139767  0.67044682  1
  Al  Al60  1  0.09412172  0.45860233  0.17044682  1
  Al  Al61  1  0.09412172  0.45860233  0.50378015  1
  Al  Al62  1  0.09412172  0.45860233  0.83711348  1
  Al  Al63  1  0.09412172  0.95860233  0.17044682  1
  Al  Al64  1  0.09412172  0.95860233  0.50378015  1
  Al  Al65  1  0.09412172  0.95860233  0.83711348  1
  Al  Al66  1  0.59412172  0.45860233  0.17044682  1
  Al  Al67  1  0.59412172  0.45860233  0.50378015  1
  Al  Al68  1  0.59412172  0.45860233  0.83711348  1
  Al  Al69  1  0.59412172  0.95860233  0.17044682  1
  Al  Al70  1  0.59412172  0.95860233  0.50378015  1
  Al  Al71  1  0.59412172  0.95860233  0.83711348  1
  Al  Al72  1  0.34412172  0.29139767  0.17044682  1
  Al  Al73  1  0.34412172  0.29139767  0.50378015  1
  Al  Al74  1  0.34412172  0.29139767  0.83711348  1
  Al  Al75  1  0.34412172  0.79139767  0.17044682  1
  Al  Al76  1  0.34412172  0.79139767  0.50378015  1
  Al  Al77  1  0.34412172  0.79139767  0.83711348  1
  Al  Al78  1  0.84412172  0.29139767  0.17044682  1
  Al  Al79  1  0.84412172  0.29139767  0.50378015  1
  Al  Al80  1  0.84412172  0.29139767  0.83711348  1
  Al  Al81  1  0.84412172  0.79139767  0.17044682  1
  Al  Al82  1  0.84412172  0.79139767  0.50378015  1
  Al  Al83  1  0.84412172  0.79139767  0.83711348  1
  Al  Al84  1  0.15587828  0.20860233  0.00378015  1
  Al  Al85  1  0.15587828  0.20860233  0.33711348  1
  Al  Al86  1  0.15587828  0.20860233  0.67044682  1
  Al  Al87  1  0.15587828  0.70860233  0.00378015  1
  Al  Al88  1  0.15587828  0.70860233  0.33711348  1
  Al  Al89  1  0.15587828  0.70860233  0.67044682  1
  Al  Al90  1  0.65587828  0.20860233  0.00378015  1
  Al  Al91  1  0.65587828  0.20860233  0.33711348  1
  Al  Al92  1  0.65587828  0.20860233  0.67044682  1
  Al  Al93  1  0.65587828  0.70860233  0.00378015  1
  Al  Al94  1  0.65587828  0.70860233  0.33711348  1
  Al  Al95  1  0.65587828  0.70860233  0.67044682  1
  Si  Si96  1  0.34725481  0.20816650  0.00392310  1
  Si  Si97  1  0.34725481  0.20816650  0.33725644  1
  Si  Si98  1  0.34725481  0.20816650  0.67058977  1
  Si  Si99  1  0.34725481  0.70816650  0.00392310  1
  Si  Si100  1  0.34725481  0.70816650  0.33725644  1
  Si  Si101  1  0.34725481  0.70816650  0.67058977  1
  Si  Si102  1  0.84725481  0.20816650  0.00392310  1
  Si  Si103  1  0.84725481  0.20816650  0.33725644  1
  Si  Si104  1  0.84725481  0.20816650  0.67058977  1
  Si  Si105  1  0.84725481  0.70816650  0.00392310  1
  Si  Si106  1  0.84725481  0.70816650  0.33725644  1
  Si  Si107  1  0.84725481  0.70816650  0.67058977  1
  Si  Si108  1  0.15274519  0.29183350  0.17058977  1
  Si  Si109  1  0.15274519  0.29183350  0.50392310  1
  Si  Si110  1  0.15274519  0.29183350  0.83725644  1
  Si  Si111  1  0.15274519  0.79183350  0.17058977  1
  Si  Si112  1  0.15274519  0.79183350  0.50392310  1
  Si  Si113  1  0.15274519  0.79183350  0.83725644  1
  Si  Si114  1  0.65274519  0.29183350  0.17058977  1
  Si  Si115  1  0.65274519  0.29183350  0.50392310  1
  Si  Si116  1  0.65274519  0.29183350  0.83725644  1
  Si  Si117  1  0.65274519  0.79183350  0.17058977  1
  Si  Si118  1  0.65274519  0.79183350  0.50392310  1
  Si  Si119  1  0.65274519  0.79183350  0.83725644  1
  Si  Si120  1  0.40274519  0.45816650  0.17058977  1
  Si  Si121  1  0.40274519  0.45816650  0.50392310  1
  Si  Si122  1  0.40274519  0.45816650  0.83725644  1
  Si  Si123  1  0.40274519  0.95816650  0.17058977  1
  Si  Si124  1  0.40274519  0.95816650  0.50392310  1
  Si  Si125  1  0.40274519  0.95816650  0.83725644  1
  Si  Si126  1  0.90274519  0.45816650  0.17058977  1
  Si  Si127  1  0.90274519  0.45816650  0.50392310  1
  Si  Si128  1  0.90274519  0.45816650  0.83725644  1
  Si  Si129  1  0.90274519  0.95816650  0.17058977  1
  Si  Si130  1  0.90274519  0.95816650  0.50392310  1
  Si  Si131  1  0.90274519  0.95816650  0.83725644  1
  Si  Si132  1  0.09725481  0.04183350  0.00392310  1
  Si  Si133  1  0.09725481  0.04183350  0.33725644  1
  Si  Si134  1  0.09725481  0.04183350  0.67058977  1
  Si  Si135  1  0.09725481  0.54183350  0.00392310  1
  Si  Si136  1  0.09725481  0.54183350  0.33725644  1
  Si  Si137  1  0.09725481  0.54183350  0.67058977  1
  Si  Si138  1  0.59725481  0.04183350  0.00392310  1
  Si  Si139  1  0.59725481  0.04183350  0.33725644  1
  Si  Si140  1  0.59725481  0.04183350  0.67058977  1
  Si  Si141  1  0.59725481  0.54183350  0.00392310  1
  Si  Si142  1  0.59725481  0.54183350  0.33725644  1
  Si  Si143  1  0.59725481  0.54183350  0.67058977  1
  O  O144  1  0.37643495  0.12818012  0.03315224  1
  O  O145  1  0.37643495  0.12818012  0.36648558  1
  O  O146  1  0.37643495  0.12818012  0.69981891  1
  O  O147  1  0.37643495  0.62818012  0.03315224  1
  O  O148  1  0.37643495  0.62818012  0.36648558  1
  O  O149  1  0.37643495  0.62818012  0.69981891  1
  O  O150  1  0.87643495  0.12818012  0.03315224  1
  O  O151  1  0.87643495  0.12818012  0.36648558  1
  O  O152  1  0.87643495  0.12818012  0.69981891  1
  O  O153  1  0.87643495  0.62818012  0.03315224  1
  O  O154  1  0.87643495  0.62818012  0.36648558  1
  O  O155  1  0.87643495  0.62818012  0.69981891  1
  O  O156  1  0.12356505  0.37181988  0.19981891  1
  O  O157  1  0.12356505  0.37181988  0.53315224  1
  O  O158  1  0.12356505  0.37181988  0.86648558  1
  O  O159  1  0.12356505  0.87181988  0.19981891  1
  O  O160  1  0.12356505  0.87181988  0.53315224  1
  O  O161  1  0.12356505  0.87181988  0.86648558  1
  O  O162  1  0.62356505  0.37181988  0.19981891  1
  O  O163  1  0.62356505  0.37181988  0.53315224  1
  O  O164  1  0.62356505  0.37181988  0.86648558  1
  O  O165  1  0.62356505  0.87181988  0.19981891  1
  O  O166  1  0.62356505  0.87181988  0.53315224  1
  O  O167  1  0.62356505  0.87181988  0.86648558  1
  O  O168  1  0.37356505  0.37818012  0.19981891  1
  O  O169  1  0.37356505  0.37818012  0.53315224  1
  O  O170  1  0.37356505  0.37818012  0.86648558  1
  O  O171  1  0.37356505  0.87818012  0.19981891  1
  O  O172  1  0.37356505  0.87818012  0.53315224  1
  O  O173  1  0.37356505  0.87818012  0.86648558  1
  O  O174  1  0.87356505  0.37818012  0.19981891  1
  O  O175  1  0.87356505  0.37818012  0.53315224  1
  O  O176  1  0.87356505  0.37818012  0.86648558  1
  O  O177  1  0.87356505  0.87818012  0.19981891  1
  O  O178  1  0.87356505  0.87818012  0.53315224  1
  O  O179  1  0.87356505  0.87818012  0.86648558  1
  O  O180  1  0.12643495  0.12181988  0.03315224  1
  O  O181  1  0.12643495  0.12181988  0.36648558  1
  O  O182  1  0.12643495  0.12181988  0.69981891  1
  O  O183  1  0.12643495  0.62181988  0.03315224  1
  O  O184  1  0.12643495  0.62181988  0.36648558  1
  O  O185  1  0.12643495  0.62181988  0.69981891  1
  O  O186  1  0.62643495  0.12181988  0.03315224  1
  O  O187  1  0.62643495  0.12181988  0.36648558  1
  O  O188  1  0.62643495  0.12181988  0.69981891  1
  O  O189  1  0.62643495  0.62181988  0.03315224  1
  O  O190  1  0.62643495  0.62181988  0.36648558  1
  O  O191  1  0.62643495  0.62181988  0.69981891  1
  O  O192  1  0.37974383  0.26796306  0.07128977  1
  O  O193  1  0.37974383  0.26796306  0.40462310  1
  O  O194  1  0.37974383  0.26796306  0.73795644  1
  O  O195  1  0.37974383  0.76796306  0.07128977  1
  O  O196  1  0.37974383  0.76796306  0.40462310  1
  O  O197  1  0.37974383  0.76796306  0.73795644  1
  O  O198  1  0.87974383  0.26796306  0.07128977  1
  O  O199  1  0.87974383  0.26796306  0.40462310  1
  O  O200  1  0.87974383  0.26796306  0.73795644  1
  O  O201  1  0.87974383  0.76796306  0.07128977  1
  O  O202  1  0.87974383  0.76796306  0.40462310  1
  O  O203  1  0.87974383  0.76796306  0.73795644  1
  O  O204  1  0.12025617  0.23203694  0.23795644  1
  O  O205  1  0.12025617  0.23203694  0.57128977  1
  O  O206  1  0.12025617  0.23203694  0.90462310  1
  O  O207  1  0.12025617  0.73203694  0.23795644  1
  O  O208  1  0.12025617  0.73203694  0.57128977  1
  O  O209  1  0.12025617  0.73203694  0.90462310  1
  O  O210  1  0.62025617  0.23203694  0.23795644  1
  O  O211  1  0.62025617  0.23203694  0.57128977  1
  O  O212  1  0.62025617  0.23203694  0.90462310  1
  O  O213  1  0.62025617  0.73203694  0.23795644  1
  O  O214  1  0.62025617  0.73203694  0.57128977  1
  O  O215  1  0.62025617  0.73203694  0.90462310  1
  O  O216  1  0.37025617  0.01796306  0.23795644  1
  O  O217  1  0.37025617  0.01796306  0.57128977  1
  O  O218  1  0.37025617  0.01796306  0.90462310  1
  O  O219  1  0.37025617  0.51796306  0.23795644  1
  O  O220  1  0.37025617  0.51796306  0.57128977  1
  O  O221  1  0.37025617  0.51796306  0.90462310  1
  O  O222  1  0.87025617  0.01796306  0.23795644  1
  O  O223  1  0.87025617  0.01796306  0.57128977  1
  O  O224  1  0.87025617  0.01796306  0.90462310  1
  O  O225  1  0.87025617  0.51796306  0.23795644  1
  O  O226  1  0.87025617  0.51796306  0.57128977  1
  O  O227  1  0.87025617  0.51796306  0.90462310  1
  O  O228  1  0.12974383  0.48203694  0.07128977  1
  O  O229  1  0.12974383  0.48203694  0.40462310  1
  O  O230  1  0.12974383  0.48203694  0.73795644  1
  O  O231  1  0.12974383  0.98203694  0.07128977  1
  O  O232  1  0.12974383  0.98203694  0.40462310  1
  O  O233  1  0.12974383  0.98203694  0.73795644  1
  O  O234  1  0.62974383  0.48203694  0.07128977  1
  O  O235  1  0.62974383  0.48203694  0.40462310  1
  O  O236  1  0.62974383  0.48203694  0.73795644  1
  O  O237  1  0.62974383  0.98203694  0.07128977  1
  O  O238  1  0.62974383  0.98203694  0.40462310  1
  O  O239  1  0.62974383  0.98203694  0.73795644  1
  O  O240  1  0.38009258  0.22879428  0.24421426  1
  O  O241  1  0.38009258  0.22879428  0.57754760  1
  O  O242  1  0.38009258  0.22879428  0.91088093  1
  O  O243  1  0.38009258  0.72879428  0.24421426  1
  O  O244  1  0.38009258  0.72879428  0.57754760  1
  O  O245  1  0.38009258  0.72879428  0.91088093  1
  O  O246  1  0.88009258  0.22879428  0.24421426  1
  O  O247  1  0.88009258  0.22879428  0.57754760  1
  O  O248  1  0.88009258  0.22879428  0.91088093  1
  O  O249  1  0.88009258  0.72879428  0.24421426  1
  O  O250  1  0.88009258  0.72879428  0.57754760  1
  O  O251  1  0.88009258  0.72879428  0.91088093  1
  O  O252  1  0.11990742  0.27120572  0.07754760  1
  O  O253  1  0.11990742  0.27120572  0.41088093  1
  O  O254  1  0.11990742  0.27120572  0.74421426  1
  O  O255  1  0.11990742  0.77120572  0.07754760  1
  O  O256  1  0.11990742  0.77120572  0.41088093  1
  O  O257  1  0.11990742  0.77120572  0.74421426  1
  O  O258  1  0.61990742  0.27120572  0.07754760  1
  O  O259  1  0.61990742  0.27120572  0.41088093  1
  O  O260  1  0.61990742  0.27120572  0.74421426  1
  O  O261  1  0.61990742  0.77120572  0.07754760  1
  O  O262  1  0.61990742  0.77120572  0.41088093  1
  O  O263  1  0.61990742  0.77120572  0.74421426  1
  O  O264  1  0.36990742  0.47879428  0.07754760  1
  O  O265  1  0.36990742  0.47879428  0.41088093  1
  O  O266  1  0.36990742  0.47879428  0.74421426  1
  O  O267  1  0.36990742  0.97879428  0.07754760  1
  O  O268  1  0.36990742  0.97879428  0.41088093  1
  O  O269  1  0.36990742  0.97879428  0.74421426  1
  O  O270  1  0.86990742  0.47879428  0.07754760  1
  O  O271  1  0.86990742  0.47879428  0.41088093  1
  O  O272  1  0.86990742  0.47879428  0.74421426  1
  O  O273  1  0.86990742  0.97879428  0.07754760  1
  O  O274  1  0.86990742  0.97879428  0.41088093  1
  O  O275  1  0.86990742  0.97879428  0.74421426  1
  O  O276  1  0.13009258  0.02120572  0.24421426  1
  O  O277  1  0.13009258  0.02120572  0.57754760  1
  O  O278  1  0.13009258  0.02120572  0.91088093  1
  O  O279  1  0.13009258  0.52120572  0.24421426  1
  O  O280  1  0.13009258  0.52120572  0.57754760  1
  O  O281  1  0.13009258  0.52120572  0.91088093  1
  O  O282  1  0.63009258  0.02120572  0.24421426  1
  O  O283  1  0.63009258  0.02120572  0.57754760  1
  O  O284  1  0.63009258  0.02120572  0.91088093  1
  O  O285  1  0.63009258  0.52120572  0.24421426  1
  O  O286  1  0.63009258  0.52120572  0.57754760  1
  O  O287  1  0.63009258  0.52120572  0.91088093  1
  O  O288  1  0.00482793  0.04192864  0.00308117  1
  O  O289  1  0.00482793  0.04192864  0.33641450  1
  O  O290  1  0.00482793  0.04192864  0.66974784  1
  O  O291  1  0.00482793  0.54192864  0.00308117  1
  O  O292  1  0.00482793  0.54192864  0.33641450  1
  O  O293  1  0.00482793  0.54192864  0.66974784  1
  O  O294  1  0.50482793  0.04192864  0.00308117  1
  O  O295  1  0.50482793  0.04192864  0.33641450  1
  O  O296  1  0.50482793  0.04192864  0.66974784  1
  O  O297  1  0.50482793  0.54192864  0.00308117  1
  O  O298  1  0.50482793  0.54192864  0.33641450  1
  O  O299  1  0.50482793  0.54192864  0.66974784  1
  O  O300  1  0.49517207  0.45807136  0.16974784  1
  O  O301  1  0.49517207  0.45807136  0.50308117  1
  O  O302  1  0.49517207  0.45807136  0.83641450  1
  O  O303  1  0.49517207  0.95807136  0.16974784  1
  O  O304  1  0.49517207  0.95807136  0.50308117  1
  O  O305  1  0.49517207  0.95807136  0.83641450  1
  O  O306  1  0.99517207  0.45807136  0.16974784  1
  O  O307  1  0.99517207  0.45807136  0.50308117  1
  O  O308  1  0.99517207  0.45807136  0.83641450  1
  O  O309  1  0.99517207  0.95807136  0.16974784  1
  O  O310  1  0.99517207  0.95807136  0.50308117  1
  O  O311  1  0.99517207  0.95807136  0.83641450  1
  O  O312  1  0.24517207  0.29192864  0.16974784  1
  O  O313  1  0.24517207  0.29192864  0.50308117  1
  O  O314  1  0.24517207  0.29192864  0.83641450  1
  O  O315  1  0.24517207  0.79192864  0.16974784  1
  O  O316  1  0.24517207  0.79192864  0.50308117  1
  O  O317  1  0.24517207  0.79192864  0.83641450  1
  O  O318  1  0.74517207  0.29192864  0.16974784  1
  O  O319  1  0.74517207  0.29192864  0.50308117  1
  O  O320  1  0.74517207  0.29192864  0.83641450  1
  O  O321  1  0.74517207  0.79192864  0.16974784  1
  O  O322  1  0.74517207  0.79192864  0.50308117  1
  O  O323  1  0.74517207  0.79192864  0.83641450  1
  O  O324  1  0.25482793  0.20807136  0.00308117  1
  O  O325  1  0.25482793  0.20807136  0.33641450  1
  O  O326  1  0.25482793  0.20807136  0.66974784  1
  O  O327  1  0.25482793  0.70807136  0.00308117  1
  O  O328  1  0.25482793  0.70807136  0.33641450  1
  O  O329  1  0.25482793  0.70807136  0.66974784  1
  O  O330  1  0.75482793  0.20807136  0.00308117  1
  O  O331  1  0.75482793  0.20807136  0.33641450  1
  O  O332  1  0.75482793  0.20807136  0.66974784  1
  O  O333  1  0.75482793  0.70807136  0.00308117  1
  O  O334  1  0.75482793  0.70807136  0.33641450  1
  O  O335  1  0.75482793  0.70807136  0.66974784  1
