# generated using pymatgen
data_NaLa2TaO6
_symmetry_space_group_name_H-M   'P 1'
_cell_length_a   16.94313656
_cell_length_b   17.81532554
_cell_length_c   19.59995391
_cell_angle_alpha   90.00000000
_cell_angle_beta   124.25029370
_cell_angle_gamma   90.00000000
_symmetry_Int_Tables_number   1
_chemical_formula_structural   NaLa2TaO6
_chemical_formula_sum   'Na36 La72 Ta36 O216'
_cell_volume   4890.25069333
_cell_formula_units_Z   36
loop_
 _symmetry_equiv_pos_site_id
 _symmetry_equiv_pos_as_xyz
  1  'x, y, z'
loop_
 _atom_site_type_symbol
 _atom_site_label
 _atom_site_symmetry_multiplicity
 _atom_site_fract_x
 _atom_site_fract_y
 _atom_site_fract_z
 _atom_site_occupancy
  Na  Na0  1  0.00000000  0.16666667  0.25000000  1
  Na  Na1  1  -0.00000000  0.16666667  0.75000000  1
  Na  Na2  1  0.00000000  0.50000000  0.25000000  1
  Na  Na3  1  -0.00000000  0.50000000  0.75000000  1
  Na  Na4  1  0.00000000  0.83333333  0.25000000  1
  Na  Na5  1  -0.00000000  0.83333333  0.75000000  1
  Na  Na6  1  0.33333333  0.16666667  0.25000000  1
  Na  Na7  1  0.33333333  0.16666667  0.75000000  1
  Na  Na8  1  0.33333333  0.50000000  0.25000000  1
  Na  Na9  1  0.33333333  0.50000000  0.75000000  1
  Na  Na10  1  0.33333333  0.83333333  0.25000000  1
  Na  Na11  1  0.33333333  0.83333333  0.75000000  1
  Na  Na12  1  0.66666667  0.16666667  0.25000000  1
  Na  Na13  1  0.66666667  0.16666667  0.75000000  1
  Na  Na14  1  0.66666667  0.50000000  0.25000000  1
  Na  Na15  1  0.66666667  0.50000000  0.75000000  1
  Na  Na16  1  0.66666667  0.83333333  0.25000000  1
  Na  Na17  1  0.66666667  0.83333333  0.75000000  1
  Na  Na18  1  0.00000000  0.00000000  0.00000000  1
  Na  Na19  1  -0.00000000  0.00000000  0.50000000  1
  Na  Na20  1  0.00000000  0.33333333  0.00000000  1
  Na  Na21  1  -0.00000000  0.33333333  0.50000000  1
  Na  Na22  1  0.00000000  0.66666667  0.00000000  1
  Na  Na23  1  -0.00000000  0.66666667  0.50000000  1
  Na  Na24  1  0.33333333  0.00000000  0.00000000  1
  Na  Na25  1  0.33333333  0.00000000  0.50000000  1
  Na  Na26  1  0.33333333  0.33333333  0.00000000  1
  Na  Na27  1  0.33333333  0.33333333  0.50000000  1
  Na  Na28  1  0.33333333  0.66666667  0.00000000  1
  Na  Na29  1  0.33333333  0.66666667  0.50000000  1
  Na  Na30  1  0.66666667  0.00000000  0.00000000  1
  Na  Na31  1  0.66666667  0.00000000  0.50000000  1
  Na  Na32  1  0.66666667  0.33333333  0.00000000  1
  Na  Na33  1  0.66666667  0.33333333  0.50000000  1
  Na  Na34  1  0.66666667  0.66666667  0.00000000  1
  Na  Na35  1  0.66666667  0.66666667  0.50000000  1
  La  La36  1  0.25750356  0.02007866  0.12746136  1
  La  La37  1  0.25750356  0.02007866  0.62746136  1
  La  La38  1  0.25750356  0.35341199  0.12746136  1
  La  La39  1  0.25750356  0.35341199  0.62746136  1
  La  La40  1  0.25750356  0.68674532  0.12746136  1
  La  La41  1  0.25750356  0.68674532  0.62746136  1
  La  La42  1  0.59083689  0.02007866  0.12746136  1
  La  La43  1  0.59083689  0.02007866  0.62746136  1
  La  La44  1  0.59083689  0.35341199  0.12746136  1
  La  La45  1  0.59083689  0.35341199  0.62746136  1
  La  La46  1  0.59083689  0.68674532  0.12746136  1
  La  La47  1  0.59083689  0.68674532  0.62746136  1
  La  La48  1  0.92417023  0.02007866  0.12746136  1
  La  La49  1  0.92417023  0.02007866  0.62746136  1
  La  La50  1  0.92417023  0.35341199  0.12746136  1
  La  La51  1  0.92417023  0.35341199  0.62746136  1
  La  La52  1  0.92417023  0.68674532  0.12746136  1
  La  La53  1  0.92417023  0.68674532  0.62746136  1
  La  La54  1  0.07582977  0.18674532  0.12253864  1
  La  La55  1  0.07582977  0.18674532  0.62253864  1
  La  La56  1  0.07582977  0.52007866  0.12253864  1
  La  La57  1  0.07582977  0.52007866  0.62253864  1
  La  La58  1  0.07582977  0.85341199  0.12253864  1
  La  La59  1  0.07582977  0.85341199  0.62253864  1
  La  La60  1  0.40916311  0.18674532  0.12253864  1
  La  La61  1  0.40916311  0.18674532  0.62253864  1
  La  La62  1  0.40916311  0.52007866  0.12253864  1
  La  La63  1  0.40916311  0.52007866  0.62253864  1
  La  La64  1  0.40916311  0.85341199  0.12253864  1
  La  La65  1  0.40916311  0.85341199  0.62253864  1
  La  La66  1  0.74249644  0.18674532  0.12253864  1
  La  La67  1  0.74249644  0.18674532  0.62253864  1
  La  La68  1  0.74249644  0.52007866  0.12253864  1
  La  La69  1  0.74249644  0.52007866  0.62253864  1
  La  La70  1  0.74249644  0.85341199  0.12253864  1
  La  La71  1  0.74249644  0.85341199  0.62253864  1
  La  La72  1  0.25750356  0.14658801  0.37746136  1
  La  La73  1  0.25750356  0.14658801  0.87746136  1
  La  La74  1  0.25750356  0.47992134  0.37746136  1
  La  La75  1  0.25750356  0.47992134  0.87746136  1
  La  La76  1  0.25750356  0.81325468  0.37746136  1
  La  La77  1  0.25750356  0.81325468  0.87746136  1
  La  La78  1  0.59083689  0.14658801  0.37746136  1
  La  La79  1  0.59083689  0.14658801  0.87746136  1
  La  La80  1  0.59083689  0.47992134  0.37746136  1
  La  La81  1  0.59083689  0.47992134  0.87746136  1
  La  La82  1  0.59083689  0.81325468  0.37746136  1
  La  La83  1  0.59083689  0.81325468  0.87746136  1
  La  La84  1  0.92417023  0.14658801  0.37746136  1
  La  La85  1  0.92417023  0.14658801  0.87746136  1
  La  La86  1  0.92417023  0.47992134  0.37746136  1
  La  La87  1  0.92417023  0.47992134  0.87746136  1
  La  La88  1  0.92417023  0.81325468  0.37746136  1
  La  La89  1  0.92417023  0.81325468  0.87746136  1
  La  La90  1  0.07582977  0.31325468  0.37253864  1
  La  La91  1  0.07582977  0.31325468  0.87253864  1
  La  La92  1  0.07582977  0.64658801  0.37253864  1
  La  La93  1  0.07582977  0.64658801  0.87253864  1
  La  La94  1  0.07582977  0.97992134  0.37253864  1
  La  La95  1  0.07582977  0.97992134  0.87253864  1
  La  La96  1  0.40916311  0.31325468  0.37253864  1
  La  La97  1  0.40916311  0.31325468  0.87253864  1
  La  La98  1  0.40916311  0.64658801  0.37253864  1
  La  La99  1  0.40916311  0.64658801  0.87253864  1
  La  La100  1  0.40916311  0.97992134  0.37253864  1
  La  La101  1  0.40916311  0.97992134  0.87253864  1
  La  La102  1  0.74249644  0.31325468  0.37253864  1
  La  La103  1  0.74249644  0.31325468  0.87253864  1
  La  La104  1  0.74249644  0.64658801  0.37253864  1
  La  La105  1  0.74249644  0.64658801  0.87253864  1
  La  La106  1  0.74249644  0.97992134  0.37253864  1
  La  La107  1  0.74249644  0.97992134  0.87253864  1
  Ta  Ta108  1  0.16666667  0.16666667  0.00000000  1
  Ta  Ta109  1  0.16666667  0.16666667  0.50000000  1
  Ta  Ta110  1  0.16666667  0.50000000  0.00000000  1
  Ta  Ta111  1  0.16666667  0.50000000  0.50000000  1
  Ta  Ta112  1  0.16666667  0.83333333  0.00000000  1
  Ta  Ta113  1  0.16666667  0.83333333  0.50000000  1
  Ta  Ta114  1  0.50000000  0.16666667  0.00000000  1
  Ta  Ta115  1  0.50000000  0.16666667  0.50000000  1
  Ta  Ta116  1  0.50000000  0.50000000  0.00000000  1
  Ta  Ta117  1  0.50000000  0.50000000  0.50000000  1
  Ta  Ta118  1  0.50000000  0.83333333  0.00000000  1
  Ta  Ta119  1  0.50000000  0.83333333  0.50000000  1
  Ta  Ta120  1  0.83333333  0.16666667  0.00000000  1
  Ta  Ta121  1  0.83333333  0.16666667  0.50000000  1
  Ta  Ta122  1  0.83333333  0.50000000  0.00000000  1
  Ta  Ta123  1  0.83333333  0.50000000  0.50000000  1
  Ta  Ta124  1  0.83333333  0.83333333  0.00000000  1
  Ta  Ta125  1  0.83333333  0.83333333  0.50000000  1
  Ta  Ta126  1  0.16666667  0.00000000  0.25000000  1
  Ta  Ta127  1  0.16666667  0.00000000  0.75000000  1
  Ta  Ta128  1  0.16666667  0.33333333  0.25000000  1
  Ta  Ta129  1  0.16666667  0.33333333  0.75000000  1
  Ta  Ta130  1  0.16666667  0.66666667  0.25000000  1
  Ta  Ta131  1  0.16666667  0.66666667  0.75000000  1
  Ta  Ta132  1  0.50000000  0.00000000  0.25000000  1
  Ta  Ta133  1  0.50000000  0.00000000  0.75000000  1
  Ta  Ta134  1  0.50000000  0.33333333  0.25000000  1
  Ta  Ta135  1  0.50000000  0.33333333  0.75000000  1
  Ta  Ta136  1  0.50000000  0.66666667  0.25000000  1
  Ta  Ta137  1  0.50000000  0.66666667  0.75000000  1
  Ta  Ta138  1  0.83333333  0.00000000  0.25000000  1
  Ta  Ta139  1  0.83333333  0.00000000  0.75000000  1
  Ta  Ta140  1  0.83333333  0.33333333  0.25000000  1
  Ta  Ta141  1  0.83333333  0.33333333  0.75000000  1
  Ta  Ta142  1  0.83333333  0.66666667  0.25000000  1
  Ta  Ta143  1  0.83333333  0.66666667  0.75000000  1
  O  O144  1  0.24753751  0.24055825  0.28563275  1
  O  O145  1  0.24753751  0.24055825  0.78563275  1
  O  O146  1  0.24753751  0.57389158  0.28563275  1
  O  O147  1  0.24753751  0.57389158  0.78563275  1
  O  O148  1  0.24753751  0.90722491  0.28563275  1
  O  O149  1  0.24753751  0.90722491  0.78563275  1
  O  O150  1  0.58087085  0.24055825  0.28563275  1
  O  O151  1  0.58087085  0.24055825  0.78563275  1
  O  O152  1  0.58087085  0.57389158  0.28563275  1
  O  O153  1  0.58087085  0.57389158  0.78563275  1
  O  O154  1  0.58087085  0.90722491  0.28563275  1
  O  O155  1  0.58087085  0.90722491  0.78563275  1
  O  O156  1  0.91420418  0.24055825  0.28563275  1
  O  O157  1  0.91420418  0.24055825  0.78563275  1
  O  O158  1  0.91420418  0.57389158  0.28563275  1
  O  O159  1  0.91420418  0.57389158  0.78563275  1
  O  O160  1  0.91420418  0.90722491  0.28563275  1
  O  O161  1  0.91420418  0.90722491  0.78563275  1
  O  O162  1  0.08579582  0.07389158  0.46436725  1
  O  O163  1  0.08579582  0.07389158  0.96436725  1
  O  O164  1  0.08579582  0.40722491  0.46436725  1
  O  O165  1  0.08579582  0.40722491  0.96436725  1
  O  O166  1  0.08579582  0.74055825  0.46436725  1
  O  O167  1  0.08579582  0.74055825  0.96436725  1
  O  O168  1  0.41912915  0.07389158  0.46436725  1
  O  O169  1  0.41912915  0.07389158  0.96436725  1
  O  O170  1  0.41912915  0.40722491  0.46436725  1
  O  O171  1  0.41912915  0.40722491  0.96436725  1
  O  O172  1  0.41912915  0.74055825  0.46436725  1
  O  O173  1  0.41912915  0.74055825  0.96436725  1
  O  O174  1  0.75246249  0.07389158  0.46436725  1
  O  O175  1  0.75246249  0.07389158  0.96436725  1
  O  O176  1  0.75246249  0.40722491  0.46436725  1
  O  O177  1  0.75246249  0.40722491  0.96436725  1
  O  O178  1  0.75246249  0.74055825  0.46436725  1
  O  O179  1  0.75246249  0.74055825  0.96436725  1
  O  O180  1  0.08579582  0.09277509  0.21436725  1
  O  O181  1  0.08579582  0.09277509  0.71436725  1
  O  O182  1  0.08579582  0.42610842  0.21436725  1
  O  O183  1  0.08579582  0.42610842  0.71436725  1
  O  O184  1  0.08579582  0.75944175  0.21436725  1
  O  O185  1  0.08579582  0.75944175  0.71436725  1
  O  O186  1  0.41912915  0.09277509  0.21436725  1
  O  O187  1  0.41912915  0.09277509  0.71436725  1
  O  O188  1  0.41912915  0.42610842  0.21436725  1
  O  O189  1  0.41912915  0.42610842  0.71436725  1
  O  O190  1  0.41912915  0.75944175  0.21436725  1
  O  O191  1  0.41912915  0.75944175  0.71436725  1
  O  O192  1  0.75246249  0.09277509  0.21436725  1
  O  O193  1  0.75246249  0.09277509  0.71436725  1
  O  O194  1  0.75246249  0.42610842  0.21436725  1
  O  O195  1  0.75246249  0.42610842  0.71436725  1
  O  O196  1  0.75246249  0.75944175  0.21436725  1
  O  O197  1  0.75246249  0.75944175  0.71436725  1
  O  O198  1  0.24753751  0.25944175  0.03563275  1
  O  O199  1  0.24753751  0.25944175  0.53563275  1
  O  O200  1  0.24753751  0.59277509  0.03563275  1
  O  O201  1  0.24753751  0.59277509  0.53563275  1
  O  O202  1  0.24753751  0.92610842  0.03563275  1
  O  O203  1  0.24753751  0.92610842  0.53563275  1
  O  O204  1  0.58087085  0.25944175  0.03563275  1
  O  O205  1  0.58087085  0.25944175  0.53563275  1
  O  O206  1  0.58087085  0.59277509  0.03563275  1
  O  O207  1  0.58087085  0.59277509  0.53563275  1
  O  O208  1  0.58087085  0.92610842  0.03563275  1
  O  O209  1  0.58087085  0.92610842  0.53563275  1
  O  O210  1  0.91420418  0.25944175  0.03563275  1
  O  O211  1  0.91420418  0.25944175  0.53563275  1
  O  O212  1  0.91420418  0.59277509  0.03563275  1
  O  O213  1  0.91420418  0.59277509  0.53563275  1
  O  O214  1  0.91420418  0.92610842  0.03563275  1
  O  O215  1  0.91420418  0.92610842  0.53563275  1
  O  O216  1  0.20360941  0.01773020  0.36489542  1
  O  O217  1  0.20360941  0.01773020  0.86489542  1
  O  O218  1  0.20360941  0.35106353  0.36489542  1
  O  O219  1  0.20360941  0.35106353  0.86489542  1
  O  O220  1  0.20360941  0.68439686  0.36489542  1
  O  O221  1  0.20360941  0.68439686  0.86489542  1
  O  O222  1  0.53694274  0.01773020  0.36489542  1
  O  O223  1  0.53694274  0.01773020  0.86489542  1
  O  O224  1  0.53694274  0.35106353  0.36489542  1
  O  O225  1  0.53694274  0.35106353  0.86489542  1
  O  O226  1  0.53694274  0.68439686  0.36489542  1
  O  O227  1  0.53694274  0.68439686  0.86489542  1
  O  O228  1  0.87027607  0.01773020  0.36489542  1
  O  O229  1  0.87027607  0.01773020  0.86489542  1
  O  O230  1  0.87027607  0.35106353  0.36489542  1
  O  O231  1  0.87027607  0.35106353  0.86489542  1
  O  O232  1  0.87027607  0.68439686  0.36489542  1
  O  O233  1  0.87027607  0.68439686  0.86489542  1
  O  O234  1  0.12972393  0.18439686  0.38510458  1
  O  O235  1  0.12972393  0.18439686  0.88510458  1
  O  O236  1  0.12972393  0.51773020  0.38510458  1
  O  O237  1  0.12972393  0.51773020  0.88510458  1
  O  O238  1  0.12972393  0.85106353  0.38510458  1
  O  O239  1  0.12972393  0.85106353  0.88510458  1
  O  O240  1  0.46305726  0.18439686  0.38510458  1
  O  O241  1  0.46305726  0.18439686  0.88510458  1
  O  O242  1  0.46305726  0.51773020  0.38510458  1
  O  O243  1  0.46305726  0.51773020  0.88510458  1
  O  O244  1  0.46305726  0.85106353  0.38510458  1
  O  O245  1  0.46305726  0.85106353  0.88510458  1
  O  O246  1  0.79639059  0.18439686  0.38510458  1
  O  O247  1  0.79639059  0.18439686  0.88510458  1
  O  O248  1  0.79639059  0.51773020  0.38510458  1
  O  O249  1  0.79639059  0.51773020  0.88510458  1
  O  O250  1  0.79639059  0.85106353  0.38510458  1
  O  O251  1  0.79639059  0.85106353  0.88510458  1
  O  O252  1  0.12972393  0.31560314  0.13510458  1
  O  O253  1  0.12972393  0.31560314  0.63510458  1
  O  O254  1  0.12972393  0.64893647  0.13510458  1
  O  O255  1  0.12972393  0.64893647  0.63510458  1
  O  O256  1  0.12972393  0.98226980  0.13510458  1
  O  O257  1  0.12972393  0.98226980  0.63510458  1
  O  O258  1  0.46305726  0.31560314  0.13510458  1
  O  O259  1  0.46305726  0.31560314  0.63510458  1
  O  O260  1  0.46305726  0.64893647  0.13510458  1
  O  O261  1  0.46305726  0.64893647  0.63510458  1
  O  O262  1  0.46305726  0.98226980  0.13510458  1
  O  O263  1  0.46305726  0.98226980  0.63510458  1
  O  O264  1  0.79639059  0.31560314  0.13510458  1
  O  O265  1  0.79639059  0.31560314  0.63510458  1
  O  O266  1  0.79639059  0.64893647  0.13510458  1
  O  O267  1  0.79639059  0.64893647  0.63510458  1
  O  O268  1  0.79639059  0.98226980  0.13510458  1
  O  O269  1  0.79639059  0.98226980  0.63510458  1
  O  O270  1  0.20360941  0.14893647  0.11489542  1
  O  O271  1  0.20360941  0.14893647  0.61489542  1
  O  O272  1  0.20360941  0.48226980  0.11489542  1
  O  O273  1  0.20360941  0.48226980  0.61489542  1
  O  O274  1  0.20360941  0.81560314  0.11489542  1
  O  O275  1  0.20360941  0.81560314  0.61489542  1
  O  O276  1  0.53694274  0.14893647  0.11489542  1
  O  O277  1  0.53694274  0.14893647  0.61489542  1
  O  O278  1  0.53694274  0.48226980  0.11489542  1
  O  O279  1  0.53694274  0.48226980  0.61489542  1
  O  O280  1  0.53694274  0.81560314  0.11489542  1
  O  O281  1  0.53694274  0.81560314  0.61489542  1
  O  O282  1  0.87027607  0.14893647  0.11489542  1
  O  O283  1  0.87027607  0.14893647  0.61489542  1
  O  O284  1  0.87027607  0.48226980  0.11489542  1
  O  O285  1  0.87027607  0.48226980  0.61489542  1
  O  O286  1  0.87027607  0.81560314  0.11489542  1
  O  O287  1  0.87027607  0.81560314  0.61489542  1
  O  O288  1  0.27970366  0.10755318  0.02587444  1
  O  O289  1  0.27970366  0.10755318  0.52587444  1
  O  O290  1  0.27970366  0.44088652  0.02587444  1
  O  O291  1  0.27970366  0.44088652  0.52587444  1
  O  O292  1  0.27970366  0.77421985  0.02587444  1
  O  O293  1  0.27970366  0.77421985  0.52587444  1
  O  O294  1  0.61303699  0.10755318  0.02587444  1
  O  O295  1  0.61303699  0.10755318  0.52587444  1
  O  O296  1  0.61303699  0.44088652  0.02587444  1
  O  O297  1  0.61303699  0.44088652  0.52587444  1
  O  O298  1  0.61303699  0.77421985  0.02587444  1
  O  O299  1  0.61303699  0.77421985  0.52587444  1
  O  O300  1  0.94637033  0.10755318  0.02587444  1
  O  O301  1  0.94637033  0.10755318  0.52587444  1
  O  O302  1  0.94637033  0.44088652  0.02587444  1
  O  O303  1  0.94637033  0.44088652  0.52587444  1
  O  O304  1  0.94637033  0.77421985  0.02587444  1
  O  O305  1  0.94637033  0.77421985  0.52587444  1
  O  O306  1  0.05362967  0.27421985  0.22412556  1
  O  O307  1  0.05362967  0.27421985  0.72412556  1
  O  O308  1  0.05362967  0.60755318  0.22412556  1
  O  O309  1  0.05362967  0.60755318  0.72412556  1
  O  O310  1  0.05362967  0.94088652  0.22412556  1
  O  O311  1  0.05362967  0.94088652  0.72412556  1
  O  O312  1  0.38696301  0.27421985  0.22412556  1
  O  O313  1  0.38696301  0.27421985  0.72412556  1
  O  O314  1  0.38696301  0.60755318  0.22412556  1
  O  O315  1  0.38696301  0.60755318  0.72412556  1
  O  O316  1  0.38696301  0.94088652  0.22412556  1
  O  O317  1  0.38696301  0.94088652  0.72412556  1
  O  O318  1  0.72029634  0.27421985  0.22412556  1
  O  O319  1  0.72029634  0.27421985  0.72412556  1
  O  O320  1  0.72029634  0.60755318  0.22412556  1
  O  O321  1  0.72029634  0.60755318  0.72412556  1
  O  O322  1  0.72029634  0.94088652  0.22412556  1
  O  O323  1  0.72029634  0.94088652  0.72412556  1
  O  O324  1  0.05362967  0.22578015  0.47412556  1
  O  O325  1  0.05362967  0.22578015  0.97412556  1
  O  O326  1  0.05362967  0.55911348  0.47412556  1
  O  O327  1  0.05362967  0.55911348  0.97412556  1
  O  O328  1  0.05362967  0.89244682  0.47412556  1
  O  O329  1  0.05362967  0.89244682  0.97412556  1
  O  O330  1  0.38696301  0.22578015  0.47412556  1
  O  O331  1  0.38696301  0.22578015  0.97412556  1
  O  O332  1  0.38696301  0.55911348  0.47412556  1
  O  O333  1  0.38696301  0.55911348  0.97412556  1
  O  O334  1  0.38696301  0.89244682  0.47412556  1
  O  O335  1  0.38696301  0.89244682  0.97412556  1
  O  O336  1  0.72029634  0.22578015  0.47412556  1
  O  O337  1  0.72029634  0.22578015  0.97412556  1
  O  O338  1  0.72029634  0.55911348  0.47412556  1
  O  O339  1  0.72029634  0.55911348  0.97412556  1
  O  O340  1  0.72029634  0.89244682  0.47412556  1
  O  O341  1  0.72029634  0.89244682  0.97412556  1
  O  O342  1  0.27970366  0.05911348  0.27587444  1
  O  O343  1  0.27970366  0.05911348  0.77587444  1
  O  O344  1  0.27970366  0.39244682  0.27587444  1
  O  O345  1  0.27970366  0.39244682  0.77587444  1
  O  O346  1  0.27970366  0.72578015  0.27587444  1
  O  O347  1  0.27970366  0.72578015  0.77587444  1
  O  O348  1  0.61303699  0.05911348  0.27587444  1
  O  O349  1  0.61303699  0.05911348  0.77587444  1
  O  O350  1  0.61303699  0.39244682  0.27587444  1
  O  O351  1  0.61303699  0.39244682  0.77587444  1
  O  O352  1  0.61303699  0.72578015  0.27587444  1
  O  O353  1  0.61303699  0.72578015  0.77587444  1
  O  O354  1  0.94637033  0.05911348  0.27587444  1
  O  O355  1  0.94637033  0.05911348  0.77587444  1
  O  O356  1  0.94637033  0.39244682  0.27587444  1
  O  O357  1  0.94637033  0.39244682  0.77587444  1
  O  O358  1  0.94637033  0.72578015  0.27587444  1
  O  O359  1  0.94637033  0.72578015  0.77587444  1
