# generated using pymatgen
data_Rb3AlO3
_symmetry_space_group_name_H-M   'P 1'
_cell_length_a   14.46838762
_cell_length_b   11.38194345
_cell_length_c   13.48731225
_cell_angle_alpha   90.00000000
_cell_angle_beta   104.16360258
_cell_angle_gamma   90.00000000
_symmetry_Int_Tables_number   1
_chemical_formula_structural   Rb3AlO3
_chemical_formula_sum   'Rb48 Al16 O48'
_cell_volume   2153.55029898
_cell_formula_units_Z   16
loop_
 _symmetry_equiv_pos_site_id
 _symmetry_equiv_pos_as_xyz
  1  'x, y, z'
loop_
 _atom_site_type_symbol
 _atom_site_label
 _atom_site_symmetry_multiplicity
 _atom_site_fract_x
 _atom_site_fract_y
 _atom_site_fract_z
 _atom_site_occupancy
  Rb  Rb0  1  0.31484322  -0.00000000  0.17384515  1
  Rb  Rb1  1  0.31484322  -0.00000000  0.67384515  1
  Rb  Rb2  1  0.81484322  -0.00000000  0.17384515  1
  Rb  Rb3  1  0.81484322  -0.00000000  0.67384515  1
  Rb  Rb4  1  0.56484322  0.50000000  0.17384515  1
  Rb  Rb5  1  0.56484322  0.50000000  0.67384515  1
  Rb  Rb6  1  1.06484322  0.50000000  0.17384515  1
  Rb  Rb7  1  1.06484322  0.50000000  0.67384515  1
  Rb  Rb8  1  0.18515678  0.00000000  0.32615485  1
  Rb  Rb9  1  0.18515678  0.00000000  0.82615485  1
  Rb  Rb10  1  0.68515678  0.00000000  0.32615485  1
  Rb  Rb11  1  0.68515678  0.00000000  0.82615485  1
  Rb  Rb12  1  0.43515678  0.50000000  0.32615485  1
  Rb  Rb13  1  0.43515678  0.50000000  0.82615485  1
  Rb  Rb14  1  0.93515678  0.50000000  0.32615485  1
  Rb  Rb15  1  0.93515678  0.50000000  0.82615485  1
  Rb  Rb16  1  0.25000000  -0.30226568  0.25000000  1
  Rb  Rb17  1  0.25000000  -0.30226568  0.75000000  1
  Rb  Rb18  1  0.75000000  -0.30226568  0.25000000  1
  Rb  Rb19  1  0.75000000  -0.30226568  0.75000000  1
  Rb  Rb20  1  0.50000000  0.19773432  0.25000000  1
  Rb  Rb21  1  0.50000000  0.19773432  0.75000000  1
  Rb  Rb22  1  1.00000000  0.19773432  0.25000000  1
  Rb  Rb23  1  1.00000000  0.19773432  0.75000000  1
  Rb  Rb24  1  0.25000000  0.30226568  0.25000000  1
  Rb  Rb25  1  0.25000000  0.30226568  0.75000000  1
  Rb  Rb26  1  0.75000000  0.30226568  0.25000000  1
  Rb  Rb27  1  0.75000000  0.30226568  0.75000000  1
  Rb  Rb28  1  0.50000000  0.80226568  0.25000000  1
  Rb  Rb29  1  0.50000000  0.80226568  0.75000000  1
  Rb  Rb30  1  1.00000000  0.80226568  0.25000000  1
  Rb  Rb31  1  1.00000000  0.80226568  0.75000000  1
  Rb  Rb32  1  0.25000000  -0.23359435  0.00000000  1
  Rb  Rb33  1  0.25000000  -0.23359435  0.50000000  1
  Rb  Rb34  1  0.75000000  -0.23359435  0.00000000  1
  Rb  Rb35  1  0.75000000  -0.23359435  0.50000000  1
  Rb  Rb36  1  0.50000000  0.26640565  0.00000000  1
  Rb  Rb37  1  0.50000000  0.26640565  0.50000000  1
  Rb  Rb38  1  1.00000000  0.26640565  0.00000000  1
  Rb  Rb39  1  1.00000000  0.26640565  0.50000000  1
  Rb  Rb40  1  0.25000000  0.23359435  0.00000000  1
  Rb  Rb41  1  0.25000000  0.23359435  0.50000000  1
  Rb  Rb42  1  0.75000000  0.23359435  0.00000000  1
  Rb  Rb43  1  0.75000000  0.23359435  0.50000000  1
  Rb  Rb44  1  0.50000000  0.73359435  0.00000000  1
  Rb  Rb45  1  0.50000000  0.73359435  0.50000000  1
  Rb  Rb46  1  1.00000000  0.73359435  0.00000000  1
  Rb  Rb47  1  1.00000000  0.73359435  0.50000000  1
  Al  Al48  1  0.07888525  -0.00000000  0.07315238  1
  Al  Al49  1  0.07888525  -0.00000000  0.57315238  1
  Al  Al50  1  0.57888525  -0.00000000  0.07315238  1
  Al  Al51  1  0.57888525  -0.00000000  0.57315238  1
  Al  Al52  1  0.32888525  0.50000000  0.07315238  1
  Al  Al53  1  0.32888525  0.50000000  0.57315238  1
  Al  Al54  1  0.82888525  0.50000000  0.07315238  1
  Al  Al55  1  0.82888525  0.50000000  0.57315238  1
  Al  Al56  1  0.42111475  0.00000000  0.42684762  1
  Al  Al57  1  0.42111475  0.00000000  0.92684762  1
  Al  Al58  1  0.92111475  0.00000000  0.42684762  1
  Al  Al59  1  0.92111475  0.00000000  0.92684762  1
  Al  Al60  1  0.67111475  0.50000000  0.42684762  1
  Al  Al61  1  0.67111475  0.50000000  0.92684762  1
  Al  Al62  1  1.17111475  0.50000000  0.42684762  1
  Al  Al63  1  1.17111475  0.50000000  0.92684762  1
  O  O64  1  0.13810077  0.12762101  0.13131221  1
  O  O65  1  0.13810077  0.12762101  0.63131221  1
  O  O66  1  0.63810077  0.12762101  0.13131221  1
  O  O67  1  0.63810077  0.12762101  0.63131221  1
  O  O68  1  0.38810077  0.62762101  0.13131221  1
  O  O69  1  0.38810077  0.62762101  0.63131221  1
  O  O70  1  0.88810077  0.62762101  0.13131221  1
  O  O71  1  0.88810077  0.62762101  0.63131221  1
  O  O72  1  0.36189923  0.12762101  0.36868779  1
  O  O73  1  0.36189923  0.12762101  0.86868779  1
  O  O74  1  0.86189923  0.12762101  0.36868779  1
  O  O75  1  0.86189923  0.12762101  0.86868779  1
  O  O76  1  0.61189923  0.62762101  0.36868779  1
  O  O77  1  0.61189923  0.62762101  0.86868779  1
  O  O78  1  1.11189923  0.62762101  0.36868779  1
  O  O79  1  1.11189923  0.62762101  0.86868779  1
  O  O80  1  0.36189923  -0.12762101  0.36868779  1
  O  O81  1  0.36189923  -0.12762101  0.86868779  1
  O  O82  1  0.86189923  -0.12762101  0.36868779  1
  O  O83  1  0.86189923  -0.12762101  0.86868779  1
  O  O84  1  0.61189923  0.37237899  0.36868779  1
  O  O85  1  0.61189923  0.37237899  0.86868779  1
  O  O86  1  1.11189923  0.37237899  0.36868779  1
  O  O87  1  1.11189923  0.37237899  0.86868779  1
  O  O88  1  0.13810077  -0.12762101  0.13131221  1
  O  O89  1  0.13810077  -0.12762101  0.63131221  1
  O  O90  1  0.63810077  -0.12762101  0.13131221  1
  O  O91  1  0.63810077  -0.12762101  0.63131221  1
  O  O92  1  0.38810077  0.37237899  0.13131221  1
  O  O93  1  0.38810077  0.37237899  0.63131221  1
  O  O94  1  0.88810077  0.37237899  0.13131221  1
  O  O95  1  0.88810077  0.37237899  0.63131221  1
  O  O96  1  0.04938325  -0.00000000  0.43231073  1
  O  O97  1  0.04938325  -0.00000000  0.93231073  1
  O  O98  1  0.54938325  -0.00000000  0.43231073  1
  O  O99  1  0.54938325  -0.00000000  0.93231073  1
  O  O100  1  0.29938325  0.50000000  0.43231073  1
  O  O101  1  0.29938325  0.50000000  0.93231073  1
  O  O102  1  0.79938325  0.50000000  0.43231073  1
  O  O103  1  0.79938325  0.50000000  0.93231073  1
  O  O104  1  0.45061675  -0.00000000  0.06768927  1
  O  O105  1  0.45061675  -0.00000000  0.56768927  1
  O  O106  1  0.95061675  -0.00000000  0.06768927  1
  O  O107  1  0.95061675  -0.00000000  0.56768927  1
  O  O108  1  0.70061675  0.50000000  0.06768927  1
  O  O109  1  0.70061675  0.50000000  0.56768927  1
  O  O110  1  1.20061675  0.50000000  0.06768927  1
  O  O111  1  1.20061675  0.50000000  0.56768927  1
