# generated using pymatgen
data_TiNb3O6
_symmetry_space_group_name_H-M   'P 1'
_cell_length_a   15.83354718
_cell_length_b   15.83354718
_cell_length_c   14.46430668
_cell_angle_alpha   90.00000000
_cell_angle_beta   90.00000000
_cell_angle_gamma   120.00000000
_symmetry_Int_Tables_number   1
_chemical_formula_structural   TiNb3O6
_chemical_formula_sum   'Ti24 Nb72 O144'
_cell_volume   3140.39801670
_cell_formula_units_Z   24
loop_
 _symmetry_equiv_pos_site_id
 _symmetry_equiv_pos_as_xyz
  1  'x, y, z'
loop_
 _atom_site_type_symbol
 _atom_site_label
 _atom_site_symmetry_multiplicity
 _atom_site_fract_x
 _atom_site_fract_y
 _atom_site_fract_z
 _atom_site_occupancy
  Ti  Ti0  1  -0.00000000  -0.00000000  0.27111354  1
  Ti  Ti1  1  -0.00000000  0.50000000  0.27111354  1
  Ti  Ti2  1  0.50000000  -0.00000000  0.27111354  1
  Ti  Ti3  1  0.50000000  0.50000000  0.27111354  1
  Ti  Ti4  1  0.33333333  0.16666667  0.60444688  1
  Ti  Ti5  1  0.33333333  0.66666667  0.60444688  1
  Ti  Ti6  1  0.83333333  0.16666667  0.60444688  1
  Ti  Ti7  1  0.83333333  0.66666667  0.60444688  1
  Ti  Ti8  1  0.16666667  0.33333333  0.93778021  1
  Ti  Ti9  1  0.16666667  0.83333333  0.93778021  1
  Ti  Ti10  1  0.66666667  0.33333333  0.93778021  1
  Ti  Ti11  1  0.66666667  0.83333333  0.93778021  1
  Ti  Ti12  1  -0.00000000  0.00000000  0.72888646  1
  Ti  Ti13  1  -0.00000000  0.50000000  0.72888646  1
  Ti  Ti14  1  0.50000000  0.00000000  0.72888646  1
  Ti  Ti15  1  0.50000000  0.50000000  0.72888646  1
  Ti  Ti16  1  0.33333333  0.16666667  1.06221979  1
  Ti  Ti17  1  0.33333333  0.66666667  1.06221979  1
  Ti  Ti18  1  0.83333333  0.16666667  1.06221979  1
  Ti  Ti19  1  0.83333333  0.66666667  1.06221979  1
  Ti  Ti20  1  0.16666667  0.33333333  1.39555312  1
  Ti  Ti21  1  0.16666667  0.83333333  1.39555312  1
  Ti  Ti22  1  0.66666667  0.33333333  1.39555312  1
  Ti  Ti23  1  0.66666667  0.83333333  1.39555312  1
  Nb  Nb24  1  0.17882284  -0.05659271  0.58905056  1
  Nb  Nb25  1  0.17882284  0.44340729  0.58905056  1
  Nb  Nb26  1  0.67882284  -0.05659271  0.58905056  1
  Nb  Nb27  1  0.67882284  0.44340729  0.58905056  1
  Nb  Nb28  1  0.51215617  0.11007395  0.92238389  1
  Nb  Nb29  1  0.51215617  0.61007395  0.92238389  1
  Nb  Nb30  1  1.01215617  0.11007395  0.92238389  1
  Nb  Nb31  1  1.01215617  0.61007395  0.92238389  1
  Nb  Nb32  1  0.34548950  0.27674062  1.25571722  1
  Nb  Nb33  1  0.34548950  0.77674062  1.25571722  1
  Nb  Nb34  1  0.84548950  0.27674062  1.25571722  1
  Nb  Nb35  1  0.84548950  0.77674062  1.25571722  1
  Nb  Nb36  1  0.05659271  0.23541555  0.58905056  1
  Nb  Nb37  1  0.05659271  0.73541555  0.58905056  1
  Nb  Nb38  1  0.55659271  0.23541555  0.58905056  1
  Nb  Nb39  1  0.55659271  0.73541555  0.58905056  1
  Nb  Nb40  1  0.38992605  0.40208221  0.92238389  1
  Nb  Nb41  1  0.38992605  0.90208221  0.92238389  1
  Nb  Nb42  1  0.88992605  0.40208221  0.92238389  1
  Nb  Nb43  1  0.88992605  0.90208221  0.92238389  1
  Nb  Nb44  1  0.22325938  0.56874888  1.25571722  1
  Nb  Nb45  1  0.22325938  1.06874888  1.25571722  1
  Nb  Nb46  1  0.72325938  0.56874888  1.25571722  1
  Nb  Nb47  1  0.72325938  1.06874888  1.25571722  1
  Nb  Nb48  1  -0.23541555  -0.17882284  0.58905056  1
  Nb  Nb49  1  -0.23541555  0.32117716  0.58905056  1
  Nb  Nb50  1  0.26458445  -0.17882284  0.58905056  1
  Nb  Nb51  1  0.26458445  0.32117716  0.58905056  1
  Nb  Nb52  1  0.09791779  -0.01215617  0.92238389  1
  Nb  Nb53  1  0.09791779  0.48784383  0.92238389  1
  Nb  Nb54  1  0.59791779  -0.01215617  0.92238389  1
  Nb  Nb55  1  0.59791779  0.48784383  0.92238389  1
  Nb  Nb56  1  -0.06874888  0.15451050  1.25571722  1
  Nb  Nb57  1  -0.06874888  0.65451050  1.25571722  1
  Nb  Nb58  1  0.43125112  0.15451050  1.25571722  1
  Nb  Nb59  1  0.43125112  0.65451050  1.25571722  1
  Nb  Nb60  1  -0.17882284  0.05659271  0.41094944  1
  Nb  Nb61  1  -0.17882284  0.55659271  0.41094944  1
  Nb  Nb62  1  0.32117716  0.05659271  0.41094944  1
  Nb  Nb63  1  0.32117716  0.55659271  0.41094944  1
  Nb  Nb64  1  0.15451050  0.22325938  0.74428278  1
  Nb  Nb65  1  0.15451050  0.72325938  0.74428278  1
  Nb  Nb66  1  0.65451050  0.22325938  0.74428278  1
  Nb  Nb67  1  0.65451050  0.72325938  0.74428278  1
  Nb  Nb68  1  -0.01215617  0.38992605  1.07761611  1
  Nb  Nb69  1  -0.01215617  0.88992605  1.07761611  1
  Nb  Nb70  1  0.48784383  0.38992605  1.07761611  1
  Nb  Nb71  1  0.48784383  0.88992605  1.07761611  1
  Nb  Nb72  1  -0.05659271  -0.23541555  0.41094944  1
  Nb  Nb73  1  -0.05659271  0.26458445  0.41094944  1
  Nb  Nb74  1  0.44340729  -0.23541555  0.41094944  1
  Nb  Nb75  1  0.44340729  0.26458445  0.41094944  1
  Nb  Nb76  1  0.27674062  -0.06874888  0.74428278  1
  Nb  Nb77  1  0.27674062  0.43125112  0.74428278  1
  Nb  Nb78  1  0.77674062  -0.06874888  0.74428278  1
  Nb  Nb79  1  0.77674062  0.43125112  0.74428278  1
  Nb  Nb80  1  0.11007395  0.09791779  1.07761611  1
  Nb  Nb81  1  0.11007395  0.59791779  1.07761611  1
  Nb  Nb82  1  0.61007395  0.09791779  1.07761611  1
  Nb  Nb83  1  0.61007395  0.59791779  1.07761611  1
  Nb  Nb84  1  0.23541555  0.17882284  0.41094944  1
  Nb  Nb85  1  0.23541555  0.67882284  0.41094944  1
  Nb  Nb86  1  0.73541555  0.17882284  0.41094944  1
  Nb  Nb87  1  0.73541555  0.67882284  0.41094944  1
  Nb  Nb88  1  0.56874888  0.34548950  0.74428278  1
  Nb  Nb89  1  0.56874888  0.84548950  0.74428278  1
  Nb  Nb90  1  1.06874888  0.34548950  0.74428278  1
  Nb  Nb91  1  1.06874888  0.84548950  0.74428278  1
  Nb  Nb92  1  0.40208221  0.51215617  1.07761611  1
  Nb  Nb93  1  0.40208221  1.01215617  1.07761611  1
  Nb  Nb94  1  0.90208221  0.51215617  1.07761611  1
  Nb  Nb95  1  0.90208221  1.01215617  1.07761611  1
  O  O96  1  -0.08350876  0.03493846  0.33357655  1
  O  O97  1  -0.08350876  0.53493846  0.33357655  1
  O  O98  1  0.41649124  0.03493846  0.33357655  1
  O  O99  1  0.41649124  0.53493846  0.33357655  1
  O  O100  1  0.24982458  0.20160513  0.66690989  1
  O  O101  1  0.24982458  0.70160513  0.66690989  1
  O  O102  1  0.74982458  0.20160513  0.66690989  1
  O  O103  1  0.74982458  0.70160513  0.66690989  1
  O  O104  1  0.08315791  0.36827180  1.00024322  1
  O  O105  1  0.08315791  0.86827180  1.00024322  1
  O  O106  1  0.58315791  0.36827180  1.00024322  1
  O  O107  1  0.58315791  0.86827180  1.00024322  1
  O  O108  1  -0.03493846  -0.11844722  0.33357655  1
  O  O109  1  -0.03493846  0.38155278  0.33357655  1
  O  O110  1  0.46506154  -0.11844722  0.33357655  1
  O  O111  1  0.46506154  0.38155278  0.33357655  1
  O  O112  1  0.29839487  0.04821945  0.66690989  1
  O  O113  1  0.29839487  0.54821945  0.66690989  1
  O  O114  1  0.79839487  0.04821945  0.66690989  1
  O  O115  1  0.79839487  0.54821945  0.66690989  1
  O  O116  1  0.13172820  0.21488611  1.00024322  1
  O  O117  1  0.13172820  0.71488611  1.00024322  1
  O  O118  1  0.63172820  0.21488611  1.00024322  1
  O  O119  1  0.63172820  0.71488611  1.00024322  1
  O  O120  1  0.11844722  0.08350876  0.33357655  1
  O  O121  1  0.11844722  0.58350876  0.33357655  1
  O  O122  1  0.61844722  0.08350876  0.33357655  1
  O  O123  1  0.61844722  0.58350876  0.33357655  1
  O  O124  1  0.45178055  0.25017542  0.66690989  1
  O  O125  1  0.45178055  0.75017542  0.66690989  1
  O  O126  1  0.95178055  0.25017542  0.66690989  1
  O  O127  1  0.95178055  0.75017542  0.66690989  1
  O  O128  1  0.28511389  0.41684209  1.00024322  1
  O  O129  1  0.28511389  0.91684209  1.00024322  1
  O  O130  1  0.78511389  0.41684209  1.00024322  1
  O  O131  1  0.78511389  0.91684209  1.00024322  1
  O  O132  1  0.08350876  -0.03493846  0.66642345  1
  O  O133  1  0.08350876  0.46506154  0.66642345  1
  O  O134  1  0.58350876  -0.03493846  0.66642345  1
  O  O135  1  0.58350876  0.46506154  0.66642345  1
  O  O136  1  0.41684209  0.13172820  0.99975678  1
  O  O137  1  0.41684209  0.63172820  0.99975678  1
  O  O138  1  0.91684209  0.13172820  0.99975678  1
  O  O139  1  0.91684209  0.63172820  0.99975678  1
  O  O140  1  0.25017542  0.29839487  1.33309011  1
  O  O141  1  0.25017542  0.79839487  1.33309011  1
  O  O142  1  0.75017542  0.29839487  1.33309011  1
  O  O143  1  0.75017542  0.79839487  1.33309011  1
  O  O144  1  0.03493846  0.11844722  0.66642345  1
  O  O145  1  0.03493846  0.61844722  0.66642345  1
  O  O146  1  0.53493846  0.11844722  0.66642345  1
  O  O147  1  0.53493846  0.61844722  0.66642345  1
  O  O148  1  0.36827180  0.28511389  0.99975678  1
  O  O149  1  0.36827180  0.78511389  0.99975678  1
  O  O150  1  0.86827180  0.28511389  0.99975678  1
  O  O151  1  0.86827180  0.78511389  0.99975678  1
  O  O152  1  0.20160513  0.45178055  1.33309011  1
  O  O153  1  0.20160513  0.95178055  1.33309011  1
  O  O154  1  0.70160513  0.45178055  1.33309011  1
  O  O155  1  0.70160513  0.95178055  1.33309011  1
  O  O156  1  -0.11844722  -0.08350876  0.66642345  1
  O  O157  1  -0.11844722  0.41649124  0.66642345  1
  O  O158  1  0.38155278  -0.08350876  0.66642345  1
  O  O159  1  0.38155278  0.41649124  0.66642345  1
  O  O160  1  0.21488611  0.08315791  0.99975678  1
  O  O161  1  0.21488611  0.58315791  0.99975678  1
  O  O162  1  0.71488611  0.08315791  0.99975678  1
  O  O163  1  0.71488611  0.58315791  0.99975678  1
  O  O164  1  0.04821945  0.24982458  1.33309011  1
  O  O165  1  0.04821945  0.74982458  1.33309011  1
  O  O166  1  0.54821945  0.24982458  1.33309011  1
  O  O167  1  0.54821945  0.74982458  1.33309011  1
  O  O168  1  0.07729065  -0.15165762  0.49358836  1
  O  O169  1  0.07729065  0.34834238  0.49358836  1
  O  O170  1  0.57729065  -0.15165762  0.49358836  1
  O  O171  1  0.57729065  0.34834238  0.49358836  1
  O  O172  1  0.41062398  0.01500904  0.82692170  1
  O  O173  1  0.41062398  0.51500904  0.82692170  1
  O  O174  1  0.91062398  0.01500904  0.82692170  1
  O  O175  1  0.91062398  0.51500904  0.82692170  1
  O  O176  1  0.24395731  0.18167571  1.16025503  1
  O  O177  1  0.24395731  0.68167571  1.16025503  1
  O  O178  1  0.74395731  0.18167571  1.16025503  1
  O  O179  1  0.74395731  0.68167571  1.16025503  1
  O  O180  1  0.15165762  0.22894827  0.49358836  1
  O  O181  1  0.15165762  0.72894827  0.49358836  1
  O  O182  1  0.65165762  0.22894827  0.49358836  1
  O  O183  1  0.65165762  0.72894827  0.49358836  1
  O  O184  1  0.48499096  0.39561494  0.82692170  1
  O  O185  1  0.48499096  0.89561494  0.82692170  1
  O  O186  1  0.98499096  0.39561494  0.82692170  1
  O  O187  1  0.98499096  0.89561494  0.82692170  1
  O  O188  1  0.31832429  0.56228160  1.16025503  1
  O  O189  1  0.31832429  1.06228160  1.16025503  1
  O  O190  1  0.81832429  0.56228160  1.16025503  1
  O  O191  1  0.81832429  1.06228160  1.16025503  1
  O  O192  1  0.22894827  0.07729065  0.50641164  1
  O  O193  1  0.22894827  0.57729065  0.50641164  1
  O  O194  1  0.72894827  0.07729065  0.50641164  1
  O  O195  1  0.72894827  0.57729065  0.50641164  1
  O  O196  1  0.56228160  0.24395731  0.83974497  1
  O  O197  1  0.56228160  0.74395731  0.83974497  1
  O  O198  1  1.06228160  0.24395731  0.83974497  1
  O  O199  1  1.06228160  0.74395731  0.83974497  1
  O  O200  1  0.39561494  0.41062398  1.17307830  1
  O  O201  1  0.39561494  0.91062398  1.17307830  1
  O  O202  1  0.89561494  0.41062398  1.17307830  1
  O  O203  1  0.89561494  0.91062398  1.17307830  1
  O  O204  1  -0.15165762  -0.22894827  0.50641164  1
  O  O205  1  -0.15165762  0.27105173  0.50641164  1
  O  O206  1  0.34834238  -0.22894827  0.50641164  1
  O  O207  1  0.34834238  0.27105173  0.50641164  1
  O  O208  1  0.18167571  -0.06228160  0.83974497  1
  O  O209  1  0.18167571  0.43771840  0.83974497  1
  O  O210  1  0.68167571  -0.06228160  0.83974497  1
  O  O211  1  0.68167571  0.43771840  0.83974497  1
  O  O212  1  0.01500904  0.10438506  1.17307830  1
  O  O213  1  0.01500904  0.60438506  1.17307830  1
  O  O214  1  0.51500904  0.10438506  1.17307830  1
  O  O215  1  0.51500904  0.60438506  1.17307830  1
  O  O216  1  -0.07729065  0.15165762  0.50641164  1
  O  O217  1  -0.07729065  0.65165762  0.50641164  1
  O  O218  1  0.42270935  0.15165762  0.50641164  1
  O  O219  1  0.42270935  0.65165762  0.50641164  1
  O  O220  1  0.25604269  0.31832429  0.83974497  1
  O  O221  1  0.25604269  0.81832429  0.83974497  1
  O  O222  1  0.75604269  0.31832429  0.83974497  1
  O  O223  1  0.75604269  0.81832429  0.83974497  1
  O  O224  1  0.08937602  0.48499096  1.17307830  1
  O  O225  1  0.08937602  0.98499096  1.17307830  1
  O  O226  1  0.58937602  0.48499096  1.17307830  1
  O  O227  1  0.58937602  0.98499096  1.17307830  1
  O  O228  1  -0.22894827  -0.07729065  0.49358836  1
  O  O229  1  -0.22894827  0.42270935  0.49358836  1
  O  O230  1  0.27105173  -0.07729065  0.49358836  1
  O  O231  1  0.27105173  0.42270935  0.49358836  1
  O  O232  1  0.10438506  0.08937602  0.82692170  1
  O  O233  1  0.10438506  0.58937602  0.82692170  1
  O  O234  1  0.60438506  0.08937602  0.82692170  1
  O  O235  1  0.60438506  0.58937602  0.82692170  1
  O  O236  1  -0.06228160  0.25604269  1.16025503  1
  O  O237  1  -0.06228160  0.75604269  1.16025503  1
  O  O238  1  0.43771840  0.25604269  1.16025503  1
  O  O239  1  0.43771840  0.75604269  1.16025503  1
