# generated using pymatgen
data_Cs2NaVO4
_symmetry_space_group_name_H-M   'P 1'
_cell_length_a   18.05345331
_cell_length_b   18.35410412
_cell_length_c   16.46740922
_cell_angle_alpha   90.00000000
_cell_angle_beta   93.23387301
_cell_angle_gamma   90.00000000
_symmetry_Int_Tables_number   1
_chemical_formula_structural   Cs2NaVO4
_chemical_formula_sum   'Cs72 Na36 V36 O144'
_cell_volume   5447.86866483
_cell_formula_units_Z   36
loop_
 _symmetry_equiv_pos_site_id
 _symmetry_equiv_pos_as_xyz
  1  'x, y, z'
loop_
 _atom_site_type_symbol
 _atom_site_label
 _atom_site_symmetry_multiplicity
 _atom_site_fract_x
 _atom_site_fract_y
 _atom_site_fract_z
 _atom_site_occupancy
  Cs  Cs0  1  0.26723980  0.25000000  0.25745564  1
  Cs  Cs1  1  0.26723980  0.25000000  0.75745564  1
  Cs  Cs2  1  0.26723980  0.58333333  0.25745564  1
  Cs  Cs3  1  0.26723980  0.58333333  0.75745564  1
  Cs  Cs4  1  0.26723980  0.91666667  0.25745564  1
  Cs  Cs5  1  0.26723980  0.91666667  0.75745564  1
  Cs  Cs6  1  0.60057313  0.25000000  0.25745564  1
  Cs  Cs7  1  0.60057313  0.25000000  0.75745564  1
  Cs  Cs8  1  0.60057313  0.58333333  0.25745564  1
  Cs  Cs9  1  0.60057313  0.58333333  0.75745564  1
  Cs  Cs10  1  0.60057313  0.91666667  0.25745564  1
  Cs  Cs11  1  0.60057313  0.91666667  0.75745564  1
  Cs  Cs12  1  0.93390647  0.25000000  0.25745564  1
  Cs  Cs13  1  0.93390647  0.25000000  0.75745564  1
  Cs  Cs14  1  0.93390647  0.58333333  0.25745564  1
  Cs  Cs15  1  0.93390647  0.58333333  0.75745564  1
  Cs  Cs16  1  0.93390647  0.91666667  0.25745564  1
  Cs  Cs17  1  0.93390647  0.91666667  0.75745564  1
  Cs  Cs18  1  0.06609353  0.08333333  0.24254436  1
  Cs  Cs19  1  0.06609353  0.08333333  0.74254436  1
  Cs  Cs20  1  0.06609353  0.41666667  0.24254436  1
  Cs  Cs21  1  0.06609353  0.41666667  0.74254436  1
  Cs  Cs22  1  0.06609353  0.75000000  0.24254436  1
  Cs  Cs23  1  0.06609353  0.75000000  0.74254436  1
  Cs  Cs24  1  0.39942687  0.08333333  0.24254436  1
  Cs  Cs25  1  0.39942687  0.08333333  0.74254436  1
  Cs  Cs26  1  0.39942687  0.41666667  0.24254436  1
  Cs  Cs27  1  0.39942687  0.41666667  0.74254436  1
  Cs  Cs28  1  0.39942687  0.75000000  0.24254436  1
  Cs  Cs29  1  0.39942687  0.75000000  0.74254436  1
  Cs  Cs30  1  0.73276020  0.08333333  0.24254436  1
  Cs  Cs31  1  0.73276020  0.08333333  0.74254436  1
  Cs  Cs32  1  0.73276020  0.41666667  0.24254436  1
  Cs  Cs33  1  0.73276020  0.41666667  0.74254436  1
  Cs  Cs34  1  0.73276020  0.75000000  0.24254436  1
  Cs  Cs35  1  0.73276020  0.75000000  0.74254436  1
  Cs  Cs36  1  0.21621795  0.08333333  0.09035692  1
  Cs  Cs37  1  0.21621795  0.08333333  0.59035692  1
  Cs  Cs38  1  0.21621795  0.41666667  0.09035692  1
  Cs  Cs39  1  0.21621795  0.41666667  0.59035692  1
  Cs  Cs40  1  0.21621795  0.75000000  0.09035692  1
  Cs  Cs41  1  0.21621795  0.75000000  0.59035692  1
  Cs  Cs42  1  0.54955128  0.08333333  0.09035692  1
  Cs  Cs43  1  0.54955128  0.08333333  0.59035692  1
  Cs  Cs44  1  0.54955128  0.41666667  0.09035692  1
  Cs  Cs45  1  0.54955128  0.41666667  0.59035692  1
  Cs  Cs46  1  0.54955128  0.75000000  0.09035692  1
  Cs  Cs47  1  0.54955128  0.75000000  0.59035692  1
  Cs  Cs48  1  0.88288461  0.08333333  0.09035692  1
  Cs  Cs49  1  0.88288461  0.08333333  0.59035692  1
  Cs  Cs50  1  0.88288461  0.41666667  0.09035692  1
  Cs  Cs51  1  0.88288461  0.41666667  0.59035692  1
  Cs  Cs52  1  0.88288461  0.75000000  0.09035692  1
  Cs  Cs53  1  0.88288461  0.75000000  0.59035692  1
  Cs  Cs54  1  0.11711539  0.25000000  0.40964308  1
  Cs  Cs55  1  0.11711539  0.25000000  0.90964308  1
  Cs  Cs56  1  0.11711539  0.58333333  0.40964308  1
  Cs  Cs57  1  0.11711539  0.58333333  0.90964308  1
  Cs  Cs58  1  0.11711539  0.91666667  0.40964308  1
  Cs  Cs59  1  0.11711539  0.91666667  0.90964308  1
  Cs  Cs60  1  0.45044872  0.25000000  0.40964308  1
  Cs  Cs61  1  0.45044872  0.25000000  0.90964308  1
  Cs  Cs62  1  0.45044872  0.58333333  0.40964308  1
  Cs  Cs63  1  0.45044872  0.58333333  0.90964308  1
  Cs  Cs64  1  0.45044872  0.91666667  0.40964308  1
  Cs  Cs65  1  0.45044872  0.91666667  0.90964308  1
  Cs  Cs66  1  0.78378205  0.25000000  0.40964308  1
  Cs  Cs67  1  0.78378205  0.25000000  0.90964308  1
  Cs  Cs68  1  0.78378205  0.58333333  0.40964308  1
  Cs  Cs69  1  0.78378205  0.58333333  0.90964308  1
  Cs  Cs70  1  0.78378205  0.91666667  0.40964308  1
  Cs  Cs71  1  0.78378205  0.91666667  0.90964308  1
  Na  Na72  1  0.04171647  0.08333333  0.48602571  1
  Na  Na73  1  0.04171647  0.08333333  0.98602571  1
  Na  Na74  1  0.04171647  0.41666667  0.48602571  1
  Na  Na75  1  0.04171647  0.41666667  0.98602571  1
  Na  Na76  1  0.04171647  0.75000000  0.48602571  1
  Na  Na77  1  0.04171647  0.75000000  0.98602571  1
  Na  Na78  1  0.37504980  0.08333333  0.48602571  1
  Na  Na79  1  0.37504980  0.08333333  0.98602571  1
  Na  Na80  1  0.37504980  0.41666667  0.48602571  1
  Na  Na81  1  0.37504980  0.41666667  0.98602571  1
  Na  Na82  1  0.37504980  0.75000000  0.48602571  1
  Na  Na83  1  0.37504980  0.75000000  0.98602571  1
  Na  Na84  1  0.70838314  0.08333333  0.48602571  1
  Na  Na85  1  0.70838314  0.08333333  0.98602571  1
  Na  Na86  1  0.70838314  0.41666667  0.48602571  1
  Na  Na87  1  0.70838314  0.41666667  0.98602571  1
  Na  Na88  1  0.70838314  0.75000000  0.48602571  1
  Na  Na89  1  0.70838314  0.75000000  0.98602571  1
  Na  Na90  1  0.29161686  0.25000000  0.01397429  1
  Na  Na91  1  0.29161686  0.25000000  0.51397429  1
  Na  Na92  1  0.29161686  0.58333333  0.01397429  1
  Na  Na93  1  0.29161686  0.58333333  0.51397429  1
  Na  Na94  1  0.29161686  0.91666667  0.01397429  1
  Na  Na95  1  0.29161686  0.91666667  0.51397429  1
  Na  Na96  1  0.62495020  0.25000000  0.01397429  1
  Na  Na97  1  0.62495020  0.25000000  0.51397429  1
  Na  Na98  1  0.62495020  0.58333333  0.01397429  1
  Na  Na99  1  0.62495020  0.58333333  0.51397429  1
  Na  Na100  1  0.62495020  0.91666667  0.01397429  1
  Na  Na101  1  0.62495020  0.91666667  0.51397429  1
  Na  Na102  1  0.95828353  0.25000000  0.01397429  1
  Na  Na103  1  0.95828353  0.25000000  0.51397429  1
  Na  Na104  1  0.95828353  0.58333333  0.01397429  1
  Na  Na105  1  0.95828353  0.58333333  0.51397429  1
  Na  Na106  1  0.95828353  0.91666667  0.01397429  1
  Na  Na107  1  0.95828353  0.91666667  0.51397429  1
  V  V108  1  0.09902089  0.25000000  0.12114811  1
  V  V109  1  0.09902089  0.25000000  0.62114811  1
  V  V110  1  0.09902089  0.58333333  0.12114811  1
  V  V111  1  0.09902089  0.58333333  0.62114811  1
  V  V112  1  0.09902089  0.91666667  0.12114811  1
  V  V113  1  0.09902089  0.91666667  0.62114811  1
  V  V114  1  0.43235422  0.25000000  0.12114811  1
  V  V115  1  0.43235422  0.25000000  0.62114811  1
  V  V116  1  0.43235422  0.58333333  0.12114811  1
  V  V117  1  0.43235422  0.58333333  0.62114811  1
  V  V118  1  0.43235422  0.91666667  0.12114811  1
  V  V119  1  0.43235422  0.91666667  0.62114811  1
  V  V120  1  0.76568755  0.25000000  0.12114811  1
  V  V121  1  0.76568755  0.25000000  0.62114811  1
  V  V122  1  0.76568755  0.58333333  0.12114811  1
  V  V123  1  0.76568755  0.58333333  0.62114811  1
  V  V124  1  0.76568755  0.91666667  0.12114811  1
  V  V125  1  0.76568755  0.91666667  0.62114811  1
  V  V126  1  0.23431245  0.08333333  0.37885189  1
  V  V127  1  0.23431245  0.08333333  0.87885189  1
  V  V128  1  0.23431245  0.41666667  0.37885189  1
  V  V129  1  0.23431245  0.41666667  0.87885189  1
  V  V130  1  0.23431245  0.75000000  0.37885189  1
  V  V131  1  0.23431245  0.75000000  0.87885189  1
  V  V132  1  0.56764578  0.08333333  0.37885189  1
  V  V133  1  0.56764578  0.08333333  0.87885189  1
  V  V134  1  0.56764578  0.41666667  0.37885189  1
  V  V135  1  0.56764578  0.41666667  0.87885189  1
  V  V136  1  0.56764578  0.75000000  0.37885189  1
  V  V137  1  0.56764578  0.75000000  0.87885189  1
  V  V138  1  0.90097911  0.08333333  0.37885189  1
  V  V139  1  0.90097911  0.08333333  0.87885189  1
  V  V140  1  0.90097911  0.41666667  0.37885189  1
  V  V141  1  0.90097911  0.41666667  0.87885189  1
  V  V142  1  0.90097911  0.75000000  0.37885189  1
  V  V143  1  0.90097911  0.75000000  0.87885189  1
  O  O144  1  0.05215529  0.32600415  0.08302235  1
  O  O145  1  0.05215529  0.32600415  0.58302235  1
  O  O146  1  0.05215529  0.65933749  0.08302235  1
  O  O147  1  0.05215529  0.65933749  0.58302235  1
  O  O148  1  0.05215529  0.99267082  0.08302235  1
  O  O149  1  0.05215529  0.99267082  0.58302235  1
  O  O150  1  0.38548862  0.32600415  0.08302235  1
  O  O151  1  0.38548862  0.32600415  0.58302235  1
  O  O152  1  0.38548862  0.65933749  0.08302235  1
  O  O153  1  0.38548862  0.65933749  0.58302235  1
  O  O154  1  0.38548862  0.99267082  0.08302235  1
  O  O155  1  0.38548862  0.99267082  0.58302235  1
  O  O156  1  0.71882196  0.32600415  0.08302235  1
  O  O157  1  0.71882196  0.32600415  0.58302235  1
  O  O158  1  0.71882196  0.65933749  0.08302235  1
  O  O159  1  0.71882196  0.65933749  0.58302235  1
  O  O160  1  0.71882196  0.99267082  0.08302235  1
  O  O161  1  0.71882196  0.99267082  0.58302235  1
  O  O162  1  0.28117804  0.15933749  0.41697765  1
  O  O163  1  0.28117804  0.15933749  0.91697765  1
  O  O164  1  0.28117804  0.49267082  0.41697765  1
  O  O165  1  0.28117804  0.49267082  0.91697765  1
  O  O166  1  0.28117804  0.82600415  0.41697765  1
  O  O167  1  0.28117804  0.82600415  0.91697765  1
  O  O168  1  0.61451138  0.15933749  0.41697765  1
  O  O169  1  0.61451138  0.15933749  0.91697765  1
  O  O170  1  0.61451138  0.49267082  0.41697765  1
  O  O171  1  0.61451138  0.49267082  0.91697765  1
  O  O172  1  0.61451138  0.82600415  0.41697765  1
  O  O173  1  0.61451138  0.82600415  0.91697765  1
  O  O174  1  0.94784471  0.15933749  0.41697765  1
  O  O175  1  0.94784471  0.15933749  0.91697765  1
  O  O176  1  0.94784471  0.49267082  0.41697765  1
  O  O177  1  0.94784471  0.49267082  0.91697765  1
  O  O178  1  0.94784471  0.82600415  0.41697765  1
  O  O179  1  0.94784471  0.82600415  0.91697765  1
  O  O180  1  0.28117804  0.00732918  0.41697765  1
  O  O181  1  0.28117804  0.00732918  0.91697765  1
  O  O182  1  0.28117804  0.34066251  0.41697765  1
  O  O183  1  0.28117804  0.34066251  0.91697765  1
  O  O184  1  0.28117804  0.67399585  0.41697765  1
  O  O185  1  0.28117804  0.67399585  0.91697765  1
  O  O186  1  0.61451138  0.00732918  0.41697765  1
  O  O187  1  0.61451138  0.00732918  0.91697765  1
  O  O188  1  0.61451138  0.34066251  0.41697765  1
  O  O189  1  0.61451138  0.34066251  0.91697765  1
  O  O190  1  0.61451138  0.67399585  0.41697765  1
  O  O191  1  0.61451138  0.67399585  0.91697765  1
  O  O192  1  0.94784471  0.00732918  0.41697765  1
  O  O193  1  0.94784471  0.00732918  0.91697765  1
  O  O194  1  0.94784471  0.34066251  0.41697765  1
  O  O195  1  0.94784471  0.34066251  0.91697765  1
  O  O196  1  0.94784471  0.67399585  0.41697765  1
  O  O197  1  0.94784471  0.67399585  0.91697765  1
  O  O198  1  0.05215529  0.17399585  0.08302235  1
  O  O199  1  0.05215529  0.17399585  0.58302235  1
  O  O200  1  0.05215529  0.50732918  0.08302235  1
  O  O201  1  0.05215529  0.50732918  0.58302235  1
  O  O202  1  0.05215529  0.84066251  0.08302235  1
  O  O203  1  0.05215529  0.84066251  0.58302235  1
  O  O204  1  0.38548862  0.17399585  0.08302235  1
  O  O205  1  0.38548862  0.17399585  0.58302235  1
  O  O206  1  0.38548862  0.50732918  0.08302235  1
  O  O207  1  0.38548862  0.50732918  0.58302235  1
  O  O208  1  0.38548862  0.84066251  0.08302235  1
  O  O209  1  0.38548862  0.84066251  0.58302235  1
  O  O210  1  0.71882196  0.17399585  0.08302235  1
  O  O211  1  0.71882196  0.17399585  0.58302235  1
  O  O212  1  0.71882196  0.50732918  0.08302235  1
  O  O213  1  0.71882196  0.50732918  0.58302235  1
  O  O214  1  0.71882196  0.84066251  0.08302235  1
  O  O215  1  0.71882196  0.84066251  0.58302235  1
  O  O216  1  0.14422915  0.08333333  0.40987035  1
  O  O217  1  0.14422915  0.08333333  0.90987035  1
  O  O218  1  0.14422915  0.41666667  0.40987035  1
  O  O219  1  0.14422915  0.41666667  0.90987035  1
  O  O220  1  0.14422915  0.75000000  0.40987035  1
  O  O221  1  0.14422915  0.75000000  0.90987035  1
  O  O222  1  0.47756248  0.08333333  0.40987035  1
  O  O223  1  0.47756248  0.08333333  0.90987035  1
  O  O224  1  0.47756248  0.41666667  0.40987035  1
  O  O225  1  0.47756248  0.41666667  0.90987035  1
  O  O226  1  0.47756248  0.75000000  0.40987035  1
  O  O227  1  0.47756248  0.75000000  0.90987035  1
  O  O228  1  0.81089581  0.08333333  0.40987035  1
  O  O229  1  0.81089581  0.08333333  0.90987035  1
  O  O230  1  0.81089581  0.41666667  0.40987035  1
  O  O231  1  0.81089581  0.41666667  0.90987035  1
  O  O232  1  0.81089581  0.75000000  0.40987035  1
  O  O233  1  0.81089581  0.75000000  0.90987035  1
  O  O234  1  0.23266380  0.08333333  0.27418882  1
  O  O235  1  0.23266380  0.08333333  0.77418882  1
  O  O236  1  0.23266380  0.41666667  0.27418882  1
  O  O237  1  0.23266380  0.41666667  0.77418882  1
  O  O238  1  0.23266380  0.75000000  0.27418882  1
  O  O239  1  0.23266380  0.75000000  0.77418882  1
  O  O240  1  0.56599713  0.08333333  0.27418882  1
  O  O241  1  0.56599713  0.08333333  0.77418882  1
  O  O242  1  0.56599713  0.41666667  0.27418882  1
  O  O243  1  0.56599713  0.41666667  0.77418882  1
  O  O244  1  0.56599713  0.75000000  0.27418882  1
  O  O245  1  0.56599713  0.75000000  0.77418882  1
  O  O246  1  0.89933046  0.08333333  0.27418882  1
  O  O247  1  0.89933046  0.08333333  0.77418882  1
  O  O248  1  0.89933046  0.41666667  0.27418882  1
  O  O249  1  0.89933046  0.41666667  0.77418882  1
  O  O250  1  0.89933046  0.75000000  0.27418882  1
  O  O251  1  0.89933046  0.75000000  0.77418882  1
  O  O252  1  0.18910419  0.25000000  0.09012965  1
  O  O253  1  0.18910419  0.25000000  0.59012965  1
  O  O254  1  0.18910419  0.58333333  0.09012965  1
  O  O255  1  0.18910419  0.58333333  0.59012965  1
  O  O256  1  0.18910419  0.91666667  0.09012965  1
  O  O257  1  0.18910419  0.91666667  0.59012965  1
  O  O258  1  0.52243752  0.25000000  0.09012965  1
  O  O259  1  0.52243752  0.25000000  0.59012965  1
  O  O260  1  0.52243752  0.58333333  0.09012965  1
  O  O261  1  0.52243752  0.58333333  0.59012965  1
  O  O262  1  0.52243752  0.91666667  0.09012965  1
  O  O263  1  0.52243752  0.91666667  0.59012965  1
  O  O264  1  0.85577085  0.25000000  0.09012965  1
  O  O265  1  0.85577085  0.25000000  0.59012965  1
  O  O266  1  0.85577085  0.58333333  0.09012965  1
  O  O267  1  0.85577085  0.58333333  0.59012965  1
  O  O268  1  0.85577085  0.91666667  0.09012965  1
  O  O269  1  0.85577085  0.91666667  0.59012965  1
  O  O270  1  0.10066954  0.25000000  0.22581118  1
  O  O271  1  0.10066954  0.25000000  0.72581118  1
  O  O272  1  0.10066954  0.58333333  0.22581118  1
  O  O273  1  0.10066954  0.58333333  0.72581118  1
  O  O274  1  0.10066954  0.91666667  0.22581118  1
  O  O275  1  0.10066954  0.91666667  0.72581118  1
  O  O276  1  0.43400287  0.25000000  0.22581118  1
  O  O277  1  0.43400287  0.25000000  0.72581118  1
  O  O278  1  0.43400287  0.58333333  0.22581118  1
  O  O279  1  0.43400287  0.58333333  0.72581118  1
  O  O280  1  0.43400287  0.91666667  0.22581118  1
  O  O281  1  0.43400287  0.91666667  0.72581118  1
  O  O282  1  0.76733620  0.25000000  0.22581118  1
  O  O283  1  0.76733620  0.25000000  0.72581118  1
  O  O284  1  0.76733620  0.58333333  0.22581118  1
  O  O285  1  0.76733620  0.58333333  0.72581118  1
  O  O286  1  0.76733620  0.91666667  0.22581118  1
  O  O287  1  0.76733620  0.91666667  0.72581118  1
