# generated using pymatgen
data_Ba3ZnSb2O9
_symmetry_space_group_name_H-M   'P 1'
_cell_length_a   17.50551205
_cell_length_b   17.50551205
_cell_length_c   14.44389449
_cell_angle_alpha   90.00000000
_cell_angle_beta   90.00000000
_cell_angle_gamma   120.00000000
_symmetry_Int_Tables_number   1
_chemical_formula_structural   Ba3ZnSb2O9
_chemical_formula_sum   'Ba54 Zn18 Sb36 O162'
_cell_volume   3833.22733425
_cell_formula_units_Z   18
loop_
 _symmetry_equiv_pos_site_id
 _symmetry_equiv_pos_as_xyz
  1  'x, y, z'
loop_
 _atom_site_type_symbol
 _atom_site_label
 _atom_site_symmetry_multiplicity
 _atom_site_fract_x
 _atom_site_fract_y
 _atom_site_fract_z
 _atom_site_occupancy
  Ba  Ba0  1  0.22222222  0.11111111  0.58722460  1
  Ba  Ba1  1  0.22222222  0.44444444  0.58722460  1
  Ba  Ba2  1  0.22222222  0.77777778  0.58722460  1
  Ba  Ba3  1  0.55555556  0.11111111  0.58722460  1
  Ba  Ba4  1  0.55555556  0.44444444  0.58722460  1
  Ba  Ba5  1  0.55555556  0.77777778  0.58722460  1
  Ba  Ba6  1  0.88888889  0.11111111  0.58722460  1
  Ba  Ba7  1  0.88888889  0.44444444  0.58722460  1
  Ba  Ba8  1  0.88888889  0.77777778  0.58722460  1
  Ba  Ba9  1  0.11111111  0.22222222  0.41277540  1
  Ba  Ba10  1  0.11111111  0.55555556  0.41277540  1
  Ba  Ba11  1  0.11111111  0.88888889  0.41277540  1
  Ba  Ba12  1  0.44444444  0.22222222  0.41277540  1
  Ba  Ba13  1  0.44444444  0.55555556  0.41277540  1
  Ba  Ba14  1  0.44444444  0.88888889  0.41277540  1
  Ba  Ba15  1  0.77777778  0.22222222  0.41277540  1
  Ba  Ba16  1  0.77777778  0.55555556  0.41277540  1
  Ba  Ba17  1  0.77777778  0.88888889  0.41277540  1
  Ba  Ba18  1  0.11111111  0.22222222  0.08722460  1
  Ba  Ba19  1  0.11111111  0.55555556  0.08722460  1
  Ba  Ba20  1  0.11111111  0.88888889  0.08722460  1
  Ba  Ba21  1  0.44444444  0.22222222  0.08722460  1
  Ba  Ba22  1  0.44444444  0.55555556  0.08722460  1
  Ba  Ba23  1  0.44444444  0.88888889  0.08722460  1
  Ba  Ba24  1  0.77777778  0.22222222  0.08722460  1
  Ba  Ba25  1  0.77777778  0.55555556  0.08722460  1
  Ba  Ba26  1  0.77777778  0.88888889  0.08722460  1
  Ba  Ba27  1  0.22222222  0.11111111  0.91277540  1
  Ba  Ba28  1  0.22222222  0.44444444  0.91277540  1
  Ba  Ba29  1  0.22222222  0.77777778  0.91277540  1
  Ba  Ba30  1  0.55555556  0.11111111  0.91277540  1
  Ba  Ba31  1  0.55555556  0.44444444  0.91277540  1
  Ba  Ba32  1  0.55555556  0.77777778  0.91277540  1
  Ba  Ba33  1  0.88888889  0.11111111  0.91277540  1
  Ba  Ba34  1  0.88888889  0.44444444  0.91277540  1
  Ba  Ba35  1  0.88888889  0.77777778  0.91277540  1
  Ba  Ba36  1  0.00000000  0.00000000  0.75000000  1
  Ba  Ba37  1  -0.00000000  0.33333333  0.75000000  1
  Ba  Ba38  1  -0.00000000  0.66666667  0.75000000  1
  Ba  Ba39  1  0.33333333  0.00000000  0.75000000  1
  Ba  Ba40  1  0.33333333  0.33333333  0.75000000  1
  Ba  Ba41  1  0.33333333  0.66666667  0.75000000  1
  Ba  Ba42  1  0.66666667  0.00000000  0.75000000  1
  Ba  Ba43  1  0.66666667  0.33333333  0.75000000  1
  Ba  Ba44  1  0.66666667  0.66666667  0.75000000  1
  Ba  Ba45  1  0.00000000  0.00000000  0.25000000  1
  Ba  Ba46  1  -0.00000000  0.33333333  0.25000000  1
  Ba  Ba47  1  -0.00000000  0.66666667  0.25000000  1
  Ba  Ba48  1  0.33333333  0.00000000  0.25000000  1
  Ba  Ba49  1  0.33333333  0.33333333  0.25000000  1
  Ba  Ba50  1  0.33333333  0.66666667  0.25000000  1
  Ba  Ba51  1  0.66666667  0.00000000  0.25000000  1
  Ba  Ba52  1  0.66666667  0.33333333  0.25000000  1
  Ba  Ba53  1  0.66666667  0.66666667  0.25000000  1
  Zn  Zn54  1  0.00000000  0.00000000  0.50000000  1
  Zn  Zn55  1  -0.00000000  0.33333333  0.50000000  1
  Zn  Zn56  1  -0.00000000  0.66666667  0.50000000  1
  Zn  Zn57  1  0.33333333  0.00000000  0.50000000  1
  Zn  Zn58  1  0.33333333  0.33333333  0.50000000  1
  Zn  Zn59  1  0.33333333  0.66666667  0.50000000  1
  Zn  Zn60  1  0.66666667  0.00000000  0.50000000  1
  Zn  Zn61  1  0.66666667  0.33333333  0.50000000  1
  Zn  Zn62  1  0.66666667  0.66666667  0.50000000  1
  Zn  Zn63  1  0.00000000  0.00000000  0.00000000  1
  Zn  Zn64  1  -0.00000000  0.33333333  0.00000000  1
  Zn  Zn65  1  -0.00000000  0.66666667  0.00000000  1
  Zn  Zn66  1  0.33333333  0.00000000  0.00000000  1
  Zn  Zn67  1  0.33333333  0.33333333  0.00000000  1
  Zn  Zn68  1  0.33333333  0.66666667  0.00000000  1
  Zn  Zn69  1  0.66666667  0.00000000  0.00000000  1
  Zn  Zn70  1  0.66666667  0.33333333  0.00000000  1
  Zn  Zn71  1  0.66666667  0.66666667  0.00000000  1
  Sb  Sb72  1  0.22222222  0.11111111  0.15120888  1
  Sb  Sb73  1  0.22222222  0.44444444  0.15120888  1
  Sb  Sb74  1  0.22222222  0.77777778  0.15120888  1
  Sb  Sb75  1  0.55555556  0.11111111  0.15120888  1
  Sb  Sb76  1  0.55555556  0.44444444  0.15120888  1
  Sb  Sb77  1  0.55555556  0.77777778  0.15120888  1
  Sb  Sb78  1  0.88888889  0.11111111  0.15120888  1
  Sb  Sb79  1  0.88888889  0.44444444  0.15120888  1
  Sb  Sb80  1  0.88888889  0.77777778  0.15120888  1
  Sb  Sb81  1  0.11111111  0.22222222  0.84879112  1
  Sb  Sb82  1  0.11111111  0.55555556  0.84879112  1
  Sb  Sb83  1  0.11111111  0.88888889  0.84879112  1
  Sb  Sb84  1  0.44444444  0.22222222  0.84879112  1
  Sb  Sb85  1  0.44444444  0.55555556  0.84879112  1
  Sb  Sb86  1  0.44444444  0.88888889  0.84879112  1
  Sb  Sb87  1  0.77777778  0.22222222  0.84879112  1
  Sb  Sb88  1  0.77777778  0.55555556  0.84879112  1
  Sb  Sb89  1  0.77777778  0.88888889  0.84879112  1
  Sb  Sb90  1  0.11111111  0.22222222  0.65120888  1
  Sb  Sb91  1  0.11111111  0.55555556  0.65120888  1
  Sb  Sb92  1  0.11111111  0.88888889  0.65120888  1
  Sb  Sb93  1  0.44444444  0.22222222  0.65120888  1
  Sb  Sb94  1  0.44444444  0.55555556  0.65120888  1
  Sb  Sb95  1  0.44444444  0.88888889  0.65120888  1
  Sb  Sb96  1  0.77777778  0.22222222  0.65120888  1
  Sb  Sb97  1  0.77777778  0.55555556  0.65120888  1
  Sb  Sb98  1  0.77777778  0.88888889  0.65120888  1
  Sb  Sb99  1  0.22222222  0.11111111  0.34879112  1
  Sb  Sb100  1  0.22222222  0.44444444  0.34879112  1
  Sb  Sb101  1  0.22222222  0.77777778  0.34879112  1
  Sb  Sb102  1  0.55555556  0.11111111  0.34879112  1
  Sb  Sb103  1  0.55555556  0.44444444  0.34879112  1
  Sb  Sb104  1  0.55555556  0.77777778  0.34879112  1
  Sb  Sb105  1  0.88888889  0.11111111  0.34879112  1
  Sb  Sb106  1  0.88888889  0.44444444  0.34879112  1
  Sb  Sb107  1  0.88888889  0.77777778  0.34879112  1
  O  O108  1  0.01117471  0.17225402  0.75000000  1
  O  O109  1  0.01117471  0.50558735  0.75000000  1
  O  O110  1  0.01117471  0.83892069  0.75000000  1
  O  O111  1  0.34450804  0.17225402  0.75000000  1
  O  O112  1  0.34450804  0.50558735  0.75000000  1
  O  O113  1  0.34450804  0.83892069  0.75000000  1
  O  O114  1  0.67784137  0.17225402  0.75000000  1
  O  O115  1  0.67784137  0.50558735  0.75000000  1
  O  O116  1  0.67784137  0.83892069  0.75000000  1
  O  O117  1  0.32215863  0.16107931  0.25000000  1
  O  O118  1  0.32215863  0.49441265  0.25000000  1
  O  O119  1  0.32215863  0.82774598  0.25000000  1
  O  O120  1  0.65549196  0.16107931  0.25000000  1
  O  O121  1  0.65549196  0.49441265  0.25000000  1
  O  O122  1  0.65549196  0.82774598  0.25000000  1
  O  O123  1  0.98882529  0.16107931  0.25000000  1
  O  O124  1  0.98882529  0.49441265  0.25000000  1
  O  O125  1  0.98882529  0.82774598  0.25000000  1
  O  O126  1  0.16107931  0.17225402  0.75000000  1
  O  O127  1  0.16107931  0.50558735  0.75000000  1
  O  O128  1  0.16107931  0.83892069  0.75000000  1
  O  O129  1  0.49441265  0.17225402  0.75000000  1
  O  O130  1  0.49441265  0.50558735  0.75000000  1
  O  O131  1  0.49441265  0.83892069  0.75000000  1
  O  O132  1  0.82774598  0.17225402  0.75000000  1
  O  O133  1  0.82774598  0.50558735  0.75000000  1
  O  O134  1  0.82774598  0.83892069  0.75000000  1
  O  O135  1  0.17225402  0.16107931  0.25000000  1
  O  O136  1  0.17225402  0.49441265  0.25000000  1
  O  O137  1  0.17225402  0.82774598  0.25000000  1
  O  O138  1  0.50558735  0.16107931  0.25000000  1
  O  O139  1  0.50558735  0.49441265  0.25000000  1
  O  O140  1  0.50558735  0.82774598  0.25000000  1
  O  O141  1  0.83892069  0.16107931  0.25000000  1
  O  O142  1  0.83892069  0.49441265  0.25000000  1
  O  O143  1  0.83892069  0.82774598  0.25000000  1
  O  O144  1  0.16107931  0.32215863  0.75000000  1
  O  O145  1  0.16107931  0.65549196  0.75000000  1
  O  O146  1  0.16107931  0.98882529  0.75000000  1
  O  O147  1  0.49441265  0.32215863  0.75000000  1
  O  O148  1  0.49441265  0.65549196  0.75000000  1
  O  O149  1  0.49441265  0.98882529  0.75000000  1
  O  O150  1  0.82774598  0.32215863  0.75000000  1
  O  O151  1  0.82774598  0.65549196  0.75000000  1
  O  O152  1  0.82774598  0.98882529  0.75000000  1
  O  O153  1  0.17225402  0.01117471  0.25000000  1
  O  O154  1  0.17225402  0.34450804  0.25000000  1
  O  O155  1  0.17225402  0.67784137  0.25000000  1
  O  O156  1  0.50558735  0.01117471  0.25000000  1
  O  O157  1  0.50558735  0.34450804  0.25000000  1
  O  O158  1  0.50558735  0.67784137  0.25000000  1
  O  O159  1  0.83892069  0.01117471  0.25000000  1
  O  O160  1  0.83892069  0.34450804  0.25000000  1
  O  O161  1  0.83892069  0.67784137  0.25000000  1
  O  O162  1  0.11148967  0.05574484  0.08295719  1
  O  O163  1  0.11148967  0.38907817  0.08295719  1
  O  O164  1  0.11148967  0.72241150  0.08295719  1
  O  O165  1  0.44482300  0.05574484  0.08295719  1
  O  O166  1  0.44482300  0.38907817  0.08295719  1
  O  O167  1  0.44482300  0.72241150  0.08295719  1
  O  O168  1  0.77815634  0.05574484  0.08295719  1
  O  O169  1  0.77815634  0.38907817  0.08295719  1
  O  O170  1  0.77815634  0.72241150  0.08295719  1
  O  O171  1  0.22184366  0.27758850  0.91704281  1
  O  O172  1  0.22184366  0.61092183  0.91704281  1
  O  O173  1  0.22184366  0.94425516  0.91704281  1
  O  O174  1  0.55517700  0.27758850  0.91704281  1
  O  O175  1  0.55517700  0.61092183  0.91704281  1
  O  O176  1  0.55517700  0.94425516  0.91704281  1
  O  O177  1  0.88851033  0.27758850  0.91704281  1
  O  O178  1  0.88851033  0.61092183  0.91704281  1
  O  O179  1  0.88851033  0.94425516  0.91704281  1
  O  O180  1  0.27758850  0.05574484  0.08295719  1
  O  O181  1  0.27758850  0.38907817  0.08295719  1
  O  O182  1  0.27758850  0.72241150  0.08295719  1
  O  O183  1  0.61092183  0.05574484  0.08295719  1
  O  O184  1  0.61092183  0.38907817  0.08295719  1
  O  O185  1  0.61092183  0.72241150  0.08295719  1
  O  O186  1  0.94425516  0.05574484  0.08295719  1
  O  O187  1  0.94425516  0.38907817  0.08295719  1
  O  O188  1  0.94425516  0.72241150  0.08295719  1
  O  O189  1  0.22184366  0.27758850  0.58295719  1
  O  O190  1  0.22184366  0.61092183  0.58295719  1
  O  O191  1  0.22184366  0.94425516  0.58295719  1
  O  O192  1  0.55517700  0.27758850  0.58295719  1
  O  O193  1  0.55517700  0.61092183  0.58295719  1
  O  O194  1  0.55517700  0.94425516  0.58295719  1
  O  O195  1  0.88851033  0.27758850  0.58295719  1
  O  O196  1  0.88851033  0.61092183  0.58295719  1
  O  O197  1  0.88851033  0.94425516  0.58295719  1
  O  O198  1  0.05574484  0.27758850  0.91704281  1
  O  O199  1  0.05574484  0.61092183  0.91704281  1
  O  O200  1  0.05574484  0.94425516  0.91704281  1
  O  O201  1  0.38907817  0.27758850  0.91704281  1
  O  O202  1  0.38907817  0.61092183  0.91704281  1
  O  O203  1  0.38907817  0.94425516  0.91704281  1
  O  O204  1  0.72241150  0.27758850  0.91704281  1
  O  O205  1  0.72241150  0.61092183  0.91704281  1
  O  O206  1  0.72241150  0.94425516  0.91704281  1
  O  O207  1  0.11148967  0.05574484  0.41704281  1
  O  O208  1  0.11148967  0.38907817  0.41704281  1
  O  O209  1  0.11148967  0.72241150  0.41704281  1
  O  O210  1  0.44482300  0.05574484  0.41704281  1
  O  O211  1  0.44482300  0.38907817  0.41704281  1
  O  O212  1  0.44482300  0.72241150  0.41704281  1
  O  O213  1  0.77815634  0.05574484  0.41704281  1
  O  O214  1  0.77815634  0.38907817  0.41704281  1
  O  O215  1  0.77815634  0.72241150  0.41704281  1
  O  O216  1  0.27758850  0.22184366  0.08295719  1
  O  O217  1  0.27758850  0.55517700  0.08295719  1
  O  O218  1  0.27758850  0.88851033  0.08295719  1
  O  O219  1  0.61092183  0.22184366  0.08295719  1
  O  O220  1  0.61092183  0.55517700  0.08295719  1
  O  O221  1  0.61092183  0.88851033  0.08295719  1
  O  O222  1  0.94425516  0.22184366  0.08295719  1
  O  O223  1  0.94425516  0.55517700  0.08295719  1
  O  O224  1  0.94425516  0.88851033  0.08295719  1
  O  O225  1  0.05574484  0.27758850  0.58295719  1
  O  O226  1  0.05574484  0.61092183  0.58295719  1
  O  O227  1  0.05574484  0.94425516  0.58295719  1
  O  O228  1  0.38907817  0.27758850  0.58295719  1
  O  O229  1  0.38907817  0.61092183  0.58295719  1
  O  O230  1  0.38907817  0.94425516  0.58295719  1
  O  O231  1  0.72241150  0.27758850  0.58295719  1
  O  O232  1  0.72241150  0.61092183  0.58295719  1
  O  O233  1  0.72241150  0.94425516  0.58295719  1
  O  O234  1  0.05574484  0.11148967  0.91704281  1
  O  O235  1  0.05574484  0.44482300  0.91704281  1
  O  O236  1  0.05574484  0.77815634  0.91704281  1
  O  O237  1  0.38907817  0.11148967  0.91704281  1
  O  O238  1  0.38907817  0.44482300  0.91704281  1
  O  O239  1  0.38907817  0.77815634  0.91704281  1
  O  O240  1  0.72241150  0.11148967  0.91704281  1
  O  O241  1  0.72241150  0.44482300  0.91704281  1
  O  O242  1  0.72241150  0.77815634  0.91704281  1
  O  O243  1  0.27758850  0.05574484  0.41704281  1
  O  O244  1  0.27758850  0.38907817  0.41704281  1
  O  O245  1  0.27758850  0.72241150  0.41704281  1
  O  O246  1  0.61092183  0.05574484  0.41704281  1
  O  O247  1  0.61092183  0.38907817  0.41704281  1
  O  O248  1  0.61092183  0.72241150  0.41704281  1
  O  O249  1  0.94425516  0.05574484  0.41704281  1
  O  O250  1  0.94425516  0.38907817  0.41704281  1
  O  O251  1  0.94425516  0.72241150  0.41704281  1
  O  O252  1  0.05574484  0.11148967  0.58295719  1
  O  O253  1  0.05574484  0.44482300  0.58295719  1
  O  O254  1  0.05574484  0.77815634  0.58295719  1
  O  O255  1  0.38907817  0.11148967  0.58295719  1
  O  O256  1  0.38907817  0.44482300  0.58295719  1
  O  O257  1  0.38907817  0.77815634  0.58295719  1
  O  O258  1  0.72241150  0.11148967  0.58295719  1
  O  O259  1  0.72241150  0.44482300  0.58295719  1
  O  O260  1  0.72241150  0.77815634  0.58295719  1
  O  O261  1  0.27758850  0.22184366  0.41704281  1
  O  O262  1  0.27758850  0.55517700  0.41704281  1
  O  O263  1  0.27758850  0.88851033  0.41704281  1
  O  O264  1  0.61092183  0.22184366  0.41704281  1
  O  O265  1  0.61092183  0.55517700  0.41704281  1
  O  O266  1  0.61092183  0.88851033  0.41704281  1
  O  O267  1  0.94425516  0.22184366  0.41704281  1
  O  O268  1  0.94425516  0.55517700  0.41704281  1
  O  O269  1  0.94425516  0.88851033  0.41704281  1
