# generated using pymatgen
data_RbAuO
_symmetry_space_group_name_H-M   'P 1'
_cell_length_a   19.74430220
_cell_length_b   19.74430220
_cell_length_c   17.42180842
_cell_angle_alpha   90.00000000
_cell_angle_beta   90.00000000
_cell_angle_gamma   90.00000000
_symmetry_Int_Tables_number   1
_chemical_formula_structural   RbAuO
_chemical_formula_sum   'Rb96 Au96 O96'
_cell_volume   6791.67370703
_cell_formula_units_Z   96
loop_
 _symmetry_equiv_pos_site_id
 _symmetry_equiv_pos_as_xyz
  1  'x, y, z'
loop_
 _atom_site_type_symbol
 _atom_site_label
 _atom_site_symmetry_multiplicity
 _atom_site_fract_x
 _atom_site_fract_y
 _atom_site_fract_z
 _atom_site_occupancy
  Rb  Rb0  1  0.09732384  0.25000000  -0.00000000  1
  Rb  Rb1  1  0.09732384  0.25000000  0.33333333  1
  Rb  Rb2  1  0.09732384  0.25000000  0.66666667  1
  Rb  Rb3  1  0.59732384  0.25000000  -0.00000000  1
  Rb  Rb4  1  0.59732384  0.25000000  0.33333333  1
  Rb  Rb5  1  0.59732384  0.25000000  0.66666667  1
  Rb  Rb6  1  0.09732384  -0.25000000  -0.00000000  1
  Rb  Rb7  1  0.09732384  -0.25000000  0.33333333  1
  Rb  Rb8  1  0.09732384  -0.25000000  0.66666667  1
  Rb  Rb9  1  0.59732384  -0.25000000  -0.00000000  1
  Rb  Rb10  1  0.59732384  -0.25000000  0.33333333  1
  Rb  Rb11  1  0.59732384  -0.25000000  0.66666667  1
  Rb  Rb12  1  0.34732384  0.00000000  0.16666667  1
  Rb  Rb13  1  0.34732384  0.00000000  0.50000000  1
  Rb  Rb14  1  0.34732384  0.00000000  0.83333333  1
  Rb  Rb15  1  0.84732384  0.00000000  0.16666667  1
  Rb  Rb16  1  0.84732384  0.00000000  0.50000000  1
  Rb  Rb17  1  0.84732384  0.00000000  0.83333333  1
  Rb  Rb18  1  0.34732384  -0.50000000  0.16666667  1
  Rb  Rb19  1  0.34732384  -0.50000000  0.50000000  1
  Rb  Rb20  1  0.34732384  -0.50000000  0.83333333  1
  Rb  Rb21  1  0.84732384  -0.50000000  0.16666667  1
  Rb  Rb22  1  0.84732384  -0.50000000  0.50000000  1
  Rb  Rb23  1  0.84732384  -0.50000000  0.83333333  1
  Rb  Rb24  1  0.25000000  0.40267616  -0.00000000  1
  Rb  Rb25  1  0.25000000  0.40267616  0.33333333  1
  Rb  Rb26  1  0.25000000  0.40267616  0.66666667  1
  Rb  Rb27  1  0.75000000  0.40267616  -0.00000000  1
  Rb  Rb28  1  0.75000000  0.40267616  0.33333333  1
  Rb  Rb29  1  0.75000000  0.40267616  0.66666667  1
  Rb  Rb30  1  0.25000000  -0.09732384  -0.00000000  1
  Rb  Rb31  1  0.25000000  -0.09732384  0.33333333  1
  Rb  Rb32  1  0.25000000  -0.09732384  0.66666667  1
  Rb  Rb33  1  0.75000000  -0.09732384  -0.00000000  1
  Rb  Rb34  1  0.75000000  -0.09732384  0.33333333  1
  Rb  Rb35  1  0.75000000  -0.09732384  0.66666667  1
  Rb  Rb36  1  0.50000000  0.15267616  0.16666667  1
  Rb  Rb37  1  0.50000000  0.15267616  0.50000000  1
  Rb  Rb38  1  0.50000000  0.15267616  0.83333333  1
  Rb  Rb39  1  1.00000000  0.15267616  0.16666667  1
  Rb  Rb40  1  1.00000000  0.15267616  0.50000000  1
  Rb  Rb41  1  1.00000000  0.15267616  0.83333333  1
  Rb  Rb42  1  0.50000000  -0.34732384  0.16666667  1
  Rb  Rb43  1  0.50000000  -0.34732384  0.50000000  1
  Rb  Rb44  1  0.50000000  -0.34732384  0.83333333  1
  Rb  Rb45  1  1.00000000  -0.34732384  0.16666667  1
  Rb  Rb46  1  1.00000000  -0.34732384  0.50000000  1
  Rb  Rb47  1  1.00000000  -0.34732384  0.83333333  1
  Rb  Rb48  1  -0.00000000  0.34732384  0.16666667  1
  Rb  Rb49  1  -0.00000000  0.34732384  0.50000000  1
  Rb  Rb50  1  -0.00000000  0.34732384  0.83333333  1
  Rb  Rb51  1  0.50000000  0.34732384  0.16666667  1
  Rb  Rb52  1  0.50000000  0.34732384  0.50000000  1
  Rb  Rb53  1  0.50000000  0.34732384  0.83333333  1
  Rb  Rb54  1  -0.00000000  -0.15267616  0.16666667  1
  Rb  Rb55  1  -0.00000000  -0.15267616  0.50000000  1
  Rb  Rb56  1  -0.00000000  -0.15267616  0.83333333  1
  Rb  Rb57  1  0.50000000  -0.15267616  0.16666667  1
  Rb  Rb58  1  0.50000000  -0.15267616  0.50000000  1
  Rb  Rb59  1  0.50000000  -0.15267616  0.83333333  1
  Rb  Rb60  1  0.25000000  0.09732384  0.33333333  1
  Rb  Rb61  1  0.25000000  0.09732384  0.66666667  1
  Rb  Rb62  1  0.25000000  0.09732384  1.00000000  1
  Rb  Rb63  1  0.75000000  0.09732384  0.33333333  1
  Rb  Rb64  1  0.75000000  0.09732384  0.66666667  1
  Rb  Rb65  1  0.75000000  0.09732384  1.00000000  1
  Rb  Rb66  1  0.25000000  -0.40267616  0.33333333  1
  Rb  Rb67  1  0.25000000  -0.40267616  0.66666667  1
  Rb  Rb68  1  0.25000000  -0.40267616  1.00000000  1
  Rb  Rb69  1  0.75000000  -0.40267616  0.33333333  1
  Rb  Rb70  1  0.75000000  -0.40267616  0.66666667  1
  Rb  Rb71  1  0.75000000  -0.40267616  1.00000000  1
  Rb  Rb72  1  0.15267616  0.50000000  0.16666667  1
  Rb  Rb73  1  0.15267616  0.50000000  0.50000000  1
  Rb  Rb74  1  0.15267616  0.50000000  0.83333333  1
  Rb  Rb75  1  0.65267616  0.50000000  0.16666667  1
  Rb  Rb76  1  0.65267616  0.50000000  0.50000000  1
  Rb  Rb77  1  0.65267616  0.50000000  0.83333333  1
  Rb  Rb78  1  0.15267616  -0.00000000  0.16666667  1
  Rb  Rb79  1  0.15267616  -0.00000000  0.50000000  1
  Rb  Rb80  1  0.15267616  -0.00000000  0.83333333  1
  Rb  Rb81  1  0.65267616  -0.00000000  0.16666667  1
  Rb  Rb82  1  0.65267616  -0.00000000  0.50000000  1
  Rb  Rb83  1  0.65267616  -0.00000000  0.83333333  1
  Rb  Rb84  1  0.40267616  0.25000000  0.33333333  1
  Rb  Rb85  1  0.40267616  0.25000000  0.66666667  1
  Rb  Rb86  1  0.40267616  0.25000000  1.00000000  1
  Rb  Rb87  1  0.90267616  0.25000000  0.33333333  1
  Rb  Rb88  1  0.90267616  0.25000000  0.66666667  1
  Rb  Rb89  1  0.90267616  0.25000000  1.00000000  1
  Rb  Rb90  1  0.40267616  -0.25000000  0.33333333  1
  Rb  Rb91  1  0.40267616  -0.25000000  0.66666667  1
  Rb  Rb92  1  0.40267616  -0.25000000  1.00000000  1
  Rb  Rb93  1  0.90267616  -0.25000000  0.33333333  1
  Rb  Rb94  1  0.90267616  -0.25000000  0.66666667  1
  Rb  Rb95  1  0.90267616  -0.25000000  1.00000000  1
  Au  Au96  1  0.17530237  0.32469763  0.16666667  1
  Au  Au97  1  0.17530237  0.32469763  0.50000000  1
  Au  Au98  1  0.17530237  0.32469763  0.83333333  1
  Au  Au99  1  0.67530237  0.32469763  0.16666667  1
  Au  Au100  1  0.67530237  0.32469763  0.50000000  1
  Au  Au101  1  0.67530237  0.32469763  0.83333333  1
  Au  Au102  1  0.17530237  -0.17530237  0.16666667  1
  Au  Au103  1  0.17530237  -0.17530237  0.50000000  1
  Au  Au104  1  0.17530237  -0.17530237  0.83333333  1
  Au  Au105  1  0.67530237  -0.17530237  0.16666667  1
  Au  Au106  1  0.67530237  -0.17530237  0.50000000  1
  Au  Au107  1  0.67530237  -0.17530237  0.83333333  1
  Au  Au108  1  0.42530237  0.07469763  0.33333333  1
  Au  Au109  1  0.42530237  0.07469763  0.66666667  1
  Au  Au110  1  0.42530237  0.07469763  1.00000000  1
  Au  Au111  1  0.92530237  0.07469763  0.33333333  1
  Au  Au112  1  0.92530237  0.07469763  0.66666667  1
  Au  Au113  1  0.92530237  0.07469763  1.00000000  1
  Au  Au114  1  0.42530237  -0.42530237  0.33333333  1
  Au  Au115  1  0.42530237  -0.42530237  0.66666667  1
  Au  Au116  1  0.42530237  -0.42530237  1.00000000  1
  Au  Au117  1  0.92530237  -0.42530237  0.33333333  1
  Au  Au118  1  0.92530237  -0.42530237  0.66666667  1
  Au  Au119  1  0.92530237  -0.42530237  1.00000000  1
  Au  Au120  1  -0.17530237  0.32469763  0.16666667  1
  Au  Au121  1  -0.17530237  0.32469763  0.50000000  1
  Au  Au122  1  -0.17530237  0.32469763  0.83333333  1
  Au  Au123  1  0.32469763  0.32469763  0.16666667  1
  Au  Au124  1  0.32469763  0.32469763  0.50000000  1
  Au  Au125  1  0.32469763  0.32469763  0.83333333  1
  Au  Au126  1  -0.17530237  -0.17530237  0.16666667  1
  Au  Au127  1  -0.17530237  -0.17530237  0.50000000  1
  Au  Au128  1  -0.17530237  -0.17530237  0.83333333  1
  Au  Au129  1  0.32469763  -0.17530237  0.16666667  1
  Au  Au130  1  0.32469763  -0.17530237  0.50000000  1
  Au  Au131  1  0.32469763  -0.17530237  0.83333333  1
  Au  Au132  1  0.07469763  0.07469763  0.33333333  1
  Au  Au133  1  0.07469763  0.07469763  0.66666667  1
  Au  Au134  1  0.07469763  0.07469763  1.00000000  1
  Au  Au135  1  0.57469763  0.07469763  0.33333333  1
  Au  Au136  1  0.57469763  0.07469763  0.66666667  1
  Au  Au137  1  0.57469763  0.07469763  1.00000000  1
  Au  Au138  1  0.07469763  -0.42530237  0.33333333  1
  Au  Au139  1  0.07469763  -0.42530237  0.66666667  1
  Au  Au140  1  0.07469763  -0.42530237  1.00000000  1
  Au  Au141  1  0.57469763  -0.42530237  0.33333333  1
  Au  Au142  1  0.57469763  -0.42530237  0.66666667  1
  Au  Au143  1  0.57469763  -0.42530237  1.00000000  1
  Au  Au144  1  0.17530237  0.67530237  0.16666667  1
  Au  Au145  1  0.17530237  0.67530237  0.50000000  1
  Au  Au146  1  0.17530237  0.67530237  0.83333333  1
  Au  Au147  1  0.67530237  0.67530237  0.16666667  1
  Au  Au148  1  0.67530237  0.67530237  0.50000000  1
  Au  Au149  1  0.67530237  0.67530237  0.83333333  1
  Au  Au150  1  0.17530237  0.17530237  0.16666667  1
  Au  Au151  1  0.17530237  0.17530237  0.50000000  1
  Au  Au152  1  0.17530237  0.17530237  0.83333333  1
  Au  Au153  1  0.67530237  0.17530237  0.16666667  1
  Au  Au154  1  0.67530237  0.17530237  0.50000000  1
  Au  Au155  1  0.67530237  0.17530237  0.83333333  1
  Au  Au156  1  0.42530237  0.42530237  0.33333333  1
  Au  Au157  1  0.42530237  0.42530237  0.66666667  1
  Au  Au158  1  0.42530237  0.42530237  1.00000000  1
  Au  Au159  1  0.92530237  0.42530237  0.33333333  1
  Au  Au160  1  0.92530237  0.42530237  0.66666667  1
  Au  Au161  1  0.92530237  0.42530237  1.00000000  1
  Au  Au162  1  0.42530237  -0.07469763  0.33333333  1
  Au  Au163  1  0.42530237  -0.07469763  0.66666667  1
  Au  Au164  1  0.42530237  -0.07469763  1.00000000  1
  Au  Au165  1  0.92530237  -0.07469763  0.33333333  1
  Au  Au166  1  0.92530237  -0.07469763  0.66666667  1
  Au  Au167  1  0.92530237  -0.07469763  1.00000000  1
  Au  Au168  1  0.07469763  0.42530237  0.00000000  1
  Au  Au169  1  0.07469763  0.42530237  0.33333333  1
  Au  Au170  1  0.07469763  0.42530237  0.66666667  1
  Au  Au171  1  0.57469763  0.42530237  0.00000000  1
  Au  Au172  1  0.57469763  0.42530237  0.33333333  1
  Au  Au173  1  0.57469763  0.42530237  0.66666667  1
  Au  Au174  1  0.07469763  -0.07469763  0.00000000  1
  Au  Au175  1  0.07469763  -0.07469763  0.33333333  1
  Au  Au176  1  0.07469763  -0.07469763  0.66666667  1
  Au  Au177  1  0.57469763  -0.07469763  0.00000000  1
  Au  Au178  1  0.57469763  -0.07469763  0.33333333  1
  Au  Au179  1  0.57469763  -0.07469763  0.66666667  1
  Au  Au180  1  0.32469763  0.17530237  0.16666667  1
  Au  Au181  1  0.32469763  0.17530237  0.50000000  1
  Au  Au182  1  0.32469763  0.17530237  0.83333333  1
  Au  Au183  1  0.82469763  0.17530237  0.16666667  1
  Au  Au184  1  0.82469763  0.17530237  0.50000000  1
  Au  Au185  1  0.82469763  0.17530237  0.83333333  1
  Au  Au186  1  0.32469763  -0.32469763  0.16666667  1
  Au  Au187  1  0.32469763  -0.32469763  0.50000000  1
  Au  Au188  1  0.32469763  -0.32469763  0.83333333  1
  Au  Au189  1  0.82469763  -0.32469763  0.16666667  1
  Au  Au190  1  0.82469763  -0.32469763  0.50000000  1
  Au  Au191  1  0.82469763  -0.32469763  0.83333333  1
  O  O192  1  0.35527271  0.50000000  0.00000000  1
  O  O193  1  0.35527271  0.50000000  0.33333333  1
  O  O194  1  0.35527271  0.50000000  0.66666667  1
  O  O195  1  0.85527271  0.50000000  0.00000000  1
  O  O196  1  0.85527271  0.50000000  0.33333333  1
  O  O197  1  0.85527271  0.50000000  0.66666667  1
  O  O198  1  0.35527271  0.00000000  0.00000000  1
  O  O199  1  0.35527271  0.00000000  0.33333333  1
  O  O200  1  0.35527271  0.00000000  0.66666667  1
  O  O201  1  0.85527271  0.00000000  0.00000000  1
  O  O202  1  0.85527271  0.00000000  0.33333333  1
  O  O203  1  0.85527271  0.00000000  0.66666667  1
  O  O204  1  0.60527271  0.25000000  0.16666667  1
  O  O205  1  0.60527271  0.25000000  0.50000000  1
  O  O206  1  0.60527271  0.25000000  0.83333333  1
  O  O207  1  1.10527271  0.25000000  0.16666667  1
  O  O208  1  1.10527271  0.25000000  0.50000000  1
  O  O209  1  1.10527271  0.25000000  0.83333333  1
  O  O210  1  0.60527271  -0.25000000  0.16666667  1
  O  O211  1  0.60527271  -0.25000000  0.50000000  1
  O  O212  1  0.60527271  -0.25000000  0.83333333  1
  O  O213  1  1.10527271  -0.25000000  0.16666667  1
  O  O214  1  1.10527271  -0.25000000  0.50000000  1
  O  O215  1  1.10527271  -0.25000000  0.83333333  1
  O  O216  1  -0.00000000  0.14472729  0.00000000  1
  O  O217  1  -0.00000000  0.14472729  0.33333333  1
  O  O218  1  -0.00000000  0.14472729  0.66666667  1
  O  O219  1  0.50000000  0.14472729  0.00000000  1
  O  O220  1  0.50000000  0.14472729  0.33333333  1
  O  O221  1  0.50000000  0.14472729  0.66666667  1
  O  O222  1  -0.00000000  -0.35527271  0.00000000  1
  O  O223  1  -0.00000000  -0.35527271  0.33333333  1
  O  O224  1  -0.00000000  -0.35527271  0.66666667  1
  O  O225  1  0.50000000  -0.35527271  0.00000000  1
  O  O226  1  0.50000000  -0.35527271  0.33333333  1
  O  O227  1  0.50000000  -0.35527271  0.66666667  1
  O  O228  1  0.25000000  -0.10527271  0.16666667  1
  O  O229  1  0.25000000  -0.10527271  0.50000000  1
  O  O230  1  0.25000000  -0.10527271  0.83333333  1
  O  O231  1  0.75000000  -0.10527271  0.16666667  1
  O  O232  1  0.75000000  -0.10527271  0.50000000  1
  O  O233  1  0.75000000  -0.10527271  0.83333333  1
  O  O234  1  0.25000000  -0.60527271  0.16666667  1
  O  O235  1  0.25000000  -0.60527271  0.50000000  1
  O  O236  1  0.25000000  -0.60527271  0.83333333  1
  O  O237  1  0.75000000  -0.60527271  0.16666667  1
  O  O238  1  0.75000000  -0.60527271  0.50000000  1
  O  O239  1  0.75000000  -0.60527271  0.83333333  1
  O  O240  1  -0.00000000  0.35527271  -0.00000000  1
  O  O241  1  -0.00000000  0.35527271  0.33333333  1
  O  O242  1  -0.00000000  0.35527271  0.66666667  1
  O  O243  1  0.50000000  0.35527271  -0.00000000  1
  O  O244  1  0.50000000  0.35527271  0.33333333  1
  O  O245  1  0.50000000  0.35527271  0.66666667  1
  O  O246  1  -0.00000000  -0.14472729  -0.00000000  1
  O  O247  1  -0.00000000  -0.14472729  0.33333333  1
  O  O248  1  -0.00000000  -0.14472729  0.66666667  1
  O  O249  1  0.50000000  -0.14472729  -0.00000000  1
  O  O250  1  0.50000000  -0.14472729  0.33333333  1
  O  O251  1  0.50000000  -0.14472729  0.66666667  1
  O  O252  1  0.25000000  0.10527271  0.16666667  1
  O  O253  1  0.25000000  0.10527271  0.50000000  1
  O  O254  1  0.25000000  0.10527271  0.83333333  1
  O  O255  1  0.75000000  0.10527271  0.16666667  1
  O  O256  1  0.75000000  0.10527271  0.50000000  1
  O  O257  1  0.75000000  0.10527271  0.83333333  1
  O  O258  1  0.25000000  -0.39472729  0.16666667  1
  O  O259  1  0.25000000  -0.39472729  0.50000000  1
  O  O260  1  0.25000000  -0.39472729  0.83333333  1
  O  O261  1  0.75000000  -0.39472729  0.16666667  1
  O  O262  1  0.75000000  -0.39472729  0.50000000  1
  O  O263  1  0.75000000  -0.39472729  0.83333333  1
  O  O264  1  0.14472729  0.50000000  -0.00000000  1
  O  O265  1  0.14472729  0.50000000  0.33333333  1
  O  O266  1  0.14472729  0.50000000  0.66666667  1
  O  O267  1  0.64472729  0.50000000  -0.00000000  1
  O  O268  1  0.64472729  0.50000000  0.33333333  1
  O  O269  1  0.64472729  0.50000000  0.66666667  1
  O  O270  1  0.14472729  0.00000000  -0.00000000  1
  O  O271  1  0.14472729  0.00000000  0.33333333  1
  O  O272  1  0.14472729  0.00000000  0.66666667  1
  O  O273  1  0.64472729  0.00000000  -0.00000000  1
  O  O274  1  0.64472729  0.00000000  0.33333333  1
  O  O275  1  0.64472729  0.00000000  0.66666667  1
  O  O276  1  0.39472729  0.25000000  0.16666667  1
  O  O277  1  0.39472729  0.25000000  0.50000000  1
  O  O278  1  0.39472729  0.25000000  0.83333333  1
  O  O279  1  0.89472729  0.25000000  0.16666667  1
  O  O280  1  0.89472729  0.25000000  0.50000000  1
  O  O281  1  0.89472729  0.25000000  0.83333333  1
  O  O282  1  0.39472729  -0.25000000  0.16666667  1
  O  O283  1  0.39472729  -0.25000000  0.50000000  1
  O  O284  1  0.39472729  -0.25000000  0.83333333  1
  O  O285  1  0.89472729  -0.25000000  0.16666667  1
  O  O286  1  0.89472729  -0.25000000  0.50000000  1
  O  O287  1  0.89472729  -0.25000000  0.83333333  1
