# generated using pymatgen
data_GeO2
_symmetry_space_group_name_H-M   'P 1'
_cell_length_a   9.99253573
_cell_length_b   9.99253573
_cell_length_c   11.48764299
_cell_angle_alpha   90.00000000
_cell_angle_beta   90.00000000
_cell_angle_gamma   120.00000000
_symmetry_Int_Tables_number   1
_chemical_formula_structural   GeO2
_chemical_formula_sum   'Ge24 O48'
_cell_volume   993.37443994
_cell_formula_units_Z   24
loop_
 _symmetry_equiv_pos_site_id
 _symmetry_equiv_pos_as_xyz
  1  'x, y, z'
loop_
 _atom_site_type_symbol
 _atom_site_label
 _atom_site_symmetry_multiplicity
 _atom_site_fract_x
 _atom_site_fract_y
 _atom_site_fract_z
 _atom_site_occupancy
  Ge  Ge0  1  0.27576499  0.27576499  0.00000000  1
  Ge  Ge1  1  0.27576499  0.27576499  0.50000000  1
  Ge  Ge2  1  0.27576499  0.77576499  0.00000000  1
  Ge  Ge3  1  0.27576499  0.77576499  0.50000000  1
  Ge  Ge4  1  0.77576499  0.27576499  0.00000000  1
  Ge  Ge5  1  0.77576499  0.27576499  0.50000000  1
  Ge  Ge6  1  0.77576499  0.77576499  0.00000000  1
  Ge  Ge7  1  0.77576499  0.77576499  0.50000000  1
  Ge  Ge8  1  -0.00000000  0.22423501  0.33333333  1
  Ge  Ge9  1  -0.00000000  0.22423501  0.83333333  1
  Ge  Ge10  1  0.00000000  0.72423501  0.33333333  1
  Ge  Ge11  1  0.00000000  0.72423501  0.83333333  1
  Ge  Ge12  1  0.50000000  0.22423501  0.33333333  1
  Ge  Ge13  1  0.50000000  0.22423501  0.83333333  1
  Ge  Ge14  1  0.50000000  0.72423501  0.33333333  1
  Ge  Ge15  1  0.50000000  0.72423501  0.83333333  1
  Ge  Ge16  1  0.22423501  0.00000000  0.16666667  1
  Ge  Ge17  1  0.22423501  0.00000000  0.66666667  1
  Ge  Ge18  1  0.22423501  0.50000000  0.16666667  1
  Ge  Ge19  1  0.22423501  0.50000000  0.66666667  1
  Ge  Ge20  1  0.72423501  0.00000000  0.16666667  1
  Ge  Ge21  1  0.72423501  0.00000000  0.66666667  1
  Ge  Ge22  1  0.72423501  0.50000000  0.16666667  1
  Ge  Ge23  1  0.72423501  0.50000000  0.66666667  1
  O  O24  1  0.15485111  0.19542096  0.37555483  1
  O  O25  1  0.15485111  0.19542096  0.87555483  1
  O  O26  1  0.15485111  0.69542096  0.37555483  1
  O  O27  1  0.15485111  0.69542096  0.87555483  1
  O  O28  1  0.65485111  0.19542096  0.37555483  1
  O  O29  1  0.65485111  0.19542096  0.87555483  1
  O  O30  1  0.65485111  0.69542096  0.37555483  1
  O  O31  1  0.65485111  0.69542096  0.87555483  1
  O  O32  1  0.30457904  0.45943015  0.04222149  1
  O  O33  1  0.30457904  0.45943015  0.54222149  1
  O  O34  1  0.30457904  0.95943015  0.04222149  1
  O  O35  1  0.30457904  0.95943015  0.54222149  1
  O  O36  1  0.80457904  0.45943015  0.04222149  1
  O  O37  1  0.80457904  0.45943015  0.54222149  1
  O  O38  1  0.80457904  0.95943015  0.04222149  1
  O  O39  1  0.80457904  0.95943015  0.54222149  1
  O  O40  1  0.04056985  0.34514889  0.20888816  1
  O  O41  1  0.04056985  0.34514889  0.70888816  1
  O  O42  1  0.04056985  0.84514889  0.20888816  1
  O  O43  1  0.04056985  0.84514889  0.70888816  1
  O  O44  1  0.54056985  0.34514889  0.20888816  1
  O  O45  1  0.54056985  0.34514889  0.70888816  1
  O  O46  1  0.54056985  0.84514889  0.20888816  1
  O  O47  1  0.54056985  0.84514889  0.70888816  1
  O  O48  1  0.19542096  0.15485111  0.12444517  1
  O  O49  1  0.19542096  0.15485111  0.62444517  1
  O  O50  1  0.19542096  0.65485111  0.12444517  1
  O  O51  1  0.19542096  0.65485111  0.62444517  1
  O  O52  1  0.69542096  0.15485111  0.12444517  1
  O  O53  1  0.69542096  0.15485111  0.62444517  1
  O  O54  1  0.69542096  0.65485111  0.12444517  1
  O  O55  1  0.69542096  0.65485111  0.62444517  1
  O  O56  1  0.34514889  0.04056985  0.29111184  1
  O  O57  1  0.34514889  0.04056985  0.79111184  1
  O  O58  1  0.34514889  0.54056985  0.29111184  1
  O  O59  1  0.34514889  0.54056985  0.79111184  1
  O  O60  1  0.84514889  0.04056985  0.29111184  1
  O  O61  1  0.84514889  0.04056985  0.79111184  1
  O  O62  1  0.84514889  0.54056985  0.29111184  1
  O  O63  1  0.84514889  0.54056985  0.79111184  1
  O  O64  1  0.45943015  0.30457904  0.45777851  1
  O  O65  1  0.45943015  0.30457904  0.95777851  1
  O  O66  1  0.45943015  0.80457904  0.45777851  1
  O  O67  1  0.45943015  0.80457904  0.95777851  1
  O  O68  1  0.95943015  0.30457904  0.45777851  1
  O  O69  1  0.95943015  0.30457904  0.95777851  1
  O  O70  1  0.95943015  0.80457904  0.45777851  1
  O  O71  1  0.95943015  0.80457904  0.95777851  1
