# generated using pymatgen
data_RbVO3
_symmetry_space_group_name_H-M   'P 1'
_cell_length_a   10.56117636
_cell_length_b   11.31226719
_cell_length_c   11.44510401
_cell_angle_alpha   90.00000000
_cell_angle_beta   90.00000000
_cell_angle_gamma   90.00000000
_symmetry_Int_Tables_number   1
_chemical_formula_structural   RbVO3
_chemical_formula_sum   'Rb16 V16 O48'
_cell_volume   1367.35629031
_cell_formula_units_Z   16
loop_
 _symmetry_equiv_pos_site_id
 _symmetry_equiv_pos_as_xyz
  1  'x, y, z'
loop_
 _atom_site_type_symbol
 _atom_site_label
 _atom_site_symmetry_multiplicity
 _atom_site_fract_x
 _atom_site_fract_y
 _atom_site_fract_z
 _atom_site_occupancy
  Rb  Rb0  1  0.46481186  0.10084310  0.37500000  1
  Rb  Rb1  1  0.46481186  0.10084310  0.87500000  1
  Rb  Rb2  1  0.96481186  0.10084310  0.37500000  1
  Rb  Rb3  1  0.96481186  0.10084310  0.87500000  1
  Rb  Rb4  1  0.46481186  0.39915690  0.12500000  1
  Rb  Rb5  1  0.46481186  0.39915690  0.62500000  1
  Rb  Rb6  1  0.96481186  0.39915690  0.12500000  1
  Rb  Rb7  1  0.96481186  0.39915690  0.62500000  1
  Rb  Rb8  1  0.03518814  0.89915690  0.12500000  1
  Rb  Rb9  1  0.03518814  0.89915690  0.62500000  1
  Rb  Rb10  1  0.53518814  0.89915690  0.12500000  1
  Rb  Rb11  1  0.53518814  0.89915690  0.62500000  1
  Rb  Rb12  1  0.03518814  0.60084310  0.37500000  1
  Rb  Rb13  1  0.03518814  0.60084310  0.87500000  1
  Rb  Rb14  1  0.53518814  0.60084310  0.37500000  1
  Rb  Rb15  1  0.53518814  0.60084310  0.87500000  1
  V  V16  1  0.23326068  0.33433941  0.37500000  1
  V  V17  1  0.23326068  0.33433941  0.87500000  1
  V  V18  1  0.73326068  0.33433941  0.37500000  1
  V  V19  1  0.73326068  0.33433941  0.87500000  1
  V  V20  1  0.23326068  0.16566059  0.12500000  1
  V  V21  1  0.23326068  0.16566059  0.62500000  1
  V  V22  1  0.73326068  0.16566059  0.12500000  1
  V  V23  1  0.73326068  0.16566059  0.62500000  1
  V  V24  1  0.26673932  0.66566059  0.12500000  1
  V  V25  1  0.26673932  0.66566059  0.62500000  1
  V  V26  1  0.76673932  0.66566059  0.12500000  1
  V  V27  1  0.76673932  0.66566059  0.62500000  1
  V  V28  1  0.26673932  0.83433941  0.37500000  1
  V  V29  1  0.26673932  0.83433941  0.87500000  1
  V  V30  1  0.76673932  0.83433941  0.37500000  1
  V  V31  1  0.76673932  0.83433941  0.87500000  1
  O  O32  1  0.21514183  0.75000000  0.25000000  1
  O  O33  1  0.21514183  0.75000000  0.75000000  1
  O  O34  1  0.71514183  0.75000000  0.25000000  1
  O  O35  1  0.71514183  0.75000000  0.75000000  1
  O  O36  1  0.28485817  0.25000000  0.00000000  1
  O  O37  1  0.28485817  0.25000000  0.50000000  1
  O  O38  1  0.78485817  0.25000000  0.00000000  1
  O  O39  1  0.78485817  0.25000000  0.50000000  1
  O  O40  1  0.28485817  0.25000000  0.25000000  1
  O  O41  1  0.28485817  0.25000000  0.75000000  1
  O  O42  1  0.78485817  0.25000000  0.25000000  1
  O  O43  1  0.78485817  0.25000000  0.75000000  1
  O  O44  1  0.21514183  0.75000000  0.00000000  1
  O  O45  1  0.21514183  0.75000000  0.50000000  1
  O  O46  1  0.71514183  0.75000000  0.00000000  1
  O  O47  1  0.71514183  0.75000000  0.50000000  1
  O  O48  1  0.30129748  0.46612499  0.37500000  1
  O  O49  1  0.30129748  0.46612499  0.87500000  1
  O  O50  1  0.80129748  0.46612499  0.37500000  1
  O  O51  1  0.80129748  0.46612499  0.87500000  1
  O  O52  1  0.30129748  0.03387501  0.12500000  1
  O  O53  1  0.30129748  0.03387501  0.62500000  1
  O  O54  1  0.80129748  0.03387501  0.12500000  1
  O  O55  1  0.80129748  0.03387501  0.62500000  1
  O  O56  1  0.19870252  0.53387501  0.12500000  1
  O  O57  1  0.19870252  0.53387501  0.62500000  1
  O  O58  1  0.69870252  0.53387501  0.12500000  1
  O  O59  1  0.69870252  0.53387501  0.62500000  1
  O  O60  1  0.19870252  0.96612499  0.37500000  1
  O  O61  1  0.19870252  0.96612499  0.87500000  1
  O  O62  1  0.69870252  0.96612499  0.37500000  1
  O  O63  1  0.69870252  0.96612499  0.87500000  1
  O  O64  1  0.42362124  0.84914512  0.37500000  1
  O  O65  1  0.42362124  0.84914512  0.87500000  1
  O  O66  1  0.92362124  0.84914512  0.37500000  1
  O  O67  1  0.92362124  0.84914512  0.87500000  1
  O  O68  1  0.42362124  0.65085488  0.12500000  1
  O  O69  1  0.42362124  0.65085488  0.62500000  1
  O  O70  1  0.92362124  0.65085488  0.12500000  1
  O  O71  1  0.92362124  0.65085488  0.62500000  1
  O  O72  1  0.07637876  0.15085488  0.12500000  1
  O  O73  1  0.07637876  0.15085488  0.62500000  1
  O  O74  1  0.57637876  0.15085488  0.12500000  1
  O  O75  1  0.57637876  0.15085488  0.62500000  1
  O  O76  1  0.07637876  0.34914512  0.37500000  1
  O  O77  1  0.07637876  0.34914512  0.87500000  1
  O  O78  1  0.57637876  0.34914512  0.37500000  1
  O  O79  1  0.57637876  0.34914512  0.87500000  1
