# generated using pymatgen
data_KSbO3
_symmetry_space_group_name_H-M   'P 1'
_cell_length_a   16.28409503
_cell_length_b   16.28409503
_cell_length_c   18.42293894
_cell_angle_alpha   90.00000000
_cell_angle_beta   90.00000000
_cell_angle_gamma   120.00000000
_symmetry_Int_Tables_number   1
_chemical_formula_structural   KSbO3
_chemical_formula_sum   'K54 Sb54 O162'
_cell_volume   4230.74452182
_cell_formula_units_Z   54
loop_
 _symmetry_equiv_pos_site_id
 _symmetry_equiv_pos_as_xyz
  1  'x, y, z'
loop_
 _atom_site_type_symbol
 _atom_site_label
 _atom_site_symmetry_multiplicity
 _atom_site_fract_x
 _atom_site_fract_y
 _atom_site_fract_z
 _atom_site_occupancy
  K  K0  1  0.00000000  0.00000000  0.64069996  1
  K  K1  1  0.00000000  0.33333333  0.64069996  1
  K  K2  1  -0.00000000  0.66666667  0.64069996  1
  K  K3  1  0.33333333  0.00000000  0.64069996  1
  K  K4  1  0.33333333  0.33333333  0.64069996  1
  K  K5  1  0.33333333  0.66666667  0.64069996  1
  K  K6  1  0.66666667  0.00000000  0.64069996  1
  K  K7  1  0.66666667  0.33333333  0.64069996  1
  K  K8  1  0.66666667  0.66666667  0.64069996  1
  K  K9  1  0.22222222  0.11111111  0.97403330  1
  K  K10  1  0.22222222  0.44444444  0.97403330  1
  K  K11  1  0.22222222  0.77777778  0.97403330  1
  K  K12  1  0.55555556  0.11111111  0.97403330  1
  K  K13  1  0.55555556  0.44444444  0.97403330  1
  K  K14  1  0.55555556  0.77777778  0.97403330  1
  K  K15  1  0.88888889  0.11111111  0.97403330  1
  K  K16  1  0.88888889  0.44444444  0.97403330  1
  K  K17  1  0.88888889  0.77777778  0.97403330  1
  K  K18  1  0.11111111  0.22222222  1.30736663  1
  K  K19  1  0.11111111  0.55555556  1.30736663  1
  K  K20  1  0.11111111  0.88888889  1.30736663  1
  K  K21  1  0.44444444  0.22222222  1.30736663  1
  K  K22  1  0.44444444  0.55555556  1.30736663  1
  K  K23  1  0.44444444  0.88888889  1.30736663  1
  K  K24  1  0.77777778  0.22222222  1.30736663  1
  K  K25  1  0.77777778  0.55555556  1.30736663  1
  K  K26  1  0.77777778  0.88888889  1.30736663  1
  K  K27  1  0.00000000  0.00000000  0.35930004  1
  K  K28  1  0.00000000  0.33333333  0.35930004  1
  K  K29  1  -0.00000000  0.66666667  0.35930004  1
  K  K30  1  0.33333333  0.00000000  0.35930004  1
  K  K31  1  0.33333333  0.33333333  0.35930004  1
  K  K32  1  0.33333333  0.66666667  0.35930004  1
  K  K33  1  0.66666667  0.00000000  0.35930004  1
  K  K34  1  0.66666667  0.33333333  0.35930004  1
  K  K35  1  0.66666667  0.66666667  0.35930004  1
  K  K36  1  0.22222222  0.11111111  0.69263337  1
  K  K37  1  0.22222222  0.44444444  0.69263337  1
  K  K38  1  0.22222222  0.77777778  0.69263337  1
  K  K39  1  0.55555556  0.11111111  0.69263337  1
  K  K40  1  0.55555556  0.44444444  0.69263337  1
  K  K41  1  0.55555556  0.77777778  0.69263337  1
  K  K42  1  0.88888889  0.11111111  0.69263337  1
  K  K43  1  0.88888889  0.44444444  0.69263337  1
  K  K44  1  0.88888889  0.77777778  0.69263337  1
  K  K45  1  0.11111111  0.22222222  1.02596670  1
  K  K46  1  0.11111111  0.55555556  1.02596670  1
  K  K47  1  0.11111111  0.88888889  1.02596670  1
  K  K48  1  0.44444444  0.22222222  1.02596670  1
  K  K49  1  0.44444444  0.55555556  1.02596670  1
  K  K50  1  0.44444444  0.88888889  1.02596670  1
  K  K51  1  0.77777778  0.22222222  1.02596670  1
  K  K52  1  0.77777778  0.55555556  1.02596670  1
  K  K53  1  0.77777778  0.88888889  1.02596670  1
  Sb  Sb54  1  0.00000000  -0.00000000  0.83591599  1
  Sb  Sb55  1  -0.00000000  0.33333333  0.83591599  1
  Sb  Sb56  1  -0.00000000  0.66666667  0.83591599  1
  Sb  Sb57  1  0.33333333  -0.00000000  0.83591599  1
  Sb  Sb58  1  0.33333333  0.33333333  0.83591599  1
  Sb  Sb59  1  0.33333333  0.66666667  0.83591599  1
  Sb  Sb60  1  0.66666667  -0.00000000  0.83591599  1
  Sb  Sb61  1  0.66666667  0.33333333  0.83591599  1
  Sb  Sb62  1  0.66666667  0.66666667  0.83591599  1
  Sb  Sb63  1  0.22222222  0.11111111  1.16924932  1
  Sb  Sb64  1  0.22222222  0.44444444  1.16924932  1
  Sb  Sb65  1  0.22222222  0.77777778  1.16924932  1
  Sb  Sb66  1  0.55555556  0.11111111  1.16924932  1
  Sb  Sb67  1  0.55555556  0.44444444  1.16924932  1
  Sb  Sb68  1  0.55555556  0.77777778  1.16924932  1
  Sb  Sb69  1  0.88888889  0.11111111  1.16924932  1
  Sb  Sb70  1  0.88888889  0.44444444  1.16924932  1
  Sb  Sb71  1  0.88888889  0.77777778  1.16924932  1
  Sb  Sb72  1  0.11111111  0.22222222  1.50258265  1
  Sb  Sb73  1  0.11111111  0.55555556  1.50258265  1
  Sb  Sb74  1  0.11111111  0.88888889  1.50258265  1
  Sb  Sb75  1  0.44444444  0.22222222  1.50258265  1
  Sb  Sb76  1  0.44444444  0.55555556  1.50258265  1
  Sb  Sb77  1  0.44444444  0.88888889  1.50258265  1
  Sb  Sb78  1  0.77777778  0.22222222  1.50258265  1
  Sb  Sb79  1  0.77777778  0.55555556  1.50258265  1
  Sb  Sb80  1  0.77777778  0.88888889  1.50258265  1
  Sb  Sb81  1  -0.00000000  -0.00000000  0.16408401  1
  Sb  Sb82  1  -0.00000000  0.33333333  0.16408401  1
  Sb  Sb83  1  -0.00000000  0.66666667  0.16408401  1
  Sb  Sb84  1  0.33333333  -0.00000000  0.16408401  1
  Sb  Sb85  1  0.33333333  0.33333333  0.16408401  1
  Sb  Sb86  1  0.33333333  0.66666667  0.16408401  1
  Sb  Sb87  1  0.66666667  -0.00000000  0.16408401  1
  Sb  Sb88  1  0.66666667  0.33333333  0.16408401  1
  Sb  Sb89  1  0.66666667  0.66666667  0.16408401  1
  Sb  Sb90  1  0.22222222  0.11111111  0.49741735  1
  Sb  Sb91  1  0.22222222  0.44444444  0.49741735  1
  Sb  Sb92  1  0.22222222  0.77777778  0.49741735  1
  Sb  Sb93  1  0.55555556  0.11111111  0.49741735  1
  Sb  Sb94  1  0.55555556  0.44444444  0.49741735  1
  Sb  Sb95  1  0.55555556  0.77777778  0.49741735  1
  Sb  Sb96  1  0.88888889  0.11111111  0.49741735  1
  Sb  Sb97  1  0.88888889  0.44444444  0.49741735  1
  Sb  Sb98  1  0.88888889  0.77777778  0.49741735  1
  Sb  Sb99  1  0.11111111  0.22222222  0.83075068  1
  Sb  Sb100  1  0.11111111  0.55555556  0.83075068  1
  Sb  Sb101  1  0.11111111  0.88888889  0.83075068  1
  Sb  Sb102  1  0.44444444  0.22222222  0.83075068  1
  Sb  Sb103  1  0.44444444  0.55555556  0.83075068  1
  Sb  Sb104  1  0.44444444  0.88888889  0.83075068  1
  Sb  Sb105  1  0.77777778  0.22222222  0.83075068  1
  Sb  Sb106  1  0.77777778  0.55555556  0.83075068  1
  Sb  Sb107  1  0.77777778  0.88888889  0.83075068  1
  O  O108  1  0.13252852  -0.00170371  0.43737837  1
  O  O109  1  0.13252852  0.33162962  0.43737837  1
  O  O110  1  0.13252852  0.66496295  0.43737837  1
  O  O111  1  0.46586185  -0.00170371  0.43737837  1
  O  O112  1  0.46586185  0.33162962  0.43737837  1
  O  O113  1  0.46586185  0.66496295  0.43737837  1
  O  O114  1  0.79919518  -0.00170371  0.43737837  1
  O  O115  1  0.79919518  0.33162962  0.43737837  1
  O  O116  1  0.79919518  0.66496295  0.43737837  1
  O  O117  1  0.35475074  0.10940740  0.77071170  1
  O  O118  1  0.35475074  0.44274073  0.77071170  1
  O  O119  1  0.35475074  0.77607406  0.77071170  1
  O  O120  1  0.68808407  0.10940740  0.77071170  1
  O  O121  1  0.68808407  0.44274073  0.77071170  1
  O  O122  1  0.68808407  0.77607406  0.77071170  1
  O  O123  1  1.02141740  0.10940740  0.77071170  1
  O  O124  1  1.02141740  0.44274073  0.77071170  1
  O  O125  1  1.02141740  0.77607406  0.77071170  1
  O  O126  1  0.24363963  0.22051851  1.10404503  1
  O  O127  1  0.24363963  0.55385184  1.10404503  1
  O  O128  1  0.24363963  0.88718517  1.10404503  1
  O  O129  1  0.57697296  0.22051851  1.10404503  1
  O  O130  1  0.57697296  0.55385184  1.10404503  1
  O  O131  1  0.57697296  0.88718517  1.10404503  1
  O  O132  1  0.91030629  0.22051851  1.10404503  1
  O  O133  1  0.91030629  0.55385184  1.10404503  1
  O  O134  1  0.91030629  0.88718517  1.10404503  1
  O  O135  1  0.00170371  0.13423223  0.43737837  1
  O  O136  1  0.00170371  0.46756556  0.43737837  1
  O  O137  1  0.00170371  0.80089890  0.43737837  1
  O  O138  1  0.33503705  0.13423223  0.43737837  1
  O  O139  1  0.33503705  0.46756556  0.43737837  1
  O  O140  1  0.33503705  0.80089890  0.43737837  1
  O  O141  1  0.66837038  0.13423223  0.43737837  1
  O  O142  1  0.66837038  0.46756556  0.43737837  1
  O  O143  1  0.66837038  0.80089890  0.43737837  1
  O  O144  1  0.22392594  0.24534334  0.77071170  1
  O  O145  1  0.22392594  0.57867667  0.77071170  1
  O  O146  1  0.22392594  0.91201001  0.77071170  1
  O  O147  1  0.55725927  0.24534334  0.77071170  1
  O  O148  1  0.55725927  0.57867667  0.77071170  1
  O  O149  1  0.55725927  0.91201001  0.77071170  1
  O  O150  1  0.89059260  0.24534334  0.77071170  1
  O  O151  1  0.89059260  0.57867667  0.77071170  1
  O  O152  1  0.89059260  0.91201001  0.77071170  1
  O  O153  1  0.11281483  0.35645445  1.10404503  1
  O  O154  1  0.11281483  0.68978779  1.10404503  1
  O  O155  1  0.11281483  1.02312112  1.10404503  1
  O  O156  1  0.44614816  0.35645445  1.10404503  1
  O  O157  1  0.44614816  0.68978779  1.10404503  1
  O  O158  1  0.44614816  1.02312112  1.10404503  1
  O  O159  1  0.77948149  0.35645445  1.10404503  1
  O  O160  1  0.77948149  0.68978779  1.10404503  1
  O  O161  1  0.77948149  1.02312112  1.10404503  1
  O  O162  1  -0.13423223  -0.13252852  0.43737837  1
  O  O163  1  -0.13423223  0.20080482  0.43737837  1
  O  O164  1  -0.13423223  0.53413815  0.43737837  1
  O  O165  1  0.19910110  -0.13252852  0.43737837  1
  O  O166  1  0.19910110  0.20080482  0.43737837  1
  O  O167  1  0.19910110  0.53413815  0.43737837  1
  O  O168  1  0.53243444  -0.13252852  0.43737837  1
  O  O169  1  0.53243444  0.20080482  0.43737837  1
  O  O170  1  0.53243444  0.53413815  0.43737837  1
  O  O171  1  0.08798999  -0.02141740  0.77071170  1
  O  O172  1  0.08798999  0.31191593  0.77071170  1
  O  O173  1  0.08798999  0.64524926  0.77071170  1
  O  O174  1  0.42132333  -0.02141740  0.77071170  1
  O  O175  1  0.42132333  0.31191593  0.77071170  1
  O  O176  1  0.42132333  0.64524926  0.77071170  1
  O  O177  1  0.75465666  -0.02141740  0.77071170  1
  O  O178  1  0.75465666  0.31191593  0.77071170  1
  O  O179  1  0.75465666  0.64524926  0.77071170  1
  O  O180  1  -0.02312112  0.08969371  1.10404503  1
  O  O181  1  -0.02312112  0.42302704  1.10404503  1
  O  O182  1  -0.02312112  0.75636037  1.10404503  1
  O  O183  1  0.31021221  0.08969371  1.10404503  1
  O  O184  1  0.31021221  0.42302704  1.10404503  1
  O  O185  1  0.31021221  0.75636037  1.10404503  1
  O  O186  1  0.64354555  0.08969371  1.10404503  1
  O  O187  1  0.64354555  0.42302704  1.10404503  1
  O  O188  1  0.64354555  0.75636037  1.10404503  1
  O  O189  1  -0.13252852  0.00170371  0.56262163  1
  O  O190  1  -0.13252852  0.33503705  0.56262163  1
  O  O191  1  -0.13252852  0.66837038  0.56262163  1
  O  O192  1  0.20080482  0.00170371  0.56262163  1
  O  O193  1  0.20080482  0.33503705  0.56262163  1
  O  O194  1  0.20080482  0.66837038  0.56262163  1
  O  O195  1  0.53413815  0.00170371  0.56262163  1
  O  O196  1  0.53413815  0.33503705  0.56262163  1
  O  O197  1  0.53413815  0.66837038  0.56262163  1
  O  O198  1  0.08969371  0.11281483  0.89595497  1
  O  O199  1  0.08969371  0.44614816  0.89595497  1
  O  O200  1  0.08969371  0.77948149  0.89595497  1
  O  O201  1  0.42302704  0.11281483  0.89595497  1
  O  O202  1  0.42302704  0.44614816  0.89595497  1
  O  O203  1  0.42302704  0.77948149  0.89595497  1
  O  O204  1  0.75636037  0.11281483  0.89595497  1
  O  O205  1  0.75636037  0.44614816  0.89595497  1
  O  O206  1  0.75636037  0.77948149  0.89595497  1
  O  O207  1  -0.02141740  0.22392594  1.22928830  1
  O  O208  1  -0.02141740  0.55725927  1.22928830  1
  O  O209  1  -0.02141740  0.89059260  1.22928830  1
  O  O210  1  0.31191593  0.22392594  1.22928830  1
  O  O211  1  0.31191593  0.55725927  1.22928830  1
  O  O212  1  0.31191593  0.89059260  1.22928830  1
  O  O213  1  0.64524926  0.22392594  1.22928830  1
  O  O214  1  0.64524926  0.55725927  1.22928830  1
  O  O215  1  0.64524926  0.89059260  1.22928830  1
  O  O216  1  -0.00170371  -0.13423223  0.56262163  1
  O  O217  1  -0.00170371  0.19910110  0.56262163  1
  O  O218  1  -0.00170371  0.53243444  0.56262163  1
  O  O219  1  0.33162962  -0.13423223  0.56262163  1
  O  O220  1  0.33162962  0.19910110  0.56262163  1
  O  O221  1  0.33162962  0.53243444  0.56262163  1
  O  O222  1  0.66496295  -0.13423223  0.56262163  1
  O  O223  1  0.66496295  0.19910110  0.56262163  1
  O  O224  1  0.66496295  0.53243444  0.56262163  1
  O  O225  1  0.22051851  -0.02312112  0.89595497  1
  O  O226  1  0.22051851  0.31021221  0.89595497  1
  O  O227  1  0.22051851  0.64354555  0.89595497  1
  O  O228  1  0.55385184  -0.02312112  0.89595497  1
  O  O229  1  0.55385184  0.31021221  0.89595497  1
  O  O230  1  0.55385184  0.64354555  0.89595497  1
  O  O231  1  0.88718517  -0.02312112  0.89595497  1
  O  O232  1  0.88718517  0.31021221  0.89595497  1
  O  O233  1  0.88718517  0.64354555  0.89595497  1
  O  O234  1  0.10940740  0.08798999  1.22928830  1
  O  O235  1  0.10940740  0.42132333  1.22928830  1
  O  O236  1  0.10940740  0.75465666  1.22928830  1
  O  O237  1  0.44274073  0.08798999  1.22928830  1
  O  O238  1  0.44274073  0.42132333  1.22928830  1
  O  O239  1  0.44274073  0.75465666  1.22928830  1
  O  O240  1  0.77607406  0.08798999  1.22928830  1
  O  O241  1  0.77607406  0.42132333  1.22928830  1
  O  O242  1  0.77607406  0.75465666  1.22928830  1
  O  O243  1  0.13423223  0.13252852  0.56262163  1
  O  O244  1  0.13423223  0.46586185  0.56262163  1
  O  O245  1  0.13423223  0.79919518  0.56262163  1
  O  O246  1  0.46756556  0.13252852  0.56262163  1
  O  O247  1  0.46756556  0.46586185  0.56262163  1
  O  O248  1  0.46756556  0.79919518  0.56262163  1
  O  O249  1  0.80089890  0.13252852  0.56262163  1
  O  O250  1  0.80089890  0.46586185  0.56262163  1
  O  O251  1  0.80089890  0.79919518  0.56262163  1
  O  O252  1  0.35645445  0.24363963  0.89595497  1
  O  O253  1  0.35645445  0.57697296  0.89595497  1
  O  O254  1  0.35645445  0.91030629  0.89595497  1
  O  O255  1  0.68978779  0.24363963  0.89595497  1
  O  O256  1  0.68978779  0.57697296  0.89595497  1
  O  O257  1  0.68978779  0.91030629  0.89595497  1
  O  O258  1  1.02312112  0.24363963  0.89595497  1
  O  O259  1  1.02312112  0.57697296  0.89595497  1
  O  O260  1  1.02312112  0.91030629  0.89595497  1
  O  O261  1  0.24534334  0.35475074  1.22928830  1
  O  O262  1  0.24534334  0.68808407  1.22928830  1
  O  O263  1  0.24534334  1.02141740  1.22928830  1
  O  O264  1  0.57867667  0.35475074  1.22928830  1
  O  O265  1  0.57867667  0.68808407  1.22928830  1
  O  O266  1  0.57867667  1.02141740  1.22928830  1
  O  O267  1  0.91201001  0.35475074  1.22928830  1
  O  O268  1  0.91201001  0.68808407  1.22928830  1
  O  O269  1  0.91201001  1.02141740  1.22928830  1
