# generated using pymatgen
data_Al2ZnO4
_symmetry_space_group_name_H-M   'P 1'
_cell_length_a   16.09586060
_cell_length_b   16.09586060
_cell_length_c   16.09586060
_cell_angle_alpha   90.00000000
_cell_angle_beta   90.00000000
_cell_angle_gamma   90.00000000
_symmetry_Int_Tables_number   1
_chemical_formula_structural   Al2ZnO4
_chemical_formula_sum   'Al128 Zn64 O256'
_cell_volume   4170.06290968
_cell_formula_units_Z   64
loop_
 _symmetry_equiv_pos_site_id
 _symmetry_equiv_pos_as_xyz
  1  'x, y, z'
loop_
 _atom_site_type_symbol
 _atom_site_label
 _atom_site_symmetry_multiplicity
 _atom_site_fract_x
 _atom_site_fract_y
 _atom_site_fract_z
 _atom_site_occupancy
  Al  Al0  1  0.18750000  0.18750000  0.06250000  1
  Al  Al1  1  0.18750000  0.18750000  0.56250000  1
  Al  Al2  1  0.18750000  0.68750000  0.06250000  1
  Al  Al3  1  0.18750000  0.68750000  0.56250000  1
  Al  Al4  1  0.68750000  0.18750000  0.06250000  1
  Al  Al5  1  0.68750000  0.18750000  0.56250000  1
  Al  Al6  1  0.68750000  0.68750000  0.06250000  1
  Al  Al7  1  0.68750000  0.68750000  0.56250000  1
  Al  Al8  1  0.43750000  0.43750000  0.06250000  1
  Al  Al9  1  0.43750000  0.43750000  0.56250000  1
  Al  Al10  1  0.43750000  0.93750000  0.06250000  1
  Al  Al11  1  0.43750000  0.93750000  0.56250000  1
  Al  Al12  1  0.93750000  0.43750000  0.06250000  1
  Al  Al13  1  0.93750000  0.43750000  0.56250000  1
  Al  Al14  1  0.93750000  0.93750000  0.06250000  1
  Al  Al15  1  0.93750000  0.93750000  0.56250000  1
  Al  Al16  1  0.43750000  0.18750000  0.31250000  1
  Al  Al17  1  0.43750000  0.18750000  0.81250000  1
  Al  Al18  1  0.43750000  0.68750000  0.31250000  1
  Al  Al19  1  0.43750000  0.68750000  0.81250000  1
  Al  Al20  1  0.93750000  0.18750000  0.31250000  1
  Al  Al21  1  0.93750000  0.18750000  0.81250000  1
  Al  Al22  1  0.93750000  0.68750000  0.31250000  1
  Al  Al23  1  0.93750000  0.68750000  0.81250000  1
  Al  Al24  1  0.18750000  0.43750000  0.31250000  1
  Al  Al25  1  0.18750000  0.43750000  0.81250000  1
  Al  Al26  1  0.18750000  0.93750000  0.31250000  1
  Al  Al27  1  0.18750000  0.93750000  0.81250000  1
  Al  Al28  1  0.68750000  0.43750000  0.31250000  1
  Al  Al29  1  0.68750000  0.43750000  0.81250000  1
  Al  Al30  1  0.68750000  0.93750000  0.31250000  1
  Al  Al31  1  0.68750000  0.93750000  0.81250000  1
  Al  Al32  1  0.18750000  0.06250000  0.18750000  1
  Al  Al33  1  0.18750000  0.06250000  0.68750000  1
  Al  Al34  1  0.18750000  0.56250000  0.18750000  1
  Al  Al35  1  0.18750000  0.56250000  0.68750000  1
  Al  Al36  1  0.68750000  0.06250000  0.18750000  1
  Al  Al37  1  0.68750000  0.06250000  0.68750000  1
  Al  Al38  1  0.68750000  0.56250000  0.18750000  1
  Al  Al39  1  0.68750000  0.56250000  0.68750000  1
  Al  Al40  1  0.43750000  0.31250000  0.18750000  1
  Al  Al41  1  0.43750000  0.31250000  0.68750000  1
  Al  Al42  1  0.43750000  0.81250000  0.18750000  1
  Al  Al43  1  0.43750000  0.81250000  0.68750000  1
  Al  Al44  1  0.93750000  0.31250000  0.18750000  1
  Al  Al45  1  0.93750000  0.31250000  0.68750000  1
  Al  Al46  1  0.93750000  0.81250000  0.18750000  1
  Al  Al47  1  0.93750000  0.81250000  0.68750000  1
  Al  Al48  1  0.43750000  0.06250000  0.43750000  1
  Al  Al49  1  0.43750000  0.06250000  0.93750000  1
  Al  Al50  1  0.43750000  0.56250000  0.43750000  1
  Al  Al51  1  0.43750000  0.56250000  0.93750000  1
  Al  Al52  1  0.93750000  0.06250000  0.43750000  1
  Al  Al53  1  0.93750000  0.06250000  0.93750000  1
  Al  Al54  1  0.93750000  0.56250000  0.43750000  1
  Al  Al55  1  0.93750000  0.56250000  0.93750000  1
  Al  Al56  1  0.18750000  0.31250000  0.43750000  1
  Al  Al57  1  0.18750000  0.31250000  0.93750000  1
  Al  Al58  1  0.18750000  0.81250000  0.43750000  1
  Al  Al59  1  0.18750000  0.81250000  0.93750000  1
  Al  Al60  1  0.68750000  0.31250000  0.43750000  1
  Al  Al61  1  0.68750000  0.31250000  0.93750000  1
  Al  Al62  1  0.68750000  0.81250000  0.43750000  1
  Al  Al63  1  0.68750000  0.81250000  0.93750000  1
  Al  Al64  1  0.06250000  0.18750000  0.18750000  1
  Al  Al65  1  0.06250000  0.18750000  0.68750000  1
  Al  Al66  1  0.06250000  0.68750000  0.18750000  1
  Al  Al67  1  0.06250000  0.68750000  0.68750000  1
  Al  Al68  1  0.56250000  0.18750000  0.18750000  1
  Al  Al69  1  0.56250000  0.18750000  0.68750000  1
  Al  Al70  1  0.56250000  0.68750000  0.18750000  1
  Al  Al71  1  0.56250000  0.68750000  0.68750000  1
  Al  Al72  1  0.31250000  0.43750000  0.18750000  1
  Al  Al73  1  0.31250000  0.43750000  0.68750000  1
  Al  Al74  1  0.31250000  0.93750000  0.18750000  1
  Al  Al75  1  0.31250000  0.93750000  0.68750000  1
  Al  Al76  1  0.81250000  0.43750000  0.18750000  1
  Al  Al77  1  0.81250000  0.43750000  0.68750000  1
  Al  Al78  1  0.81250000  0.93750000  0.18750000  1
  Al  Al79  1  0.81250000  0.93750000  0.68750000  1
  Al  Al80  1  0.31250000  0.18750000  0.43750000  1
  Al  Al81  1  0.31250000  0.18750000  0.93750000  1
  Al  Al82  1  0.31250000  0.68750000  0.43750000  1
  Al  Al83  1  0.31250000  0.68750000  0.93750000  1
  Al  Al84  1  0.81250000  0.18750000  0.43750000  1
  Al  Al85  1  0.81250000  0.18750000  0.93750000  1
  Al  Al86  1  0.81250000  0.68750000  0.43750000  1
  Al  Al87  1  0.81250000  0.68750000  0.93750000  1
  Al  Al88  1  0.06250000  0.43750000  0.43750000  1
  Al  Al89  1  0.06250000  0.43750000  0.93750000  1
  Al  Al90  1  0.06250000  0.93750000  0.43750000  1
  Al  Al91  1  0.06250000  0.93750000  0.93750000  1
  Al  Al92  1  0.56250000  0.43750000  0.43750000  1
  Al  Al93  1  0.56250000  0.43750000  0.93750000  1
  Al  Al94  1  0.56250000  0.93750000  0.43750000  1
  Al  Al95  1  0.56250000  0.93750000  0.93750000  1
  Al  Al96  1  0.06250000  0.06250000  0.06250000  1
  Al  Al97  1  0.06250000  0.06250000  0.56250000  1
  Al  Al98  1  0.06250000  0.56250000  0.06250000  1
  Al  Al99  1  0.06250000  0.56250000  0.56250000  1
  Al  Al100  1  0.56250000  0.06250000  0.06250000  1
  Al  Al101  1  0.56250000  0.06250000  0.56250000  1
  Al  Al102  1  0.56250000  0.56250000  0.06250000  1
  Al  Al103  1  0.56250000  0.56250000  0.56250000  1
  Al  Al104  1  0.31250000  0.31250000  0.06250000  1
  Al  Al105  1  0.31250000  0.31250000  0.56250000  1
  Al  Al106  1  0.31250000  0.81250000  0.06250000  1
  Al  Al107  1  0.31250000  0.81250000  0.56250000  1
  Al  Al108  1  0.81250000  0.31250000  0.06250000  1
  Al  Al109  1  0.81250000  0.31250000  0.56250000  1
  Al  Al110  1  0.81250000  0.81250000  0.06250000  1
  Al  Al111  1  0.81250000  0.81250000  0.56250000  1
  Al  Al112  1  0.31250000  0.06250000  0.31250000  1
  Al  Al113  1  0.31250000  0.06250000  0.81250000  1
  Al  Al114  1  0.31250000  0.56250000  0.31250000  1
  Al  Al115  1  0.31250000  0.56250000  0.81250000  1
  Al  Al116  1  0.81250000  0.06250000  0.31250000  1
  Al  Al117  1  0.81250000  0.06250000  0.81250000  1
  Al  Al118  1  0.81250000  0.56250000  0.31250000  1
  Al  Al119  1  0.81250000  0.56250000  0.81250000  1
  Al  Al120  1  0.06250000  0.31250000  0.31250000  1
  Al  Al121  1  0.06250000  0.31250000  0.81250000  1
  Al  Al122  1  0.06250000  0.81250000  0.31250000  1
  Al  Al123  1  0.06250000  0.81250000  0.81250000  1
  Al  Al124  1  0.56250000  0.31250000  0.31250000  1
  Al  Al125  1  0.56250000  0.31250000  0.81250000  1
  Al  Al126  1  0.56250000  0.81250000  0.31250000  1
  Al  Al127  1  0.56250000  0.81250000  0.81250000  1
  Zn  Zn128  1  0.25000000  0.25000000  0.25000000  1
  Zn  Zn129  1  0.25000000  0.25000000  0.75000000  1
  Zn  Zn130  1  0.25000000  0.75000000  0.25000000  1
  Zn  Zn131  1  0.25000000  0.75000000  0.75000000  1
  Zn  Zn132  1  0.75000000  0.25000000  0.25000000  1
  Zn  Zn133  1  0.75000000  0.25000000  0.75000000  1
  Zn  Zn134  1  0.75000000  0.75000000  0.25000000  1
  Zn  Zn135  1  0.75000000  0.75000000  0.75000000  1
  Zn  Zn136  1  0.50000000  0.50000000  0.25000000  1
  Zn  Zn137  1  0.50000000  0.50000000  0.75000000  1
  Zn  Zn138  1  0.50000000  1.00000000  0.25000000  1
  Zn  Zn139  1  0.50000000  1.00000000  0.75000000  1
  Zn  Zn140  1  1.00000000  0.50000000  0.25000000  1
  Zn  Zn141  1  1.00000000  0.50000000  0.75000000  1
  Zn  Zn142  1  1.00000000  1.00000000  0.25000000  1
  Zn  Zn143  1  1.00000000  1.00000000  0.75000000  1
  Zn  Zn144  1  0.50000000  0.25000000  0.50000000  1
  Zn  Zn145  1  0.50000000  0.25000000  1.00000000  1
  Zn  Zn146  1  0.50000000  0.75000000  0.50000000  1
  Zn  Zn147  1  0.50000000  0.75000000  1.00000000  1
  Zn  Zn148  1  1.00000000  0.25000000  0.50000000  1
  Zn  Zn149  1  1.00000000  0.25000000  1.00000000  1
  Zn  Zn150  1  1.00000000  0.75000000  0.50000000  1
  Zn  Zn151  1  1.00000000  0.75000000  1.00000000  1
  Zn  Zn152  1  0.25000000  0.50000000  0.50000000  1
  Zn  Zn153  1  0.25000000  0.50000000  1.00000000  1
  Zn  Zn154  1  0.25000000  1.00000000  0.50000000  1
  Zn  Zn155  1  0.25000000  1.00000000  1.00000000  1
  Zn  Zn156  1  0.75000000  0.50000000  0.50000000  1
  Zn  Zn157  1  0.75000000  0.50000000  1.00000000  1
  Zn  Zn158  1  0.75000000  1.00000000  0.50000000  1
  Zn  Zn159  1  0.75000000  1.00000000  1.00000000  1
  Zn  Zn160  1  0.37500000  0.37500000  0.37500000  1
  Zn  Zn161  1  0.37500000  0.37500000  0.87500000  1
  Zn  Zn162  1  0.37500000  0.87500000  0.37500000  1
  Zn  Zn163  1  0.37500000  0.87500000  0.87500000  1
  Zn  Zn164  1  0.87500000  0.37500000  0.37500000  1
  Zn  Zn165  1  0.87500000  0.37500000  0.87500000  1
  Zn  Zn166  1  0.87500000  0.87500000  0.37500000  1
  Zn  Zn167  1  0.87500000  0.87500000  0.87500000  1
  Zn  Zn168  1  0.62500000  0.62500000  0.37500000  1
  Zn  Zn169  1  0.62500000  0.62500000  0.87500000  1
  Zn  Zn170  1  0.62500000  1.12500000  0.37500000  1
  Zn  Zn171  1  0.62500000  1.12500000  0.87500000  1
  Zn  Zn172  1  1.12500000  0.62500000  0.37500000  1
  Zn  Zn173  1  1.12500000  0.62500000  0.87500000  1
  Zn  Zn174  1  1.12500000  1.12500000  0.37500000  1
  Zn  Zn175  1  1.12500000  1.12500000  0.87500000  1
  Zn  Zn176  1  0.62500000  0.37500000  0.62500000  1
  Zn  Zn177  1  0.62500000  0.37500000  1.12500000  1
  Zn  Zn178  1  0.62500000  0.87500000  0.62500000  1
  Zn  Zn179  1  0.62500000  0.87500000  1.12500000  1
  Zn  Zn180  1  1.12500000  0.37500000  0.62500000  1
  Zn  Zn181  1  1.12500000  0.37500000  1.12500000  1
  Zn  Zn182  1  1.12500000  0.87500000  0.62500000  1
  Zn  Zn183  1  1.12500000  0.87500000  1.12500000  1
  Zn  Zn184  1  0.37500000  0.62500000  0.62500000  1
  Zn  Zn185  1  0.37500000  0.62500000  1.12500000  1
  Zn  Zn186  1  0.37500000  1.12500000  0.62500000  1
  Zn  Zn187  1  0.37500000  1.12500000  1.12500000  1
  Zn  Zn188  1  0.87500000  0.62500000  0.62500000  1
  Zn  Zn189  1  0.87500000  0.62500000  1.12500000  1
  Zn  Zn190  1  0.87500000  1.12500000  0.62500000  1
  Zn  Zn191  1  0.87500000  1.12500000  1.12500000  1
  O  O192  1  0.18109132  0.18109132  0.18109132  1
  O  O193  1  0.18109132  0.18109132  0.68109132  1
  O  O194  1  0.18109132  0.68109132  0.18109132  1
  O  O195  1  0.18109132  0.68109132  0.68109132  1
  O  O196  1  0.68109132  0.18109132  0.18109132  1
  O  O197  1  0.68109132  0.18109132  0.68109132  1
  O  O198  1  0.68109132  0.68109132  0.18109132  1
  O  O199  1  0.68109132  0.68109132  0.68109132  1
  O  O200  1  0.43109132  0.43109132  0.18109132  1
  O  O201  1  0.43109132  0.43109132  0.68109132  1
  O  O202  1  0.43109132  0.93109132  0.18109132  1
  O  O203  1  0.43109132  0.93109132  0.68109132  1
  O  O204  1  0.93109132  0.43109132  0.18109132  1
  O  O205  1  0.93109132  0.43109132  0.68109132  1
  O  O206  1  0.93109132  0.93109132  0.18109132  1
  O  O207  1  0.93109132  0.93109132  0.68109132  1
  O  O208  1  0.43109132  0.18109132  0.43109132  1
  O  O209  1  0.43109132  0.18109132  0.93109132  1
  O  O210  1  0.43109132  0.68109132  0.43109132  1
  O  O211  1  0.43109132  0.68109132  0.93109132  1
  O  O212  1  0.93109132  0.18109132  0.43109132  1
  O  O213  1  0.93109132  0.18109132  0.93109132  1
  O  O214  1  0.93109132  0.68109132  0.43109132  1
  O  O215  1  0.93109132  0.68109132  0.93109132  1
  O  O216  1  0.18109132  0.43109132  0.43109132  1
  O  O217  1  0.18109132  0.43109132  0.93109132  1
  O  O218  1  0.18109132  0.93109132  0.43109132  1
  O  O219  1  0.18109132  0.93109132  0.93109132  1
  O  O220  1  0.68109132  0.43109132  0.43109132  1
  O  O221  1  0.68109132  0.43109132  0.93109132  1
  O  O222  1  0.68109132  0.93109132  0.43109132  1
  O  O223  1  0.68109132  0.93109132  0.93109132  1
  O  O224  1  0.44390868  0.30609132  0.30609132  1
  O  O225  1  0.44390868  0.30609132  0.80609132  1
  O  O226  1  0.44390868  0.80609132  0.30609132  1
  O  O227  1  0.44390868  0.80609132  0.80609132  1
  O  O228  1  0.94390868  0.30609132  0.30609132  1
  O  O229  1  0.94390868  0.30609132  0.80609132  1
  O  O230  1  0.94390868  0.80609132  0.30609132  1
  O  O231  1  0.94390868  0.80609132  0.80609132  1
  O  O232  1  0.69390868  0.55609132  0.30609132  1
  O  O233  1  0.69390868  0.55609132  0.80609132  1
  O  O234  1  0.69390868  1.05609132  0.30609132  1
  O  O235  1  0.69390868  1.05609132  0.80609132  1
  O  O236  1  1.19390868  0.55609132  0.30609132  1
  O  O237  1  1.19390868  0.55609132  0.80609132  1
  O  O238  1  1.19390868  1.05609132  0.30609132  1
  O  O239  1  1.19390868  1.05609132  0.80609132  1
  O  O240  1  0.69390868  0.30609132  0.55609132  1
  O  O241  1  0.69390868  0.30609132  1.05609132  1
  O  O242  1  0.69390868  0.80609132  0.55609132  1
  O  O243  1  0.69390868  0.80609132  1.05609132  1
  O  O244  1  1.19390868  0.30609132  0.55609132  1
  O  O245  1  1.19390868  0.30609132  1.05609132  1
  O  O246  1  1.19390868  0.80609132  0.55609132  1
  O  O247  1  1.19390868  0.80609132  1.05609132  1
  O  O248  1  0.44390868  0.55609132  0.55609132  1
  O  O249  1  0.44390868  0.55609132  1.05609132  1
  O  O250  1  0.44390868  1.05609132  0.55609132  1
  O  O251  1  0.44390868  1.05609132  1.05609132  1
  O  O252  1  0.94390868  0.55609132  0.55609132  1
  O  O253  1  0.94390868  0.55609132  1.05609132  1
  O  O254  1  0.94390868  1.05609132  0.55609132  1
  O  O255  1  0.94390868  1.05609132  1.05609132  1
  O  O256  1  0.30609132  0.30609132  0.44390868  1
  O  O257  1  0.30609132  0.30609132  0.94390868  1
  O  O258  1  0.30609132  0.80609132  0.44390868  1
  O  O259  1  0.30609132  0.80609132  0.94390868  1
  O  O260  1  0.80609132  0.30609132  0.44390868  1
  O  O261  1  0.80609132  0.30609132  0.94390868  1
  O  O262  1  0.80609132  0.80609132  0.44390868  1
  O  O263  1  0.80609132  0.80609132  0.94390868  1
  O  O264  1  0.55609132  0.55609132  0.44390868  1
  O  O265  1  0.55609132  0.55609132  0.94390868  1
  O  O266  1  0.55609132  1.05609132  0.44390868  1
  O  O267  1  0.55609132  1.05609132  0.94390868  1
  O  O268  1  1.05609132  0.55609132  0.44390868  1
  O  O269  1  1.05609132  0.55609132  0.94390868  1
  O  O270  1  1.05609132  1.05609132  0.44390868  1
  O  O271  1  1.05609132  1.05609132  0.94390868  1
  O  O272  1  0.55609132  0.30609132  0.69390868  1
  O  O273  1  0.55609132  0.30609132  1.19390868  1
  O  O274  1  0.55609132  0.80609132  0.69390868  1
  O  O275  1  0.55609132  0.80609132  1.19390868  1
  O  O276  1  1.05609132  0.30609132  0.69390868  1
  O  O277  1  1.05609132  0.30609132  1.19390868  1
  O  O278  1  1.05609132  0.80609132  0.69390868  1
  O  O279  1  1.05609132  0.80609132  1.19390868  1
  O  O280  1  0.30609132  0.55609132  0.69390868  1
  O  O281  1  0.30609132  0.55609132  1.19390868  1
  O  O282  1  0.30609132  1.05609132  0.69390868  1
  O  O283  1  0.30609132  1.05609132  1.19390868  1
  O  O284  1  0.80609132  0.55609132  0.69390868  1
  O  O285  1  0.80609132  0.55609132  1.19390868  1
  O  O286  1  0.80609132  1.05609132  0.69390868  1
  O  O287  1  0.80609132  1.05609132  1.19390868  1
  O  O288  1  0.30609132  0.44390868  0.30609132  1
  O  O289  1  0.30609132  0.44390868  0.80609132  1
  O  O290  1  0.30609132  0.94390868  0.30609132  1
  O  O291  1  0.30609132  0.94390868  0.80609132  1
  O  O292  1  0.80609132  0.44390868  0.30609132  1
  O  O293  1  0.80609132  0.44390868  0.80609132  1
  O  O294  1  0.80609132  0.94390868  0.30609132  1
  O  O295  1  0.80609132  0.94390868  0.80609132  1
  O  O296  1  0.55609132  0.69390868  0.30609132  1
  O  O297  1  0.55609132  0.69390868  0.80609132  1
  O  O298  1  0.55609132  1.19390868  0.30609132  1
  O  O299  1  0.55609132  1.19390868  0.80609132  1
  O  O300  1  1.05609132  0.69390868  0.30609132  1
  O  O301  1  1.05609132  0.69390868  0.80609132  1
  O  O302  1  1.05609132  1.19390868  0.30609132  1
  O  O303  1  1.05609132  1.19390868  0.80609132  1
  O  O304  1  0.55609132  0.44390868  0.55609132  1
  O  O305  1  0.55609132  0.44390868  1.05609132  1
  O  O306  1  0.55609132  0.94390868  0.55609132  1
  O  O307  1  0.55609132  0.94390868  1.05609132  1
  O  O308  1  1.05609132  0.44390868  0.55609132  1
  O  O309  1  1.05609132  0.44390868  1.05609132  1
  O  O310  1  1.05609132  0.94390868  0.55609132  1
  O  O311  1  1.05609132  0.94390868  1.05609132  1
  O  O312  1  0.30609132  0.69390868  0.55609132  1
  O  O313  1  0.30609132  0.69390868  1.05609132  1
  O  O314  1  0.30609132  1.19390868  0.55609132  1
  O  O315  1  0.30609132  1.19390868  1.05609132  1
  O  O316  1  0.80609132  0.69390868  0.55609132  1
  O  O317  1  0.80609132  0.69390868  1.05609132  1
  O  O318  1  0.80609132  1.19390868  0.55609132  1
  O  O319  1  0.80609132  1.19390868  1.05609132  1
  O  O320  1  0.31890868  0.31890868  0.18109132  1
  O  O321  1  0.31890868  0.31890868  0.68109132  1
  O  O322  1  0.31890868  0.81890868  0.18109132  1
  O  O323  1  0.31890868  0.81890868  0.68109132  1
  O  O324  1  0.81890868  0.31890868  0.18109132  1
  O  O325  1  0.81890868  0.31890868  0.68109132  1
  O  O326  1  0.81890868  0.81890868  0.18109132  1
  O  O327  1  0.81890868  0.81890868  0.68109132  1
  O  O328  1  0.56890868  0.56890868  0.18109132  1
  O  O329  1  0.56890868  0.56890868  0.68109132  1
  O  O330  1  0.56890868  1.06890868  0.18109132  1
  O  O331  1  0.56890868  1.06890868  0.68109132  1
  O  O332  1  1.06890868  0.56890868  0.18109132  1
  O  O333  1  1.06890868  0.56890868  0.68109132  1
  O  O334  1  1.06890868  1.06890868  0.18109132  1
  O  O335  1  1.06890868  1.06890868  0.68109132  1
  O  O336  1  0.56890868  0.31890868  0.43109132  1
  O  O337  1  0.56890868  0.31890868  0.93109132  1
  O  O338  1  0.56890868  0.81890868  0.43109132  1
  O  O339  1  0.56890868  0.81890868  0.93109132  1
  O  O340  1  1.06890868  0.31890868  0.43109132  1
  O  O341  1  1.06890868  0.31890868  0.93109132  1
  O  O342  1  1.06890868  0.81890868  0.43109132  1
  O  O343  1  1.06890868  0.81890868  0.93109132  1
  O  O344  1  0.31890868  0.56890868  0.43109132  1
  O  O345  1  0.31890868  0.56890868  0.93109132  1
  O  O346  1  0.31890868  1.06890868  0.43109132  1
  O  O347  1  0.31890868  1.06890868  0.93109132  1
  O  O348  1  0.81890868  0.56890868  0.43109132  1
  O  O349  1  0.81890868  0.56890868  0.93109132  1
  O  O350  1  0.81890868  1.06890868  0.43109132  1
  O  O351  1  0.81890868  1.06890868  0.93109132  1
  O  O352  1  0.31890868  0.18109132  0.31890868  1
  O  O353  1  0.31890868  0.18109132  0.81890868  1
  O  O354  1  0.31890868  0.68109132  0.31890868  1
  O  O355  1  0.31890868  0.68109132  0.81890868  1
  O  O356  1  0.81890868  0.18109132  0.31890868  1
  O  O357  1  0.81890868  0.18109132  0.81890868  1
  O  O358  1  0.81890868  0.68109132  0.31890868  1
  O  O359  1  0.81890868  0.68109132  0.81890868  1
  O  O360  1  0.56890868  0.43109132  0.31890868  1
  O  O361  1  0.56890868  0.43109132  0.81890868  1
  O  O362  1  0.56890868  0.93109132  0.31890868  1
  O  O363  1  0.56890868  0.93109132  0.81890868  1
  O  O364  1  1.06890868  0.43109132  0.31890868  1
  O  O365  1  1.06890868  0.43109132  0.81890868  1
  O  O366  1  1.06890868  0.93109132  0.31890868  1
  O  O367  1  1.06890868  0.93109132  0.81890868  1
  O  O368  1  0.56890868  0.18109132  0.56890868  1
  O  O369  1  0.56890868  0.18109132  1.06890868  1
  O  O370  1  0.56890868  0.68109132  0.56890868  1
  O  O371  1  0.56890868  0.68109132  1.06890868  1
  O  O372  1  1.06890868  0.18109132  0.56890868  1
  O  O373  1  1.06890868  0.18109132  1.06890868  1
  O  O374  1  1.06890868  0.68109132  0.56890868  1
  O  O375  1  1.06890868  0.68109132  1.06890868  1
  O  O376  1  0.31890868  0.43109132  0.56890868  1
  O  O377  1  0.31890868  0.43109132  1.06890868  1
  O  O378  1  0.31890868  0.93109132  0.56890868  1
  O  O379  1  0.31890868  0.93109132  1.06890868  1
  O  O380  1  0.81890868  0.43109132  0.56890868  1
  O  O381  1  0.81890868  0.43109132  1.06890868  1
  O  O382  1  0.81890868  0.93109132  0.56890868  1
  O  O383  1  0.81890868  0.93109132  1.06890868  1
  O  O384  1  0.44390868  0.44390868  0.44390868  1
  O  O385  1  0.44390868  0.44390868  0.94390868  1
  O  O386  1  0.44390868  0.94390868  0.44390868  1
  O  O387  1  0.44390868  0.94390868  0.94390868  1
  O  O388  1  0.94390868  0.44390868  0.44390868  1
  O  O389  1  0.94390868  0.44390868  0.94390868  1
  O  O390  1  0.94390868  0.94390868  0.44390868  1
  O  O391  1  0.94390868  0.94390868  0.94390868  1
  O  O392  1  0.69390868  0.69390868  0.44390868  1
  O  O393  1  0.69390868  0.69390868  0.94390868  1
  O  O394  1  0.69390868  1.19390868  0.44390868  1
  O  O395  1  0.69390868  1.19390868  0.94390868  1
  O  O396  1  1.19390868  0.69390868  0.44390868  1
  O  O397  1  1.19390868  0.69390868  0.94390868  1
  O  O398  1  1.19390868  1.19390868  0.44390868  1
  O  O399  1  1.19390868  1.19390868  0.94390868  1
  O  O400  1  0.69390868  0.44390868  0.69390868  1
  O  O401  1  0.69390868  0.44390868  1.19390868  1
  O  O402  1  0.69390868  0.94390868  0.69390868  1
  O  O403  1  0.69390868  0.94390868  1.19390868  1
  O  O404  1  1.19390868  0.44390868  0.69390868  1
  O  O405  1  1.19390868  0.44390868  1.19390868  1
  O  O406  1  1.19390868  0.94390868  0.69390868  1
  O  O407  1  1.19390868  0.94390868  1.19390868  1
  O  O408  1  0.44390868  0.69390868  0.69390868  1
  O  O409  1  0.44390868  0.69390868  1.19390868  1
  O  O410  1  0.44390868  1.19390868  0.69390868  1
  O  O411  1  0.44390868  1.19390868  1.19390868  1
  O  O412  1  0.94390868  0.69390868  0.69390868  1
  O  O413  1  0.94390868  0.69390868  1.19390868  1
  O  O414  1  0.94390868  1.19390868  0.69390868  1
  O  O415  1  0.94390868  1.19390868  1.19390868  1
  O  O416  1  0.18109132  0.31890868  0.31890868  1
  O  O417  1  0.18109132  0.31890868  0.81890868  1
  O  O418  1  0.18109132  0.81890868  0.31890868  1
  O  O419  1  0.18109132  0.81890868  0.81890868  1
  O  O420  1  0.68109132  0.31890868  0.31890868  1
  O  O421  1  0.68109132  0.31890868  0.81890868  1
  O  O422  1  0.68109132  0.81890868  0.31890868  1
  O  O423  1  0.68109132  0.81890868  0.81890868  1
  O  O424  1  0.43109132  0.56890868  0.31890868  1
  O  O425  1  0.43109132  0.56890868  0.81890868  1
  O  O426  1  0.43109132  1.06890868  0.31890868  1
  O  O427  1  0.43109132  1.06890868  0.81890868  1
  O  O428  1  0.93109132  0.56890868  0.31890868  1
  O  O429  1  0.93109132  0.56890868  0.81890868  1
  O  O430  1  0.93109132  1.06890868  0.31890868  1
  O  O431  1  0.93109132  1.06890868  0.81890868  1
  O  O432  1  0.43109132  0.31890868  0.56890868  1
  O  O433  1  0.43109132  0.31890868  1.06890868  1
  O  O434  1  0.43109132  0.81890868  0.56890868  1
  O  O435  1  0.43109132  0.81890868  1.06890868  1
  O  O436  1  0.93109132  0.31890868  0.56890868  1
  O  O437  1  0.93109132  0.31890868  1.06890868  1
  O  O438  1  0.93109132  0.81890868  0.56890868  1
  O  O439  1  0.93109132  0.81890868  1.06890868  1
  O  O440  1  0.18109132  0.56890868  0.56890868  1
  O  O441  1  0.18109132  0.56890868  1.06890868  1
  O  O442  1  0.18109132  1.06890868  0.56890868  1
  O  O443  1  0.18109132  1.06890868  1.06890868  1
  O  O444  1  0.68109132  0.56890868  0.56890868  1
  O  O445  1  0.68109132  0.56890868  1.06890868  1
  O  O446  1  0.68109132  1.06890868  0.56890868  1
  O  O447  1  0.68109132  1.06890868  1.06890868  1
