# generated using pymatgen
data_K2PbO2
_symmetry_space_group_name_H-M   'P 1'
_cell_length_a   22.14480734
_cell_length_b   22.65062433
_cell_length_c   20.05154236
_cell_angle_alpha   84.28914656
_cell_angle_beta   69.68089963
_cell_angle_gamma   61.12874652
_symmetry_Int_Tables_number   1
_chemical_formula_structural   K2PbO2
_chemical_formula_sum   'K144 Pb72 O144'
_cell_volume   8231.05445657
_cell_formula_units_Z   72
loop_
 _symmetry_equiv_pos_site_id
 _symmetry_equiv_pos_as_xyz
  1  'x, y, z'
loop_
 _atom_site_type_symbol
 _atom_site_label
 _atom_site_symmetry_multiplicity
 _atom_site_fract_x
 _atom_site_fract_y
 _atom_site_fract_z
 _atom_site_occupancy
  K  K0  1  0.07826811  0.09103655  0.24758479  1
  K  K1  1  0.07826811  0.09103655  0.74758479  1
  K  K2  1  0.07826811  0.42436989  0.24758479  1
  K  K3  1  0.07826811  0.42436989  0.74758479  1
  K  K4  1  0.07826811  0.75770322  0.24758479  1
  K  K5  1  0.07826811  0.75770322  0.74758479  1
  K  K6  1  0.41160144  0.09103655  0.24758479  1
  K  K7  1  0.41160144  0.09103655  0.74758479  1
  K  K8  1  0.41160144  0.42436989  0.24758479  1
  K  K9  1  0.41160144  0.42436989  0.74758479  1
  K  K10  1  0.41160144  0.75770322  0.24758479  1
  K  K11  1  0.41160144  0.75770322  0.74758479  1
  K  K12  1  0.74493477  0.09103655  0.24758479  1
  K  K13  1  0.74493477  0.09103655  0.74758479  1
  K  K14  1  0.74493477  0.42436989  0.24758479  1
  K  K15  1  0.74493477  0.42436989  0.74758479  1
  K  K16  1  0.74493477  0.75770322  0.24758479  1
  K  K17  1  0.74493477  0.75770322  0.74758479  1
  K  K18  1  0.02639429  0.30869606  0.08616122  1
  K  K19  1  0.02639429  0.30869606  0.58616122  1
  K  K20  1  0.02639429  0.64202939  0.08616122  1
  K  K21  1  0.02639429  0.64202939  0.58616122  1
  K  K22  1  0.02639429  0.97536272  0.08616122  1
  K  K23  1  0.02639429  0.97536272  0.58616122  1
  K  K24  1  0.35972762  0.30869606  0.08616122  1
  K  K25  1  0.35972762  0.30869606  0.58616122  1
  K  K26  1  0.35972762  0.64202939  0.08616122  1
  K  K27  1  0.35972762  0.64202939  0.58616122  1
  K  K28  1  0.35972762  0.97536272  0.08616122  1
  K  K29  1  0.35972762  0.97536272  0.58616122  1
  K  K30  1  0.69306095  0.30869606  0.08616122  1
  K  K31  1  0.69306095  0.30869606  0.58616122  1
  K  K32  1  0.69306095  0.64202939  0.08616122  1
  K  K33  1  0.69306095  0.64202939  0.58616122  1
  K  K34  1  0.69306095  0.97536272  0.08616122  1
  K  K35  1  0.69306095  0.97536272  0.58616122  1
  K  K36  1  0.31130410  0.18303018  0.41608617  1
  K  K37  1  0.31130410  0.18303018  0.91608617  1
  K  K38  1  0.31130410  0.51636351  0.41608617  1
  K  K39  1  0.31130410  0.51636351  0.91608617  1
  K  K40  1  0.31130410  0.84969684  0.41608617  1
  K  K41  1  0.31130410  0.84969684  0.91608617  1
  K  K42  1  0.64463743  0.18303018  0.41608617  1
  K  K43  1  0.64463743  0.18303018  0.91608617  1
  K  K44  1  0.64463743  0.51636351  0.41608617  1
  K  K45  1  0.64463743  0.51636351  0.91608617  1
  K  K46  1  0.64463743  0.84969684  0.41608617  1
  K  K47  1  0.64463743  0.84969684  0.91608617  1
  K  K48  1  0.97797076  0.18303018  0.41608617  1
  K  K49  1  0.97797076  0.18303018  0.91608617  1
  K  K50  1  0.97797076  0.51636351  0.41608617  1
  K  K51  1  0.97797076  0.51636351  0.91608617  1
  K  K52  1  0.97797076  0.84969684  0.41608617  1
  K  K53  1  0.97797076  0.84969684  0.91608617  1
  K  K54  1  0.30693905  0.02463728  0.41383878  1
  K  K55  1  0.30693905  0.02463728  0.91383878  1
  K  K56  1  0.30693905  0.35797061  0.41383878  1
  K  K57  1  0.30693905  0.35797061  0.91383878  1
  K  K58  1  0.30693905  0.69130394  0.41383878  1
  K  K59  1  0.30693905  0.69130394  0.91383878  1
  K  K60  1  0.64027238  0.02463728  0.41383878  1
  K  K61  1  0.64027238  0.02463728  0.91383878  1
  K  K62  1  0.64027238  0.35797061  0.41383878  1
  K  K63  1  0.64027238  0.35797061  0.91383878  1
  K  K64  1  0.64027238  0.69130394  0.41383878  1
  K  K65  1  0.64027238  0.69130394  0.91383878  1
  K  K66  1  0.97360571  0.02463728  0.41383878  1
  K  K67  1  0.97360571  0.02463728  0.91383878  1
  K  K68  1  0.97360571  0.35797061  0.41383878  1
  K  K69  1  0.97360571  0.35797061  0.91383878  1
  K  K70  1  0.97360571  0.69130394  0.41383878  1
  K  K71  1  0.97360571  0.69130394  0.91383878  1
  K  K72  1  0.20075233  0.14392974  0.06985304  1
  K  K73  1  0.20075233  0.14392974  0.56985304  1
  K  K74  1  0.20075233  0.47726308  0.06985304  1
  K  K75  1  0.20075233  0.47726308  0.56985304  1
  K  K76  1  0.20075233  0.81059641  0.06985304  1
  K  K77  1  0.20075233  0.81059641  0.56985304  1
  K  K78  1  0.53408566  0.14392974  0.06985304  1
  K  K79  1  0.53408566  0.14392974  0.56985304  1
  K  K80  1  0.53408566  0.47726308  0.06985304  1
  K  K81  1  0.53408566  0.47726308  0.56985304  1
  K  K82  1  0.53408566  0.81059641  0.06985304  1
  K  K83  1  0.53408566  0.81059641  0.56985304  1
  K  K84  1  0.86741900  0.14392974  0.06985304  1
  K  K85  1  0.86741900  0.14392974  0.56985304  1
  K  K86  1  0.86741900  0.47726308  0.06985304  1
  K  K87  1  0.86741900  0.47726308  0.56985304  1
  K  K88  1  0.86741900  0.81059641  0.06985304  1
  K  K89  1  0.86741900  0.81059641  0.56985304  1
  K  K90  1  0.02202924  0.15030316  0.08391383  1
  K  K91  1  0.02202924  0.15030316  0.58391383  1
  K  K92  1  0.02202924  0.48363649  0.08391383  1
  K  K93  1  0.02202924  0.48363649  0.58391383  1
  K  K94  1  0.02202924  0.81696982  0.08391383  1
  K  K95  1  0.02202924  0.81696982  0.58391383  1
  K  K96  1  0.35536257  0.15030316  0.08391383  1
  K  K97  1  0.35536257  0.15030316  0.58391383  1
  K  K98  1  0.35536257  0.48363649  0.08391383  1
  K  K99  1  0.35536257  0.48363649  0.58391383  1
  K  K100  1  0.35536257  0.81696982  0.08391383  1
  K  K101  1  0.35536257  0.81696982  0.58391383  1
  K  K102  1  0.68869590  0.15030316  0.08391383  1
  K  K103  1  0.68869590  0.15030316  0.58391383  1
  K  K104  1  0.68869590  0.48363649  0.08391383  1
  K  K105  1  0.68869590  0.48363649  0.58391383  1
  K  K106  1  0.68869590  0.81696982  0.08391383  1
  K  K107  1  0.68869590  0.81696982  0.58391383  1
  K  K108  1  0.13258100  0.18940359  0.43014696  1
  K  K109  1  0.13258100  0.18940359  0.93014696  1
  K  K110  1  0.13258100  0.52273692  0.43014696  1
  K  K111  1  0.13258100  0.52273692  0.93014696  1
  K  K112  1  0.13258100  0.85607026  0.43014696  1
  K  K113  1  0.13258100  0.85607026  0.93014696  1
  K  K114  1  0.46591434  0.18940359  0.43014696  1
  K  K115  1  0.46591434  0.18940359  0.93014696  1
  K  K116  1  0.46591434  0.52273692  0.43014696  1
  K  K117  1  0.46591434  0.52273692  0.93014696  1
  K  K118  1  0.46591434  0.85607026  0.43014696  1
  K  K119  1  0.46591434  0.85607026  0.93014696  1
  K  K120  1  0.79924767  0.18940359  0.43014696  1
  K  K121  1  0.79924767  0.18940359  0.93014696  1
  K  K122  1  0.79924767  0.52273692  0.43014696  1
  K  K123  1  0.79924767  0.52273692  0.93014696  1
  K  K124  1  0.79924767  0.85607026  0.43014696  1
  K  K125  1  0.79924767  0.85607026  0.93014696  1
  K  K126  1  0.25506523  0.24229678  0.25241521  1
  K  K127  1  0.25506523  0.24229678  0.75241521  1
  K  K128  1  0.25506523  0.57563011  0.25241521  1
  K  K129  1  0.25506523  0.57563011  0.75241521  1
  K  K130  1  0.25506523  0.90896345  0.25241521  1
  K  K131  1  0.25506523  0.90896345  0.75241521  1
  K  K132  1  0.58839856  0.24229678  0.25241521  1
  K  K133  1  0.58839856  0.24229678  0.75241521  1
  K  K134  1  0.58839856  0.57563011  0.25241521  1
  K  K135  1  0.58839856  0.57563011  0.75241521  1
  K  K136  1  0.58839856  0.90896345  0.25241521  1
  K  K137  1  0.58839856  0.90896345  0.75241521  1
  K  K138  1  0.92173189  0.24229678  0.25241521  1
  K  K139  1  0.92173189  0.24229678  0.75241521  1
  K  K140  1  0.92173189  0.57563011  0.25241521  1
  K  K141  1  0.92173189  0.57563011  0.75241521  1
  K  K142  1  0.92173189  0.90896345  0.25241521  1
  K  K143  1  0.92173189  0.90896345  0.75241521  1
  Pb  Pb144  1  0.19980089  0.31244201  0.06617760  1
  Pb  Pb145  1  0.19980089  0.31244201  0.56617760  1
  Pb  Pb146  1  0.19980089  0.64577534  0.06617760  1
  Pb  Pb147  1  0.19980089  0.64577534  0.56617760  1
  Pb  Pb148  1  0.19980089  0.97910868  0.06617760  1
  Pb  Pb149  1  0.19980089  0.97910868  0.56617760  1
  Pb  Pb150  1  0.53313423  0.31244201  0.06617760  1
  Pb  Pb151  1  0.53313423  0.31244201  0.56617760  1
  Pb  Pb152  1  0.53313423  0.64577534  0.06617760  1
  Pb  Pb153  1  0.53313423  0.64577534  0.56617760  1
  Pb  Pb154  1  0.53313423  0.97910868  0.06617760  1
  Pb  Pb155  1  0.53313423  0.97910868  0.56617760  1
  Pb  Pb156  1  0.86646756  0.31244201  0.06617760  1
  Pb  Pb157  1  0.86646756  0.31244201  0.56617760  1
  Pb  Pb158  1  0.86646756  0.64577534  0.06617760  1
  Pb  Pb159  1  0.86646756  0.64577534  0.56617760  1
  Pb  Pb160  1  0.86646756  0.97910868  0.06617760  1
  Pb  Pb161  1  0.86646756  0.97910868  0.56617760  1
  Pb  Pb162  1  0.09962322  0.23842924  0.23687239  1
  Pb  Pb163  1  0.09962322  0.23842924  0.73687239  1
  Pb  Pb164  1  0.09962322  0.57176257  0.23687239  1
  Pb  Pb165  1  0.09962322  0.57176257  0.73687239  1
  Pb  Pb166  1  0.09962322  0.90509591  0.23687239  1
  Pb  Pb167  1  0.09962322  0.90509591  0.73687239  1
  Pb  Pb168  1  0.43295656  0.23842924  0.23687239  1
  Pb  Pb169  1  0.43295656  0.23842924  0.73687239  1
  Pb  Pb170  1  0.43295656  0.57176257  0.23687239  1
  Pb  Pb171  1  0.43295656  0.57176257  0.73687239  1
  Pb  Pb172  1  0.43295656  0.90509591  0.23687239  1
  Pb  Pb173  1  0.43295656  0.90509591  0.73687239  1
  Pb  Pb174  1  0.76628989  0.23842924  0.23687239  1
  Pb  Pb175  1  0.76628989  0.23842924  0.73687239  1
  Pb  Pb176  1  0.76628989  0.57176257  0.23687239  1
  Pb  Pb177  1  0.76628989  0.57176257  0.73687239  1
  Pb  Pb178  1  0.76628989  0.90509591  0.23687239  1
  Pb  Pb179  1  0.76628989  0.90509591  0.73687239  1
  Pb  Pb180  1  0.23371011  0.09490409  0.26312761  1
  Pb  Pb181  1  0.23371011  0.09490409  0.76312761  1
  Pb  Pb182  1  0.23371011  0.42823743  0.26312761  1
  Pb  Pb183  1  0.23371011  0.42823743  0.76312761  1
  Pb  Pb184  1  0.23371011  0.76157076  0.26312761  1
  Pb  Pb185  1  0.23371011  0.76157076  0.76312761  1
  Pb  Pb186  1  0.56704344  0.09490409  0.26312761  1
  Pb  Pb187  1  0.56704344  0.09490409  0.76312761  1
  Pb  Pb188  1  0.56704344  0.42823743  0.26312761  1
  Pb  Pb189  1  0.56704344  0.42823743  0.76312761  1
  Pb  Pb190  1  0.56704344  0.76157076  0.26312761  1
  Pb  Pb191  1  0.56704344  0.76157076  0.76312761  1
  Pb  Pb192  1  0.90037678  0.09490409  0.26312761  1
  Pb  Pb193  1  0.90037678  0.09490409  0.76312761  1
  Pb  Pb194  1  0.90037678  0.42823743  0.26312761  1
  Pb  Pb195  1  0.90037678  0.42823743  0.76312761  1
  Pb  Pb196  1  0.90037678  0.76157076  0.26312761  1
  Pb  Pb197  1  0.90037678  0.76157076  0.76312761  1
  Pb  Pb198  1  0.13353244  0.02089132  0.43382240  1
  Pb  Pb199  1  0.13353244  0.02089132  0.93382240  1
  Pb  Pb200  1  0.13353244  0.35422466  0.43382240  1
  Pb  Pb201  1  0.13353244  0.35422466  0.93382240  1
  Pb  Pb202  1  0.13353244  0.68755799  0.43382240  1
  Pb  Pb203  1  0.13353244  0.68755799  0.93382240  1
  Pb  Pb204  1  0.46686577  0.02089132  0.43382240  1
  Pb  Pb205  1  0.46686577  0.02089132  0.93382240  1
  Pb  Pb206  1  0.46686577  0.35422466  0.43382240  1
  Pb  Pb207  1  0.46686577  0.35422466  0.93382240  1
  Pb  Pb208  1  0.46686577  0.68755799  0.43382240  1
  Pb  Pb209  1  0.46686577  0.68755799  0.93382240  1
  Pb  Pb210  1  0.80019911  0.02089132  0.43382240  1
  Pb  Pb211  1  0.80019911  0.02089132  0.93382240  1
  Pb  Pb212  1  0.80019911  0.35422466  0.43382240  1
  Pb  Pb213  1  0.80019911  0.35422466  0.93382240  1
  Pb  Pb214  1  0.80019911  0.68755799  0.43382240  1
  Pb  Pb215  1  0.80019911  0.68755799  0.93382240  1
  O  O216  1  0.16639589  0.26575522  0.00244481  1
  O  O217  1  0.16639589  0.26575522  0.50244481  1
  O  O218  1  0.16639589  0.59908856  0.00244481  1
  O  O219  1  0.16639589  0.59908856  0.50244481  1
  O  O220  1  0.16639589  0.93242189  0.00244481  1
  O  O221  1  0.16639589  0.93242189  0.50244481  1
  O  O222  1  0.49972923  0.26575522  0.00244481  1
  O  O223  1  0.49972923  0.26575522  0.50244481  1
  O  O224  1  0.49972923  0.59908856  0.00244481  1
  O  O225  1  0.49972923  0.59908856  0.50244481  1
  O  O226  1  0.49972923  0.93242189  0.00244481  1
  O  O227  1  0.49972923  0.93242189  0.50244481  1
  O  O228  1  0.83306256  0.26575522  0.00244481  1
  O  O229  1  0.83306256  0.26575522  0.50244481  1
  O  O230  1  0.83306256  0.59908856  0.00244481  1
  O  O231  1  0.83306256  0.59908856  0.50244481  1
  O  O232  1  0.83306256  0.93242189  0.00244481  1
  O  O233  1  0.83306256  0.93242189  0.50244481  1
  O  O234  1  0.27030153  0.13364833  0.32570444  1
  O  O235  1  0.27030153  0.13364833  0.82570444  1
  O  O236  1  0.27030153  0.46698166  0.32570444  1
  O  O237  1  0.27030153  0.46698166  0.82570444  1
  O  O238  1  0.27030153  0.80031500  0.32570444  1
  O  O239  1  0.27030153  0.80031500  0.82570444  1
  O  O240  1  0.60363486  0.13364833  0.32570444  1
  O  O241  1  0.60363486  0.13364833  0.82570444  1
  O  O242  1  0.60363486  0.46698166  0.32570444  1
  O  O243  1  0.60363486  0.46698166  0.82570444  1
  O  O244  1  0.60363486  0.80031500  0.32570444  1
  O  O245  1  0.60363486  0.80031500  0.82570444  1
  O  O246  1  0.93696819  0.13364833  0.32570444  1
  O  O247  1  0.93696819  0.13364833  0.82570444  1
  O  O248  1  0.93696819  0.46698166  0.32570444  1
  O  O249  1  0.93696819  0.46698166  0.82570444  1
  O  O250  1  0.93696819  0.80031500  0.32570444  1
  O  O251  1  0.93696819  0.80031500  0.82570444  1
  O  O252  1  0.31488307  0.26035362  0.00741797  1
  O  O253  1  0.31488307  0.26035362  0.50741797  1
  O  O254  1  0.31488307  0.59368695  0.00741797  1
  O  O255  1  0.31488307  0.59368695  0.50741797  1
  O  O256  1  0.31488307  0.92702029  0.00741797  1
  O  O257  1  0.31488307  0.92702029  0.50741797  1
  O  O258  1  0.64821640  0.26035362  0.00741797  1
  O  O259  1  0.64821640  0.26035362  0.50741797  1
  O  O260  1  0.64821640  0.59368695  0.00741797  1
  O  O261  1  0.64821640  0.59368695  0.50741797  1
  O  O262  1  0.64821640  0.92702029  0.00741797  1
  O  O263  1  0.64821640  0.92702029  0.50741797  1
  O  O264  1  0.98154973  0.26035362  0.00741797  1
  O  O265  1  0.98154973  0.26035362  0.50741797  1
  O  O266  1  0.98154973  0.59368695  0.00741797  1
  O  O267  1  0.98154973  0.59368695  0.50741797  1
  O  O268  1  0.98154973  0.92702029  0.00741797  1
  O  O269  1  0.98154973  0.92702029  0.50741797  1
  O  O270  1  0.16693744  0.06757811  0.49755519  1
  O  O271  1  0.16693744  0.06757811  0.99755519  1
  O  O272  1  0.16693744  0.40091144  0.49755519  1
  O  O273  1  0.16693744  0.40091144  0.99755519  1
  O  O274  1  0.16693744  0.73424478  0.49755519  1
  O  O275  1  0.16693744  0.73424478  0.99755519  1
  O  O276  1  0.50027077  0.06757811  0.49755519  1
  O  O277  1  0.50027077  0.06757811  0.99755519  1
  O  O278  1  0.50027077  0.40091144  0.49755519  1
  O  O279  1  0.50027077  0.40091144  0.99755519  1
  O  O280  1  0.50027077  0.73424478  0.49755519  1
  O  O281  1  0.50027077  0.73424478  0.99755519  1
  O  O282  1  0.83360411  0.06757811  0.49755519  1
  O  O283  1  0.83360411  0.06757811  0.99755519  1
  O  O284  1  0.83360411  0.40091144  0.49755519  1
  O  O285  1  0.83360411  0.40091144  0.99755519  1
  O  O286  1  0.83360411  0.73424478  0.49755519  1
  O  O287  1  0.83360411  0.73424478  0.99755519  1
  O  O288  1  0.01845027  0.07297971  0.49258203  1
  O  O289  1  0.01845027  0.07297971  0.99258203  1
  O  O290  1  0.01845027  0.40631305  0.49258203  1
  O  O291  1  0.01845027  0.40631305  0.99258203  1
  O  O292  1  0.01845027  0.73964638  0.49258203  1
  O  O293  1  0.01845027  0.73964638  0.99258203  1
  O  O294  1  0.35178360  0.07297971  0.49258203  1
  O  O295  1  0.35178360  0.07297971  0.99258203  1
  O  O296  1  0.35178360  0.40631305  0.49258203  1
  O  O297  1  0.35178360  0.40631305  0.99258203  1
  O  O298  1  0.35178360  0.73964638  0.49258203  1
  O  O299  1  0.35178360  0.73964638  0.99258203  1
  O  O300  1  0.68511693  0.07297971  0.49258203  1
  O  O301  1  0.68511693  0.07297971  0.99258203  1
  O  O302  1  0.68511693  0.40631305  0.49258203  1
  O  O303  1  0.68511693  0.40631305  0.99258203  1
  O  O304  1  0.68511693  0.73964638  0.49258203  1
  O  O305  1  0.68511693  0.73964638  0.99258203  1
  O  O306  1  0.06303181  0.19968500  0.17429556  1
  O  O307  1  0.06303181  0.19968500  0.67429556  1
  O  O308  1  0.06303181  0.53301834  0.17429556  1
  O  O309  1  0.06303181  0.53301834  0.67429556  1
  O  O310  1  0.06303181  0.86635167  0.17429556  1
  O  O311  1  0.06303181  0.86635167  0.67429556  1
  O  O312  1  0.39636514  0.19968500  0.17429556  1
  O  O313  1  0.39636514  0.19968500  0.67429556  1
  O  O314  1  0.39636514  0.53301834  0.17429556  1
  O  O315  1  0.39636514  0.53301834  0.67429556  1
  O  O316  1  0.39636514  0.86635167  0.17429556  1
  O  O317  1  0.39636514  0.86635167  0.67429556  1
  O  O318  1  0.72969847  0.19968500  0.17429556  1
  O  O319  1  0.72969847  0.19968500  0.67429556  1
  O  O320  1  0.72969847  0.53301834  0.17429556  1
  O  O321  1  0.72969847  0.53301834  0.67429556  1
  O  O322  1  0.72969847  0.86635167  0.17429556  1
  O  O323  1  0.72969847  0.86635167  0.67429556  1
  O  O324  1  0.22126283  0.17347993  0.18407990  1
  O  O325  1  0.22126283  0.17347993  0.68407990  1
  O  O326  1  0.22126283  0.50681326  0.18407990  1
  O  O327  1  0.22126283  0.50681326  0.68407990  1
  O  O328  1  0.22126283  0.84014660  0.18407990  1
  O  O329  1  0.22126283  0.84014660  0.68407990  1
  O  O330  1  0.55459616  0.17347993  0.18407990  1
  O  O331  1  0.55459616  0.17347993  0.68407990  1
  O  O332  1  0.55459616  0.50681326  0.18407990  1
  O  O333  1  0.55459616  0.50681326  0.68407990  1
  O  O334  1  0.55459616  0.84014660  0.18407990  1
  O  O335  1  0.55459616  0.84014660  0.68407990  1
  O  O336  1  0.88792949  0.17347993  0.18407990  1
  O  O337  1  0.88792949  0.17347993  0.68407990  1
  O  O338  1  0.88792949  0.50681326  0.18407990  1
  O  O339  1  0.88792949  0.50681326  0.68407990  1
  O  O340  1  0.88792949  0.84014660  0.18407990  1
  O  O341  1  0.88792949  0.84014660  0.68407990  1
  O  O342  1  0.11207051  0.15985340  0.31592010  1
  O  O343  1  0.11207051  0.15985340  0.81592010  1
  O  O344  1  0.11207051  0.49318674  0.31592010  1
  O  O345  1  0.11207051  0.49318674  0.81592010  1
  O  O346  1  0.11207051  0.82652007  0.31592010  1
  O  O347  1  0.11207051  0.82652007  0.81592010  1
  O  O348  1  0.44540384  0.15985340  0.31592010  1
  O  O349  1  0.44540384  0.15985340  0.81592010  1
  O  O350  1  0.44540384  0.49318674  0.31592010  1
  O  O351  1  0.44540384  0.49318674  0.81592010  1
  O  O352  1  0.44540384  0.82652007  0.31592010  1
  O  O353  1  0.44540384  0.82652007  0.81592010  1
  O  O354  1  0.77873717  0.15985340  0.31592010  1
  O  O355  1  0.77873717  0.15985340  0.81592010  1
  O  O356  1  0.77873717  0.49318674  0.31592010  1
  O  O357  1  0.77873717  0.49318674  0.81592010  1
  O  O358  1  0.77873717  0.82652007  0.31592010  1
  O  O359  1  0.77873717  0.82652007  0.81592010  1
