# generated using pymatgen
data_Rb2Li2SiO4
_symmetry_space_group_name_H-M   'P 1'
_cell_length_a   16.39604482
_cell_length_b   16.92956461
_cell_length_c   17.26187025
_cell_angle_alpha   83.46445976
_cell_angle_beta   74.71225281
_cell_angle_gamma   85.63556663
_symmetry_Int_Tables_number   1
_chemical_formula_structural   Rb2Li2SiO4
_chemical_formula_sum   'Rb72 Li72 Si36 O144'
_cell_volume   4586.61081452
_cell_formula_units_Z   36
loop_
 _symmetry_equiv_pos_site_id
 _symmetry_equiv_pos_as_xyz
  1  'x, y, z'
loop_
 _atom_site_type_symbol
 _atom_site_label
 _atom_site_symmetry_multiplicity
 _atom_site_fract_x
 _atom_site_fract_y
 _atom_site_fract_z
 _atom_site_occupancy
  Rb  Rb0  1  0.15834140  0.28287973  0.36784014  1
  Rb  Rb1  1  0.15834140  0.28287973  0.86784014  1
  Rb  Rb2  1  0.15834140  0.61621307  0.36784014  1
  Rb  Rb3  1  0.15834140  0.61621307  0.86784014  1
  Rb  Rb4  1  0.15834140  0.94954640  0.36784014  1
  Rb  Rb5  1  0.15834140  0.94954640  0.86784014  1
  Rb  Rb6  1  0.49167473  0.28287973  0.36784014  1
  Rb  Rb7  1  0.49167473  0.28287973  0.86784014  1
  Rb  Rb8  1  0.49167473  0.61621307  0.36784014  1
  Rb  Rb9  1  0.49167473  0.61621307  0.86784014  1
  Rb  Rb10  1  0.49167473  0.94954640  0.36784014  1
  Rb  Rb11  1  0.49167473  0.94954640  0.86784014  1
  Rb  Rb12  1  0.82500807  0.28287973  0.36784014  1
  Rb  Rb13  1  0.82500807  0.28287973  0.86784014  1
  Rb  Rb14  1  0.82500807  0.61621307  0.36784014  1
  Rb  Rb15  1  0.82500807  0.61621307  0.86784014  1
  Rb  Rb16  1  0.82500807  0.94954640  0.36784014  1
  Rb  Rb17  1  0.82500807  0.94954640  0.86784014  1
  Rb  Rb18  1  0.17499193  0.05045360  0.13215986  1
  Rb  Rb19  1  0.17499193  0.05045360  0.63215986  1
  Rb  Rb20  1  0.17499193  0.38378693  0.13215986  1
  Rb  Rb21  1  0.17499193  0.38378693  0.63215986  1
  Rb  Rb22  1  0.17499193  0.71712027  0.13215986  1
  Rb  Rb23  1  0.17499193  0.71712027  0.63215986  1
  Rb  Rb24  1  0.50832527  0.05045360  0.13215986  1
  Rb  Rb25  1  0.50832527  0.05045360  0.63215986  1
  Rb  Rb26  1  0.50832527  0.38378693  0.13215986  1
  Rb  Rb27  1  0.50832527  0.38378693  0.63215986  1
  Rb  Rb28  1  0.50832527  0.71712027  0.13215986  1
  Rb  Rb29  1  0.50832527  0.71712027  0.63215986  1
  Rb  Rb30  1  0.84165860  0.05045360  0.13215986  1
  Rb  Rb31  1  0.84165860  0.05045360  0.63215986  1
  Rb  Rb32  1  0.84165860  0.38378693  0.13215986  1
  Rb  Rb33  1  0.84165860  0.38378693  0.63215986  1
  Rb  Rb34  1  0.84165860  0.71712027  0.13215986  1
  Rb  Rb35  1  0.84165860  0.71712027  0.63215986  1
  Rb  Rb36  1  0.26379409  0.24194039  0.01036746  1
  Rb  Rb37  1  0.26379409  0.24194039  0.51036746  1
  Rb  Rb38  1  0.26379409  0.57527372  0.01036746  1
  Rb  Rb39  1  0.26379409  0.57527372  0.51036746  1
  Rb  Rb40  1  0.26379409  0.90860706  0.01036746  1
  Rb  Rb41  1  0.26379409  0.90860706  0.51036746  1
  Rb  Rb42  1  0.59712742  0.24194039  0.01036746  1
  Rb  Rb43  1  0.59712742  0.24194039  0.51036746  1
  Rb  Rb44  1  0.59712742  0.57527372  0.01036746  1
  Rb  Rb45  1  0.59712742  0.57527372  0.51036746  1
  Rb  Rb46  1  0.59712742  0.90860706  0.01036746  1
  Rb  Rb47  1  0.59712742  0.90860706  0.51036746  1
  Rb  Rb48  1  0.93046075  0.24194039  0.01036746  1
  Rb  Rb49  1  0.93046075  0.24194039  0.51036746  1
  Rb  Rb50  1  0.93046075  0.57527372  0.01036746  1
  Rb  Rb51  1  0.93046075  0.57527372  0.51036746  1
  Rb  Rb52  1  0.93046075  0.90860706  0.01036746  1
  Rb  Rb53  1  0.93046075  0.90860706  0.51036746  1
  Rb  Rb54  1  0.06953925  0.09139294  0.48963254  1
  Rb  Rb55  1  0.06953925  0.09139294  0.98963254  1
  Rb  Rb56  1  0.06953925  0.42472628  0.48963254  1
  Rb  Rb57  1  0.06953925  0.42472628  0.98963254  1
  Rb  Rb58  1  0.06953925  0.75805961  0.48963254  1
  Rb  Rb59  1  0.06953925  0.75805961  0.98963254  1
  Rb  Rb60  1  0.40287258  0.09139294  0.48963254  1
  Rb  Rb61  1  0.40287258  0.09139294  0.98963254  1
  Rb  Rb62  1  0.40287258  0.42472628  0.48963254  1
  Rb  Rb63  1  0.40287258  0.42472628  0.98963254  1
  Rb  Rb64  1  0.40287258  0.75805961  0.48963254  1
  Rb  Rb65  1  0.40287258  0.75805961  0.98963254  1
  Rb  Rb66  1  0.73620591  0.09139294  0.48963254  1
  Rb  Rb67  1  0.73620591  0.09139294  0.98963254  1
  Rb  Rb68  1  0.73620591  0.42472628  0.48963254  1
  Rb  Rb69  1  0.73620591  0.42472628  0.98963254  1
  Rb  Rb70  1  0.73620591  0.75805961  0.48963254  1
  Rb  Rb71  1  0.73620591  0.75805961  0.98963254  1
  Li  Li72  1  0.30974722  0.06221838  0.21912914  1
  Li  Li73  1  0.30974722  0.06221838  0.71912914  1
  Li  Li74  1  0.30974722  0.39555172  0.21912914  1
  Li  Li75  1  0.30974722  0.39555172  0.71912914  1
  Li  Li76  1  0.30974722  0.72888505  0.21912914  1
  Li  Li77  1  0.30974722  0.72888505  0.71912914  1
  Li  Li78  1  0.64308055  0.06221838  0.21912914  1
  Li  Li79  1  0.64308055  0.06221838  0.71912914  1
  Li  Li80  1  0.64308055  0.39555172  0.21912914  1
  Li  Li81  1  0.64308055  0.39555172  0.71912914  1
  Li  Li82  1  0.64308055  0.72888505  0.21912914  1
  Li  Li83  1  0.64308055  0.72888505  0.71912914  1
  Li  Li84  1  0.97641389  0.06221838  0.21912914  1
  Li  Li85  1  0.97641389  0.06221838  0.71912914  1
  Li  Li86  1  0.97641389  0.39555172  0.21912914  1
  Li  Li87  1  0.97641389  0.39555172  0.71912914  1
  Li  Li88  1  0.97641389  0.72888505  0.21912914  1
  Li  Li89  1  0.97641389  0.72888505  0.71912914  1
  Li  Li90  1  0.02358611  0.27111495  0.28087086  1
  Li  Li91  1  0.02358611  0.27111495  0.78087086  1
  Li  Li92  1  0.02358611  0.60444828  0.28087086  1
  Li  Li93  1  0.02358611  0.60444828  0.78087086  1
  Li  Li94  1  0.02358611  0.93778162  0.28087086  1
  Li  Li95  1  0.02358611  0.93778162  0.78087086  1
  Li  Li96  1  0.35691945  0.27111495  0.28087086  1
  Li  Li97  1  0.35691945  0.27111495  0.78087086  1
  Li  Li98  1  0.35691945  0.60444828  0.28087086  1
  Li  Li99  1  0.35691945  0.60444828  0.78087086  1
  Li  Li100  1  0.35691945  0.93778162  0.28087086  1
  Li  Li101  1  0.35691945  0.93778162  0.78087086  1
  Li  Li102  1  0.69025278  0.27111495  0.28087086  1
  Li  Li103  1  0.69025278  0.27111495  0.78087086  1
  Li  Li104  1  0.69025278  0.60444828  0.28087086  1
  Li  Li105  1  0.69025278  0.60444828  0.78087086  1
  Li  Li106  1  0.69025278  0.93778162  0.28087086  1
  Li  Li107  1  0.69025278  0.93778162  0.78087086  1
  Li  Li108  1  0.23254033  0.19799738  0.20954338  1
  Li  Li109  1  0.23254033  0.19799738  0.70954338  1
  Li  Li110  1  0.23254033  0.53133072  0.20954338  1
  Li  Li111  1  0.23254033  0.53133072  0.70954338  1
  Li  Li112  1  0.23254033  0.86466405  0.20954338  1
  Li  Li113  1  0.23254033  0.86466405  0.70954338  1
  Li  Li114  1  0.56587366  0.19799738  0.20954338  1
  Li  Li115  1  0.56587366  0.19799738  0.70954338  1
  Li  Li116  1  0.56587366  0.53133072  0.20954338  1
  Li  Li117  1  0.56587366  0.53133072  0.70954338  1
  Li  Li118  1  0.56587366  0.86466405  0.20954338  1
  Li  Li119  1  0.56587366  0.86466405  0.70954338  1
  Li  Li120  1  0.89920699  0.19799738  0.20954338  1
  Li  Li121  1  0.89920699  0.19799738  0.70954338  1
  Li  Li122  1  0.89920699  0.53133072  0.20954338  1
  Li  Li123  1  0.89920699  0.53133072  0.70954338  1
  Li  Li124  1  0.89920699  0.86466405  0.20954338  1
  Li  Li125  1  0.89920699  0.86466405  0.70954338  1
  Li  Li126  1  0.10079301  0.13533595  0.29045662  1
  Li  Li127  1  0.10079301  0.13533595  0.79045662  1
  Li  Li128  1  0.10079301  0.46866928  0.29045662  1
  Li  Li129  1  0.10079301  0.46866928  0.79045662  1
  Li  Li130  1  0.10079301  0.80200262  0.29045662  1
  Li  Li131  1  0.10079301  0.80200262  0.79045662  1
  Li  Li132  1  0.43412634  0.13533595  0.29045662  1
  Li  Li133  1  0.43412634  0.13533595  0.79045662  1
  Li  Li134  1  0.43412634  0.46866928  0.29045662  1
  Li  Li135  1  0.43412634  0.46866928  0.79045662  1
  Li  Li136  1  0.43412634  0.80200262  0.29045662  1
  Li  Li137  1  0.43412634  0.80200262  0.79045662  1
  Li  Li138  1  0.76745967  0.13533595  0.29045662  1
  Li  Li139  1  0.76745967  0.13533595  0.79045662  1
  Li  Li140  1  0.76745967  0.46866928  0.29045662  1
  Li  Li141  1  0.76745967  0.46866928  0.79045662  1
  Li  Li142  1  0.76745967  0.80200262  0.29045662  1
  Li  Li143  1  0.76745967  0.80200262  0.79045662  1
  Si  Si144  1  0.04930807  0.22928140  0.13863021  1
  Si  Si145  1  0.04930807  0.22928140  0.63863021  1
  Si  Si146  1  0.04930807  0.56261473  0.13863021  1
  Si  Si147  1  0.04930807  0.56261473  0.63863021  1
  Si  Si148  1  0.04930807  0.89594806  0.13863021  1
  Si  Si149  1  0.04930807  0.89594806  0.63863021  1
  Si  Si150  1  0.38264140  0.22928140  0.13863021  1
  Si  Si151  1  0.38264140  0.22928140  0.63863021  1
  Si  Si152  1  0.38264140  0.56261473  0.13863021  1
  Si  Si153  1  0.38264140  0.56261473  0.63863021  1
  Si  Si154  1  0.38264140  0.89594806  0.13863021  1
  Si  Si155  1  0.38264140  0.89594806  0.63863021  1
  Si  Si156  1  0.71597473  0.22928140  0.13863021  1
  Si  Si157  1  0.71597473  0.22928140  0.63863021  1
  Si  Si158  1  0.71597473  0.56261473  0.13863021  1
  Si  Si159  1  0.71597473  0.56261473  0.63863021  1
  Si  Si160  1  0.71597473  0.89594806  0.13863021  1
  Si  Si161  1  0.71597473  0.89594806  0.63863021  1
  Si  Si162  1  0.28402527  0.10405194  0.36136979  1
  Si  Si163  1  0.28402527  0.10405194  0.86136979  1
  Si  Si164  1  0.28402527  0.43738527  0.36136979  1
  Si  Si165  1  0.28402527  0.43738527  0.86136979  1
  Si  Si166  1  0.28402527  0.77071860  0.36136979  1
  Si  Si167  1  0.28402527  0.77071860  0.86136979  1
  Si  Si168  1  0.61735860  0.10405194  0.36136979  1
  Si  Si169  1  0.61735860  0.10405194  0.86136979  1
  Si  Si170  1  0.61735860  0.43738527  0.36136979  1
  Si  Si171  1  0.61735860  0.43738527  0.86136979  1
  Si  Si172  1  0.61735860  0.77071860  0.36136979  1
  Si  Si173  1  0.61735860  0.77071860  0.86136979  1
  Si  Si174  1  0.95069193  0.10405194  0.36136979  1
  Si  Si175  1  0.95069193  0.10405194  0.86136979  1
  Si  Si176  1  0.95069193  0.43738527  0.36136979  1
  Si  Si177  1  0.95069193  0.43738527  0.86136979  1
  Si  Si178  1  0.95069193  0.77071860  0.36136979  1
  Si  Si179  1  0.95069193  0.77071860  0.86136979  1
  O  O180  1  0.33264419  0.18644566  0.36087140  1
  O  O181  1  0.33264419  0.18644566  0.86087140  1
  O  O182  1  0.33264419  0.51977900  0.36087140  1
  O  O183  1  0.33264419  0.51977900  0.86087140  1
  O  O184  1  0.33264419  0.85311233  0.36087140  1
  O  O185  1  0.33264419  0.85311233  0.86087140  1
  O  O186  1  0.66597752  0.18644566  0.36087140  1
  O  O187  1  0.66597752  0.18644566  0.86087140  1
  O  O188  1  0.66597752  0.51977900  0.36087140  1
  O  O189  1  0.66597752  0.51977900  0.86087140  1
  O  O190  1  0.66597752  0.85311233  0.36087140  1
  O  O191  1  0.66597752  0.85311233  0.86087140  1
  O  O192  1  0.99931085  0.18644566  0.36087140  1
  O  O193  1  0.99931085  0.18644566  0.86087140  1
  O  O194  1  0.99931085  0.51977900  0.36087140  1
  O  O195  1  0.99931085  0.51977900  0.86087140  1
  O  O196  1  0.99931085  0.85311233  0.36087140  1
  O  O197  1  0.99931085  0.85311233  0.86087140  1
  O  O198  1  0.00068915  0.14688767  0.13912860  1
  O  O199  1  0.00068915  0.14688767  0.63912860  1
  O  O200  1  0.00068915  0.48022100  0.13912860  1
  O  O201  1  0.00068915  0.48022100  0.63912860  1
  O  O202  1  0.00068915  0.81355434  0.13912860  1
  O  O203  1  0.00068915  0.81355434  0.63912860  1
  O  O204  1  0.33402248  0.14688767  0.13912860  1
  O  O205  1  0.33402248  0.14688767  0.63912860  1
  O  O206  1  0.33402248  0.48022100  0.13912860  1
  O  O207  1  0.33402248  0.48022100  0.63912860  1
  O  O208  1  0.33402248  0.81355434  0.13912860  1
  O  O209  1  0.33402248  0.81355434  0.63912860  1
  O  O210  1  0.66735581  0.14688767  0.13912860  1
  O  O211  1  0.66735581  0.14688767  0.63912860  1
  O  O212  1  0.66735581  0.48022100  0.13912860  1
  O  O213  1  0.66735581  0.48022100  0.63912860  1
  O  O214  1  0.66735581  0.81355434  0.13912860  1
  O  O215  1  0.66735581  0.81355434  0.63912860  1
  O  O216  1  0.30607733  0.28944772  0.18974263  1
  O  O217  1  0.30607733  0.28944772  0.68974263  1
  O  O218  1  0.30607733  0.62278106  0.18974263  1
  O  O219  1  0.30607733  0.62278106  0.68974263  1
  O  O220  1  0.30607733  0.95611439  0.18974263  1
  O  O221  1  0.30607733  0.95611439  0.68974263  1
  O  O222  1  0.63941066  0.28944772  0.18974263  1
  O  O223  1  0.63941066  0.28944772  0.68974263  1
  O  O224  1  0.63941066  0.62278106  0.18974263  1
  O  O225  1  0.63941066  0.62278106  0.68974263  1
  O  O226  1  0.63941066  0.95611439  0.18974263  1
  O  O227  1  0.63941066  0.95611439  0.68974263  1
  O  O228  1  0.97274400  0.28944772  0.18974263  1
  O  O229  1  0.97274400  0.28944772  0.68974263  1
  O  O230  1  0.97274400  0.62278106  0.18974263  1
  O  O231  1  0.97274400  0.62278106  0.68974263  1
  O  O232  1  0.97274400  0.95611439  0.18974263  1
  O  O233  1  0.97274400  0.95611439  0.68974263  1
  O  O234  1  0.02725600  0.04388561  0.31025737  1
  O  O235  1  0.02725600  0.04388561  0.81025737  1
  O  O236  1  0.02725600  0.37721894  0.31025737  1
  O  O237  1  0.02725600  0.37721894  0.81025737  1
  O  O238  1  0.02725600  0.71055228  0.31025737  1
  O  O239  1  0.02725600  0.71055228  0.81025737  1
  O  O240  1  0.36058934  0.04388561  0.31025737  1
  O  O241  1  0.36058934  0.04388561  0.81025737  1
  O  O242  1  0.36058934  0.37721894  0.31025737  1
  O  O243  1  0.36058934  0.37721894  0.81025737  1
  O  O244  1  0.36058934  0.71055228  0.31025737  1
  O  O245  1  0.36058934  0.71055228  0.81025737  1
  O  O246  1  0.69392267  0.04388561  0.31025737  1
  O  O247  1  0.69392267  0.04388561  0.81025737  1
  O  O248  1  0.69392267  0.37721894  0.31025737  1
  O  O249  1  0.69392267  0.37721894  0.81025737  1
  O  O250  1  0.69392267  0.71055228  0.31025737  1
  O  O251  1  0.69392267  0.71055228  0.81025737  1
  O  O252  1  0.09090725  0.26559094  0.04628052  1
  O  O253  1  0.09090725  0.26559094  0.54628052  1
  O  O254  1  0.09090725  0.59892427  0.04628052  1
  O  O255  1  0.09090725  0.59892427  0.54628052  1
  O  O256  1  0.09090725  0.93225760  0.04628052  1
  O  O257  1  0.09090725  0.93225760  0.54628052  1
  O  O258  1  0.42424059  0.26559094  0.04628052  1
  O  O259  1  0.42424059  0.26559094  0.54628052  1
  O  O260  1  0.42424059  0.59892427  0.04628052  1
  O  O261  1  0.42424059  0.59892427  0.54628052  1
  O  O262  1  0.42424059  0.93225760  0.04628052  1
  O  O263  1  0.42424059  0.93225760  0.54628052  1
  O  O264  1  0.75757392  0.26559094  0.04628052  1
  O  O265  1  0.75757392  0.26559094  0.54628052  1
  O  O266  1  0.75757392  0.59892427  0.04628052  1
  O  O267  1  0.75757392  0.59892427  0.54628052  1
  O  O268  1  0.75757392  0.93225760  0.04628052  1
  O  O269  1  0.75757392  0.93225760  0.54628052  1
  O  O270  1  0.24242608  0.06774240  0.45371948  1
  O  O271  1  0.24242608  0.06774240  0.95371948  1
  O  O272  1  0.24242608  0.40107573  0.45371948  1
  O  O273  1  0.24242608  0.40107573  0.95371948  1
  O  O274  1  0.24242608  0.73440906  0.45371948  1
  O  O275  1  0.24242608  0.73440906  0.95371948  1
  O  O276  1  0.57575941  0.06774240  0.45371948  1
  O  O277  1  0.57575941  0.06774240  0.95371948  1
  O  O278  1  0.57575941  0.40107573  0.45371948  1
  O  O279  1  0.57575941  0.40107573  0.95371948  1
  O  O280  1  0.57575941  0.73440906  0.45371948  1
  O  O281  1  0.57575941  0.73440906  0.95371948  1
  O  O282  1  0.90909275  0.06774240  0.45371948  1
  O  O283  1  0.90909275  0.06774240  0.95371948  1
  O  O284  1  0.90909275  0.40107573  0.45371948  1
  O  O285  1  0.90909275  0.40107573  0.95371948  1
  O  O286  1  0.90909275  0.73440906  0.45371948  1
  O  O287  1  0.90909275  0.73440906  0.95371948  1
  O  O288  1  0.12054148  0.21417290  0.19308548  1
  O  O289  1  0.12054148  0.21417290  0.69308548  1
  O  O290  1  0.12054148  0.54750623  0.19308548  1
  O  O291  1  0.12054148  0.54750623  0.69308548  1
  O  O292  1  0.12054148  0.88083957  0.19308548  1
  O  O293  1  0.12054148  0.88083957  0.69308548  1
  O  O294  1  0.45387481  0.21417290  0.19308548  1
  O  O295  1  0.45387481  0.21417290  0.69308548  1
  O  O296  1  0.45387481  0.54750623  0.19308548  1
  O  O297  1  0.45387481  0.54750623  0.69308548  1
  O  O298  1  0.45387481  0.88083957  0.19308548  1
  O  O299  1  0.45387481  0.88083957  0.69308548  1
  O  O300  1  0.78720814  0.21417290  0.19308548  1
  O  O301  1  0.78720814  0.21417290  0.69308548  1
  O  O302  1  0.78720814  0.54750623  0.19308548  1
  O  O303  1  0.78720814  0.54750623  0.69308548  1
  O  O304  1  0.78720814  0.88083957  0.19308548  1
  O  O305  1  0.78720814  0.88083957  0.69308548  1
  O  O306  1  0.21279186  0.11916043  0.30691452  1
  O  O307  1  0.21279186  0.11916043  0.80691452  1
  O  O308  1  0.21279186  0.45249377  0.30691452  1
  O  O309  1  0.21279186  0.45249377  0.80691452  1
  O  O310  1  0.21279186  0.78582710  0.30691452  1
  O  O311  1  0.21279186  0.78582710  0.80691452  1
  O  O312  1  0.54612519  0.11916043  0.30691452  1
  O  O313  1  0.54612519  0.11916043  0.80691452  1
  O  O314  1  0.54612519  0.45249377  0.30691452  1
  O  O315  1  0.54612519  0.45249377  0.80691452  1
  O  O316  1  0.54612519  0.78582710  0.30691452  1
  O  O317  1  0.54612519  0.78582710  0.80691452  1
  O  O318  1  0.87945852  0.11916043  0.30691452  1
  O  O319  1  0.87945852  0.11916043  0.80691452  1
  O  O320  1  0.87945852  0.45249377  0.30691452  1
  O  O321  1  0.87945852  0.45249377  0.80691452  1
  O  O322  1  0.87945852  0.78582710  0.30691452  1
  O  O323  1  0.87945852  0.78582710  0.80691452  1
