# generated using pymatgen
data_Sr4Bi2O
_symmetry_space_group_name_H-M   'P 1'
_cell_length_a   19.91579638
_cell_length_b   19.91579638
_cell_length_c   17.51402643
_cell_angle_alpha   90.00000000
_cell_angle_beta   90.00000000
_cell_angle_gamma   90.00000000
_symmetry_Int_Tables_number   1
_chemical_formula_structural   Sr4Bi2O
_chemical_formula_sum   'Sr128 Bi64 O32'
_cell_volume   6946.74497521
_cell_formula_units_Z   32
loop_
 _symmetry_equiv_pos_site_id
 _symmetry_equiv_pos_as_xyz
  1  'x, y, z'
loop_
 _atom_site_type_symbol
 _atom_site_label
 _atom_site_symmetry_multiplicity
 _atom_site_fract_x
 _atom_site_fract_y
 _atom_site_fract_z
 _atom_site_occupancy
  Sr  Sr0  1  0.75000000  0.75000000  0.83627675  1
  Sr  Sr1  1  0.75000000  0.50000000  0.83627675  1
  Sr  Sr2  1  0.75000000  0.25000000  0.83627675  1
  Sr  Sr3  1  0.75000000  -0.00000000  0.83627675  1
  Sr  Sr4  1  0.50000000  0.75000000  0.83627675  1
  Sr  Sr5  1  0.50000000  0.50000000  0.83627675  1
  Sr  Sr6  1  0.50000000  0.25000000  0.83627675  1
  Sr  Sr7  1  0.50000000  -0.00000000  0.83627675  1
  Sr  Sr8  1  0.25000000  0.75000000  0.83627675  1
  Sr  Sr9  1  0.25000000  0.50000000  0.83627675  1
  Sr  Sr10  1  0.25000000  0.25000000  0.83627675  1
  Sr  Sr11  1  0.25000000  -0.00000000  0.83627675  1
  Sr  Sr12  1  0.00000000  0.75000000  0.83627675  1
  Sr  Sr13  1  0.00000000  0.50000000  0.83627675  1
  Sr  Sr14  1  0.00000000  0.25000000  0.83627675  1
  Sr  Sr15  1  0.00000000  -0.00000000  0.83627675  1
  Sr  Sr16  1  0.62500000  0.62500000  1.33627675  1
  Sr  Sr17  1  0.62500000  0.37500000  1.33627675  1
  Sr  Sr18  1  0.62500000  0.12500000  1.33627675  1
  Sr  Sr19  1  0.62500000  -0.12500000  1.33627675  1
  Sr  Sr20  1  0.37500000  0.62500000  1.33627675  1
  Sr  Sr21  1  0.37500000  0.37500000  1.33627675  1
  Sr  Sr22  1  0.37500000  0.12500000  1.33627675  1
  Sr  Sr23  1  0.37500000  -0.12500000  1.33627675  1
  Sr  Sr24  1  0.12500000  0.62500000  1.33627675  1
  Sr  Sr25  1  0.12500000  0.37500000  1.33627675  1
  Sr  Sr26  1  0.12500000  0.12500000  1.33627675  1
  Sr  Sr27  1  0.12500000  -0.12500000  1.33627675  1
  Sr  Sr28  1  -0.12500000  0.62500000  1.33627675  1
  Sr  Sr29  1  -0.12500000  0.37500000  1.33627675  1
  Sr  Sr30  1  -0.12500000  0.12500000  1.33627675  1
  Sr  Sr31  1  -0.12500000  -0.12500000  1.33627675  1
  Sr  Sr32  1  0.75000000  0.75000000  0.17216034  1
  Sr  Sr33  1  0.75000000  0.50000000  0.17216034  1
  Sr  Sr34  1  0.75000000  0.25000000  0.17216034  1
  Sr  Sr35  1  0.75000000  0.00000000  0.17216034  1
  Sr  Sr36  1  0.50000000  0.75000000  0.17216034  1
  Sr  Sr37  1  0.50000000  0.50000000  0.17216034  1
  Sr  Sr38  1  0.50000000  0.25000000  0.17216034  1
  Sr  Sr39  1  0.50000000  0.00000000  0.17216034  1
  Sr  Sr40  1  0.25000000  0.75000000  0.17216034  1
  Sr  Sr41  1  0.25000000  0.50000000  0.17216034  1
  Sr  Sr42  1  0.25000000  0.25000000  0.17216034  1
  Sr  Sr43  1  0.25000000  0.00000000  0.17216034  1
  Sr  Sr44  1  -0.00000000  0.75000000  0.17216034  1
  Sr  Sr45  1  -0.00000000  0.50000000  0.17216034  1
  Sr  Sr46  1  -0.00000000  0.25000000  0.17216034  1
  Sr  Sr47  1  -0.00000000  0.00000000  0.17216034  1
  Sr  Sr48  1  0.62500000  0.62500000  0.67216034  1
  Sr  Sr49  1  0.62500000  0.37500000  0.67216034  1
  Sr  Sr50  1  0.62500000  0.12500000  0.67216034  1
  Sr  Sr51  1  0.62500000  -0.12500000  0.67216034  1
  Sr  Sr52  1  0.37500000  0.62500000  0.67216034  1
  Sr  Sr53  1  0.37500000  0.37500000  0.67216034  1
  Sr  Sr54  1  0.37500000  0.12500000  0.67216034  1
  Sr  Sr55  1  0.37500000  -0.12500000  0.67216034  1
  Sr  Sr56  1  0.12500000  0.62500000  0.67216034  1
  Sr  Sr57  1  0.12500000  0.37500000  0.67216034  1
  Sr  Sr58  1  0.12500000  0.12500000  0.67216034  1
  Sr  Sr59  1  0.12500000  -0.12500000  0.67216034  1
  Sr  Sr60  1  -0.12500000  0.62500000  0.67216034  1
  Sr  Sr61  1  -0.12500000  0.37500000  0.67216034  1
  Sr  Sr62  1  -0.12500000  0.12500000  0.67216034  1
  Sr  Sr63  1  -0.12500000  -0.12500000  0.67216034  1
  Sr  Sr64  1  0.75000000  0.62500000  0.49795091  1
  Sr  Sr65  1  0.75000000  0.37500000  0.49795091  1
  Sr  Sr66  1  0.75000000  0.12500000  0.49795091  1
  Sr  Sr67  1  0.75000000  -0.12500000  0.49795091  1
  Sr  Sr68  1  0.50000000  0.62500000  0.49795091  1
  Sr  Sr69  1  0.50000000  0.37500000  0.49795091  1
  Sr  Sr70  1  0.50000000  0.12500000  0.49795091  1
  Sr  Sr71  1  0.50000000  -0.12500000  0.49795091  1
  Sr  Sr72  1  0.25000000  0.62500000  0.49795091  1
  Sr  Sr73  1  0.25000000  0.37500000  0.49795091  1
  Sr  Sr74  1  0.25000000  0.12500000  0.49795091  1
  Sr  Sr75  1  0.25000000  -0.12500000  0.49795091  1
  Sr  Sr76  1  0.00000000  0.62500000  0.49795091  1
  Sr  Sr77  1  0.00000000  0.37500000  0.49795091  1
  Sr  Sr78  1  0.00000000  0.12500000  0.49795091  1
  Sr  Sr79  1  0.00000000  -0.12500000  0.49795091  1
  Sr  Sr80  1  0.62500000  0.50000000  0.99795091  1
  Sr  Sr81  1  0.62500000  0.25000000  0.99795091  1
  Sr  Sr82  1  0.62500000  0.00000000  0.99795091  1
  Sr  Sr83  1  0.62500000  -0.25000000  0.99795091  1
  Sr  Sr84  1  0.37500000  0.50000000  0.99795091  1
  Sr  Sr85  1  0.37500000  0.25000000  0.99795091  1
  Sr  Sr86  1  0.37500000  0.00000000  0.99795091  1
  Sr  Sr87  1  0.37500000  -0.25000000  0.99795091  1
  Sr  Sr88  1  0.12500000  0.50000000  0.99795091  1
  Sr  Sr89  1  0.12500000  0.25000000  0.99795091  1
  Sr  Sr90  1  0.12500000  0.00000000  0.99795091  1
  Sr  Sr91  1  0.12500000  -0.25000000  0.99795091  1
  Sr  Sr92  1  -0.12500000  0.50000000  0.99795091  1
  Sr  Sr93  1  -0.12500000  0.25000000  0.99795091  1
  Sr  Sr94  1  -0.12500000  0.00000000  0.99795091  1
  Sr  Sr95  1  -0.12500000  -0.25000000  0.99795091  1
  Sr  Sr96  1  0.62500000  0.75000000  0.49795091  1
  Sr  Sr97  1  0.62500000  0.50000000  0.49795091  1
  Sr  Sr98  1  0.62500000  0.25000000  0.49795091  1
  Sr  Sr99  1  0.62500000  0.00000000  0.49795091  1
  Sr  Sr100  1  0.37500000  0.75000000  0.49795091  1
  Sr  Sr101  1  0.37500000  0.50000000  0.49795091  1
  Sr  Sr102  1  0.37500000  0.25000000  0.49795091  1
  Sr  Sr103  1  0.37500000  0.00000000  0.49795091  1
  Sr  Sr104  1  0.12500000  0.75000000  0.49795091  1
  Sr  Sr105  1  0.12500000  0.50000000  0.49795091  1
  Sr  Sr106  1  0.12500000  0.25000000  0.49795091  1
  Sr  Sr107  1  0.12500000  0.00000000  0.49795091  1
  Sr  Sr108  1  -0.12500000  0.75000000  0.49795091  1
  Sr  Sr109  1  -0.12500000  0.50000000  0.49795091  1
  Sr  Sr110  1  -0.12500000  0.25000000  0.49795091  1
  Sr  Sr111  1  -0.12500000  0.00000000  0.49795091  1
  Sr  Sr112  1  0.50000000  0.62500000  0.99795091  1
  Sr  Sr113  1  0.50000000  0.37500000  0.99795091  1
  Sr  Sr114  1  0.50000000  0.12500000  0.99795091  1
  Sr  Sr115  1  0.50000000  -0.12500000  0.99795091  1
  Sr  Sr116  1  0.25000000  0.62500000  0.99795091  1
  Sr  Sr117  1  0.25000000  0.37500000  0.99795091  1
  Sr  Sr118  1  0.25000000  0.12500000  0.99795091  1
  Sr  Sr119  1  0.25000000  -0.12500000  0.99795091  1
  Sr  Sr120  1  0.00000000  0.62500000  0.99795091  1
  Sr  Sr121  1  0.00000000  0.37500000  0.99795091  1
  Sr  Sr122  1  0.00000000  0.12500000  0.99795091  1
  Sr  Sr123  1  0.00000000  -0.12500000  0.99795091  1
  Sr  Sr124  1  -0.25000000  0.62500000  0.99795091  1
  Sr  Sr125  1  -0.25000000  0.37500000  0.99795091  1
  Sr  Sr126  1  -0.25000000  0.12500000  0.99795091  1
  Sr  Sr127  1  -0.25000000  -0.12500000  0.99795091  1
  Bi  Bi128  1  0.75000000  0.75000000  0.63804036  1
  Bi  Bi129  1  0.75000000  0.50000000  0.63804036  1
  Bi  Bi130  1  0.75000000  0.25000000  0.63804036  1
  Bi  Bi131  1  0.75000000  0.00000000  0.63804036  1
  Bi  Bi132  1  0.50000000  0.75000000  0.63804036  1
  Bi  Bi133  1  0.50000000  0.50000000  0.63804036  1
  Bi  Bi134  1  0.50000000  0.25000000  0.63804036  1
  Bi  Bi135  1  0.50000000  0.00000000  0.63804036  1
  Bi  Bi136  1  0.25000000  0.75000000  0.63804036  1
  Bi  Bi137  1  0.25000000  0.50000000  0.63804036  1
  Bi  Bi138  1  0.25000000  0.25000000  0.63804036  1
  Bi  Bi139  1  0.25000000  0.00000000  0.63804036  1
  Bi  Bi140  1  -0.00000000  0.75000000  0.63804036  1
  Bi  Bi141  1  -0.00000000  0.50000000  0.63804036  1
  Bi  Bi142  1  -0.00000000  0.25000000  0.63804036  1
  Bi  Bi143  1  -0.00000000  0.00000000  0.63804036  1
  Bi  Bi144  1  0.62500000  0.62500000  1.13804036  1
  Bi  Bi145  1  0.62500000  0.37500000  1.13804036  1
  Bi  Bi146  1  0.62500000  0.12500000  1.13804036  1
  Bi  Bi147  1  0.62500000  -0.12500000  1.13804036  1
  Bi  Bi148  1  0.37500000  0.62500000  1.13804036  1
  Bi  Bi149  1  0.37500000  0.37500000  1.13804036  1
  Bi  Bi150  1  0.37500000  0.12500000  1.13804036  1
  Bi  Bi151  1  0.37500000  -0.12500000  1.13804036  1
  Bi  Bi152  1  0.12500000  0.62500000  1.13804036  1
  Bi  Bi153  1  0.12500000  0.37500000  1.13804036  1
  Bi  Bi154  1  0.12500000  0.12500000  1.13804036  1
  Bi  Bi155  1  0.12500000  -0.12500000  1.13804036  1
  Bi  Bi156  1  -0.12500000  0.62500000  1.13804036  1
  Bi  Bi157  1  -0.12500000  0.37500000  1.13804036  1
  Bi  Bi158  1  -0.12500000  0.12500000  1.13804036  1
  Bi  Bi159  1  -0.12500000  -0.12500000  1.13804036  1
  Bi  Bi160  1  0.75000000  0.75000000  0.36061081  1
  Bi  Bi161  1  0.75000000  0.50000000  0.36061081  1
  Bi  Bi162  1  0.75000000  0.25000000  0.36061081  1
  Bi  Bi163  1  0.75000000  0.00000000  0.36061081  1
  Bi  Bi164  1  0.50000000  0.75000000  0.36061081  1
  Bi  Bi165  1  0.50000000  0.50000000  0.36061081  1
  Bi  Bi166  1  0.50000000  0.25000000  0.36061081  1
  Bi  Bi167  1  0.50000000  0.00000000  0.36061081  1
  Bi  Bi168  1  0.25000000  0.75000000  0.36061081  1
  Bi  Bi169  1  0.25000000  0.50000000  0.36061081  1
  Bi  Bi170  1  0.25000000  0.25000000  0.36061081  1
  Bi  Bi171  1  0.25000000  0.00000000  0.36061081  1
  Bi  Bi172  1  -0.00000000  0.75000000  0.36061081  1
  Bi  Bi173  1  -0.00000000  0.50000000  0.36061081  1
  Bi  Bi174  1  -0.00000000  0.25000000  0.36061081  1
  Bi  Bi175  1  -0.00000000  0.00000000  0.36061081  1
  Bi  Bi176  1  0.62500000  0.62500000  0.86061081  1
  Bi  Bi177  1  0.62500000  0.37500000  0.86061081  1
  Bi  Bi178  1  0.62500000  0.12500000  0.86061081  1
  Bi  Bi179  1  0.62500000  -0.12500000  0.86061081  1
  Bi  Bi180  1  0.37500000  0.62500000  0.86061081  1
  Bi  Bi181  1  0.37500000  0.37500000  0.86061081  1
  Bi  Bi182  1  0.37500000  0.12500000  0.86061081  1
  Bi  Bi183  1  0.37500000  -0.12500000  0.86061081  1
  Bi  Bi184  1  0.12500000  0.62500000  0.86061081  1
  Bi  Bi185  1  0.12500000  0.37500000  0.86061081  1
  Bi  Bi186  1  0.12500000  0.12500000  0.86061081  1
  Bi  Bi187  1  0.12500000  -0.12500000  0.86061081  1
  Bi  Bi188  1  -0.12500000  0.62500000  0.86061081  1
  Bi  Bi189  1  -0.12500000  0.37500000  0.86061081  1
  Bi  Bi190  1  -0.12500000  0.12500000  0.86061081  1
  Bi  Bi191  1  -0.12500000  -0.12500000  0.86061081  1
  O  O192  1  0.75000000  0.75000000  0.98661093  1
  O  O193  1  0.75000000  0.50000000  0.98661093  1
  O  O194  1  0.75000000  0.25000000  0.98661093  1
  O  O195  1  0.75000000  0.00000000  0.98661093  1
  O  O196  1  0.50000000  0.75000000  0.98661093  1
  O  O197  1  0.50000000  0.50000000  0.98661093  1
  O  O198  1  0.50000000  0.25000000  0.98661093  1
  O  O199  1  0.50000000  0.00000000  0.98661093  1
  O  O200  1  0.25000000  0.75000000  0.98661093  1
  O  O201  1  0.25000000  0.50000000  0.98661093  1
  O  O202  1  0.25000000  0.25000000  0.98661093  1
  O  O203  1  0.25000000  0.00000000  0.98661093  1
  O  O204  1  -0.00000000  0.75000000  0.98661093  1
  O  O205  1  -0.00000000  0.50000000  0.98661093  1
  O  O206  1  -0.00000000  0.25000000  0.98661093  1
  O  O207  1  -0.00000000  0.00000000  0.98661093  1
  O  O208  1  0.62500000  0.62500000  1.48661093  1
  O  O209  1  0.62500000  0.37500000  1.48661093  1
  O  O210  1  0.62500000  0.12500000  1.48661093  1
  O  O211  1  0.62500000  -0.12500000  1.48661093  1
  O  O212  1  0.37500000  0.62500000  1.48661093  1
  O  O213  1  0.37500000  0.37500000  1.48661093  1
  O  O214  1  0.37500000  0.12500000  1.48661093  1
  O  O215  1  0.37500000  -0.12500000  1.48661093  1
  O  O216  1  0.12500000  0.62500000  1.48661093  1
  O  O217  1  0.12500000  0.37500000  1.48661093  1
  O  O218  1  0.12500000  0.12500000  1.48661093  1
  O  O219  1  0.12500000  -0.12500000  1.48661093  1
  O  O220  1  -0.12500000  0.62500000  1.48661093  1
  O  O221  1  -0.12500000  0.37500000  1.48661093  1
  O  O222  1  -0.12500000  0.12500000  1.48661093  1
  O  O223  1  -0.12500000  -0.12500000  1.48661093  1
