# generated using pymatgen
data_Sr3LiTaO6
_symmetry_space_group_name_H-M   'P 1'
_cell_length_a   9.76331705
_cell_length_b   9.76331705
_cell_length_c   11.14844166
_cell_angle_alpha   90.00000000
_cell_angle_beta   90.00000000
_cell_angle_gamma   120.00000000
_symmetry_Int_Tables_number   1
_chemical_formula_structural   Sr3LiTaO6
_chemical_formula_sum   'Sr18 Li6 Ta6 O36'
_cell_volume   920.32153085
_cell_formula_units_Z   6
loop_
 _symmetry_equiv_pos_site_id
 _symmetry_equiv_pos_as_xyz
  1  'x, y, z'
loop_
 _atom_site_type_symbol
 _atom_site_label
 _atom_site_symmetry_multiplicity
 _atom_site_fract_x
 _atom_site_fract_y
 _atom_site_fract_z
 _atom_site_occupancy
  Sr  Sr0  1  0.33333333  0.31381688  0.41666667  1
  Sr  Sr1  1  1.00000000  0.64715021  0.75000000  1
  Sr  Sr2  1  0.66666667  0.98048355  1.08333333  1
  Sr  Sr3  1  -0.31381688  0.01951645  0.41666667  1
  Sr  Sr4  1  0.35284979  0.35284979  0.75000000  1
  Sr  Sr5  1  0.01951645  0.68618312  1.08333333  1
  Sr  Sr6  1  -0.01951645  -0.33333333  0.41666667  1
  Sr  Sr7  1  0.64715021  0.00000000  0.75000000  1
  Sr  Sr8  1  0.31381688  0.33333333  1.08333333  1
  Sr  Sr9  1  -0.33333333  -0.31381688  0.58333333  1
  Sr  Sr10  1  0.33333333  0.01951645  0.91666667  1
  Sr  Sr11  1  -0.00000000  0.35284979  1.25000000  1
  Sr  Sr12  1  0.31381688  -0.01951645  0.58333333  1
  Sr  Sr13  1  0.98048355  0.31381688  0.91666667  1
  Sr  Sr14  1  0.64715021  0.64715021  1.25000000  1
  Sr  Sr15  1  0.01951645  0.33333333  0.58333333  1
  Sr  Sr16  1  0.68618312  0.66666667  0.91666667  1
  Sr  Sr17  1  0.35284979  1.00000000  1.25000000  1
  Li  Li18  1  -0.00000000  -0.00000000  0.25000000  1
  Li  Li19  1  0.66666667  0.33333333  0.58333333  1
  Li  Li20  1  0.33333333  0.66666667  0.91666667  1
  Li  Li21  1  0.00000000  0.00000000  0.75000000  1
  Li  Li22  1  0.66666667  0.33333333  1.08333333  1
  Li  Li23  1  0.33333333  0.66666667  1.41666667  1
  Ta  Ta24  1  0.00000000  0.00000000  0.50000000  1
  Ta  Ta25  1  0.66666667  0.33333333  0.83333333  1
  Ta  Ta26  1  0.33333333  0.66666667  1.16666667  1
  Ta  Ta27  1  -0.00000000  -0.00000000  -0.00000000  1
  Ta  Ta28  1  0.66666667  0.33333333  0.33333333  1
  Ta  Ta29  1  0.33333333  0.66666667  0.66666667  1
  O  O30  1  0.02468067  0.17716610  0.39532531  1
  O  O31  1  0.69134734  0.51049943  0.72865864  1
  O  O32  1  0.35801400  0.84383277  1.06199197  1
  O  O33  1  -0.17716610  -0.15248543  0.39532531  1
  O  O34  1  0.48950057  0.18084790  0.72865864  1
  O  O35  1  0.15616723  0.51418124  1.06199197  1
  O  O36  1  0.15248543  -0.02468067  0.39532531  1
  O  O37  1  0.81915210  0.30865266  0.72865864  1
  O  O38  1  0.48581876  0.64198600  1.06199197  1
  O  O39  1  0.35801400  0.51418124  0.56199197  1
  O  O40  1  1.02468067  0.84751457  0.89532531  1
  O  O41  1  0.69134734  1.18084790  1.22865864  1
  O  O42  1  -0.51418124  -0.15616723  0.56199197  1
  O  O43  1  0.15248543  0.17716610  0.89532531  1
  O  O44  1  -0.18084790  0.51049943  1.22865864  1
  O  O45  1  0.15616723  -0.35801400  0.56199197  1
  O  O46  1  0.82283390  -0.02468067  0.89532531  1
  O  O47  1  0.48950057  0.30865266  1.22865864  1
  O  O48  1  -0.02468067  -0.17716610  0.60467469  1
  O  O49  1  0.64198600  0.15616723  0.93800803  1
  O  O50  1  0.30865266  0.48950057  1.27134136  1
  O  O51  1  0.17716610  0.15248543  0.60467469  1
  O  O52  1  0.84383277  0.48581876  0.93800803  1
  O  O53  1  0.51049943  0.81915210  1.27134136  1
  O  O54  1  -0.15248543  0.02468067  0.60467469  1
  O  O55  1  0.51418124  0.35801400  0.93800803  1
  O  O56  1  0.18084790  0.69134734  1.27134136  1
  O  O57  1  -0.35801400  -0.51418124  0.43800803  1
  O  O58  1  0.30865266  -0.18084790  0.77134136  1
  O  O59  1  -0.02468067  0.15248543  1.10467469  1
  O  O60  1  0.51418124  0.15616723  0.43800803  1
  O  O61  1  1.18084790  0.48950057  0.77134136  1
  O  O62  1  0.84751457  0.82283390  1.10467469  1
  O  O63  1  -0.15616723  0.35801400  0.43800803  1
  O  O64  1  0.51049943  0.69134734  0.77134136  1
  O  O65  1  0.17716610  1.02468067  1.10467469  1
