# generated using pymatgen
data_V2CdO6
_symmetry_space_group_name_H-M   'P 1'
_cell_length_a   10.03554581
_cell_length_b   10.74388733
_cell_length_c   14.22639623
_cell_angle_alpha   90.00000000
_cell_angle_beta   102.09240962
_cell_angle_gamma   90.00000000
_symmetry_Int_Tables_number   1
_chemical_formula_structural   V2CdO6
_chemical_formula_sum   'V24 Cd12 O72'
_cell_volume   1499.86531196
_cell_formula_units_Z   12
loop_
 _symmetry_equiv_pos_site_id
 _symmetry_equiv_pos_as_xyz
  1  'x, y, z'
loop_
 _atom_site_type_symbol
 _atom_site_label
 _atom_site_symmetry_multiplicity
 _atom_site_fract_x
 _atom_site_fract_y
 _atom_site_fract_z
 _atom_site_occupancy
  V  V0  1  0.23850869  0.00000000  0.33739924  1
  V  V1  1  0.23850869  0.00000000  0.83739924  1
  V  V2  1  0.23850869  0.33333333  0.33739924  1
  V  V3  1  0.23850869  0.33333333  0.83739924  1
  V  V4  1  0.23850869  0.66666667  0.33739924  1
  V  V5  1  0.23850869  0.66666667  0.83739924  1
  V  V6  1  0.73850869  0.16666667  0.33739924  1
  V  V7  1  0.73850869  0.16666667  0.83739924  1
  V  V8  1  0.73850869  0.50000000  0.33739924  1
  V  V9  1  0.73850869  0.50000000  0.83739924  1
  V  V10  1  0.73850869  0.83333333  0.33739924  1
  V  V11  1  0.73850869  0.83333333  0.83739924  1
  V  V12  1  0.76149131  0.00000000  0.16260076  1
  V  V13  1  0.76149131  0.00000000  0.66260076  1
  V  V14  1  0.76149131  0.33333333  0.16260076  1
  V  V15  1  0.76149131  0.33333333  0.66260076  1
  V  V16  1  0.76149131  0.66666667  0.16260076  1
  V  V17  1  0.76149131  0.66666667  0.66260076  1
  V  V18  1  1.26149131  0.16666667  0.16260076  1
  V  V19  1  1.26149131  0.16666667  0.66260076  1
  V  V20  1  1.26149131  0.50000000  0.16260076  1
  V  V21  1  1.26149131  0.50000000  0.66260076  1
  V  V22  1  1.26149131  0.83333333  0.16260076  1
  V  V23  1  1.26149131  0.83333333  0.66260076  1
  Cd  Cd24  1  0.00000000  0.00000000  0.00000000  1
  Cd  Cd25  1  0.00000000  0.00000000  0.50000000  1
  Cd  Cd26  1  0.00000000  0.33333333  0.00000000  1
  Cd  Cd27  1  0.00000000  0.33333333  0.50000000  1
  Cd  Cd28  1  0.00000000  0.66666667  0.00000000  1
  Cd  Cd29  1  0.00000000  0.66666667  0.50000000  1
  Cd  Cd30  1  0.50000000  0.16666667  0.00000000  1
  Cd  Cd31  1  0.50000000  0.16666667  0.50000000  1
  Cd  Cd32  1  0.50000000  0.50000000  0.00000000  1
  Cd  Cd33  1  0.50000000  0.50000000  0.50000000  1
  Cd  Cd34  1  0.50000000  0.83333333  0.00000000  1
  Cd  Cd35  1  0.50000000  0.83333333  0.50000000  1
  O  O36  1  0.09030361  0.00000000  0.37038222  1
  O  O37  1  0.09030361  0.00000000  0.87038222  1
  O  O38  1  0.09030361  0.33333333  0.37038222  1
  O  O39  1  0.09030361  0.33333333  0.87038222  1
  O  O40  1  0.09030361  0.66666667  0.37038222  1
  O  O41  1  0.09030361  0.66666667  0.87038222  1
  O  O42  1  0.59030361  0.16666667  0.37038222  1
  O  O43  1  0.59030361  0.16666667  0.87038222  1
  O  O44  1  0.59030361  0.50000000  0.37038222  1
  O  O45  1  0.59030361  0.50000000  0.87038222  1
  O  O46  1  0.59030361  0.83333333  0.37038222  1
  O  O47  1  0.59030361  0.83333333  0.87038222  1
  O  O48  1  0.24456953  0.00000000  0.19823283  1
  O  O49  1  0.24456953  0.00000000  0.69823283  1
  O  O50  1  0.24456953  0.33333333  0.19823283  1
  O  O51  1  0.24456953  0.33333333  0.69823283  1
  O  O52  1  0.24456953  0.66666667  0.19823283  1
  O  O53  1  0.24456953  0.66666667  0.69823283  1
  O  O54  1  0.74456953  0.16666667  0.19823283  1
  O  O55  1  0.74456953  0.16666667  0.69823283  1
  O  O56  1  0.74456953  0.50000000  0.19823283  1
  O  O57  1  0.74456953  0.50000000  0.69823283  1
  O  O58  1  0.74456953  0.83333333  0.19823283  1
  O  O59  1  0.74456953  0.83333333  0.69823283  1
  O  O60  1  0.75543047  0.00000000  0.30176717  1
  O  O61  1  0.75543047  0.00000000  0.80176717  1
  O  O62  1  0.75543047  0.33333333  0.30176717  1
  O  O63  1  0.75543047  0.33333333  0.80176717  1
  O  O64  1  0.75543047  0.66666667  0.30176717  1
  O  O65  1  0.75543047  0.66666667  0.80176717  1
  O  O66  1  1.25543047  0.16666667  0.30176717  1
  O  O67  1  1.25543047  0.16666667  0.80176717  1
  O  O68  1  1.25543047  0.50000000  0.30176717  1
  O  O69  1  1.25543047  0.50000000  0.80176717  1
  O  O70  1  1.25543047  0.83333333  0.30176717  1
  O  O71  1  1.25543047  0.83333333  0.80176717  1
  O  O72  1  0.36524078  0.00000000  0.43730644  1
  O  O73  1  0.36524078  0.00000000  0.93730644  1
  O  O74  1  0.36524078  0.33333333  0.43730644  1
  O  O75  1  0.36524078  0.33333333  0.93730644  1
  O  O76  1  0.36524078  0.66666667  0.43730644  1
  O  O77  1  0.36524078  0.66666667  0.93730644  1
  O  O78  1  0.86524078  0.16666667  0.43730644  1
  O  O79  1  0.86524078  0.16666667  0.93730644  1
  O  O80  1  0.86524078  0.50000000  0.43730644  1
  O  O81  1  0.86524078  0.50000000  0.93730644  1
  O  O82  1  0.86524078  0.83333333  0.43730644  1
  O  O83  1  0.86524078  0.83333333  0.93730644  1
  O  O84  1  0.63475922  -0.00000000  0.06269356  1
  O  O85  1  0.63475922  -0.00000000  0.56269356  1
  O  O86  1  0.63475922  0.33333333  0.06269356  1
  O  O87  1  0.63475922  0.33333333  0.56269356  1
  O  O88  1  0.63475922  0.66666667  0.06269356  1
  O  O89  1  0.63475922  0.66666667  0.56269356  1
  O  O90  1  1.13475922  0.16666667  0.06269356  1
  O  O91  1  1.13475922  0.16666667  0.56269356  1
  O  O92  1  1.13475922  0.50000000  0.06269356  1
  O  O93  1  1.13475922  0.50000000  0.56269356  1
  O  O94  1  1.13475922  0.83333333  0.06269356  1
  O  O95  1  1.13475922  0.83333333  0.56269356  1
  O  O96  1  0.90969639  0.00000000  0.12961778  1
  O  O97  1  0.90969639  0.00000000  0.62961778  1
  O  O98  1  0.90969639  0.33333333  0.12961778  1
  O  O99  1  0.90969639  0.33333333  0.62961778  1
  O  O100  1  0.90969639  0.66666667  0.12961778  1
  O  O101  1  0.90969639  0.66666667  0.62961778  1
  O  O102  1  1.40969639  0.16666667  0.12961778  1
  O  O103  1  1.40969639  0.16666667  0.62961778  1
  O  O104  1  1.40969639  0.50000000  0.12961778  1
  O  O105  1  1.40969639  0.50000000  0.62961778  1
  O  O106  1  1.40969639  0.83333333  0.12961778  1
  O  O107  1  1.40969639  0.83333333  0.62961778  1
