# generated using pymatgen
data_Cs2O
_symmetry_space_group_name_H-M   'P 1'
_cell_length_a   20.62958043
_cell_length_b   20.62958043
_cell_length_c   20.65988010
_cell_angle_alpha   90.00000000
_cell_angle_beta   90.00000000
_cell_angle_gamma   120.00000000
_symmetry_Int_Tables_number   1
_chemical_formula_structural   Cs2O
_chemical_formula_sum   'Cs150 O75'
_cell_volume   7614.46191659
_cell_formula_units_Z   75
loop_
 _symmetry_equiv_pos_site_id
 _symmetry_equiv_pos_as_xyz
  1  'x, y, z'
loop_
 _atom_site_type_symbol
 _atom_site_label
 _atom_site_symmetry_multiplicity
 _atom_site_fract_x
 _atom_site_fract_y
 _atom_site_fract_z
 _atom_site_occupancy
  Cs  Cs0  1  0.00000000  -0.00000000  0.26020077  1
  Cs  Cs1  1  0.00000000  0.20000000  0.26020077  1
  Cs  Cs2  1  0.00000000  0.40000000  0.26020077  1
  Cs  Cs3  1  0.00000000  0.60000000  0.26020077  1
  Cs  Cs4  1  0.00000000  0.80000000  0.26020077  1
  Cs  Cs5  1  0.20000000  -0.00000000  0.26020077  1
  Cs  Cs6  1  0.20000000  0.20000000  0.26020077  1
  Cs  Cs7  1  0.20000000  0.40000000  0.26020077  1
  Cs  Cs8  1  0.20000000  0.60000000  0.26020077  1
  Cs  Cs9  1  0.20000000  0.80000000  0.26020077  1
  Cs  Cs10  1  0.40000000  -0.00000000  0.26020077  1
  Cs  Cs11  1  0.40000000  0.20000000  0.26020077  1
  Cs  Cs12  1  0.40000000  0.40000000  0.26020077  1
  Cs  Cs13  1  0.40000000  0.60000000  0.26020077  1
  Cs  Cs14  1  0.40000000  0.80000000  0.26020077  1
  Cs  Cs15  1  0.60000000  -0.00000000  0.26020077  1
  Cs  Cs16  1  0.60000000  0.20000000  0.26020077  1
  Cs  Cs17  1  0.60000000  0.40000000  0.26020077  1
  Cs  Cs18  1  0.60000000  0.60000000  0.26020077  1
  Cs  Cs19  1  0.60000000  0.80000000  0.26020077  1
  Cs  Cs20  1  0.80000000  -0.00000000  0.26020077  1
  Cs  Cs21  1  0.80000000  0.20000000  0.26020077  1
  Cs  Cs22  1  0.80000000  0.40000000  0.26020077  1
  Cs  Cs23  1  0.80000000  0.60000000  0.26020077  1
  Cs  Cs24  1  0.80000000  0.80000000  0.26020077  1
  Cs  Cs25  1  0.13333333  0.06666667  0.59353410  1
  Cs  Cs26  1  0.13333333  0.26666667  0.59353410  1
  Cs  Cs27  1  0.13333333  0.46666667  0.59353410  1
  Cs  Cs28  1  0.13333333  0.66666667  0.59353410  1
  Cs  Cs29  1  0.13333333  0.86666667  0.59353410  1
  Cs  Cs30  1  0.33333333  0.06666667  0.59353410  1
  Cs  Cs31  1  0.33333333  0.26666667  0.59353410  1
  Cs  Cs32  1  0.33333333  0.46666667  0.59353410  1
  Cs  Cs33  1  0.33333333  0.66666667  0.59353410  1
  Cs  Cs34  1  0.33333333  0.86666667  0.59353410  1
  Cs  Cs35  1  0.53333333  0.06666667  0.59353410  1
  Cs  Cs36  1  0.53333333  0.26666667  0.59353410  1
  Cs  Cs37  1  0.53333333  0.46666667  0.59353410  1
  Cs  Cs38  1  0.53333333  0.66666667  0.59353410  1
  Cs  Cs39  1  0.53333333  0.86666667  0.59353410  1
  Cs  Cs40  1  0.73333333  0.06666667  0.59353410  1
  Cs  Cs41  1  0.73333333  0.26666667  0.59353410  1
  Cs  Cs42  1  0.73333333  0.46666667  0.59353410  1
  Cs  Cs43  1  0.73333333  0.66666667  0.59353410  1
  Cs  Cs44  1  0.73333333  0.86666667  0.59353410  1
  Cs  Cs45  1  0.93333333  0.06666667  0.59353410  1
  Cs  Cs46  1  0.93333333  0.26666667  0.59353410  1
  Cs  Cs47  1  0.93333333  0.46666667  0.59353410  1
  Cs  Cs48  1  0.93333333  0.66666667  0.59353410  1
  Cs  Cs49  1  0.93333333  0.86666667  0.59353410  1
  Cs  Cs50  1  0.06666667  0.13333333  0.92686743  1
  Cs  Cs51  1  0.06666667  0.33333333  0.92686743  1
  Cs  Cs52  1  0.06666667  0.53333333  0.92686743  1
  Cs  Cs53  1  0.06666667  0.73333333  0.92686743  1
  Cs  Cs54  1  0.06666667  0.93333333  0.92686743  1
  Cs  Cs55  1  0.26666667  0.13333333  0.92686743  1
  Cs  Cs56  1  0.26666667  0.33333333  0.92686743  1
  Cs  Cs57  1  0.26666667  0.53333333  0.92686743  1
  Cs  Cs58  1  0.26666667  0.73333333  0.92686743  1
  Cs  Cs59  1  0.26666667  0.93333333  0.92686743  1
  Cs  Cs60  1  0.46666667  0.13333333  0.92686743  1
  Cs  Cs61  1  0.46666667  0.33333333  0.92686743  1
  Cs  Cs62  1  0.46666667  0.53333333  0.92686743  1
  Cs  Cs63  1  0.46666667  0.73333333  0.92686743  1
  Cs  Cs64  1  0.46666667  0.93333333  0.92686743  1
  Cs  Cs65  1  0.66666667  0.13333333  0.92686743  1
  Cs  Cs66  1  0.66666667  0.33333333  0.92686743  1
  Cs  Cs67  1  0.66666667  0.53333333  0.92686743  1
  Cs  Cs68  1  0.66666667  0.73333333  0.92686743  1
  Cs  Cs69  1  0.66666667  0.93333333  0.92686743  1
  Cs  Cs70  1  0.86666667  0.13333333  0.92686743  1
  Cs  Cs71  1  0.86666667  0.33333333  0.92686743  1
  Cs  Cs72  1  0.86666667  0.53333333  0.92686743  1
  Cs  Cs73  1  0.86666667  0.73333333  0.92686743  1
  Cs  Cs74  1  0.86666667  0.93333333  0.92686743  1
  Cs  Cs75  1  -0.00000000  0.00000000  0.73979923  1
  Cs  Cs76  1  0.00000000  0.20000000  0.73979923  1
  Cs  Cs77  1  0.00000000  0.40000000  0.73979923  1
  Cs  Cs78  1  0.00000000  0.60000000  0.73979923  1
  Cs  Cs79  1  0.00000000  0.80000000  0.73979923  1
  Cs  Cs80  1  0.20000000  0.00000000  0.73979923  1
  Cs  Cs81  1  0.20000000  0.20000000  0.73979923  1
  Cs  Cs82  1  0.20000000  0.40000000  0.73979923  1
  Cs  Cs83  1  0.20000000  0.60000000  0.73979923  1
  Cs  Cs84  1  0.20000000  0.80000000  0.73979923  1
  Cs  Cs85  1  0.40000000  0.00000000  0.73979923  1
  Cs  Cs86  1  0.40000000  0.20000000  0.73979923  1
  Cs  Cs87  1  0.40000000  0.40000000  0.73979923  1
  Cs  Cs88  1  0.40000000  0.60000000  0.73979923  1
  Cs  Cs89  1  0.40000000  0.80000000  0.73979923  1
  Cs  Cs90  1  0.60000000  0.00000000  0.73979923  1
  Cs  Cs91  1  0.60000000  0.20000000  0.73979923  1
  Cs  Cs92  1  0.60000000  0.40000000  0.73979923  1
  Cs  Cs93  1  0.60000000  0.60000000  0.73979923  1
  Cs  Cs94  1  0.60000000  0.80000000  0.73979923  1
  Cs  Cs95  1  0.80000000  0.00000000  0.73979923  1
  Cs  Cs96  1  0.80000000  0.20000000  0.73979923  1
  Cs  Cs97  1  0.80000000  0.40000000  0.73979923  1
  Cs  Cs98  1  0.80000000  0.60000000  0.73979923  1
  Cs  Cs99  1  0.80000000  0.80000000  0.73979923  1
  Cs  Cs100  1  0.13333333  0.06666667  1.07313257  1
  Cs  Cs101  1  0.13333333  0.26666667  1.07313257  1
  Cs  Cs102  1  0.13333333  0.46666667  1.07313257  1
  Cs  Cs103  1  0.13333333  0.66666667  1.07313257  1
  Cs  Cs104  1  0.13333333  0.86666667  1.07313257  1
  Cs  Cs105  1  0.33333333  0.06666667  1.07313257  1
  Cs  Cs106  1  0.33333333  0.26666667  1.07313257  1
  Cs  Cs107  1  0.33333333  0.46666667  1.07313257  1
  Cs  Cs108  1  0.33333333  0.66666667  1.07313257  1
  Cs  Cs109  1  0.33333333  0.86666667  1.07313257  1
  Cs  Cs110  1  0.53333333  0.06666667  1.07313257  1
  Cs  Cs111  1  0.53333333  0.26666667  1.07313257  1
  Cs  Cs112  1  0.53333333  0.46666667  1.07313257  1
  Cs  Cs113  1  0.53333333  0.66666667  1.07313257  1
  Cs  Cs114  1  0.53333333  0.86666667  1.07313257  1
  Cs  Cs115  1  0.73333333  0.06666667  1.07313257  1
  Cs  Cs116  1  0.73333333  0.26666667  1.07313257  1
  Cs  Cs117  1  0.73333333  0.46666667  1.07313257  1
  Cs  Cs118  1  0.73333333  0.66666667  1.07313257  1
  Cs  Cs119  1  0.73333333  0.86666667  1.07313257  1
  Cs  Cs120  1  0.93333333  0.06666667  1.07313257  1
  Cs  Cs121  1  0.93333333  0.26666667  1.07313257  1
  Cs  Cs122  1  0.93333333  0.46666667  1.07313257  1
  Cs  Cs123  1  0.93333333  0.66666667  1.07313257  1
  Cs  Cs124  1  0.93333333  0.86666667  1.07313257  1
  Cs  Cs125  1  0.06666667  0.13333333  1.40646590  1
  Cs  Cs126  1  0.06666667  0.33333333  1.40646590  1
  Cs  Cs127  1  0.06666667  0.53333333  1.40646590  1
  Cs  Cs128  1  0.06666667  0.73333333  1.40646590  1
  Cs  Cs129  1  0.06666667  0.93333333  1.40646590  1
  Cs  Cs130  1  0.26666667  0.13333333  1.40646590  1
  Cs  Cs131  1  0.26666667  0.33333333  1.40646590  1
  Cs  Cs132  1  0.26666667  0.53333333  1.40646590  1
  Cs  Cs133  1  0.26666667  0.73333333  1.40646590  1
  Cs  Cs134  1  0.26666667  0.93333333  1.40646590  1
  Cs  Cs135  1  0.46666667  0.13333333  1.40646590  1
  Cs  Cs136  1  0.46666667  0.33333333  1.40646590  1
  Cs  Cs137  1  0.46666667  0.53333333  1.40646590  1
  Cs  Cs138  1  0.46666667  0.73333333  1.40646590  1
  Cs  Cs139  1  0.46666667  0.93333333  1.40646590  1
  Cs  Cs140  1  0.66666667  0.13333333  1.40646590  1
  Cs  Cs141  1  0.66666667  0.33333333  1.40646590  1
  Cs  Cs142  1  0.66666667  0.53333333  1.40646590  1
  Cs  Cs143  1  0.66666667  0.73333333  1.40646590  1
  Cs  Cs144  1  0.66666667  0.93333333  1.40646590  1
  Cs  Cs145  1  0.86666667  0.13333333  1.40646590  1
  Cs  Cs146  1  0.86666667  0.33333333  1.40646590  1
  Cs  Cs147  1  0.86666667  0.53333333  1.40646590  1
  Cs  Cs148  1  0.86666667  0.73333333  1.40646590  1
  Cs  Cs149  1  0.86666667  0.93333333  1.40646590  1
  O  O150  1  -0.00000000  -0.00000000  -0.00000000  1
  O  O151  1  0.00000000  0.20000000  -0.00000000  1
  O  O152  1  0.00000000  0.40000000  -0.00000000  1
  O  O153  1  0.00000000  0.60000000  -0.00000000  1
  O  O154  1  0.00000000  0.80000000  -0.00000000  1
  O  O155  1  0.20000000  -0.00000000  -0.00000000  1
  O  O156  1  0.20000000  0.20000000  -0.00000000  1
  O  O157  1  0.20000000  0.40000000  -0.00000000  1
  O  O158  1  0.20000000  0.60000000  -0.00000000  1
  O  O159  1  0.20000000  0.80000000  -0.00000000  1
  O  O160  1  0.40000000  -0.00000000  -0.00000000  1
  O  O161  1  0.40000000  0.20000000  -0.00000000  1
  O  O162  1  0.40000000  0.40000000  -0.00000000  1
  O  O163  1  0.40000000  0.60000000  -0.00000000  1
  O  O164  1  0.40000000  0.80000000  -0.00000000  1
  O  O165  1  0.60000000  -0.00000000  -0.00000000  1
  O  O166  1  0.60000000  0.20000000  -0.00000000  1
  O  O167  1  0.60000000  0.40000000  -0.00000000  1
  O  O168  1  0.60000000  0.60000000  -0.00000000  1
  O  O169  1  0.60000000  0.80000000  -0.00000000  1
  O  O170  1  0.80000000  -0.00000000  -0.00000000  1
  O  O171  1  0.80000000  0.20000000  -0.00000000  1
  O  O172  1  0.80000000  0.40000000  -0.00000000  1
  O  O173  1  0.80000000  0.60000000  -0.00000000  1
  O  O174  1  0.80000000  0.80000000  -0.00000000  1
  O  O175  1  0.13333333  0.06666667  0.33333333  1
  O  O176  1  0.13333333  0.26666667  0.33333333  1
  O  O177  1  0.13333333  0.46666667  0.33333333  1
  O  O178  1  0.13333333  0.66666667  0.33333333  1
  O  O179  1  0.13333333  0.86666667  0.33333333  1
  O  O180  1  0.33333333  0.06666667  0.33333333  1
  O  O181  1  0.33333333  0.26666667  0.33333333  1
  O  O182  1  0.33333333  0.46666667  0.33333333  1
  O  O183  1  0.33333333  0.66666667  0.33333333  1
  O  O184  1  0.33333333  0.86666667  0.33333333  1
  O  O185  1  0.53333333  0.06666667  0.33333333  1
  O  O186  1  0.53333333  0.26666667  0.33333333  1
  O  O187  1  0.53333333  0.46666667  0.33333333  1
  O  O188  1  0.53333333  0.66666667  0.33333333  1
  O  O189  1  0.53333333  0.86666667  0.33333333  1
  O  O190  1  0.73333333  0.06666667  0.33333333  1
  O  O191  1  0.73333333  0.26666667  0.33333333  1
  O  O192  1  0.73333333  0.46666667  0.33333333  1
  O  O193  1  0.73333333  0.66666667  0.33333333  1
  O  O194  1  0.73333333  0.86666667  0.33333333  1
  O  O195  1  0.93333333  0.06666667  0.33333333  1
  O  O196  1  0.93333333  0.26666667  0.33333333  1
  O  O197  1  0.93333333  0.46666667  0.33333333  1
  O  O198  1  0.93333333  0.66666667  0.33333333  1
  O  O199  1  0.93333333  0.86666667  0.33333333  1
  O  O200  1  0.06666667  0.13333333  0.66666667  1
  O  O201  1  0.06666667  0.33333333  0.66666667  1
  O  O202  1  0.06666667  0.53333333  0.66666667  1
  O  O203  1  0.06666667  0.73333333  0.66666667  1
  O  O204  1  0.06666667  0.93333333  0.66666667  1
  O  O205  1  0.26666667  0.13333333  0.66666667  1
  O  O206  1  0.26666667  0.33333333  0.66666667  1
  O  O207  1  0.26666667  0.53333333  0.66666667  1
  O  O208  1  0.26666667  0.73333333  0.66666667  1
  O  O209  1  0.26666667  0.93333333  0.66666667  1
  O  O210  1  0.46666667  0.13333333  0.66666667  1
  O  O211  1  0.46666667  0.33333333  0.66666667  1
  O  O212  1  0.46666667  0.53333333  0.66666667  1
  O  O213  1  0.46666667  0.73333333  0.66666667  1
  O  O214  1  0.46666667  0.93333333  0.66666667  1
  O  O215  1  0.66666667  0.13333333  0.66666667  1
  O  O216  1  0.66666667  0.33333333  0.66666667  1
  O  O217  1  0.66666667  0.53333333  0.66666667  1
  O  O218  1  0.66666667  0.73333333  0.66666667  1
  O  O219  1  0.66666667  0.93333333  0.66666667  1
  O  O220  1  0.86666667  0.13333333  0.66666667  1
  O  O221  1  0.86666667  0.33333333  0.66666667  1
  O  O222  1  0.86666667  0.53333333  0.66666667  1
  O  O223  1  0.86666667  0.73333333  0.66666667  1
  O  O224  1  0.86666667  0.93333333  0.66666667  1
