# generated using pymatgen
data_Bi2O3
_symmetry_space_group_name_H-M   'P 1'
_cell_length_a   17.55400804
_cell_length_b   16.12838088
_cell_length_c   14.76710741
_cell_angle_alpha   90.00000000
_cell_angle_beta   112.04710639
_cell_angle_gamma   90.00000000
_symmetry_Int_Tables_number   1
_chemical_formula_structural   Bi2O3
_chemical_formula_sum   'Bi96 O144'
_cell_volume   3875.10902354
_cell_formula_units_Z   48
loop_
 _symmetry_equiv_pos_site_id
 _symmetry_equiv_pos_as_xyz
  1  'x, y, z'
loop_
 _atom_site_type_symbol
 _atom_site_label
 _atom_site_symmetry_multiplicity
 _atom_site_fract_x
 _atom_site_fract_y
 _atom_site_fract_z
 _atom_site_occupancy
  Bi  Bi0  1  0.01339000  0.27217710  0.13773464  1
  Bi  Bi1  1  0.01339000  0.27217710  0.63773464  1
  Bi  Bi2  1  0.01339000  0.77217710  0.13773464  1
  Bi  Bi3  1  0.01339000  0.77217710  0.63773464  1
  Bi  Bi4  1  0.34672333  0.27217710  0.13773464  1
  Bi  Bi5  1  0.34672333  0.27217710  0.63773464  1
  Bi  Bi6  1  0.34672333  0.77217710  0.13773464  1
  Bi  Bi7  1  0.34672333  0.77217710  0.63773464  1
  Bi  Bi8  1  0.68005666  0.27217710  0.13773464  1
  Bi  Bi9  1  0.68005666  0.27217710  0.63773464  1
  Bi  Bi10  1  0.68005666  0.77217710  0.13773464  1
  Bi  Bi11  1  0.68005666  0.77217710  0.63773464  1
  Bi  Bi12  1  0.31994334  0.02217710  0.11226536  1
  Bi  Bi13  1  0.31994334  0.02217710  0.61226536  1
  Bi  Bi14  1  0.31994334  0.52217710  0.11226536  1
  Bi  Bi15  1  0.31994334  0.52217710  0.61226536  1
  Bi  Bi16  1  0.65327667  0.02217710  0.11226536  1
  Bi  Bi17  1  0.65327667  0.02217710  0.61226536  1
  Bi  Bi18  1  0.65327667  0.52217710  0.11226536  1
  Bi  Bi19  1  0.65327667  0.52217710  0.61226536  1
  Bi  Bi20  1  0.98661000  0.02217710  0.11226536  1
  Bi  Bi21  1  0.98661000  0.02217710  0.61226536  1
  Bi  Bi22  1  0.98661000  0.52217710  0.11226536  1
  Bi  Bi23  1  0.98661000  0.52217710  0.61226536  1
  Bi  Bi24  1  0.31994334  0.22782290  0.36226536  1
  Bi  Bi25  1  0.31994334  0.22782290  0.86226536  1
  Bi  Bi26  1  0.31994334  0.72782290  0.36226536  1
  Bi  Bi27  1  0.31994334  0.72782290  0.86226536  1
  Bi  Bi28  1  0.65327667  0.22782290  0.36226536  1
  Bi  Bi29  1  0.65327667  0.22782290  0.86226536  1
  Bi  Bi30  1  0.65327667  0.72782290  0.36226536  1
  Bi  Bi31  1  0.65327667  0.72782290  0.86226536  1
  Bi  Bi32  1  0.98661000  0.22782290  0.36226536  1
  Bi  Bi33  1  0.98661000  0.22782290  0.86226536  1
  Bi  Bi34  1  0.98661000  0.72782290  0.36226536  1
  Bi  Bi35  1  0.98661000  0.72782290  0.86226536  1
  Bi  Bi36  1  0.01339000  0.47782290  0.38773464  1
  Bi  Bi37  1  0.01339000  0.47782290  0.88773464  1
  Bi  Bi38  1  0.01339000  0.97782290  0.38773464  1
  Bi  Bi39  1  0.01339000  0.97782290  0.88773464  1
  Bi  Bi40  1  0.34672333  0.47782290  0.38773464  1
  Bi  Bi41  1  0.34672333  0.47782290  0.88773464  1
  Bi  Bi42  1  0.34672333  0.97782290  0.38773464  1
  Bi  Bi43  1  0.34672333  0.97782290  0.88773464  1
  Bi  Bi44  1  0.68005666  0.47782290  0.38773464  1
  Bi  Bi45  1  0.68005666  0.47782290  0.88773464  1
  Bi  Bi46  1  0.68005666  0.97782290  0.38773464  1
  Bi  Bi47  1  0.68005666  0.97782290  0.88773464  1
  Bi  Bi48  1  0.17350218  0.34481799  0.43502767  1
  Bi  Bi49  1  0.17350218  0.34481799  0.93502767  1
  Bi  Bi50  1  0.17350218  0.84481799  0.43502767  1
  Bi  Bi51  1  0.17350218  0.84481799  0.93502767  1
  Bi  Bi52  1  0.50683552  0.34481799  0.43502767  1
  Bi  Bi53  1  0.50683552  0.34481799  0.93502767  1
  Bi  Bi54  1  0.50683552  0.84481799  0.43502767  1
  Bi  Bi55  1  0.50683552  0.84481799  0.93502767  1
  Bi  Bi56  1  0.84016885  0.34481799  0.43502767  1
  Bi  Bi57  1  0.84016885  0.34481799  0.93502767  1
  Bi  Bi58  1  0.84016885  0.84481799  0.43502767  1
  Bi  Bi59  1  0.84016885  0.84481799  0.93502767  1
  Bi  Bi60  1  0.15983115  0.09481799  0.31497233  1
  Bi  Bi61  1  0.15983115  0.09481799  0.81497233  1
  Bi  Bi62  1  0.15983115  0.59481799  0.31497233  1
  Bi  Bi63  1  0.15983115  0.59481799  0.81497233  1
  Bi  Bi64  1  0.49316448  0.09481799  0.31497233  1
  Bi  Bi65  1  0.49316448  0.09481799  0.81497233  1
  Bi  Bi66  1  0.49316448  0.59481799  0.31497233  1
  Bi  Bi67  1  0.49316448  0.59481799  0.81497233  1
  Bi  Bi68  1  0.82649782  0.09481799  0.31497233  1
  Bi  Bi69  1  0.82649782  0.09481799  0.81497233  1
  Bi  Bi70  1  0.82649782  0.59481799  0.31497233  1
  Bi  Bi71  1  0.82649782  0.59481799  0.81497233  1
  Bi  Bi72  1  0.15983115  0.15518201  0.06497233  1
  Bi  Bi73  1  0.15983115  0.15518201  0.56497233  1
  Bi  Bi74  1  0.15983115  0.65518201  0.06497233  1
  Bi  Bi75  1  0.15983115  0.65518201  0.56497233  1
  Bi  Bi76  1  0.49316448  0.15518201  0.06497233  1
  Bi  Bi77  1  0.49316448  0.15518201  0.56497233  1
  Bi  Bi78  1  0.49316448  0.65518201  0.06497233  1
  Bi  Bi79  1  0.49316448  0.65518201  0.56497233  1
  Bi  Bi80  1  0.82649782  0.15518201  0.06497233  1
  Bi  Bi81  1  0.82649782  0.15518201  0.56497233  1
  Bi  Bi82  1  0.82649782  0.65518201  0.06497233  1
  Bi  Bi83  1  0.82649782  0.65518201  0.56497233  1
  Bi  Bi84  1  0.17350218  0.40518201  0.18502767  1
  Bi  Bi85  1  0.17350218  0.40518201  0.68502767  1
  Bi  Bi86  1  0.17350218  0.90518201  0.18502767  1
  Bi  Bi87  1  0.17350218  0.90518201  0.68502767  1
  Bi  Bi88  1  0.50683552  0.40518201  0.18502767  1
  Bi  Bi89  1  0.50683552  0.40518201  0.68502767  1
  Bi  Bi90  1  0.50683552  0.90518201  0.18502767  1
  Bi  Bi91  1  0.50683552  0.90518201  0.68502767  1
  Bi  Bi92  1  0.84016885  0.40518201  0.18502767  1
  Bi  Bi93  1  0.84016885  0.40518201  0.68502767  1
  Bi  Bi94  1  0.84016885  0.90518201  0.18502767  1
  Bi  Bi95  1  0.84016885  0.90518201  0.68502767  1
  O  O96  1  0.09044997  0.26695205  0.00723441  1
  O  O97  1  0.09044997  0.26695205  0.50723441  1
  O  O98  1  0.09044997  0.76695205  0.00723441  1
  O  O99  1  0.09044997  0.76695205  0.50723441  1
  O  O100  1  0.42378330  0.26695205  0.00723441  1
  O  O101  1  0.42378330  0.26695205  0.50723441  1
  O  O102  1  0.42378330  0.76695205  0.00723441  1
  O  O103  1  0.42378330  0.76695205  0.50723441  1
  O  O104  1  0.75711664  0.26695205  0.00723441  1
  O  O105  1  0.75711664  0.26695205  0.50723441  1
  O  O106  1  0.75711664  0.76695205  0.00723441  1
  O  O107  1  0.75711664  0.76695205  0.50723441  1
  O  O108  1  0.24288336  0.01695205  0.24276559  1
  O  O109  1  0.24288336  0.01695205  0.74276559  1
  O  O110  1  0.24288336  0.51695205  0.24276559  1
  O  O111  1  0.24288336  0.51695205  0.74276559  1
  O  O112  1  0.57621670  0.01695205  0.24276559  1
  O  O113  1  0.57621670  0.01695205  0.74276559  1
  O  O114  1  0.57621670  0.51695205  0.24276559  1
  O  O115  1  0.57621670  0.51695205  0.74276559  1
  O  O116  1  0.90955003  0.01695205  0.24276559  1
  O  O117  1  0.90955003  0.01695205  0.74276559  1
  O  O118  1  0.90955003  0.51695205  0.24276559  1
  O  O119  1  0.90955003  0.51695205  0.74276559  1
  O  O120  1  0.24288336  0.23304795  0.49276559  1
  O  O121  1  0.24288336  0.23304795  0.99276559  1
  O  O122  1  0.24288336  0.73304795  0.49276559  1
  O  O123  1  0.24288336  0.73304795  0.99276559  1
  O  O124  1  0.57621670  0.23304795  0.49276559  1
  O  O125  1  0.57621670  0.23304795  0.99276559  1
  O  O126  1  0.57621670  0.73304795  0.49276559  1
  O  O127  1  0.57621670  0.73304795  0.99276559  1
  O  O128  1  0.90955003  0.23304795  0.49276559  1
  O  O129  1  0.90955003  0.23304795  0.99276559  1
  O  O130  1  0.90955003  0.73304795  0.49276559  1
  O  O131  1  0.90955003  0.73304795  0.99276559  1
  O  O132  1  0.09044997  0.48304795  0.25723441  1
  O  O133  1  0.09044997  0.48304795  0.75723441  1
  O  O134  1  0.09044997  0.98304795  0.25723441  1
  O  O135  1  0.09044997  0.98304795  0.75723441  1
  O  O136  1  0.42378330  0.48304795  0.25723441  1
  O  O137  1  0.42378330  0.48304795  0.75723441  1
  O  O138  1  0.42378330  0.98304795  0.25723441  1
  O  O139  1  0.42378330  0.98304795  0.75723441  1
  O  O140  1  0.75711664  0.48304795  0.25723441  1
  O  O141  1  0.75711664  0.48304795  0.75723441  1
  O  O142  1  0.75711664  0.98304795  0.25723441  1
  O  O143  1  0.75711664  0.98304795  0.75723441  1
  O  O144  1  0.07887915  0.27630430  0.31116110  1
  O  O145  1  0.07887915  0.27630430  0.81116110  1
  O  O146  1  0.07887915  0.77630430  0.31116110  1
  O  O147  1  0.07887915  0.77630430  0.81116110  1
  O  O148  1  0.41221248  0.27630430  0.31116110  1
  O  O149  1  0.41221248  0.27630430  0.81116110  1
  O  O150  1  0.41221248  0.77630430  0.31116110  1
  O  O151  1  0.41221248  0.77630430  0.81116110  1
  O  O152  1  0.74554581  0.27630430  0.31116110  1
  O  O153  1  0.74554581  0.27630430  0.81116110  1
  O  O154  1  0.74554581  0.77630430  0.31116110  1
  O  O155  1  0.74554581  0.77630430  0.81116110  1
  O  O156  1  0.25445419  0.02630430  0.43883890  1
  O  O157  1  0.25445419  0.02630430  0.93883890  1
  O  O158  1  0.25445419  0.52630430  0.43883890  1
  O  O159  1  0.25445419  0.52630430  0.93883890  1
  O  O160  1  0.58778752  0.02630430  0.43883890  1
  O  O161  1  0.58778752  0.02630430  0.93883890  1
  O  O162  1  0.58778752  0.52630430  0.43883890  1
  O  O163  1  0.58778752  0.52630430  0.93883890  1
  O  O164  1  0.92112085  0.02630430  0.43883890  1
  O  O165  1  0.92112085  0.02630430  0.93883890  1
  O  O166  1  0.92112085  0.52630430  0.43883890  1
  O  O167  1  0.92112085  0.52630430  0.93883890  1
  O  O168  1  0.25445419  0.22369570  0.18883890  1
  O  O169  1  0.25445419  0.22369570  0.68883890  1
  O  O170  1  0.25445419  0.72369570  0.18883890  1
  O  O171  1  0.25445419  0.72369570  0.68883890  1
  O  O172  1  0.58778752  0.22369570  0.18883890  1
  O  O173  1  0.58778752  0.22369570  0.68883890  1
  O  O174  1  0.58778752  0.72369570  0.18883890  1
  O  O175  1  0.58778752  0.72369570  0.68883890  1
  O  O176  1  0.92112085  0.22369570  0.18883890  1
  O  O177  1  0.92112085  0.22369570  0.68883890  1
  O  O178  1  0.92112085  0.72369570  0.18883890  1
  O  O179  1  0.92112085  0.72369570  0.68883890  1
  O  O180  1  0.07887915  0.47369570  0.06116110  1
  O  O181  1  0.07887915  0.47369570  0.56116110  1
  O  O182  1  0.07887915  0.97369570  0.06116110  1
  O  O183  1  0.07887915  0.97369570  0.56116110  1
  O  O184  1  0.41221248  0.47369570  0.06116110  1
  O  O185  1  0.41221248  0.47369570  0.56116110  1
  O  O186  1  0.41221248  0.97369570  0.06116110  1
  O  O187  1  0.41221248  0.97369570  0.56116110  1
  O  O188  1  0.74554581  0.47369570  0.06116110  1
  O  O189  1  0.74554581  0.47369570  0.56116110  1
  O  O190  1  0.74554581  0.97369570  0.06116110  1
  O  O191  1  0.74554581  0.97369570  0.56116110  1
  O  O192  1  0.25931584  0.35355328  0.35366440  1
  O  O193  1  0.25931584  0.35355328  0.85366440  1
  O  O194  1  0.25931584  0.85355328  0.35366440  1
  O  O195  1  0.25931584  0.85355328  0.85366440  1
  O  O196  1  0.59264917  0.35355328  0.35366440  1
  O  O197  1  0.59264917  0.35355328  0.85366440  1
  O  O198  1  0.59264917  0.85355328  0.35366440  1
  O  O199  1  0.59264917  0.85355328  0.85366440  1
  O  O200  1  0.92598251  0.35355328  0.35366440  1
  O  O201  1  0.92598251  0.35355328  0.85366440  1
  O  O202  1  0.92598251  0.85355328  0.35366440  1
  O  O203  1  0.92598251  0.85355328  0.85366440  1
  O  O204  1  0.07401749  0.10355328  0.39633560  1
  O  O205  1  0.07401749  0.10355328  0.89633560  1
  O  O206  1  0.07401749  0.60355328  0.39633560  1
  O  O207  1  0.07401749  0.60355328  0.89633560  1
  O  O208  1  0.40735083  0.10355328  0.39633560  1
  O  O209  1  0.40735083  0.10355328  0.89633560  1
  O  O210  1  0.40735083  0.60355328  0.39633560  1
  O  O211  1  0.40735083  0.60355328  0.89633560  1
  O  O212  1  0.74068416  0.10355328  0.39633560  1
  O  O213  1  0.74068416  0.10355328  0.89633560  1
  O  O214  1  0.74068416  0.60355328  0.39633560  1
  O  O215  1  0.74068416  0.60355328  0.89633560  1
  O  O216  1  0.07401749  0.14644672  0.14633560  1
  O  O217  1  0.07401749  0.14644672  0.64633560  1
  O  O218  1  0.07401749  0.64644672  0.14633560  1
  O  O219  1  0.07401749  0.64644672  0.64633560  1
  O  O220  1  0.40735083  0.14644672  0.14633560  1
  O  O221  1  0.40735083  0.14644672  0.64633560  1
  O  O222  1  0.40735083  0.64644672  0.14633560  1
  O  O223  1  0.40735083  0.64644672  0.64633560  1
  O  O224  1  0.74068416  0.14644672  0.14633560  1
  O  O225  1  0.74068416  0.14644672  0.64633560  1
  O  O226  1  0.74068416  0.64644672  0.14633560  1
  O  O227  1  0.74068416  0.64644672  0.64633560  1
  O  O228  1  0.25931584  0.39644672  0.10366440  1
  O  O229  1  0.25931584  0.39644672  0.60366440  1
  O  O230  1  0.25931584  0.89644672  0.10366440  1
  O  O231  1  0.25931584  0.89644672  0.60366440  1
  O  O232  1  0.59264917  0.39644672  0.10366440  1
  O  O233  1  0.59264917  0.39644672  0.60366440  1
  O  O234  1  0.59264917  0.89644672  0.10366440  1
  O  O235  1  0.59264917  0.89644672  0.60366440  1
  O  O236  1  0.92598251  0.39644672  0.10366440  1
  O  O237  1  0.92598251  0.39644672  0.60366440  1
  O  O238  1  0.92598251  0.89644672  0.10366440  1
  O  O239  1  0.92598251  0.89644672  0.60366440  1
