# generated using pymatgen
data_Ba3CaTa2O9
_symmetry_space_group_name_H-M   'P 1'
_cell_length_a   17.67009277
_cell_length_b   17.67009277
_cell_length_c   14.54535285
_cell_angle_alpha   90.00000000
_cell_angle_beta   90.00000000
_cell_angle_gamma   120.00000000
_symmetry_Int_Tables_number   1
_chemical_formula_structural   Ba3CaTa2O9
_chemical_formula_sum   'Ba54 Ca18 Ta36 O162'
_cell_volume   3933.07793343
_cell_formula_units_Z   18
loop_
 _symmetry_equiv_pos_site_id
 _symmetry_equiv_pos_as_xyz
  1  'x, y, z'
loop_
 _atom_site_type_symbol
 _atom_site_label
 _atom_site_symmetry_multiplicity
 _atom_site_fract_x
 _atom_site_fract_y
 _atom_site_fract_z
 _atom_site_occupancy
  Ba  Ba0  1  0.22222222  0.11111111  0.16696836  1
  Ba  Ba1  1  0.22222222  0.11111111  0.66696836  1
  Ba  Ba2  1  0.22222222  0.44444444  0.16696836  1
  Ba  Ba3  1  0.22222222  0.44444444  0.66696836  1
  Ba  Ba4  1  0.22222222  0.77777778  0.16696836  1
  Ba  Ba5  1  0.22222222  0.77777778  0.66696836  1
  Ba  Ba6  1  0.55555556  0.11111111  0.16696836  1
  Ba  Ba7  1  0.55555556  0.11111111  0.66696836  1
  Ba  Ba8  1  0.55555556  0.44444444  0.16696836  1
  Ba  Ba9  1  0.55555556  0.44444444  0.66696836  1
  Ba  Ba10  1  0.55555556  0.77777778  0.16696836  1
  Ba  Ba11  1  0.55555556  0.77777778  0.66696836  1
  Ba  Ba12  1  0.88888889  0.11111111  0.16696836  1
  Ba  Ba13  1  0.88888889  0.11111111  0.66696836  1
  Ba  Ba14  1  0.88888889  0.44444444  0.16696836  1
  Ba  Ba15  1  0.88888889  0.44444444  0.66696836  1
  Ba  Ba16  1  0.88888889  0.77777778  0.16696836  1
  Ba  Ba17  1  0.88888889  0.77777778  0.66696836  1
  Ba  Ba18  1  0.11111111  0.22222222  0.33303164  1
  Ba  Ba19  1  0.11111111  0.22222222  0.83303164  1
  Ba  Ba20  1  0.11111111  0.55555556  0.33303164  1
  Ba  Ba21  1  0.11111111  0.55555556  0.83303164  1
  Ba  Ba22  1  0.11111111  0.88888889  0.33303164  1
  Ba  Ba23  1  0.11111111  0.88888889  0.83303164  1
  Ba  Ba24  1  0.44444444  0.22222222  0.33303164  1
  Ba  Ba25  1  0.44444444  0.22222222  0.83303164  1
  Ba  Ba26  1  0.44444444  0.55555556  0.33303164  1
  Ba  Ba27  1  0.44444444  0.55555556  0.83303164  1
  Ba  Ba28  1  0.44444444  0.88888889  0.33303164  1
  Ba  Ba29  1  0.44444444  0.88888889  0.83303164  1
  Ba  Ba30  1  0.77777778  0.22222222  0.33303164  1
  Ba  Ba31  1  0.77777778  0.22222222  0.83303164  1
  Ba  Ba32  1  0.77777778  0.55555556  0.33303164  1
  Ba  Ba33  1  0.77777778  0.55555556  0.83303164  1
  Ba  Ba34  1  0.77777778  0.88888889  0.33303164  1
  Ba  Ba35  1  0.77777778  0.88888889  0.83303164  1
  Ba  Ba36  1  0.00000000  0.00000000  0.00000000  1
  Ba  Ba37  1  0.00000000  0.00000000  0.50000000  1
  Ba  Ba38  1  0.00000000  0.33333333  0.00000000  1
  Ba  Ba39  1  0.00000000  0.33333333  0.50000000  1
  Ba  Ba40  1  0.00000000  0.66666667  0.00000000  1
  Ba  Ba41  1  0.00000000  0.66666667  0.50000000  1
  Ba  Ba42  1  0.33333333  0.00000000  0.00000000  1
  Ba  Ba43  1  0.33333333  0.00000000  0.50000000  1
  Ba  Ba44  1  0.33333333  0.33333333  0.00000000  1
  Ba  Ba45  1  0.33333333  0.33333333  0.50000000  1
  Ba  Ba46  1  0.33333333  0.66666667  0.00000000  1
  Ba  Ba47  1  0.33333333  0.66666667  0.50000000  1
  Ba  Ba48  1  0.66666667  0.00000000  0.00000000  1
  Ba  Ba49  1  0.66666667  0.00000000  0.50000000  1
  Ba  Ba50  1  0.66666667  0.33333333  0.00000000  1
  Ba  Ba51  1  0.66666667  0.33333333  0.50000000  1
  Ba  Ba52  1  0.66666667  0.66666667  0.00000000  1
  Ba  Ba53  1  0.66666667  0.66666667  0.50000000  1
  Ca  Ca54  1  0.00000000  0.00000000  0.25000000  1
  Ca  Ca55  1  0.00000000  0.00000000  0.75000000  1
  Ca  Ca56  1  0.00000000  0.33333333  0.25000000  1
  Ca  Ca57  1  0.00000000  0.33333333  0.75000000  1
  Ca  Ca58  1  0.00000000  0.66666667  0.25000000  1
  Ca  Ca59  1  0.00000000  0.66666667  0.75000000  1
  Ca  Ca60  1  0.33333333  0.00000000  0.25000000  1
  Ca  Ca61  1  0.33333333  0.00000000  0.75000000  1
  Ca  Ca62  1  0.33333333  0.33333333  0.25000000  1
  Ca  Ca63  1  0.33333333  0.33333333  0.75000000  1
  Ca  Ca64  1  0.33333333  0.66666667  0.25000000  1
  Ca  Ca65  1  0.33333333  0.66666667  0.75000000  1
  Ca  Ca66  1  0.66666667  0.00000000  0.25000000  1
  Ca  Ca67  1  0.66666667  0.00000000  0.75000000  1
  Ca  Ca68  1  0.66666667  0.33333333  0.25000000  1
  Ca  Ca69  1  0.66666667  0.33333333  0.75000000  1
  Ca  Ca70  1  0.66666667  0.66666667  0.25000000  1
  Ca  Ca71  1  0.66666667  0.66666667  0.75000000  1
  Ta  Ta72  1  0.22222222  0.11111111  0.41612132  1
  Ta  Ta73  1  0.22222222  0.11111111  0.91612132  1
  Ta  Ta74  1  0.22222222  0.44444444  0.41612132  1
  Ta  Ta75  1  0.22222222  0.44444444  0.91612132  1
  Ta  Ta76  1  0.22222222  0.77777778  0.41612132  1
  Ta  Ta77  1  0.22222222  0.77777778  0.91612132  1
  Ta  Ta78  1  0.55555556  0.11111111  0.41612132  1
  Ta  Ta79  1  0.55555556  0.11111111  0.91612132  1
  Ta  Ta80  1  0.55555556  0.44444444  0.41612132  1
  Ta  Ta81  1  0.55555556  0.44444444  0.91612132  1
  Ta  Ta82  1  0.55555556  0.77777778  0.41612132  1
  Ta  Ta83  1  0.55555556  0.77777778  0.91612132  1
  Ta  Ta84  1  0.88888889  0.11111111  0.41612132  1
  Ta  Ta85  1  0.88888889  0.11111111  0.91612132  1
  Ta  Ta86  1  0.88888889  0.44444444  0.41612132  1
  Ta  Ta87  1  0.88888889  0.44444444  0.91612132  1
  Ta  Ta88  1  0.88888889  0.77777778  0.41612132  1
  Ta  Ta89  1  0.88888889  0.77777778  0.91612132  1
  Ta  Ta90  1  0.11111111  0.22222222  0.08387868  1
  Ta  Ta91  1  0.11111111  0.22222222  0.58387868  1
  Ta  Ta92  1  0.11111111  0.55555556  0.08387868  1
  Ta  Ta93  1  0.11111111  0.55555556  0.58387868  1
  Ta  Ta94  1  0.11111111  0.88888889  0.08387868  1
  Ta  Ta95  1  0.11111111  0.88888889  0.58387868  1
  Ta  Ta96  1  0.44444444  0.22222222  0.08387868  1
  Ta  Ta97  1  0.44444444  0.22222222  0.58387868  1
  Ta  Ta98  1  0.44444444  0.55555556  0.08387868  1
  Ta  Ta99  1  0.44444444  0.55555556  0.58387868  1
  Ta  Ta100  1  0.44444444  0.88888889  0.08387868  1
  Ta  Ta101  1  0.44444444  0.88888889  0.58387868  1
  Ta  Ta102  1  0.77777778  0.22222222  0.08387868  1
  Ta  Ta103  1  0.77777778  0.22222222  0.58387868  1
  Ta  Ta104  1  0.77777778  0.55555556  0.08387868  1
  Ta  Ta105  1  0.77777778  0.55555556  0.58387868  1
  Ta  Ta106  1  0.77777778  0.88888889  0.08387868  1
  Ta  Ta107  1  0.77777778  0.88888889  0.58387868  1
  O  O108  1  0.05878801  0.27454532  0.15700729  1
  O  O109  1  0.05878801  0.27454532  0.65700729  1
  O  O110  1  0.05878801  0.60787866  0.15700729  1
  O  O111  1  0.05878801  0.60787866  0.65700729  1
  O  O112  1  0.05878801  0.94121199  0.15700729  1
  O  O113  1  0.05878801  0.94121199  0.65700729  1
  O  O114  1  0.39212134  0.27454532  0.15700729  1
  O  O115  1  0.39212134  0.27454532  0.65700729  1
  O  O116  1  0.39212134  0.60787866  0.15700729  1
  O  O117  1  0.39212134  0.60787866  0.65700729  1
  O  O118  1  0.39212134  0.94121199  0.15700729  1
  O  O119  1  0.39212134  0.94121199  0.65700729  1
  O  O120  1  0.72545468  0.27454532  0.15700729  1
  O  O121  1  0.72545468  0.27454532  0.65700729  1
  O  O122  1  0.72545468  0.60787866  0.15700729  1
  O  O123  1  0.72545468  0.60787866  0.65700729  1
  O  O124  1  0.72545468  0.94121199  0.15700729  1
  O  O125  1  0.72545468  0.94121199  0.65700729  1
  O  O126  1  0.27454532  0.05878801  0.34299271  1
  O  O127  1  0.27454532  0.05878801  0.84299271  1
  O  O128  1  0.27454532  0.39212134  0.34299271  1
  O  O129  1  0.27454532  0.39212134  0.84299271  1
  O  O130  1  0.27454532  0.72545468  0.34299271  1
  O  O131  1  0.27454532  0.72545468  0.84299271  1
  O  O132  1  0.60787866  0.05878801  0.34299271  1
  O  O133  1  0.60787866  0.05878801  0.84299271  1
  O  O134  1  0.60787866  0.39212134  0.34299271  1
  O  O135  1  0.60787866  0.39212134  0.84299271  1
  O  O136  1  0.60787866  0.72545468  0.34299271  1
  O  O137  1  0.60787866  0.72545468  0.84299271  1
  O  O138  1  0.94121199  0.05878801  0.34299271  1
  O  O139  1  0.94121199  0.05878801  0.84299271  1
  O  O140  1  0.94121199  0.39212134  0.34299271  1
  O  O141  1  0.94121199  0.39212134  0.84299271  1
  O  O142  1  0.94121199  0.72545468  0.34299271  1
  O  O143  1  0.94121199  0.72545468  0.84299271  1
  O  O144  1  0.16666667  0.16666667  0.00000000  1
  O  O145  1  0.16666667  0.16666667  0.50000000  1
  O  O146  1  0.16666667  0.50000000  0.00000000  1
  O  O147  1  0.16666667  0.50000000  0.50000000  1
  O  O148  1  0.16666667  0.83333333  0.00000000  1
  O  O149  1  0.16666667  0.83333333  0.50000000  1
  O  O150  1  0.50000000  0.16666667  0.00000000  1
  O  O151  1  0.50000000  0.16666667  0.50000000  1
  O  O152  1  0.50000000  0.50000000  0.00000000  1
  O  O153  1  0.50000000  0.50000000  0.50000000  1
  O  O154  1  0.50000000  0.83333333  0.00000000  1
  O  O155  1  0.50000000  0.83333333  0.50000000  1
  O  O156  1  0.83333333  0.16666667  0.00000000  1
  O  O157  1  0.83333333  0.16666667  0.50000000  1
  O  O158  1  0.83333333  0.50000000  0.00000000  1
  O  O159  1  0.83333333  0.50000000  0.50000000  1
  O  O160  1  0.83333333  0.83333333  0.00000000  1
  O  O161  1  0.83333333  0.83333333  0.50000000  1
  O  O162  1  -0.00000000  0.16666667  0.00000000  1
  O  O163  1  -0.00000000  0.16666667  0.50000000  1
  O  O164  1  -0.00000000  0.50000000  0.00000000  1
  O  O165  1  -0.00000000  0.50000000  0.50000000  1
  O  O166  1  -0.00000000  0.83333333  0.00000000  1
  O  O167  1  -0.00000000  0.83333333  0.50000000  1
  O  O168  1  0.33333333  0.16666667  0.00000000  1
  O  O169  1  0.33333333  0.16666667  0.50000000  1
  O  O170  1  0.33333333  0.50000000  0.00000000  1
  O  O171  1  0.33333333  0.50000000  0.50000000  1
  O  O172  1  0.33333333  0.83333333  0.00000000  1
  O  O173  1  0.33333333  0.83333333  0.50000000  1
  O  O174  1  0.66666667  0.16666667  0.00000000  1
  O  O175  1  0.66666667  0.16666667  0.50000000  1
  O  O176  1  0.66666667  0.50000000  0.00000000  1
  O  O177  1  0.66666667  0.50000000  0.50000000  1
  O  O178  1  0.66666667  0.83333333  0.00000000  1
  O  O179  1  0.66666667  0.83333333  0.50000000  1
  O  O180  1  0.21575731  0.27454532  0.15700729  1
  O  O181  1  0.21575731  0.27454532  0.65700729  1
  O  O182  1  0.21575731  0.60787866  0.15700729  1
  O  O183  1  0.21575731  0.60787866  0.65700729  1
  O  O184  1  0.21575731  0.94121199  0.15700729  1
  O  O185  1  0.21575731  0.94121199  0.65700729  1
  O  O186  1  0.54909065  0.27454532  0.15700729  1
  O  O187  1  0.54909065  0.27454532  0.65700729  1
  O  O188  1  0.54909065  0.60787866  0.15700729  1
  O  O189  1  0.54909065  0.60787866  0.65700729  1
  O  O190  1  0.54909065  0.94121199  0.15700729  1
  O  O191  1  0.54909065  0.94121199  0.65700729  1
  O  O192  1  0.88242398  0.27454532  0.15700729  1
  O  O193  1  0.88242398  0.27454532  0.65700729  1
  O  O194  1  0.88242398  0.60787866  0.15700729  1
  O  O195  1  0.88242398  0.60787866  0.65700729  1
  O  O196  1  0.88242398  0.94121199  0.15700729  1
  O  O197  1  0.88242398  0.94121199  0.65700729  1
  O  O198  1  0.11757602  0.05878801  0.34299271  1
  O  O199  1  0.11757602  0.05878801  0.84299271  1
  O  O200  1  0.11757602  0.39212134  0.34299271  1
  O  O201  1  0.11757602  0.39212134  0.84299271  1
  O  O202  1  0.11757602  0.72545468  0.34299271  1
  O  O203  1  0.11757602  0.72545468  0.84299271  1
  O  O204  1  0.45090935  0.05878801  0.34299271  1
  O  O205  1  0.45090935  0.05878801  0.84299271  1
  O  O206  1  0.45090935  0.39212134  0.34299271  1
  O  O207  1  0.45090935  0.39212134  0.84299271  1
  O  O208  1  0.45090935  0.72545468  0.34299271  1
  O  O209  1  0.45090935  0.72545468  0.84299271  1
  O  O210  1  0.78424269  0.05878801  0.34299271  1
  O  O211  1  0.78424269  0.05878801  0.84299271  1
  O  O212  1  0.78424269  0.39212134  0.34299271  1
  O  O213  1  0.78424269  0.39212134  0.84299271  1
  O  O214  1  0.78424269  0.72545468  0.34299271  1
  O  O215  1  0.78424269  0.72545468  0.84299271  1
  O  O216  1  0.05878801  0.11757602  0.15700729  1
  O  O217  1  0.05878801  0.11757602  0.65700729  1
  O  O218  1  0.05878801  0.45090935  0.15700729  1
  O  O219  1  0.05878801  0.45090935  0.65700729  1
  O  O220  1  0.05878801  0.78424269  0.15700729  1
  O  O221  1  0.05878801  0.78424269  0.65700729  1
  O  O222  1  0.39212134  0.11757602  0.15700729  1
  O  O223  1  0.39212134  0.11757602  0.65700729  1
  O  O224  1  0.39212134  0.45090935  0.15700729  1
  O  O225  1  0.39212134  0.45090935  0.65700729  1
  O  O226  1  0.39212134  0.78424269  0.15700729  1
  O  O227  1  0.39212134  0.78424269  0.65700729  1
  O  O228  1  0.72545468  0.11757602  0.15700729  1
  O  O229  1  0.72545468  0.11757602  0.65700729  1
  O  O230  1  0.72545468  0.45090935  0.15700729  1
  O  O231  1  0.72545468  0.45090935  0.65700729  1
  O  O232  1  0.72545468  0.78424269  0.15700729  1
  O  O233  1  0.72545468  0.78424269  0.65700729  1
  O  O234  1  0.27454532  0.21575731  0.34299271  1
  O  O235  1  0.27454532  0.21575731  0.84299271  1
  O  O236  1  0.27454532  0.54909065  0.34299271  1
  O  O237  1  0.27454532  0.54909065  0.84299271  1
  O  O238  1  0.27454532  0.88242398  0.34299271  1
  O  O239  1  0.27454532  0.88242398  0.84299271  1
  O  O240  1  0.60787866  0.21575731  0.34299271  1
  O  O241  1  0.60787866  0.21575731  0.84299271  1
  O  O242  1  0.60787866  0.54909065  0.34299271  1
  O  O243  1  0.60787866  0.54909065  0.84299271  1
  O  O244  1  0.60787866  0.88242398  0.34299271  1
  O  O245  1  0.60787866  0.88242398  0.84299271  1
  O  O246  1  0.94121199  0.21575731  0.34299271  1
  O  O247  1  0.94121199  0.21575731  0.84299271  1
  O  O248  1  0.94121199  0.54909065  0.34299271  1
  O  O249  1  0.94121199  0.54909065  0.84299271  1
  O  O250  1  0.94121199  0.88242398  0.34299271  1
  O  O251  1  0.94121199  0.88242398  0.84299271  1
  O  O252  1  0.16666667  0.00000000  0.00000000  1
  O  O253  1  0.16666667  0.00000000  0.50000000  1
  O  O254  1  0.16666667  0.33333333  0.00000000  1
  O  O255  1  0.16666667  0.33333333  0.50000000  1
  O  O256  1  0.16666667  0.66666667  0.00000000  1
  O  O257  1  0.16666667  0.66666667  0.50000000  1
  O  O258  1  0.50000000  0.00000000  0.00000000  1
  O  O259  1  0.50000000  0.00000000  0.50000000  1
  O  O260  1  0.50000000  0.33333333  0.00000000  1
  O  O261  1  0.50000000  0.33333333  0.50000000  1
  O  O262  1  0.50000000  0.66666667  0.00000000  1
  O  O263  1  0.50000000  0.66666667  0.50000000  1
  O  O264  1  0.83333333  0.00000000  0.00000000  1
  O  O265  1  0.83333333  0.00000000  0.50000000  1
  O  O266  1  0.83333333  0.33333333  0.00000000  1
  O  O267  1  0.83333333  0.33333333  0.50000000  1
  O  O268  1  0.83333333  0.66666667  0.00000000  1
  O  O269  1  0.83333333  0.66666667  0.50000000  1
