# generated using pymatgen
data_CsNa2BO3
_symmetry_space_group_name_H-M   'P 1'
_cell_length_a   11.50222437
_cell_length_b   12.30817924
_cell_length_c   11.10557997
_cell_angle_alpha   90.00000000
_cell_angle_beta   90.00000000
_cell_angle_gamma   90.00000000
_symmetry_Int_Tables_number   1
_chemical_formula_structural   CsNa2BO3
_chemical_formula_sum   'Cs16 Na32 B16 O48'
_cell_volume   1572.23294049
_cell_formula_units_Z   16
loop_
 _symmetry_equiv_pos_site_id
 _symmetry_equiv_pos_as_xyz
  1  'x, y, z'
loop_
 _atom_site_type_symbol
 _atom_site_label
 _atom_site_symmetry_multiplicity
 _atom_site_fract_x
 _atom_site_fract_y
 _atom_site_fract_z
 _atom_site_occupancy
  Cs  Cs0  1  0.25000000  0.25000000  0.43596852  1
  Cs  Cs1  1  0.25000000  0.25000000  0.93596852  1
  Cs  Cs2  1  0.25000000  0.75000000  0.43596852  1
  Cs  Cs3  1  0.25000000  0.75000000  0.93596852  1
  Cs  Cs4  1  0.75000000  0.25000000  0.43596852  1
  Cs  Cs5  1  0.75000000  0.25000000  0.93596852  1
  Cs  Cs6  1  0.75000000  0.75000000  0.43596852  1
  Cs  Cs7  1  0.75000000  0.75000000  0.93596852  1
  Cs  Cs8  1  0.00000000  0.00000000  0.06403148  1
  Cs  Cs9  1  0.00000000  0.00000000  0.56403148  1
  Cs  Cs10  1  0.00000000  0.50000000  0.06403148  1
  Cs  Cs11  1  0.00000000  0.50000000  0.56403148  1
  Cs  Cs12  1  0.50000000  0.00000000  0.06403148  1
  Cs  Cs13  1  0.50000000  0.00000000  0.56403148  1
  Cs  Cs14  1  0.50000000  0.50000000  0.06403148  1
  Cs  Cs15  1  0.50000000  0.50000000  0.56403148  1
  Na  Na16  1  0.25000000  0.38416998  0.18075468  1
  Na  Na17  1  0.25000000  0.38416998  0.68075468  1
  Na  Na18  1  0.25000000  0.88416998  0.18075468  1
  Na  Na19  1  0.25000000  0.88416998  0.68075468  1
  Na  Na20  1  0.75000000  0.38416998  0.18075468  1
  Na  Na21  1  0.75000000  0.38416998  0.68075468  1
  Na  Na22  1  0.75000000  0.88416998  0.18075468  1
  Na  Na23  1  0.75000000  0.88416998  0.68075468  1
  Na  Na24  1  0.25000000  0.11583002  0.18075468  1
  Na  Na25  1  0.25000000  0.11583002  0.68075468  1
  Na  Na26  1  0.25000000  0.61583002  0.18075468  1
  Na  Na27  1  0.25000000  0.61583002  0.68075468  1
  Na  Na28  1  0.75000000  0.11583002  0.18075468  1
  Na  Na29  1  0.75000000  0.11583002  0.68075468  1
  Na  Na30  1  0.75000000  0.61583002  0.18075468  1
  Na  Na31  1  0.75000000  0.61583002  0.68075468  1
  Na  Na32  1  0.00000000  0.36583002  0.31924532  1
  Na  Na33  1  0.00000000  0.36583002  0.81924532  1
  Na  Na34  1  0.00000000  0.86583002  0.31924532  1
  Na  Na35  1  0.00000000  0.86583002  0.81924532  1
  Na  Na36  1  0.50000000  0.36583002  0.31924532  1
  Na  Na37  1  0.50000000  0.36583002  0.81924532  1
  Na  Na38  1  0.50000000  0.86583002  0.31924532  1
  Na  Na39  1  0.50000000  0.86583002  0.81924532  1
  Na  Na40  1  0.00000000  0.13416998  0.31924532  1
  Na  Na41  1  0.00000000  0.13416998  0.81924532  1
  Na  Na42  1  0.00000000  0.63416998  0.31924532  1
  Na  Na43  1  0.00000000  0.63416998  0.81924532  1
  Na  Na44  1  0.50000000  0.13416998  0.31924532  1
  Na  Na45  1  0.50000000  0.13416998  0.81924532  1
  Na  Na46  1  0.50000000  0.63416998  0.31924532  1
  Na  Na47  1  0.50000000  0.63416998  0.81924532  1
  B  B48  1  0.25000000  0.00000000  0.39093513  1
  B  B49  1  0.25000000  0.00000000  0.89093513  1
  B  B50  1  0.25000000  0.50000000  0.39093513  1
  B  B51  1  0.25000000  0.50000000  0.89093513  1
  B  B52  1  0.75000000  0.00000000  0.39093513  1
  B  B53  1  0.75000000  0.00000000  0.89093513  1
  B  B54  1  0.75000000  0.50000000  0.39093513  1
  B  B55  1  0.75000000  0.50000000  0.89093513  1
  B  B56  1  0.00000000  0.25000000  0.10906487  1
  B  B57  1  0.00000000  0.25000000  0.60906487  1
  B  B58  1  0.00000000  0.75000000  0.10906487  1
  B  B59  1  0.00000000  0.75000000  0.60906487  1
  B  B60  1  0.50000000  0.25000000  0.10906487  1
  B  B61  1  0.50000000  0.25000000  0.60906487  1
  B  B62  1  0.50000000  0.75000000  0.10906487  1
  B  B63  1  0.50000000  0.75000000  0.60906487  1
  O  O64  1  0.14586446  0.00000000  0.32475507  1
  O  O65  1  0.14586446  0.00000000  0.82475507  1
  O  O66  1  0.14586446  0.50000000  0.32475507  1
  O  O67  1  0.14586446  0.50000000  0.82475507  1
  O  O68  1  0.64586446  0.00000000  0.32475507  1
  O  O69  1  0.64586446  0.00000000  0.82475507  1
  O  O70  1  0.64586446  0.50000000  0.32475507  1
  O  O71  1  0.64586446  0.50000000  0.82475507  1
  O  O72  1  0.10413554  0.25000000  0.17524493  1
  O  O73  1  0.10413554  0.25000000  0.67524493  1
  O  O74  1  0.10413554  0.75000000  0.17524493  1
  O  O75  1  0.10413554  0.75000000  0.67524493  1
  O  O76  1  0.60413554  0.25000000  0.17524493  1
  O  O77  1  0.60413554  0.25000000  0.67524493  1
  O  O78  1  0.60413554  0.75000000  0.17524493  1
  O  O79  1  0.60413554  0.75000000  0.67524493  1
  O  O80  1  0.25000000  0.00000000  0.01579896  1
  O  O81  1  0.25000000  0.00000000  0.51579896  1
  O  O82  1  0.25000000  0.50000000  0.01579896  1
  O  O83  1  0.25000000  0.50000000  0.51579896  1
  O  O84  1  0.75000000  0.00000000  0.01579896  1
  O  O85  1  0.75000000  0.00000000  0.51579896  1
  O  O86  1  0.75000000  0.50000000  0.01579896  1
  O  O87  1  0.75000000  0.50000000  0.51579896  1
  O  O88  1  0.00000000  0.25000000  0.48420104  1
  O  O89  1  0.00000000  0.25000000  0.98420104  1
  O  O90  1  0.00000000  0.75000000  0.48420104  1
  O  O91  1  0.00000000  0.75000000  0.98420104  1
  O  O92  1  0.50000000  0.25000000  0.48420104  1
  O  O93  1  0.50000000  0.25000000  0.98420104  1
  O  O94  1  0.50000000  0.75000000  0.48420104  1
  O  O95  1  0.50000000  0.75000000  0.98420104  1
  O  O96  1  0.39586446  0.25000000  0.17524493  1
  O  O97  1  0.39586446  0.25000000  0.67524493  1
  O  O98  1  0.39586446  0.75000000  0.17524493  1
  O  O99  1  0.39586446  0.75000000  0.67524493  1
  O  O100  1  0.89586446  0.25000000  0.17524493  1
  O  O101  1  0.89586446  0.25000000  0.67524493  1
  O  O102  1  0.89586446  0.75000000  0.17524493  1
  O  O103  1  0.89586446  0.75000000  0.67524493  1
  O  O104  1  0.35413554  0.00000000  0.32475507  1
  O  O105  1  0.35413554  0.00000000  0.82475507  1
  O  O106  1  0.35413554  0.50000000  0.32475507  1
  O  O107  1  0.35413554  0.50000000  0.82475507  1
  O  O108  1  0.85413554  0.00000000  0.32475507  1
  O  O109  1  0.85413554  0.00000000  0.82475507  1
  O  O110  1  0.85413554  0.50000000  0.32475507  1
  O  O111  1  0.85413554  0.50000000  0.82475507  1
