# generated using pymatgen
data_Rb6Si2O7
_symmetry_space_group_name_H-M   'P 1'
_cell_length_a   20.15067569
_cell_length_b   18.34524357
_cell_length_c   22.56237887
_cell_angle_alpha   90.00000000
_cell_angle_beta   125.30217880
_cell_angle_gamma   90.00000000
_symmetry_Int_Tables_number   1
_chemical_formula_structural   Rb6Si2O7
_chemical_formula_sum   'Rb144 Si48 O168'
_cell_volume   6806.90471031
_cell_formula_units_Z   24
loop_
 _symmetry_equiv_pos_site_id
 _symmetry_equiv_pos_as_xyz
  1  'x, y, z'
loop_
 _atom_site_type_symbol
 _atom_site_label
 _atom_site_symmetry_multiplicity
 _atom_site_fract_x
 _atom_site_fract_y
 _atom_site_fract_z
 _atom_site_occupancy
  Rb  Rb0  1  0.17444369  0.17620933  0.20477862  1
  Rb  Rb1  1  0.17444369  0.17620933  0.70477862  1
  Rb  Rb2  1  0.17444369  0.67620933  0.20477862  1
  Rb  Rb3  1  0.17444369  0.67620933  0.70477862  1
  Rb  Rb4  1  0.50777703  0.17620933  0.20477862  1
  Rb  Rb5  1  0.50777703  0.17620933  0.70477862  1
  Rb  Rb6  1  0.50777703  0.67620933  0.20477862  1
  Rb  Rb7  1  0.50777703  0.67620933  0.70477862  1
  Rb  Rb8  1  0.84111036  0.17620933  0.20477862  1
  Rb  Rb9  1  0.84111036  0.17620933  0.70477862  1
  Rb  Rb10  1  0.84111036  0.67620933  0.20477862  1
  Rb  Rb11  1  0.84111036  0.67620933  0.70477862  1
  Rb  Rb12  1  0.17444369  0.07379067  0.45477862  1
  Rb  Rb13  1  0.17444369  0.07379067  0.95477862  1
  Rb  Rb14  1  0.17444369  0.57379067  0.45477862  1
  Rb  Rb15  1  0.17444369  0.57379067  0.95477862  1
  Rb  Rb16  1  0.50777703  0.07379067  0.45477862  1
  Rb  Rb17  1  0.50777703  0.07379067  0.95477862  1
  Rb  Rb18  1  0.50777703  0.57379067  0.45477862  1
  Rb  Rb19  1  0.50777703  0.57379067  0.95477862  1
  Rb  Rb20  1  0.84111036  0.07379067  0.45477862  1
  Rb  Rb21  1  0.84111036  0.07379067  0.95477862  1
  Rb  Rb22  1  0.84111036  0.57379067  0.45477862  1
  Rb  Rb23  1  0.84111036  0.57379067  0.95477862  1
  Rb  Rb24  1  0.15888964  0.32379067  0.29522138  1
  Rb  Rb25  1  0.15888964  0.32379067  0.79522138  1
  Rb  Rb26  1  0.15888964  0.82379067  0.29522138  1
  Rb  Rb27  1  0.15888964  0.82379067  0.79522138  1
  Rb  Rb28  1  0.49222297  0.32379067  0.29522138  1
  Rb  Rb29  1  0.49222297  0.32379067  0.79522138  1
  Rb  Rb30  1  0.49222297  0.82379067  0.29522138  1
  Rb  Rb31  1  0.49222297  0.82379067  0.79522138  1
  Rb  Rb32  1  0.82555631  0.32379067  0.29522138  1
  Rb  Rb33  1  0.82555631  0.32379067  0.79522138  1
  Rb  Rb34  1  0.82555631  0.82379067  0.29522138  1
  Rb  Rb35  1  0.82555631  0.82379067  0.79522138  1
  Rb  Rb36  1  0.23585939  0.48662009  0.22780206  1
  Rb  Rb37  1  0.23585939  0.48662009  0.72780206  1
  Rb  Rb38  1  0.23585939  0.98662009  0.22780206  1
  Rb  Rb39  1  0.23585939  0.98662009  0.72780206  1
  Rb  Rb40  1  0.56919273  0.48662009  0.22780206  1
  Rb  Rb41  1  0.56919273  0.48662009  0.72780206  1
  Rb  Rb42  1  0.56919273  0.98662009  0.22780206  1
  Rb  Rb43  1  0.56919273  0.98662009  0.72780206  1
  Rb  Rb44  1  0.90252606  0.48662009  0.22780206  1
  Rb  Rb45  1  0.90252606  0.48662009  0.72780206  1
  Rb  Rb46  1  0.90252606  0.98662009  0.22780206  1
  Rb  Rb47  1  0.90252606  0.98662009  0.72780206  1
  Rb  Rb48  1  0.09747394  0.23662009  0.02219794  1
  Rb  Rb49  1  0.09747394  0.23662009  0.52219794  1
  Rb  Rb50  1  0.09747394  0.73662009  0.02219794  1
  Rb  Rb51  1  0.09747394  0.73662009  0.52219794  1
  Rb  Rb52  1  0.43080727  0.23662009  0.02219794  1
  Rb  Rb53  1  0.43080727  0.23662009  0.52219794  1
  Rb  Rb54  1  0.43080727  0.73662009  0.02219794  1
  Rb  Rb55  1  0.43080727  0.73662009  0.52219794  1
  Rb  Rb56  1  0.76414061  0.23662009  0.02219794  1
  Rb  Rb57  1  0.76414061  0.23662009  0.52219794  1
  Rb  Rb58  1  0.76414061  0.73662009  0.02219794  1
  Rb  Rb59  1  0.76414061  0.73662009  0.52219794  1
  Rb  Rb60  1  0.09747394  0.01337991  0.27219794  1
  Rb  Rb61  1  0.09747394  0.01337991  0.77219794  1
  Rb  Rb62  1  0.09747394  0.51337991  0.27219794  1
  Rb  Rb63  1  0.09747394  0.51337991  0.77219794  1
  Rb  Rb64  1  0.43080727  0.01337991  0.27219794  1
  Rb  Rb65  1  0.43080727  0.01337991  0.77219794  1
  Rb  Rb66  1  0.43080727  0.51337991  0.27219794  1
  Rb  Rb67  1  0.43080727  0.51337991  0.77219794  1
  Rb  Rb68  1  0.76414061  0.01337991  0.27219794  1
  Rb  Rb69  1  0.76414061  0.01337991  0.77219794  1
  Rb  Rb70  1  0.76414061  0.51337991  0.27219794  1
  Rb  Rb71  1  0.76414061  0.51337991  0.77219794  1
  Rb  Rb72  1  0.23585939  0.26337991  0.47780206  1
  Rb  Rb73  1  0.23585939  0.26337991  0.97780206  1
  Rb  Rb74  1  0.23585939  0.76337991  0.47780206  1
  Rb  Rb75  1  0.23585939  0.76337991  0.97780206  1
  Rb  Rb76  1  0.56919273  0.26337991  0.47780206  1
  Rb  Rb77  1  0.56919273  0.26337991  0.97780206  1
  Rb  Rb78  1  0.56919273  0.76337991  0.47780206  1
  Rb  Rb79  1  0.56919273  0.76337991  0.97780206  1
  Rb  Rb80  1  0.90252606  0.26337991  0.47780206  1
  Rb  Rb81  1  0.90252606  0.26337991  0.97780206  1
  Rb  Rb82  1  0.90252606  0.76337991  0.47780206  1
  Rb  Rb83  1  0.90252606  0.76337991  0.97780206  1
  Rb  Rb84  1  0.29752085  0.13953022  0.13809010  1
  Rb  Rb85  1  0.29752085  0.13953022  0.63809010  1
  Rb  Rb86  1  0.29752085  0.63953022  0.13809010  1
  Rb  Rb87  1  0.29752085  0.63953022  0.63809010  1
  Rb  Rb88  1  0.63085419  0.13953022  0.13809010  1
  Rb  Rb89  1  0.63085419  0.13953022  0.63809010  1
  Rb  Rb90  1  0.63085419  0.63953022  0.13809010  1
  Rb  Rb91  1  0.63085419  0.63953022  0.63809010  1
  Rb  Rb92  1  0.96418752  0.13953022  0.13809010  1
  Rb  Rb93  1  0.96418752  0.13953022  0.63809010  1
  Rb  Rb94  1  0.96418752  0.63953022  0.13809010  1
  Rb  Rb95  1  0.96418752  0.63953022  0.63809010  1
  Rb  Rb96  1  0.03581248  0.38953022  0.11190990  1
  Rb  Rb97  1  0.03581248  0.38953022  0.61190990  1
  Rb  Rb98  1  0.03581248  0.88953022  0.11190990  1
  Rb  Rb99  1  0.03581248  0.88953022  0.61190990  1
  Rb  Rb100  1  0.36914581  0.38953022  0.11190990  1
  Rb  Rb101  1  0.36914581  0.38953022  0.61190990  1
  Rb  Rb102  1  0.36914581  0.88953022  0.11190990  1
  Rb  Rb103  1  0.36914581  0.88953022  0.61190990  1
  Rb  Rb104  1  0.70247915  0.38953022  0.11190990  1
  Rb  Rb105  1  0.70247915  0.38953022  0.61190990  1
  Rb  Rb106  1  0.70247915  0.88953022  0.11190990  1
  Rb  Rb107  1  0.70247915  0.88953022  0.61190990  1
  Rb  Rb108  1  0.03581248  0.36046978  0.36190990  1
  Rb  Rb109  1  0.03581248  0.36046978  0.86190990  1
  Rb  Rb110  1  0.03581248  0.86046978  0.36190990  1
  Rb  Rb111  1  0.03581248  0.86046978  0.86190990  1
  Rb  Rb112  1  0.36914581  0.36046978  0.36190990  1
  Rb  Rb113  1  0.36914581  0.36046978  0.86190990  1
  Rb  Rb114  1  0.36914581  0.86046978  0.36190990  1
  Rb  Rb115  1  0.36914581  0.86046978  0.86190990  1
  Rb  Rb116  1  0.70247915  0.36046978  0.36190990  1
  Rb  Rb117  1  0.70247915  0.36046978  0.86190990  1
  Rb  Rb118  1  0.70247915  0.86046978  0.36190990  1
  Rb  Rb119  1  0.70247915  0.86046978  0.86190990  1
  Rb  Rb120  1  0.29752085  0.11046978  0.38809010  1
  Rb  Rb121  1  0.29752085  0.11046978  0.88809010  1
  Rb  Rb122  1  0.29752085  0.61046978  0.38809010  1
  Rb  Rb123  1  0.29752085  0.61046978  0.88809010  1
  Rb  Rb124  1  0.63085419  0.11046978  0.38809010  1
  Rb  Rb125  1  0.63085419  0.11046978  0.88809010  1
  Rb  Rb126  1  0.63085419  0.61046978  0.38809010  1
  Rb  Rb127  1  0.63085419  0.61046978  0.88809010  1
  Rb  Rb128  1  0.96418752  0.11046978  0.38809010  1
  Rb  Rb129  1  0.96418752  0.11046978  0.88809010  1
  Rb  Rb130  1  0.96418752  0.61046978  0.38809010  1
  Rb  Rb131  1  0.96418752  0.61046978  0.88809010  1
  Rb  Rb132  1  0.15888964  0.42620933  0.04522138  1
  Rb  Rb133  1  0.15888964  0.42620933  0.54522138  1
  Rb  Rb134  1  0.15888964  0.92620933  0.04522138  1
  Rb  Rb135  1  0.15888964  0.92620933  0.54522138  1
  Rb  Rb136  1  0.49222297  0.42620933  0.04522138  1
  Rb  Rb137  1  0.49222297  0.42620933  0.54522138  1
  Rb  Rb138  1  0.49222297  0.92620933  0.04522138  1
  Rb  Rb139  1  0.49222297  0.92620933  0.54522138  1
  Rb  Rb140  1  0.82555631  0.42620933  0.04522138  1
  Rb  Rb141  1  0.82555631  0.42620933  0.54522138  1
  Rb  Rb142  1  0.82555631  0.92620933  0.04522138  1
  Rb  Rb143  1  0.82555631  0.92620933  0.54522138  1
  Si  Si144  1  0.27712992  0.31649102  0.18828452  1
  Si  Si145  1  0.27712992  0.31649102  0.68828452  1
  Si  Si146  1  0.27712992  0.81649102  0.18828452  1
  Si  Si147  1  0.27712992  0.81649102  0.68828452  1
  Si  Si148  1  0.61046325  0.31649102  0.18828452  1
  Si  Si149  1  0.61046325  0.31649102  0.68828452  1
  Si  Si150  1  0.61046325  0.81649102  0.18828452  1
  Si  Si151  1  0.61046325  0.81649102  0.68828452  1
  Si  Si152  1  0.94379659  0.31649102  0.18828452  1
  Si  Si153  1  0.94379659  0.31649102  0.68828452  1
  Si  Si154  1  0.94379659  0.81649102  0.18828452  1
  Si  Si155  1  0.94379659  0.81649102  0.68828452  1
  Si  Si156  1  0.27712992  0.43350898  0.43828452  1
  Si  Si157  1  0.27712992  0.43350898  0.93828452  1
  Si  Si158  1  0.27712992  0.93350898  0.43828452  1
  Si  Si159  1  0.27712992  0.93350898  0.93828452  1
  Si  Si160  1  0.61046325  0.43350898  0.43828452  1
  Si  Si161  1  0.61046325  0.43350898  0.93828452  1
  Si  Si162  1  0.61046325  0.93350898  0.43828452  1
  Si  Si163  1  0.61046325  0.93350898  0.93828452  1
  Si  Si164  1  0.94379659  0.43350898  0.43828452  1
  Si  Si165  1  0.94379659  0.43350898  0.93828452  1
  Si  Si166  1  0.94379659  0.93350898  0.43828452  1
  Si  Si167  1  0.94379659  0.93350898  0.93828452  1
  Si  Si168  1  0.05620341  0.18350898  0.31171548  1
  Si  Si169  1  0.05620341  0.18350898  0.81171548  1
  Si  Si170  1  0.05620341  0.68350898  0.31171548  1
  Si  Si171  1  0.05620341  0.68350898  0.81171548  1
  Si  Si172  1  0.38953675  0.18350898  0.31171548  1
  Si  Si173  1  0.38953675  0.18350898  0.81171548  1
  Si  Si174  1  0.38953675  0.68350898  0.31171548  1
  Si  Si175  1  0.38953675  0.68350898  0.81171548  1
  Si  Si176  1  0.72287008  0.18350898  0.31171548  1
  Si  Si177  1  0.72287008  0.18350898  0.81171548  1
  Si  Si178  1  0.72287008  0.68350898  0.31171548  1
  Si  Si179  1  0.72287008  0.68350898  0.81171548  1
  Si  Si180  1  0.05620341  0.06649102  0.06171548  1
  Si  Si181  1  0.05620341  0.06649102  0.56171548  1
  Si  Si182  1  0.05620341  0.56649102  0.06171548  1
  Si  Si183  1  0.05620341  0.56649102  0.56171548  1
  Si  Si184  1  0.38953675  0.06649102  0.06171548  1
  Si  Si185  1  0.38953675  0.06649102  0.56171548  1
  Si  Si186  1  0.38953675  0.56649102  0.06171548  1
  Si  Si187  1  0.38953675  0.56649102  0.56171548  1
  Si  Si188  1  0.72287008  0.06649102  0.06171548  1
  Si  Si189  1  0.72287008  0.06649102  0.56171548  1
  Si  Si190  1  0.72287008  0.56649102  0.06171548  1
  Si  Si191  1  0.72287008  0.56649102  0.56171548  1
  O  O192  1  0.33161036  0.13950615  0.03241131  1
  O  O193  1  0.33161036  0.13950615  0.53241131  1
  O  O194  1  0.33161036  0.63950615  0.03241131  1
  O  O195  1  0.33161036  0.63950615  0.53241131  1
  O  O196  1  0.66494369  0.13950615  0.03241131  1
  O  O197  1  0.66494369  0.13950615  0.53241131  1
  O  O198  1  0.66494369  0.63950615  0.03241131  1
  O  O199  1  0.66494369  0.63950615  0.53241131  1
  O  O200  1  0.99827703  0.13950615  0.03241131  1
  O  O201  1  0.99827703  0.13950615  0.53241131  1
  O  O202  1  0.99827703  0.63950615  0.03241131  1
  O  O203  1  0.99827703  0.63950615  0.53241131  1
  O  O204  1  0.00000000  0.00000000  0.00000000  1
  O  O205  1  -0.00000000  0.00000000  0.50000000  1
  O  O206  1  0.00000000  0.50000000  0.00000000  1
  O  O207  1  -0.00000000  0.50000000  0.50000000  1
  O  O208  1  0.33333333  0.00000000  0.00000000  1
  O  O209  1  0.33333333  0.00000000  0.50000000  1
  O  O210  1  0.33333333  0.50000000  0.00000000  1
  O  O211  1  0.33333333  0.50000000  0.50000000  1
  O  O212  1  0.66666667  0.00000000  0.00000000  1
  O  O213  1  0.66666667  0.00000000  0.50000000  1
  O  O214  1  0.66666667  0.50000000  0.00000000  1
  O  O215  1  0.66666667  0.50000000  0.50000000  1
  O  O216  1  -0.00000000  0.25000000  0.25000000  1
  O  O217  1  0.00000000  0.25000000  0.75000000  1
  O  O218  1  -0.00000000  0.75000000  0.25000000  1
  O  O219  1  0.00000000  0.75000000  0.75000000  1
  O  O220  1  0.33333333  0.25000000  0.25000000  1
  O  O221  1  0.33333333  0.25000000  0.75000000  1
  O  O222  1  0.33333333  0.75000000  0.25000000  1
  O  O223  1  0.33333333  0.75000000  0.75000000  1
  O  O224  1  0.66666667  0.25000000  0.25000000  1
  O  O225  1  0.66666667  0.25000000  0.75000000  1
  O  O226  1  0.66666667  0.75000000  0.25000000  1
  O  O227  1  0.66666667  0.75000000  0.75000000  1
  O  O228  1  0.25541992  0.46048454  0.35961628  1
  O  O229  1  0.25541992  0.46048454  0.85961628  1
  O  O230  1  0.25541992  0.96048454  0.35961628  1
  O  O231  1  0.25541992  0.96048454  0.85961628  1
  O  O232  1  0.58875325  0.46048454  0.35961628  1
  O  O233  1  0.58875325  0.46048454  0.85961628  1
  O  O234  1  0.58875325  0.96048454  0.35961628  1
  O  O235  1  0.58875325  0.96048454  0.85961628  1
  O  O236  1  0.92208659  0.46048454  0.35961628  1
  O  O237  1  0.92208659  0.46048454  0.85961628  1
  O  O238  1  0.92208659  0.96048454  0.35961628  1
  O  O239  1  0.92208659  0.96048454  0.85961628  1
  O  O240  1  0.00172297  0.38950615  0.21758869  1
  O  O241  1  0.00172297  0.38950615  0.71758869  1
  O  O242  1  0.00172297  0.88950615  0.21758869  1
  O  O243  1  0.00172297  0.88950615  0.71758869  1
  O  O244  1  0.33505631  0.38950615  0.21758869  1
  O  O245  1  0.33505631  0.38950615  0.71758869  1
  O  O246  1  0.33505631  0.88950615  0.21758869  1
  O  O247  1  0.33505631  0.88950615  0.71758869  1
  O  O248  1  0.66838964  0.38950615  0.21758869  1
  O  O249  1  0.66838964  0.38950615  0.71758869  1
  O  O250  1  0.66838964  0.88950615  0.21758869  1
  O  O251  1  0.66838964  0.88950615  0.71758869  1
  O  O252  1  0.00172297  0.36049385  0.46758869  1
  O  O253  1  0.00172297  0.36049385  0.96758869  1
  O  O254  1  0.00172297  0.86049385  0.46758869  1
  O  O255  1  0.00172297  0.86049385  0.96758869  1
  O  O256  1  0.33505631  0.36049385  0.46758869  1
  O  O257  1  0.33505631  0.36049385  0.96758869  1
  O  O258  1  0.33505631  0.86049385  0.46758869  1
  O  O259  1  0.33505631  0.86049385  0.96758869  1
  O  O260  1  0.66838964  0.36049385  0.46758869  1
  O  O261  1  0.66838964  0.36049385  0.96758869  1
  O  O262  1  0.66838964  0.86049385  0.46758869  1
  O  O263  1  0.66838964  0.86049385  0.96758869  1
  O  O264  1  0.33161036  0.11049385  0.28241131  1
  O  O265  1  0.33161036  0.11049385  0.78241131  1
  O  O266  1  0.33161036  0.61049385  0.28241131  1
  O  O267  1  0.33161036  0.61049385  0.78241131  1
  O  O268  1  0.66494369  0.11049385  0.28241131  1
  O  O269  1  0.66494369  0.11049385  0.78241131  1
  O  O270  1  0.66494369  0.61049385  0.28241131  1
  O  O271  1  0.66494369  0.61049385  0.78241131  1
  O  O272  1  0.99827703  0.11049385  0.28241131  1
  O  O273  1  0.99827703  0.11049385  0.78241131  1
  O  O274  1  0.99827703  0.61049385  0.28241131  1
  O  O275  1  0.99827703  0.61049385  0.78241131  1
  O  O276  1  0.19523089  0.32854174  0.18680049  1
  O  O277  1  0.19523089  0.32854174  0.68680049  1
  O  O278  1  0.19523089  0.82854174  0.18680049  1
  O  O279  1  0.19523089  0.82854174  0.68680049  1
  O  O280  1  0.52856422  0.32854174  0.18680049  1
  O  O281  1  0.52856422  0.32854174  0.68680049  1
  O  O282  1  0.52856422  0.82854174  0.18680049  1
  O  O283  1  0.52856422  0.82854174  0.68680049  1
  O  O284  1  0.86189755  0.32854174  0.18680049  1
  O  O285  1  0.86189755  0.32854174  0.68680049  1
  O  O286  1  0.86189755  0.82854174  0.18680049  1
  O  O287  1  0.86189755  0.82854174  0.68680049  1
  O  O288  1  0.13810245  0.07854174  0.06319951  1
  O  O289  1  0.13810245  0.07854174  0.56319951  1
  O  O290  1  0.13810245  0.57854174  0.06319951  1
  O  O291  1  0.13810245  0.57854174  0.56319951  1
  O  O292  1  0.47143578  0.07854174  0.06319951  1
  O  O293  1  0.47143578  0.07854174  0.56319951  1
  O  O294  1  0.47143578  0.57854174  0.06319951  1
  O  O295  1  0.47143578  0.57854174  0.56319951  1
  O  O296  1  0.80476911  0.07854174  0.06319951  1
  O  O297  1  0.80476911  0.07854174  0.56319951  1
  O  O298  1  0.80476911  0.57854174  0.06319951  1
  O  O299  1  0.80476911  0.57854174  0.56319951  1
  O  O300  1  0.13810245  0.17145826  0.31319951  1
  O  O301  1  0.13810245  0.17145826  0.81319951  1
  O  O302  1  0.13810245  0.67145826  0.31319951  1
  O  O303  1  0.13810245  0.67145826  0.81319951  1
  O  O304  1  0.47143578  0.17145826  0.31319951  1
  O  O305  1  0.47143578  0.17145826  0.81319951  1
  O  O306  1  0.47143578  0.67145826  0.31319951  1
  O  O307  1  0.47143578  0.67145826  0.81319951  1
  O  O308  1  0.80476911  0.17145826  0.31319951  1
  O  O309  1  0.80476911  0.17145826  0.81319951  1
  O  O310  1  0.80476911  0.67145826  0.31319951  1
  O  O311  1  0.80476911  0.67145826  0.81319951  1
  O  O312  1  0.19523089  0.42145826  0.43680049  1
  O  O313  1  0.19523089  0.42145826  0.93680049  1
  O  O314  1  0.19523089  0.92145826  0.43680049  1
  O  O315  1  0.19523089  0.92145826  0.93680049  1
  O  O316  1  0.52856422  0.42145826  0.43680049  1
  O  O317  1  0.52856422  0.42145826  0.93680049  1
  O  O318  1  0.52856422  0.92145826  0.43680049  1
  O  O319  1  0.52856422  0.92145826  0.93680049  1
  O  O320  1  0.86189755  0.42145826  0.43680049  1
  O  O321  1  0.86189755  0.42145826  0.93680049  1
  O  O322  1  0.86189755  0.92145826  0.43680049  1
  O  O323  1  0.86189755  0.92145826  0.93680049  1
  O  O324  1  0.25541992  0.28951546  0.10961628  1
  O  O325  1  0.25541992  0.28951546  0.60961628  1
  O  O326  1  0.25541992  0.78951546  0.10961628  1
  O  O327  1  0.25541992  0.78951546  0.60961628  1
  O  O328  1  0.58875325  0.28951546  0.10961628  1
  O  O329  1  0.58875325  0.28951546  0.60961628  1
  O  O330  1  0.58875325  0.78951546  0.10961628  1
  O  O331  1  0.58875325  0.78951546  0.60961628  1
  O  O332  1  0.92208659  0.28951546  0.10961628  1
  O  O333  1  0.92208659  0.28951546  0.60961628  1
  O  O334  1  0.92208659  0.78951546  0.10961628  1
  O  O335  1  0.92208659  0.78951546  0.60961628  1
  O  O336  1  0.07791341  0.03951546  0.14038372  1
  O  O337  1  0.07791341  0.03951546  0.64038372  1
  O  O338  1  0.07791341  0.53951546  0.14038372  1
  O  O339  1  0.07791341  0.53951546  0.64038372  1
  O  O340  1  0.41124675  0.03951546  0.14038372  1
  O  O341  1  0.41124675  0.03951546  0.64038372  1
  O  O342  1  0.41124675  0.53951546  0.14038372  1
  O  O343  1  0.41124675  0.53951546  0.64038372  1
  O  O344  1  0.74458008  0.03951546  0.14038372  1
  O  O345  1  0.74458008  0.03951546  0.64038372  1
  O  O346  1  0.74458008  0.53951546  0.14038372  1
  O  O347  1  0.74458008  0.53951546  0.64038372  1
  O  O348  1  0.07791341  0.21048454  0.39038372  1
  O  O349  1  0.07791341  0.21048454  0.89038372  1
  O  O350  1  0.07791341  0.71048454  0.39038372  1
  O  O351  1  0.07791341  0.71048454  0.89038372  1
  O  O352  1  0.41124675  0.21048454  0.39038372  1
  O  O353  1  0.41124675  0.21048454  0.89038372  1
  O  O354  1  0.41124675  0.71048454  0.39038372  1
  O  O355  1  0.41124675  0.71048454  0.89038372  1
  O  O356  1  0.74458008  0.21048454  0.39038372  1
  O  O357  1  0.74458008  0.21048454  0.89038372  1
  O  O358  1  0.74458008  0.71048454  0.39038372  1
  O  O359  1  0.74458008  0.71048454  0.89038372  1
