# generated using pymatgen
data_Sr3Ti2O7
_symmetry_space_group_name_H-M   'P 1'
_cell_length_a   16.56275593
_cell_length_b   16.56275593
_cell_length_c   20.26150173
_cell_angle_alpha   90.00000000
_cell_angle_beta   90.00000000
_cell_angle_gamma   90.00000000
_symmetry_Int_Tables_number   1
_chemical_formula_structural   Sr3Ti2O7
_chemical_formula_sum   'Sr108 Ti72 O252'
_cell_volume   5558.23411222
_cell_formula_units_Z   36
loop_
 _symmetry_equiv_pos_site_id
 _symmetry_equiv_pos_as_xyz
  1  'x, y, z'
loop_
 _atom_site_type_symbol
 _atom_site_label
 _atom_site_symmetry_multiplicity
 _atom_site_fract_x
 _atom_site_fract_y
 _atom_site_fract_z
 _atom_site_occupancy
  Sr  Sr0  1  -0.00000000  0.66666667  0.31599173  1
  Sr  Sr1  1  0.16666667  0.83333333  0.31599173  1
  Sr  Sr2  1  -0.00000000  0.33333333  0.31599173  1
  Sr  Sr3  1  0.16666667  0.50000000  0.31599173  1
  Sr  Sr4  1  0.33333333  0.66666667  0.31599173  1
  Sr  Sr5  1  0.50000000  0.83333333  0.31599173  1
  Sr  Sr6  1  0.00000000  0.00000000  0.31599173  1
  Sr  Sr7  1  0.16666667  0.16666667  0.31599173  1
  Sr  Sr8  1  0.33333333  0.33333333  0.31599173  1
  Sr  Sr9  1  0.50000000  0.50000000  0.31599173  1
  Sr  Sr10  1  0.66666667  0.66666667  0.31599173  1
  Sr  Sr11  1  0.83333333  0.83333333  0.31599173  1
  Sr  Sr12  1  0.33333333  -0.00000000  0.31599173  1
  Sr  Sr13  1  0.50000000  0.16666667  0.31599173  1
  Sr  Sr14  1  0.66666667  0.33333333  0.31599173  1
  Sr  Sr15  1  0.83333333  0.50000000  0.31599173  1
  Sr  Sr16  1  0.66666667  -0.00000000  0.31599173  1
  Sr  Sr17  1  0.83333333  0.16666667  0.31599173  1
  Sr  Sr18  1  0.16666667  0.66666667  0.81599173  1
  Sr  Sr19  1  0.33333333  0.83333333  0.81599173  1
  Sr  Sr20  1  0.16666667  0.33333333  0.81599173  1
  Sr  Sr21  1  0.33333333  0.50000000  0.81599173  1
  Sr  Sr22  1  0.50000000  0.66666667  0.81599173  1
  Sr  Sr23  1  0.66666667  0.83333333  0.81599173  1
  Sr  Sr24  1  0.16666667  0.00000000  0.81599173  1
  Sr  Sr25  1  0.33333333  0.16666667  0.81599173  1
  Sr  Sr26  1  0.50000000  0.33333333  0.81599173  1
  Sr  Sr27  1  0.66666667  0.50000000  0.81599173  1
  Sr  Sr28  1  0.83333333  0.66666667  0.81599173  1
  Sr  Sr29  1  1.00000000  0.83333333  0.81599173  1
  Sr  Sr30  1  0.50000000  -0.00000000  0.81599173  1
  Sr  Sr31  1  0.66666667  0.16666667  0.81599173  1
  Sr  Sr32  1  0.83333333  0.33333333  0.81599173  1
  Sr  Sr33  1  1.00000000  0.50000000  0.81599173  1
  Sr  Sr34  1  0.83333333  0.00000000  0.81599173  1
  Sr  Sr35  1  1.00000000  0.16666667  0.81599173  1
  Sr  Sr36  1  -0.00000000  0.66666667  0.50000000  1
  Sr  Sr37  1  0.16666667  0.83333333  0.50000000  1
  Sr  Sr38  1  -0.00000000  0.33333333  0.50000000  1
  Sr  Sr39  1  0.16666667  0.50000000  0.50000000  1
  Sr  Sr40  1  0.33333333  0.66666667  0.50000000  1
  Sr  Sr41  1  0.50000000  0.83333333  0.50000000  1
  Sr  Sr42  1  0.00000000  0.00000000  0.50000000  1
  Sr  Sr43  1  0.16666667  0.16666667  0.50000000  1
  Sr  Sr44  1  0.33333333  0.33333333  0.50000000  1
  Sr  Sr45  1  0.50000000  0.50000000  0.50000000  1
  Sr  Sr46  1  0.66666667  0.66666667  0.50000000  1
  Sr  Sr47  1  0.83333333  0.83333333  0.50000000  1
  Sr  Sr48  1  0.33333333  -0.00000000  0.50000000  1
  Sr  Sr49  1  0.50000000  0.16666667  0.50000000  1
  Sr  Sr50  1  0.66666667  0.33333333  0.50000000  1
  Sr  Sr51  1  0.83333333  0.50000000  0.50000000  1
  Sr  Sr52  1  0.66666667  -0.00000000  0.50000000  1
  Sr  Sr53  1  0.83333333  0.16666667  0.50000000  1
  Sr  Sr54  1  0.16666667  0.66666667  1.00000000  1
  Sr  Sr55  1  0.33333333  0.83333333  1.00000000  1
  Sr  Sr56  1  0.16666667  0.33333333  1.00000000  1
  Sr  Sr57  1  0.33333333  0.50000000  1.00000000  1
  Sr  Sr58  1  0.50000000  0.66666667  1.00000000  1
  Sr  Sr59  1  0.66666667  0.83333333  1.00000000  1
  Sr  Sr60  1  0.16666667  0.00000000  1.00000000  1
  Sr  Sr61  1  0.33333333  0.16666667  1.00000000  1
  Sr  Sr62  1  0.50000000  0.33333333  1.00000000  1
  Sr  Sr63  1  0.66666667  0.50000000  1.00000000  1
  Sr  Sr64  1  0.83333333  0.66666667  1.00000000  1
  Sr  Sr65  1  1.00000000  0.83333333  1.00000000  1
  Sr  Sr66  1  0.50000000  -0.00000000  1.00000000  1
  Sr  Sr67  1  0.66666667  0.16666667  1.00000000  1
  Sr  Sr68  1  0.83333333  0.33333333  1.00000000  1
  Sr  Sr69  1  1.00000000  0.50000000  1.00000000  1
  Sr  Sr70  1  0.83333333  0.00000000  1.00000000  1
  Sr  Sr71  1  1.00000000  0.16666667  1.00000000  1
  Sr  Sr72  1  -0.00000000  0.66666667  0.68400827  1
  Sr  Sr73  1  0.16666667  0.83333333  0.68400827  1
  Sr  Sr74  1  -0.00000000  0.33333333  0.68400827  1
  Sr  Sr75  1  0.16666667  0.50000000  0.68400827  1
  Sr  Sr76  1  0.33333333  0.66666667  0.68400827  1
  Sr  Sr77  1  0.50000000  0.83333333  0.68400827  1
  Sr  Sr78  1  0.00000000  0.00000000  0.68400827  1
  Sr  Sr79  1  0.16666667  0.16666667  0.68400827  1
  Sr  Sr80  1  0.33333333  0.33333333  0.68400827  1
  Sr  Sr81  1  0.50000000  0.50000000  0.68400827  1
  Sr  Sr82  1  0.66666667  0.66666667  0.68400827  1
  Sr  Sr83  1  0.83333333  0.83333333  0.68400827  1
  Sr  Sr84  1  0.33333333  -0.00000000  0.68400827  1
  Sr  Sr85  1  0.50000000  0.16666667  0.68400827  1
  Sr  Sr86  1  0.66666667  0.33333333  0.68400827  1
  Sr  Sr87  1  0.83333333  0.50000000  0.68400827  1
  Sr  Sr88  1  0.66666667  -0.00000000  0.68400827  1
  Sr  Sr89  1  0.83333333  0.16666667  0.68400827  1
  Sr  Sr90  1  0.16666667  0.66666667  1.18400827  1
  Sr  Sr91  1  0.33333333  0.83333333  1.18400827  1
  Sr  Sr92  1  0.16666667  0.33333333  1.18400827  1
  Sr  Sr93  1  0.33333333  0.50000000  1.18400827  1
  Sr  Sr94  1  0.50000000  0.66666667  1.18400827  1
  Sr  Sr95  1  0.66666667  0.83333333  1.18400827  1
  Sr  Sr96  1  0.16666667  0.00000000  1.18400827  1
  Sr  Sr97  1  0.33333333  0.16666667  1.18400827  1
  Sr  Sr98  1  0.50000000  0.33333333  1.18400827  1
  Sr  Sr99  1  0.66666667  0.50000000  1.18400827  1
  Sr  Sr100  1  0.83333333  0.66666667  1.18400827  1
  Sr  Sr101  1  1.00000000  0.83333333  1.18400827  1
  Sr  Sr102  1  0.50000000  -0.00000000  1.18400827  1
  Sr  Sr103  1  0.66666667  0.16666667  1.18400827  1
  Sr  Sr104  1  0.83333333  0.33333333  1.18400827  1
  Sr  Sr105  1  1.00000000  0.50000000  1.18400827  1
  Sr  Sr106  1  0.83333333  0.00000000  1.18400827  1
  Sr  Sr107  1  1.00000000  0.16666667  1.18400827  1
  Ti  Ti108  1  -0.00000000  0.66666667  0.09790604  1
  Ti  Ti109  1  0.16666667  0.83333333  0.09790604  1
  Ti  Ti110  1  -0.00000000  0.33333333  0.09790604  1
  Ti  Ti111  1  0.16666667  0.50000000  0.09790604  1
  Ti  Ti112  1  0.33333333  0.66666667  0.09790604  1
  Ti  Ti113  1  0.50000000  0.83333333  0.09790604  1
  Ti  Ti114  1  0.00000000  0.00000000  0.09790604  1
  Ti  Ti115  1  0.16666667  0.16666667  0.09790604  1
  Ti  Ti116  1  0.33333333  0.33333333  0.09790604  1
  Ti  Ti117  1  0.50000000  0.50000000  0.09790604  1
  Ti  Ti118  1  0.66666667  0.66666667  0.09790604  1
  Ti  Ti119  1  0.83333333  0.83333333  0.09790604  1
  Ti  Ti120  1  0.33333333  -0.00000000  0.09790604  1
  Ti  Ti121  1  0.50000000  0.16666667  0.09790604  1
  Ti  Ti122  1  0.66666667  0.33333333  0.09790604  1
  Ti  Ti123  1  0.83333333  0.50000000  0.09790604  1
  Ti  Ti124  1  0.66666667  -0.00000000  0.09790604  1
  Ti  Ti125  1  0.83333333  0.16666667  0.09790604  1
  Ti  Ti126  1  0.16666667  0.66666667  0.59790604  1
  Ti  Ti127  1  0.33333333  0.83333333  0.59790604  1
  Ti  Ti128  1  0.16666667  0.33333333  0.59790604  1
  Ti  Ti129  1  0.33333333  0.50000000  0.59790604  1
  Ti  Ti130  1  0.50000000  0.66666667  0.59790604  1
  Ti  Ti131  1  0.66666667  0.83333333  0.59790604  1
  Ti  Ti132  1  0.16666667  0.00000000  0.59790604  1
  Ti  Ti133  1  0.33333333  0.16666667  0.59790604  1
  Ti  Ti134  1  0.50000000  0.33333333  0.59790604  1
  Ti  Ti135  1  0.66666667  0.50000000  0.59790604  1
  Ti  Ti136  1  0.83333333  0.66666667  0.59790604  1
  Ti  Ti137  1  1.00000000  0.83333333  0.59790604  1
  Ti  Ti138  1  0.50000000  -0.00000000  0.59790604  1
  Ti  Ti139  1  0.66666667  0.16666667  0.59790604  1
  Ti  Ti140  1  0.83333333  0.33333333  0.59790604  1
  Ti  Ti141  1  1.00000000  0.50000000  0.59790604  1
  Ti  Ti142  1  0.83333333  0.00000000  0.59790604  1
  Ti  Ti143  1  1.00000000  0.16666667  0.59790604  1
  Ti  Ti144  1  -0.00000000  0.66666667  0.90209396  1
  Ti  Ti145  1  0.16666667  0.83333333  0.90209396  1
  Ti  Ti146  1  -0.00000000  0.33333333  0.90209396  1
  Ti  Ti147  1  0.16666667  0.50000000  0.90209396  1
  Ti  Ti148  1  0.33333333  0.66666667  0.90209396  1
  Ti  Ti149  1  0.50000000  0.83333333  0.90209396  1
  Ti  Ti150  1  0.00000000  0.00000000  0.90209396  1
  Ti  Ti151  1  0.16666667  0.16666667  0.90209396  1
  Ti  Ti152  1  0.33333333  0.33333333  0.90209396  1
  Ti  Ti153  1  0.50000000  0.50000000  0.90209396  1
  Ti  Ti154  1  0.66666667  0.66666667  0.90209396  1
  Ti  Ti155  1  0.83333333  0.83333333  0.90209396  1
  Ti  Ti156  1  0.33333333  -0.00000000  0.90209396  1
  Ti  Ti157  1  0.50000000  0.16666667  0.90209396  1
  Ti  Ti158  1  0.66666667  0.33333333  0.90209396  1
  Ti  Ti159  1  0.83333333  0.50000000  0.90209396  1
  Ti  Ti160  1  0.66666667  -0.00000000  0.90209396  1
  Ti  Ti161  1  0.83333333  0.16666667  0.90209396  1
  Ti  Ti162  1  0.16666667  0.66666667  1.40209396  1
  Ti  Ti163  1  0.33333333  0.83333333  1.40209396  1
  Ti  Ti164  1  0.16666667  0.33333333  1.40209396  1
  Ti  Ti165  1  0.33333333  0.50000000  1.40209396  1
  Ti  Ti166  1  0.50000000  0.66666667  1.40209396  1
  Ti  Ti167  1  0.66666667  0.83333333  1.40209396  1
  Ti  Ti168  1  0.16666667  0.00000000  1.40209396  1
  Ti  Ti169  1  0.33333333  0.16666667  1.40209396  1
  Ti  Ti170  1  0.50000000  0.33333333  1.40209396  1
  Ti  Ti171  1  0.66666667  0.50000000  1.40209396  1
  Ti  Ti172  1  0.83333333  0.66666667  1.40209396  1
  Ti  Ti173  1  1.00000000  0.83333333  1.40209396  1
  Ti  Ti174  1  0.50000000  -0.00000000  1.40209396  1
  Ti  Ti175  1  0.66666667  0.16666667  1.40209396  1
  Ti  Ti176  1  0.83333333  0.33333333  1.40209396  1
  Ti  Ti177  1  1.00000000  0.50000000  1.40209396  1
  Ti  Ti178  1  0.83333333  0.00000000  1.40209396  1
  Ti  Ti179  1  1.00000000  0.16666667  1.40209396  1
  O  O180  1  0.08333333  0.58333333  0.40372247  1
  O  O181  1  0.25000000  0.75000000  0.40372247  1
  O  O182  1  0.08333333  0.25000000  0.40372247  1
  O  O183  1  0.25000000  0.41666667  0.40372247  1
  O  O184  1  0.41666667  0.58333333  0.40372247  1
  O  O185  1  0.58333333  0.75000000  0.40372247  1
  O  O186  1  0.08333333  -0.08333333  0.40372247  1
  O  O187  1  0.25000000  0.08333333  0.40372247  1
  O  O188  1  0.41666667  0.25000000  0.40372247  1
  O  O189  1  0.58333333  0.41666667  0.40372247  1
  O  O190  1  0.75000000  0.58333333  0.40372247  1
  O  O191  1  0.91666667  0.75000000  0.40372247  1
  O  O192  1  0.41666667  -0.08333333  0.40372247  1
  O  O193  1  0.58333333  0.08333333  0.40372247  1
  O  O194  1  0.75000000  0.25000000  0.40372247  1
  O  O195  1  0.91666667  0.41666667  0.40372247  1
  O  O196  1  0.75000000  -0.08333333  0.40372247  1
  O  O197  1  0.91666667  0.08333333  0.40372247  1
  O  O198  1  0.25000000  0.58333333  0.90372247  1
  O  O199  1  0.41666667  0.75000000  0.90372247  1
  O  O200  1  0.25000000  0.25000000  0.90372247  1
  O  O201  1  0.41666667  0.41666667  0.90372247  1
  O  O202  1  0.58333333  0.58333333  0.90372247  1
  O  O203  1  0.75000000  0.75000000  0.90372247  1
  O  O204  1  0.25000000  -0.08333333  0.90372247  1
  O  O205  1  0.41666667  0.08333333  0.90372247  1
  O  O206  1  0.58333333  0.25000000  0.90372247  1
  O  O207  1  0.75000000  0.41666667  0.90372247  1
  O  O208  1  0.91666667  0.58333333  0.90372247  1
  O  O209  1  1.08333333  0.75000000  0.90372247  1
  O  O210  1  0.58333333  -0.08333333  0.90372247  1
  O  O211  1  0.75000000  0.08333333  0.90372247  1
  O  O212  1  0.91666667  0.25000000  0.90372247  1
  O  O213  1  1.08333333  0.41666667  0.90372247  1
  O  O214  1  0.91666667  -0.08333333  0.90372247  1
  O  O215  1  1.08333333  0.08333333  0.90372247  1
  O  O216  1  -0.00000000  0.66666667  0.80548600  1
  O  O217  1  0.16666667  0.83333333  0.80548600  1
  O  O218  1  -0.00000000  0.33333333  0.80548600  1
  O  O219  1  0.16666667  0.50000000  0.80548600  1
  O  O220  1  0.33333333  0.66666667  0.80548600  1
  O  O221  1  0.50000000  0.83333333  0.80548600  1
  O  O222  1  -0.00000000  -0.00000000  0.80548600  1
  O  O223  1  0.16666667  0.16666667  0.80548600  1
  O  O224  1  0.33333333  0.33333333  0.80548600  1
  O  O225  1  0.50000000  0.50000000  0.80548600  1
  O  O226  1  0.66666667  0.66666667  0.80548600  1
  O  O227  1  0.83333333  0.83333333  0.80548600  1
  O  O228  1  0.33333333  -0.00000000  0.80548600  1
  O  O229  1  0.50000000  0.16666667  0.80548600  1
  O  O230  1  0.66666667  0.33333333  0.80548600  1
  O  O231  1  0.83333333  0.50000000  0.80548600  1
  O  O232  1  0.66666667  -0.00000000  0.80548600  1
  O  O233  1  0.83333333  0.16666667  0.80548600  1
  O  O234  1  0.16666667  0.66666667  1.30548600  1
  O  O235  1  0.33333333  0.83333333  1.30548600  1
  O  O236  1  0.16666667  0.33333333  1.30548600  1
  O  O237  1  0.33333333  0.50000000  1.30548600  1
  O  O238  1  0.50000000  0.66666667  1.30548600  1
  O  O239  1  0.66666667  0.83333333  1.30548600  1
  O  O240  1  0.16666667  0.00000000  1.30548600  1
  O  O241  1  0.33333333  0.16666667  1.30548600  1
  O  O242  1  0.50000000  0.33333333  1.30548600  1
  O  O243  1  0.66666667  0.50000000  1.30548600  1
  O  O244  1  0.83333333  0.66666667  1.30548600  1
  O  O245  1  1.00000000  0.83333333  1.30548600  1
  O  O246  1  0.50000000  -0.00000000  1.30548600  1
  O  O247  1  0.66666667  0.16666667  1.30548600  1
  O  O248  1  0.83333333  0.33333333  1.30548600  1
  O  O249  1  1.00000000  0.50000000  1.30548600  1
  O  O250  1  0.83333333  0.00000000  1.30548600  1
  O  O251  1  1.00000000  0.16666667  1.30548600  1
  O  O252  1  -0.00000000  0.66666667  0.00000000  1
  O  O253  1  0.16666667  0.83333333  0.00000000  1
  O  O254  1  -0.00000000  0.33333333  0.00000000  1
  O  O255  1  0.16666667  0.50000000  0.00000000  1
  O  O256  1  0.33333333  0.66666667  0.00000000  1
  O  O257  1  0.50000000  0.83333333  0.00000000  1
  O  O258  1  0.00000000  0.00000000  0.00000000  1
  O  O259  1  0.16666667  0.16666667  0.00000000  1
  O  O260  1  0.33333333  0.33333333  0.00000000  1
  O  O261  1  0.50000000  0.50000000  0.00000000  1
  O  O262  1  0.66666667  0.66666667  0.00000000  1
  O  O263  1  0.83333333  0.83333333  0.00000000  1
  O  O264  1  0.33333333  -0.00000000  0.00000000  1
  O  O265  1  0.50000000  0.16666667  0.00000000  1
  O  O266  1  0.66666667  0.33333333  0.00000000  1
  O  O267  1  0.83333333  0.50000000  0.00000000  1
  O  O268  1  0.66666667  -0.00000000  0.00000000  1
  O  O269  1  0.83333333  0.16666667  0.00000000  1
  O  O270  1  0.16666667  0.66666667  0.50000000  1
  O  O271  1  0.33333333  0.83333333  0.50000000  1
  O  O272  1  0.16666667  0.33333333  0.50000000  1
  O  O273  1  0.33333333  0.50000000  0.50000000  1
  O  O274  1  0.50000000  0.66666667  0.50000000  1
  O  O275  1  0.66666667  0.83333333  0.50000000  1
  O  O276  1  0.16666667  0.00000000  0.50000000  1
  O  O277  1  0.33333333  0.16666667  0.50000000  1
  O  O278  1  0.50000000  0.33333333  0.50000000  1
  O  O279  1  0.66666667  0.50000000  0.50000000  1
  O  O280  1  0.83333333  0.66666667  0.50000000  1
  O  O281  1  1.00000000  0.83333333  0.50000000  1
  O  O282  1  0.50000000  -0.00000000  0.50000000  1
  O  O283  1  0.66666667  0.16666667  0.50000000  1
  O  O284  1  0.83333333  0.33333333  0.50000000  1
  O  O285  1  1.00000000  0.50000000  0.50000000  1
  O  O286  1  0.83333333  0.00000000  0.50000000  1
  O  O287  1  1.00000000  0.16666667  0.50000000  1
  O  O288  1  0.08333333  0.58333333  0.09627753  1
  O  O289  1  0.25000000  0.75000000  0.09627753  1
  O  O290  1  0.08333333  0.25000000  0.09627753  1
  O  O291  1  0.25000000  0.41666667  0.09627753  1
  O  O292  1  0.41666667  0.58333333  0.09627753  1
  O  O293  1  0.58333333  0.75000000  0.09627753  1
  O  O294  1  0.08333333  -0.08333333  0.09627753  1
  O  O295  1  0.25000000  0.08333333  0.09627753  1
  O  O296  1  0.41666667  0.25000000  0.09627753  1
  O  O297  1  0.58333333  0.41666667  0.09627753  1
  O  O298  1  0.75000000  0.58333333  0.09627753  1
  O  O299  1  0.91666667  0.75000000  0.09627753  1
  O  O300  1  0.41666667  -0.08333333  0.09627753  1
  O  O301  1  0.58333333  0.08333333  0.09627753  1
  O  O302  1  0.75000000  0.25000000  0.09627753  1
  O  O303  1  0.91666667  0.41666667  0.09627753  1
  O  O304  1  0.75000000  -0.08333333  0.09627753  1
  O  O305  1  0.91666667  0.08333333  0.09627753  1
  O  O306  1  0.25000000  0.58333333  0.59627753  1
  O  O307  1  0.41666667  0.75000000  0.59627753  1
  O  O308  1  0.25000000  0.25000000  0.59627753  1
  O  O309  1  0.41666667  0.41666667  0.59627753  1
  O  O310  1  0.58333333  0.58333333  0.59627753  1
  O  O311  1  0.75000000  0.75000000  0.59627753  1
  O  O312  1  0.25000000  -0.08333333  0.59627753  1
  O  O313  1  0.41666667  0.08333333  0.59627753  1
  O  O314  1  0.58333333  0.25000000  0.59627753  1
  O  O315  1  0.75000000  0.41666667  0.59627753  1
  O  O316  1  0.91666667  0.58333333  0.59627753  1
  O  O317  1  1.08333333  0.75000000  0.59627753  1
  O  O318  1  0.58333333  -0.08333333  0.59627753  1
  O  O319  1  0.75000000  0.08333333  0.59627753  1
  O  O320  1  0.91666667  0.25000000  0.59627753  1
  O  O321  1  1.08333333  0.41666667  0.59627753  1
  O  O322  1  0.91666667  -0.08333333  0.59627753  1
  O  O323  1  1.08333333  0.08333333  0.59627753  1
  O  O324  1  0.08333333  0.75000000  0.09627753  1
  O  O325  1  0.25000000  0.91666667  0.09627753  1
  O  O326  1  0.08333333  0.41666667  0.09627753  1
  O  O327  1  0.25000000  0.58333333  0.09627753  1
  O  O328  1  0.41666667  0.75000000  0.09627753  1
  O  O329  1  0.58333333  0.91666667  0.09627753  1
  O  O330  1  0.08333333  0.08333333  0.09627753  1
  O  O331  1  0.25000000  0.25000000  0.09627753  1
  O  O332  1  0.41666667  0.41666667  0.09627753  1
  O  O333  1  0.58333333  0.58333333  0.09627753  1
  O  O334  1  0.75000000  0.75000000  0.09627753  1
  O  O335  1  0.91666667  0.91666667  0.09627753  1
  O  O336  1  0.41666667  0.08333333  0.09627753  1
  O  O337  1  0.58333333  0.25000000  0.09627753  1
  O  O338  1  0.75000000  0.41666667  0.09627753  1
  O  O339  1  0.91666667  0.58333333  0.09627753  1
  O  O340  1  0.75000000  0.08333333  0.09627753  1
  O  O341  1  0.91666667  0.25000000  0.09627753  1
  O  O342  1  0.25000000  0.75000000  0.59627753  1
  O  O343  1  0.41666667  0.91666667  0.59627753  1
  O  O344  1  0.25000000  0.41666667  0.59627753  1
  O  O345  1  0.41666667  0.58333333  0.59627753  1
  O  O346  1  0.58333333  0.75000000  0.59627753  1
  O  O347  1  0.75000000  0.91666667  0.59627753  1
  O  O348  1  0.25000000  0.08333333  0.59627753  1
  O  O349  1  0.41666667  0.25000000  0.59627753  1
  O  O350  1  0.58333333  0.41666667  0.59627753  1
  O  O351  1  0.75000000  0.58333333  0.59627753  1
  O  O352  1  0.91666667  0.75000000  0.59627753  1
  O  O353  1  1.08333333  0.91666667  0.59627753  1
  O  O354  1  0.58333333  0.08333333  0.59627753  1
  O  O355  1  0.75000000  0.25000000  0.59627753  1
  O  O356  1  0.91666667  0.41666667  0.59627753  1
  O  O357  1  1.08333333  0.58333333  0.59627753  1
  O  O358  1  0.91666667  0.08333333  0.59627753  1
  O  O359  1  1.08333333  0.25000000  0.59627753  1
  O  O360  1  0.08333333  0.75000000  0.40372247  1
  O  O361  1  0.25000000  0.91666667  0.40372247  1
  O  O362  1  0.08333333  0.41666667  0.40372247  1
  O  O363  1  0.25000000  0.58333333  0.40372247  1
  O  O364  1  0.41666667  0.75000000  0.40372247  1
  O  O365  1  0.58333333  0.91666667  0.40372247  1
  O  O366  1  0.08333333  0.08333333  0.40372247  1
  O  O367  1  0.25000000  0.25000000  0.40372247  1
  O  O368  1  0.41666667  0.41666667  0.40372247  1
  O  O369  1  0.58333333  0.58333333  0.40372247  1
  O  O370  1  0.75000000  0.75000000  0.40372247  1
  O  O371  1  0.91666667  0.91666667  0.40372247  1
  O  O372  1  0.41666667  0.08333333  0.40372247  1
  O  O373  1  0.58333333  0.25000000  0.40372247  1
  O  O374  1  0.75000000  0.41666667  0.40372247  1
  O  O375  1  0.91666667  0.58333333  0.40372247  1
  O  O376  1  0.75000000  0.08333333  0.40372247  1
  O  O377  1  0.91666667  0.25000000  0.40372247  1
  O  O378  1  0.25000000  0.75000000  0.90372247  1
  O  O379  1  0.41666667  0.91666667  0.90372247  1
  O  O380  1  0.25000000  0.41666667  0.90372247  1
  O  O381  1  0.41666667  0.58333333  0.90372247  1
  O  O382  1  0.58333333  0.75000000  0.90372247  1
  O  O383  1  0.75000000  0.91666667  0.90372247  1
  O  O384  1  0.25000000  0.08333333  0.90372247  1
  O  O385  1  0.41666667  0.25000000  0.90372247  1
  O  O386  1  0.58333333  0.41666667  0.90372247  1
  O  O387  1  0.75000000  0.58333333  0.90372247  1
  O  O388  1  0.91666667  0.75000000  0.90372247  1
  O  O389  1  1.08333333  0.91666667  0.90372247  1
  O  O390  1  0.58333333  0.08333333  0.90372247  1
  O  O391  1  0.75000000  0.25000000  0.90372247  1
  O  O392  1  0.91666667  0.41666667  0.90372247  1
  O  O393  1  1.08333333  0.58333333  0.90372247  1
  O  O394  1  0.91666667  0.08333333  0.90372247  1
  O  O395  1  1.08333333  0.25000000  0.90372247  1
  O  O396  1  -0.00000000  0.66666667  0.19451400  1
  O  O397  1  0.16666667  0.83333333  0.19451400  1
  O  O398  1  -0.00000000  0.33333333  0.19451400  1
  O  O399  1  0.16666667  0.50000000  0.19451400  1
  O  O400  1  0.33333333  0.66666667  0.19451400  1
  O  O401  1  0.50000000  0.83333333  0.19451400  1
  O  O402  1  0.00000000  -0.00000000  0.19451400  1
  O  O403  1  0.16666667  0.16666667  0.19451400  1
  O  O404  1  0.33333333  0.33333333  0.19451400  1
  O  O405  1  0.50000000  0.50000000  0.19451400  1
  O  O406  1  0.66666667  0.66666667  0.19451400  1
  O  O407  1  0.83333333  0.83333333  0.19451400  1
  O  O408  1  0.33333333  -0.00000000  0.19451400  1
  O  O409  1  0.50000000  0.16666667  0.19451400  1
  O  O410  1  0.66666667  0.33333333  0.19451400  1
  O  O411  1  0.83333333  0.50000000  0.19451400  1
  O  O412  1  0.66666667  -0.00000000  0.19451400  1
  O  O413  1  0.83333333  0.16666667  0.19451400  1
  O  O414  1  0.16666667  0.66666667  0.69451400  1
  O  O415  1  0.33333333  0.83333333  0.69451400  1
  O  O416  1  0.16666667  0.33333333  0.69451400  1
  O  O417  1  0.33333333  0.50000000  0.69451400  1
  O  O418  1  0.50000000  0.66666667  0.69451400  1
  O  O419  1  0.66666667  0.83333333  0.69451400  1
  O  O420  1  0.16666667  0.00000000  0.69451400  1
  O  O421  1  0.33333333  0.16666667  0.69451400  1
  O  O422  1  0.50000000  0.33333333  0.69451400  1
  O  O423  1  0.66666667  0.50000000  0.69451400  1
  O  O424  1  0.83333333  0.66666667  0.69451400  1
  O  O425  1  1.00000000  0.83333333  0.69451400  1
  O  O426  1  0.50000000  -0.00000000  0.69451400  1
  O  O427  1  0.66666667  0.16666667  0.69451400  1
  O  O428  1  0.83333333  0.33333333  0.69451400  1
  O  O429  1  1.00000000  0.50000000  0.69451400  1
  O  O430  1  0.83333333  0.00000000  0.69451400  1
  O  O431  1  1.00000000  0.16666667  0.69451400  1
