# generated using pymatgen
data_La2Be2GeO7
_symmetry_space_group_name_H-M   'P 1'
_cell_length_a   15.34193572
_cell_length_b   15.34193572
_cell_length_c   14.81007443
_cell_angle_alpha   90.00000000
_cell_angle_beta   90.00000000
_cell_angle_gamma   90.00000000
_symmetry_Int_Tables_number   1
_chemical_formula_structural   La2Be2GeO7
_chemical_formula_sum   'La48 Be48 Ge24 O168'
_cell_volume   3485.92114279
_cell_formula_units_Z   24
loop_
 _symmetry_equiv_pos_site_id
 _symmetry_equiv_pos_as_xyz
  1  'x, y, z'
loop_
 _atom_site_type_symbol
 _atom_site_label
 _atom_site_symmetry_multiplicity
 _atom_site_fract_x
 _atom_site_fract_y
 _atom_site_fract_z
 _atom_site_occupancy
  La  La0  1  0.41986151  0.16986151  0.16729168  1
  La  La1  1  0.41986151  0.16986151  0.50062502  1
  La  La2  1  0.41986151  0.16986151  0.83395835  1
  La  La3  1  0.91986151  0.16986151  0.16729168  1
  La  La4  1  0.91986151  0.16986151  0.50062502  1
  La  La5  1  0.91986151  0.16986151  0.83395835  1
  La  La6  1  0.41986151  -0.33013849  0.16729168  1
  La  La7  1  0.41986151  -0.33013849  0.50062502  1
  La  La8  1  0.41986151  -0.33013849  0.83395835  1
  La  La9  1  0.91986151  -0.33013849  0.16729168  1
  La  La10  1  0.91986151  -0.33013849  0.50062502  1
  La  La11  1  0.91986151  -0.33013849  0.83395835  1
  La  La12  1  0.33013849  0.41986151  0.16604165  1
  La  La13  1  0.33013849  0.41986151  0.49937498  1
  La  La14  1  0.33013849  0.41986151  0.83270832  1
  La  La15  1  0.83013849  0.41986151  0.16604165  1
  La  La16  1  0.83013849  0.41986151  0.49937498  1
  La  La17  1  0.83013849  0.41986151  0.83270832  1
  La  La18  1  0.33013849  -0.08013849  0.16604165  1
  La  La19  1  0.33013849  -0.08013849  0.49937498  1
  La  La20  1  0.33013849  -0.08013849  0.83270832  1
  La  La21  1  0.83013849  -0.08013849  0.16604165  1
  La  La22  1  0.83013849  -0.08013849  0.49937498  1
  La  La23  1  0.83013849  -0.08013849  0.83270832  1
  La  La24  1  0.16986151  0.08013849  0.16604165  1
  La  La25  1  0.16986151  0.08013849  0.49937498  1
  La  La26  1  0.16986151  0.08013849  0.83270832  1
  La  La27  1  0.66986151  0.08013849  0.16604165  1
  La  La28  1  0.66986151  0.08013849  0.49937498  1
  La  La29  1  0.66986151  0.08013849  0.83270832  1
  La  La30  1  0.16986151  -0.41986151  0.16604165  1
  La  La31  1  0.16986151  -0.41986151  0.49937498  1
  La  La32  1  0.16986151  -0.41986151  0.83270832  1
  La  La33  1  0.66986151  -0.41986151  0.16604165  1
  La  La34  1  0.66986151  -0.41986151  0.49937498  1
  La  La35  1  0.66986151  -0.41986151  0.83270832  1
  La  La36  1  0.08013849  0.33013849  0.16729168  1
  La  La37  1  0.08013849  0.33013849  0.50062502  1
  La  La38  1  0.08013849  0.33013849  0.83395835  1
  La  La39  1  0.58013849  0.33013849  0.16729168  1
  La  La40  1  0.58013849  0.33013849  0.50062502  1
  La  La41  1  0.58013849  0.33013849  0.83395835  1
  La  La42  1  0.08013849  -0.16986151  0.16729168  1
  La  La43  1  0.08013849  -0.16986151  0.50062502  1
  La  La44  1  0.08013849  -0.16986151  0.83395835  1
  La  La45  1  0.58013849  -0.16986151  0.16729168  1
  La  La46  1  0.58013849  -0.16986151  0.50062502  1
  La  La47  1  0.58013849  -0.16986151  0.83395835  1
  Be  Be48  1  0.43345093  0.31654907  0.01303329  1
  Be  Be49  1  0.43345093  0.31654907  0.34636662  1
  Be  Be50  1  0.43345093  0.31654907  0.67969995  1
  Be  Be51  1  0.93345093  0.31654907  0.01303329  1
  Be  Be52  1  0.93345093  0.31654907  0.34636662  1
  Be  Be53  1  0.93345093  0.31654907  0.67969995  1
  Be  Be54  1  0.43345093  -0.18345093  0.01303329  1
  Be  Be55  1  0.43345093  -0.18345093  0.34636662  1
  Be  Be56  1  0.43345093  -0.18345093  0.67969995  1
  Be  Be57  1  0.93345093  -0.18345093  0.01303329  1
  Be  Be58  1  0.93345093  -0.18345093  0.34636662  1
  Be  Be59  1  0.93345093  -0.18345093  0.67969995  1
  Be  Be60  1  0.31654907  0.06654907  0.32030005  1
  Be  Be61  1  0.31654907  0.06654907  0.65363338  1
  Be  Be62  1  0.31654907  0.06654907  0.98696671  1
  Be  Be63  1  0.81654907  0.06654907  0.32030005  1
  Be  Be64  1  0.81654907  0.06654907  0.65363338  1
  Be  Be65  1  0.81654907  0.06654907  0.98696671  1
  Be  Be66  1  0.31654907  -0.43345093  0.32030005  1
  Be  Be67  1  0.31654907  -0.43345093  0.65363338  1
  Be  Be68  1  0.31654907  -0.43345093  0.98696671  1
  Be  Be69  1  0.81654907  -0.43345093  0.32030005  1
  Be  Be70  1  0.81654907  -0.43345093  0.65363338  1
  Be  Be71  1  0.81654907  -0.43345093  0.98696671  1
  Be  Be72  1  0.06654907  0.18345093  0.01303329  1
  Be  Be73  1  0.06654907  0.18345093  0.34636662  1
  Be  Be74  1  0.06654907  0.18345093  0.67969995  1
  Be  Be75  1  0.56654907  0.18345093  0.01303329  1
  Be  Be76  1  0.56654907  0.18345093  0.34636662  1
  Be  Be77  1  0.56654907  0.18345093  0.67969995  1
  Be  Be78  1  0.06654907  -0.31654907  0.01303329  1
  Be  Be79  1  0.06654907  -0.31654907  0.34636662  1
  Be  Be80  1  0.06654907  -0.31654907  0.67969995  1
  Be  Be81  1  0.56654907  -0.31654907  0.01303329  1
  Be  Be82  1  0.56654907  -0.31654907  0.34636662  1
  Be  Be83  1  0.56654907  -0.31654907  0.67969995  1
  Be  Be84  1  0.18345093  0.43345093  0.32030005  1
  Be  Be85  1  0.18345093  0.43345093  0.65363338  1
  Be  Be86  1  0.18345093  0.43345093  0.98696671  1
  Be  Be87  1  0.68345093  0.43345093  0.32030005  1
  Be  Be88  1  0.68345093  0.43345093  0.65363338  1
  Be  Be89  1  0.68345093  0.43345093  0.98696671  1
  Be  Be90  1  0.18345093  -0.06654907  0.32030005  1
  Be  Be91  1  0.18345093  -0.06654907  0.65363338  1
  Be  Be92  1  0.18345093  -0.06654907  0.98696671  1
  Be  Be93  1  0.68345093  -0.06654907  0.32030005  1
  Be  Be94  1  0.68345093  -0.06654907  0.65363338  1
  Be  Be95  1  0.68345093  -0.06654907  0.98696671  1
  Ge  Ge96  1  0.25000000  0.25000000  0.00000000  1
  Ge  Ge97  1  0.25000000  0.25000000  0.33333333  1
  Ge  Ge98  1  0.25000000  0.25000000  0.66666667  1
  Ge  Ge99  1  0.75000000  0.25000000  0.00000000  1
  Ge  Ge100  1  0.75000000  0.25000000  0.33333333  1
  Ge  Ge101  1  0.75000000  0.25000000  0.66666667  1
  Ge  Ge102  1  0.25000000  -0.25000000  0.00000000  1
  Ge  Ge103  1  0.25000000  -0.25000000  0.33333333  1
  Ge  Ge104  1  0.25000000  -0.25000000  0.66666667  1
  Ge  Ge105  1  0.75000000  -0.25000000  0.00000000  1
  Ge  Ge106  1  0.75000000  -0.25000000  0.33333333  1
  Ge  Ge107  1  0.75000000  -0.25000000  0.66666667  1
  Ge  Ge108  1  0.00000000  0.50000000  0.00000000  1
  Ge  Ge109  1  0.00000000  0.50000000  0.33333333  1
  Ge  Ge110  1  0.00000000  0.50000000  0.66666667  1
  Ge  Ge111  1  0.50000000  0.50000000  0.00000000  1
  Ge  Ge112  1  0.50000000  0.50000000  0.33333333  1
  Ge  Ge113  1  0.50000000  0.50000000  0.66666667  1
  Ge  Ge114  1  0.00000000  0.00000000  0.00000000  1
  Ge  Ge115  1  0.00000000  0.00000000  0.33333333  1
  Ge  Ge116  1  0.00000000  0.00000000  0.66666667  1
  Ge  Ge117  1  0.50000000  0.00000000  0.00000000  1
  Ge  Ge118  1  0.50000000  0.00000000  0.33333333  1
  Ge  Ge119  1  0.50000000  0.00000000  0.66666667  1
  O  O120  1  0.41216721  0.03878316  0.26557913  1
  O  O121  1  0.41216721  0.03878316  0.59891246  1
  O  O122  1  0.41216721  0.03878316  0.93224580  1
  O  O123  1  0.91216721  0.03878316  0.26557913  1
  O  O124  1  0.91216721  0.03878316  0.59891246  1
  O  O125  1  0.91216721  0.03878316  0.93224580  1
  O  O126  1  0.41216721  -0.46121684  0.26557913  1
  O  O127  1  0.41216721  -0.46121684  0.59891246  1
  O  O128  1  0.41216721  -0.46121684  0.93224580  1
  O  O129  1  0.91216721  -0.46121684  0.26557913  1
  O  O130  1  0.91216721  -0.46121684  0.59891246  1
  O  O131  1  0.91216721  -0.46121684  0.93224580  1
  O  O132  1  0.46121684  0.41216721  0.06775420  1
  O  O133  1  0.46121684  0.41216721  0.40108754  1
  O  O134  1  0.46121684  0.41216721  0.73442087  1
  O  O135  1  0.96121684  0.41216721  0.06775420  1
  O  O136  1  0.96121684  0.41216721  0.40108754  1
  O  O137  1  0.96121684  0.41216721  0.73442087  1
  O  O138  1  0.46121684  -0.08783279  0.06775420  1
  O  O139  1  0.46121684  -0.08783279  0.40108754  1
  O  O140  1  0.46121684  -0.08783279  0.73442087  1
  O  O141  1  0.96121684  -0.08783279  0.06775420  1
  O  O142  1  0.96121684  -0.08783279  0.40108754  1
  O  O143  1  0.96121684  -0.08783279  0.73442087  1
  O  O144  1  0.16216721  0.21121684  0.06775420  1
  O  O145  1  0.16216721  0.21121684  0.40108754  1
  O  O146  1  0.16216721  0.21121684  0.73442087  1
  O  O147  1  0.66216721  0.21121684  0.06775420  1
  O  O148  1  0.66216721  0.21121684  0.40108754  1
  O  O149  1  0.66216721  0.21121684  0.73442087  1
  O  O150  1  0.16216721  -0.28878316  0.06775420  1
  O  O151  1  0.16216721  -0.28878316  0.40108754  1
  O  O152  1  0.16216721  -0.28878316  0.73442087  1
  O  O153  1  0.66216721  -0.28878316  0.06775420  1
  O  O154  1  0.66216721  -0.28878316  0.40108754  1
  O  O155  1  0.66216721  -0.28878316  0.73442087  1
  O  O156  1  0.33783279  0.28878316  0.06775420  1
  O  O157  1  0.33783279  0.28878316  0.40108754  1
  O  O158  1  0.33783279  0.28878316  0.73442087  1
  O  O159  1  0.83783279  0.28878316  0.06775420  1
  O  O160  1  0.83783279  0.28878316  0.40108754  1
  O  O161  1  0.83783279  0.28878316  0.73442087  1
  O  O162  1  0.33783279  -0.21121684  0.06775420  1
  O  O163  1  0.33783279  -0.21121684  0.40108754  1
  O  O164  1  0.33783279  -0.21121684  0.73442087  1
  O  O165  1  0.83783279  -0.21121684  0.06775420  1
  O  O166  1  0.83783279  -0.21121684  0.40108754  1
  O  O167  1  0.83783279  -0.21121684  0.73442087  1
  O  O168  1  0.21121684  0.33783279  0.26557913  1
  O  O169  1  0.21121684  0.33783279  0.59891246  1
  O  O170  1  0.21121684  0.33783279  0.93224580  1
  O  O171  1  0.71121684  0.33783279  0.26557913  1
  O  O172  1  0.71121684  0.33783279  0.59891246  1
  O  O173  1  0.71121684  0.33783279  0.93224580  1
  O  O174  1  0.21121684  -0.16216721  0.26557913  1
  O  O175  1  0.21121684  -0.16216721  0.59891246  1
  O  O176  1  0.21121684  -0.16216721  0.93224580  1
  O  O177  1  0.71121684  -0.16216721  0.26557913  1
  O  O178  1  0.71121684  -0.16216721  0.59891246  1
  O  O179  1  0.71121684  -0.16216721  0.93224580  1
  O  O180  1  0.28878316  0.16216721  0.26557913  1
  O  O181  1  0.28878316  0.16216721  0.59891246  1
  O  O182  1  0.28878316  0.16216721  0.93224580  1
  O  O183  1  0.78878316  0.16216721  0.26557913  1
  O  O184  1  0.78878316  0.16216721  0.59891246  1
  O  O185  1  0.78878316  0.16216721  0.93224580  1
  O  O186  1  0.28878316  -0.33783279  0.26557913  1
  O  O187  1  0.28878316  -0.33783279  0.59891246  1
  O  O188  1  0.28878316  -0.33783279  0.93224580  1
  O  O189  1  0.78878316  -0.33783279  0.26557913  1
  O  O190  1  0.78878316  -0.33783279  0.59891246  1
  O  O191  1  0.78878316  -0.33783279  0.93224580  1
  O  O192  1  0.25000000  0.50000000  0.27749343  1
  O  O193  1  0.25000000  0.50000000  0.61082676  1
  O  O194  1  0.25000000  0.50000000  0.94416009  1
  O  O195  1  0.75000000  0.50000000  0.27749343  1
  O  O196  1  0.75000000  0.50000000  0.61082676  1
  O  O197  1  0.75000000  0.50000000  0.94416009  1
  O  O198  1  0.25000000  0.00000000  0.27749343  1
  O  O199  1  0.25000000  0.00000000  0.61082676  1
  O  O200  1  0.25000000  0.00000000  0.94416009  1
  O  O201  1  0.75000000  0.00000000  0.27749343  1
  O  O202  1  0.75000000  0.00000000  0.61082676  1
  O  O203  1  0.75000000  0.00000000  0.94416009  1
  O  O204  1  0.00000000  0.25000000  0.05583991  1
  O  O205  1  0.00000000  0.25000000  0.38917324  1
  O  O206  1  0.00000000  0.25000000  0.72250657  1
  O  O207  1  0.50000000  0.25000000  0.05583991  1
  O  O208  1  0.50000000  0.25000000  0.38917324  1
  O  O209  1  0.50000000  0.25000000  0.72250657  1
  O  O210  1  0.00000000  -0.25000000  0.05583991  1
  O  O211  1  0.00000000  -0.25000000  0.38917324  1
  O  O212  1  0.00000000  -0.25000000  0.72250657  1
  O  O213  1  0.50000000  -0.25000000  0.05583991  1
  O  O214  1  0.50000000  -0.25000000  0.38917324  1
  O  O215  1  0.50000000  -0.25000000  0.72250657  1
  O  O216  1  0.17882215  0.42882215  0.09398770  1
  O  O217  1  0.17882215  0.42882215  0.42732103  1
  O  O218  1  0.17882215  0.42882215  0.76065436  1
  O  O219  1  0.67882215  0.42882215  0.09398770  1
  O  O220  1  0.67882215  0.42882215  0.42732103  1
  O  O221  1  0.67882215  0.42882215  0.76065436  1
  O  O222  1  0.17882215  -0.07117785  0.09398770  1
  O  O223  1  0.17882215  -0.07117785  0.42732103  1
  O  O224  1  0.17882215  -0.07117785  0.76065436  1
  O  O225  1  0.67882215  -0.07117785  0.09398770  1
  O  O226  1  0.67882215  -0.07117785  0.42732103  1
  O  O227  1  0.67882215  -0.07117785  0.76065436  1
  O  O228  1  0.07117785  0.17882215  0.23934564  1
  O  O229  1  0.07117785  0.17882215  0.57267897  1
  O  O230  1  0.07117785  0.17882215  0.90601230  1
  O  O231  1  0.57117785  0.17882215  0.23934564  1
  O  O232  1  0.57117785  0.17882215  0.57267897  1
  O  O233  1  0.57117785  0.17882215  0.90601230  1
  O  O234  1  0.07117785  -0.32117785  0.23934564  1
  O  O235  1  0.07117785  -0.32117785  0.57267897  1
  O  O236  1  0.07117785  -0.32117785  0.90601230  1
  O  O237  1  0.57117785  -0.32117785  0.23934564  1
  O  O238  1  0.57117785  -0.32117785  0.57267897  1
  O  O239  1  0.57117785  -0.32117785  0.90601230  1
  O  O240  1  0.42882215  0.32117785  0.23934564  1
  O  O241  1  0.42882215  0.32117785  0.57267897  1
  O  O242  1  0.42882215  0.32117785  0.90601230  1
  O  O243  1  0.92882215  0.32117785  0.23934564  1
  O  O244  1  0.92882215  0.32117785  0.57267897  1
  O  O245  1  0.92882215  0.32117785  0.90601230  1
  O  O246  1  0.42882215  -0.17882215  0.23934564  1
  O  O247  1  0.42882215  -0.17882215  0.57267897  1
  O  O248  1  0.42882215  -0.17882215  0.90601230  1
  O  O249  1  0.92882215  -0.17882215  0.23934564  1
  O  O250  1  0.92882215  -0.17882215  0.57267897  1
  O  O251  1  0.92882215  -0.17882215  0.90601230  1
  O  O252  1  0.32117785  0.07117785  0.09398770  1
  O  O253  1  0.32117785  0.07117785  0.42732103  1
  O  O254  1  0.32117785  0.07117785  0.76065436  1
  O  O255  1  0.82117785  0.07117785  0.09398770  1
  O  O256  1  0.82117785  0.07117785  0.42732103  1
  O  O257  1  0.82117785  0.07117785  0.76065436  1
  O  O258  1  0.32117785  -0.42882215  0.09398770  1
  O  O259  1  0.32117785  -0.42882215  0.42732103  1
  O  O260  1  0.32117785  -0.42882215  0.76065436  1
  O  O261  1  0.82117785  -0.42882215  0.09398770  1
  O  O262  1  0.82117785  -0.42882215  0.42732103  1
  O  O263  1  0.82117785  -0.42882215  0.76065436  1
  O  O264  1  0.08783279  0.46121684  0.26557913  1
  O  O265  1  0.08783279  0.46121684  0.59891246  1
  O  O266  1  0.08783279  0.46121684  0.93224580  1
  O  O267  1  0.58783279  0.46121684  0.26557913  1
  O  O268  1  0.58783279  0.46121684  0.59891246  1
  O  O269  1  0.58783279  0.46121684  0.93224580  1
  O  O270  1  0.08783279  -0.03878316  0.26557913  1
  O  O271  1  0.08783279  -0.03878316  0.59891246  1
  O  O272  1  0.08783279  -0.03878316  0.93224580  1
  O  O273  1  0.58783279  -0.03878316  0.26557913  1
  O  O274  1  0.58783279  -0.03878316  0.59891246  1
  O  O275  1  0.58783279  -0.03878316  0.93224580  1
  O  O276  1  0.03878316  0.08783279  0.06775420  1
  O  O277  1  0.03878316  0.08783279  0.40108754  1
  O  O278  1  0.03878316  0.08783279  0.73442087  1
  O  O279  1  0.53878316  0.08783279  0.06775420  1
  O  O280  1  0.53878316  0.08783279  0.40108754  1
  O  O281  1  0.53878316  0.08783279  0.73442087  1
  O  O282  1  0.03878316  -0.41216721  0.06775420  1
  O  O283  1  0.03878316  -0.41216721  0.40108754  1
  O  O284  1  0.03878316  -0.41216721  0.73442087  1
  O  O285  1  0.53878316  -0.41216721  0.06775420  1
  O  O286  1  0.53878316  -0.41216721  0.40108754  1
  O  O287  1  0.53878316  -0.41216721  0.73442087  1
