# generated using pymatgen
data_YTaO4
_symmetry_space_group_name_H-M   'P 1'
_cell_length_a   15.32228266
_cell_length_b   16.26790314
_cell_length_c   15.85979369
_cell_angle_alpha   90.00000000
_cell_angle_beta   96.95875256
_cell_angle_gamma   90.00000000
_symmetry_Int_Tables_number   1
_chemical_formula_structural   YTaO4
_chemical_formula_sum   'Y54 Ta54 O216'
_cell_volume   3924.11354728
_cell_formula_units_Z   54
loop_
 _symmetry_equiv_pos_site_id
 _symmetry_equiv_pos_as_xyz
  1  'x, y, z'
loop_
 _atom_site_type_symbol
 _atom_site_label
 _atom_site_symmetry_multiplicity
 _atom_site_fract_x
 _atom_site_fract_y
 _atom_site_fract_z
 _atom_site_occupancy
  Y  Y0  1  0.00000000  0.07790745  0.08333333  1
  Y  Y1  1  0.00000000  0.07790745  0.41666667  1
  Y  Y2  1  0.00000000  0.07790745  0.75000000  1
  Y  Y3  1  0.00000000  0.41124078  0.08333333  1
  Y  Y4  1  0.00000000  0.41124078  0.41666667  1
  Y  Y5  1  0.00000000  0.41124078  0.75000000  1
  Y  Y6  1  0.00000000  0.74457411  0.08333333  1
  Y  Y7  1  0.00000000  0.74457411  0.41666667  1
  Y  Y8  1  0.00000000  0.74457411  0.75000000  1
  Y  Y9  1  0.33333333  0.07790745  0.08333333  1
  Y  Y10  1  0.33333333  0.07790745  0.41666667  1
  Y  Y11  1  0.33333333  0.07790745  0.75000000  1
  Y  Y12  1  0.33333333  0.41124078  0.08333333  1
  Y  Y13  1  0.33333333  0.41124078  0.41666667  1
  Y  Y14  1  0.33333333  0.41124078  0.75000000  1
  Y  Y15  1  0.33333333  0.74457411  0.08333333  1
  Y  Y16  1  0.33333333  0.74457411  0.41666667  1
  Y  Y17  1  0.33333333  0.74457411  0.75000000  1
  Y  Y18  1  0.66666667  0.07790745  0.08333333  1
  Y  Y19  1  0.66666667  0.07790745  0.41666667  1
  Y  Y20  1  0.66666667  0.07790745  0.75000000  1
  Y  Y21  1  0.66666667  0.41124078  0.08333333  1
  Y  Y22  1  0.66666667  0.41124078  0.41666667  1
  Y  Y23  1  0.66666667  0.41124078  0.75000000  1
  Y  Y24  1  0.66666667  0.74457411  0.08333333  1
  Y  Y25  1  0.66666667  0.74457411  0.41666667  1
  Y  Y26  1  0.66666667  0.74457411  0.75000000  1
  Y  Y27  1  0.00000000  0.25542589  0.25000000  1
  Y  Y28  1  -0.00000000  0.25542589  0.58333333  1
  Y  Y29  1  0.00000000  0.25542589  0.91666667  1
  Y  Y30  1  0.00000000  0.58875922  0.25000000  1
  Y  Y31  1  -0.00000000  0.58875922  0.58333333  1
  Y  Y32  1  0.00000000  0.58875922  0.91666667  1
  Y  Y33  1  0.00000000  0.92209255  0.25000000  1
  Y  Y34  1  -0.00000000  0.92209255  0.58333333  1
  Y  Y35  1  0.00000000  0.92209255  0.91666667  1
  Y  Y36  1  0.33333333  0.25542589  0.25000000  1
  Y  Y37  1  0.33333333  0.25542589  0.58333333  1
  Y  Y38  1  0.33333333  0.25542589  0.91666667  1
  Y  Y39  1  0.33333333  0.58875922  0.25000000  1
  Y  Y40  1  0.33333333  0.58875922  0.58333333  1
  Y  Y41  1  0.33333333  0.58875922  0.91666667  1
  Y  Y42  1  0.33333333  0.92209255  0.25000000  1
  Y  Y43  1  0.33333333  0.92209255  0.58333333  1
  Y  Y44  1  0.33333333  0.92209255  0.91666667  1
  Y  Y45  1  0.66666667  0.25542589  0.25000000  1
  Y  Y46  1  0.66666667  0.25542589  0.58333333  1
  Y  Y47  1  0.66666667  0.25542589  0.91666667  1
  Y  Y48  1  0.66666667  0.58875922  0.25000000  1
  Y  Y49  1  0.66666667  0.58875922  0.58333333  1
  Y  Y50  1  0.66666667  0.58875922  0.91666667  1
  Y  Y51  1  0.66666667  0.92209255  0.25000000  1
  Y  Y52  1  0.66666667  0.92209255  0.58333333  1
  Y  Y53  1  0.66666667  0.92209255  0.91666667  1
  Ta  Ta54  1  0.16666667  0.23101274  0.08333333  1
  Ta  Ta55  1  0.16666667  0.23101274  0.41666667  1
  Ta  Ta56  1  0.16666667  0.23101274  0.75000000  1
  Ta  Ta57  1  0.16666667  0.56434607  0.08333333  1
  Ta  Ta58  1  0.16666667  0.56434607  0.41666667  1
  Ta  Ta59  1  0.16666667  0.56434607  0.75000000  1
  Ta  Ta60  1  0.16666667  0.89767941  0.08333333  1
  Ta  Ta61  1  0.16666667  0.89767941  0.41666667  1
  Ta  Ta62  1  0.16666667  0.89767941  0.75000000  1
  Ta  Ta63  1  0.50000000  0.23101274  0.08333333  1
  Ta  Ta64  1  0.50000000  0.23101274  0.41666667  1
  Ta  Ta65  1  0.50000000  0.23101274  0.75000000  1
  Ta  Ta66  1  0.50000000  0.56434607  0.08333333  1
  Ta  Ta67  1  0.50000000  0.56434607  0.41666667  1
  Ta  Ta68  1  0.50000000  0.56434607  0.75000000  1
  Ta  Ta69  1  0.50000000  0.89767941  0.08333333  1
  Ta  Ta70  1  0.50000000  0.89767941  0.41666667  1
  Ta  Ta71  1  0.50000000  0.89767941  0.75000000  1
  Ta  Ta72  1  0.83333333  0.23101274  0.08333333  1
  Ta  Ta73  1  0.83333333  0.23101274  0.41666667  1
  Ta  Ta74  1  0.83333333  0.23101274  0.75000000  1
  Ta  Ta75  1  0.83333333  0.56434607  0.08333333  1
  Ta  Ta76  1  0.83333333  0.56434607  0.41666667  1
  Ta  Ta77  1  0.83333333  0.56434607  0.75000000  1
  Ta  Ta78  1  0.83333333  0.89767941  0.08333333  1
  Ta  Ta79  1  0.83333333  0.89767941  0.41666667  1
  Ta  Ta80  1  0.83333333  0.89767941  0.75000000  1
  Ta  Ta81  1  0.16666667  0.10232059  0.25000000  1
  Ta  Ta82  1  0.16666667  0.10232059  0.58333333  1
  Ta  Ta83  1  0.16666667  0.10232059  0.91666667  1
  Ta  Ta84  1  0.16666667  0.43565393  0.25000000  1
  Ta  Ta85  1  0.16666667  0.43565393  0.58333333  1
  Ta  Ta86  1  0.16666667  0.43565393  0.91666667  1
  Ta  Ta87  1  0.16666667  0.76898726  0.25000000  1
  Ta  Ta88  1  0.16666667  0.76898726  0.58333333  1
  Ta  Ta89  1  0.16666667  0.76898726  0.91666667  1
  Ta  Ta90  1  0.50000000  0.10232059  0.25000000  1
  Ta  Ta91  1  0.50000000  0.10232059  0.58333333  1
  Ta  Ta92  1  0.50000000  0.10232059  0.91666667  1
  Ta  Ta93  1  0.50000000  0.43565393  0.25000000  1
  Ta  Ta94  1  0.50000000  0.43565393  0.58333333  1
  Ta  Ta95  1  0.50000000  0.43565393  0.91666667  1
  Ta  Ta96  1  0.50000000  0.76898726  0.25000000  1
  Ta  Ta97  1  0.50000000  0.76898726  0.58333333  1
  Ta  Ta98  1  0.50000000  0.76898726  0.91666667  1
  Ta  Ta99  1  0.83333333  0.10232059  0.25000000  1
  Ta  Ta100  1  0.83333333  0.10232059  0.58333333  1
  Ta  Ta101  1  0.83333333  0.10232059  0.91666667  1
  Ta  Ta102  1  0.83333333  0.43565393  0.25000000  1
  Ta  Ta103  1  0.83333333  0.43565393  0.58333333  1
  Ta  Ta104  1  0.83333333  0.43565393  0.91666667  1
  Ta  Ta105  1  0.83333333  0.76898726  0.25000000  1
  Ta  Ta106  1  0.83333333  0.76898726  0.58333333  1
  Ta  Ta107  1  0.83333333  0.76898726  0.91666667  1
  O  O108  1  0.25027027  0.30637096  0.13317911  1
  O  O109  1  0.25027027  0.30637096  0.46651245  1
  O  O110  1  0.25027027  0.30637096  0.79984578  1
  O  O111  1  0.25027027  0.63970430  0.13317911  1
  O  O112  1  0.25027027  0.63970430  0.46651245  1
  O  O113  1  0.25027027  0.63970430  0.79984578  1
  O  O114  1  0.25027027  0.97303763  0.13317911  1
  O  O115  1  0.25027027  0.97303763  0.46651245  1
  O  O116  1  0.25027027  0.97303763  0.79984578  1
  O  O117  1  0.58360361  0.30637096  0.13317911  1
  O  O118  1  0.58360361  0.30637096  0.46651245  1
  O  O119  1  0.58360361  0.30637096  0.79984578  1
  O  O120  1  0.58360361  0.63970430  0.13317911  1
  O  O121  1  0.58360361  0.63970430  0.46651245  1
  O  O122  1  0.58360361  0.63970430  0.79984578  1
  O  O123  1  0.58360361  0.97303763  0.13317911  1
  O  O124  1  0.58360361  0.97303763  0.46651245  1
  O  O125  1  0.58360361  0.97303763  0.79984578  1
  O  O126  1  0.91693694  0.30637096  0.13317911  1
  O  O127  1  0.91693694  0.30637096  0.46651245  1
  O  O128  1  0.91693694  0.30637096  0.79984578  1
  O  O129  1  0.91693694  0.63970430  0.13317911  1
  O  O130  1  0.91693694  0.63970430  0.46651245  1
  O  O131  1  0.91693694  0.63970430  0.79984578  1
  O  O132  1  0.91693694  0.97303763  0.13317911  1
  O  O133  1  0.91693694  0.97303763  0.46651245  1
  O  O134  1  0.91693694  0.97303763  0.79984578  1
  O  O135  1  0.08306306  0.30637096  0.03348755  1
  O  O136  1  0.08306306  0.30637096  0.36682089  1
  O  O137  1  0.08306306  0.30637096  0.70015422  1
  O  O138  1  0.08306306  0.63970430  0.03348755  1
  O  O139  1  0.08306306  0.63970430  0.36682089  1
  O  O140  1  0.08306306  0.63970430  0.70015422  1
  O  O141  1  0.08306306  0.97303763  0.03348755  1
  O  O142  1  0.08306306  0.97303763  0.36682089  1
  O  O143  1  0.08306306  0.97303763  0.70015422  1
  O  O144  1  0.41639639  0.30637096  0.03348755  1
  O  O145  1  0.41639639  0.30637096  0.36682089  1
  O  O146  1  0.41639639  0.30637096  0.70015422  1
  O  O147  1  0.41639639  0.63970430  0.03348755  1
  O  O148  1  0.41639639  0.63970430  0.36682089  1
  O  O149  1  0.41639639  0.63970430  0.70015422  1
  O  O150  1  0.41639639  0.97303763  0.03348755  1
  O  O151  1  0.41639639  0.97303763  0.36682089  1
  O  O152  1  0.41639639  0.97303763  0.70015422  1
  O  O153  1  0.74972973  0.30637096  0.03348755  1
  O  O154  1  0.74972973  0.30637096  0.36682089  1
  O  O155  1  0.74972973  0.30637096  0.70015422  1
  O  O156  1  0.74972973  0.63970430  0.03348755  1
  O  O157  1  0.74972973  0.63970430  0.36682089  1
  O  O158  1  0.74972973  0.63970430  0.70015422  1
  O  O159  1  0.74972973  0.97303763  0.03348755  1
  O  O160  1  0.74972973  0.97303763  0.36682089  1
  O  O161  1  0.74972973  0.97303763  0.70015422  1
  O  O162  1  0.08306306  0.02696237  0.20015422  1
  O  O163  1  0.08306306  0.02696237  0.53348755  1
  O  O164  1  0.08306306  0.02696237  0.86682089  1
  O  O165  1  0.08306306  0.36029570  0.20015422  1
  O  O166  1  0.08306306  0.36029570  0.53348755  1
  O  O167  1  0.08306306  0.36029570  0.86682089  1
  O  O168  1  0.08306306  0.69362904  0.20015422  1
  O  O169  1  0.08306306  0.69362904  0.53348755  1
  O  O170  1  0.08306306  0.69362904  0.86682089  1
  O  O171  1  0.41639639  0.02696237  0.20015422  1
  O  O172  1  0.41639639  0.02696237  0.53348755  1
  O  O173  1  0.41639639  0.02696237  0.86682089  1
  O  O174  1  0.41639639  0.36029570  0.20015422  1
  O  O175  1  0.41639639  0.36029570  0.53348755  1
  O  O176  1  0.41639639  0.36029570  0.86682089  1
  O  O177  1  0.41639639  0.69362904  0.20015422  1
  O  O178  1  0.41639639  0.69362904  0.53348755  1
  O  O179  1  0.41639639  0.69362904  0.86682089  1
  O  O180  1  0.74972973  0.02696237  0.20015422  1
  O  O181  1  0.74972973  0.02696237  0.53348755  1
  O  O182  1  0.74972973  0.02696237  0.86682089  1
  O  O183  1  0.74972973  0.36029570  0.20015422  1
  O  O184  1  0.74972973  0.36029570  0.53348755  1
  O  O185  1  0.74972973  0.36029570  0.86682089  1
  O  O186  1  0.74972973  0.69362904  0.20015422  1
  O  O187  1  0.74972973  0.69362904  0.53348755  1
  O  O188  1  0.74972973  0.69362904  0.86682089  1
  O  O189  1  0.25027027  0.02696237  0.29984578  1
  O  O190  1  0.25027027  0.02696237  0.63317911  1
  O  O191  1  0.25027027  0.02696237  0.96651245  1
  O  O192  1  0.25027027  0.36029570  0.29984578  1
  O  O193  1  0.25027027  0.36029570  0.63317911  1
  O  O194  1  0.25027027  0.36029570  0.96651245  1
  O  O195  1  0.25027027  0.69362904  0.29984578  1
  O  O196  1  0.25027027  0.69362904  0.63317911  1
  O  O197  1  0.25027027  0.69362904  0.96651245  1
  O  O198  1  0.58360361  0.02696237  0.29984578  1
  O  O199  1  0.58360361  0.02696237  0.63317911  1
  O  O200  1  0.58360361  0.02696237  0.96651245  1
  O  O201  1  0.58360361  0.36029570  0.29984578  1
  O  O202  1  0.58360361  0.36029570  0.63317911  1
  O  O203  1  0.58360361  0.36029570  0.96651245  1
  O  O204  1  0.58360361  0.69362904  0.29984578  1
  O  O205  1  0.58360361  0.69362904  0.63317911  1
  O  O206  1  0.58360361  0.69362904  0.96651245  1
  O  O207  1  0.91693694  0.02696237  0.29984578  1
  O  O208  1  0.91693694  0.02696237  0.63317911  1
  O  O209  1  0.91693694  0.02696237  0.96651245  1
  O  O210  1  0.91693694  0.36029570  0.29984578  1
  O  O211  1  0.91693694  0.36029570  0.63317911  1
  O  O212  1  0.91693694  0.36029570  0.96651245  1
  O  O213  1  0.91693694  0.69362904  0.29984578  1
  O  O214  1  0.91693694  0.69362904  0.63317911  1
  O  O215  1  0.91693694  0.69362904  0.96651245  1
  O  O216  1  0.24426447  0.14633595  0.16881775  1
  O  O217  1  0.24426447  0.14633595  0.50215108  1
  O  O218  1  0.24426447  0.14633595  0.83548441  1
  O  O219  1  0.24426447  0.47966928  0.16881775  1
  O  O220  1  0.24426447  0.47966928  0.50215108  1
  O  O221  1  0.24426447  0.47966928  0.83548441  1
  O  O222  1  0.24426447  0.81300262  0.16881775  1
  O  O223  1  0.24426447  0.81300262  0.50215108  1
  O  O224  1  0.24426447  0.81300262  0.83548441  1
  O  O225  1  0.57759781  0.14633595  0.16881775  1
  O  O226  1  0.57759781  0.14633595  0.50215108  1
  O  O227  1  0.57759781  0.14633595  0.83548441  1
  O  O228  1  0.57759781  0.47966928  0.16881775  1
  O  O229  1  0.57759781  0.47966928  0.50215108  1
  O  O230  1  0.57759781  0.47966928  0.83548441  1
  O  O231  1  0.57759781  0.81300262  0.16881775  1
  O  O232  1  0.57759781  0.81300262  0.50215108  1
  O  O233  1  0.57759781  0.81300262  0.83548441  1
  O  O234  1  0.91093114  0.14633595  0.16881775  1
  O  O235  1  0.91093114  0.14633595  0.50215108  1
  O  O236  1  0.91093114  0.14633595  0.83548441  1
  O  O237  1  0.91093114  0.47966928  0.16881775  1
  O  O238  1  0.91093114  0.47966928  0.50215108  1
  O  O239  1  0.91093114  0.47966928  0.83548441  1
  O  O240  1  0.91093114  0.81300262  0.16881775  1
  O  O241  1  0.91093114  0.81300262  0.50215108  1
  O  O242  1  0.91093114  0.81300262  0.83548441  1
  O  O243  1  0.08906886  0.14633595  0.33118225  1
  O  O244  1  0.08906886  0.14633595  0.66451559  1
  O  O245  1  0.08906886  0.14633595  0.99784892  1
  O  O246  1  0.08906886  0.47966928  0.33118225  1
  O  O247  1  0.08906886  0.47966928  0.66451559  1
  O  O248  1  0.08906886  0.47966928  0.99784892  1
  O  O249  1  0.08906886  0.81300262  0.33118225  1
  O  O250  1  0.08906886  0.81300262  0.66451559  1
  O  O251  1  0.08906886  0.81300262  0.99784892  1
  O  O252  1  0.42240219  0.14633595  0.33118225  1
  O  O253  1  0.42240219  0.14633595  0.66451559  1
  O  O254  1  0.42240219  0.14633595  0.99784892  1
  O  O255  1  0.42240219  0.47966928  0.33118225  1
  O  O256  1  0.42240219  0.47966928  0.66451559  1
  O  O257  1  0.42240219  0.47966928  0.99784892  1
  O  O258  1  0.42240219  0.81300262  0.33118225  1
  O  O259  1  0.42240219  0.81300262  0.66451559  1
  O  O260  1  0.42240219  0.81300262  0.99784892  1
  O  O261  1  0.75573553  0.14633595  0.33118225  1
  O  O262  1  0.75573553  0.14633595  0.66451559  1
  O  O263  1  0.75573553  0.14633595  0.99784892  1
  O  O264  1  0.75573553  0.47966928  0.33118225  1
  O  O265  1  0.75573553  0.47966928  0.66451559  1
  O  O266  1  0.75573553  0.47966928  0.99784892  1
  O  O267  1  0.75573553  0.81300262  0.33118225  1
  O  O268  1  0.75573553  0.81300262  0.66451559  1
  O  O269  1  0.75573553  0.81300262  0.99784892  1
  O  O270  1  0.08906886  0.18699738  0.16451559  1
  O  O271  1  0.08906886  0.18699738  0.49784892  1
  O  O272  1  0.08906886  0.18699738  0.83118225  1
  O  O273  1  0.08906886  0.52033072  0.16451559  1
  O  O274  1  0.08906886  0.52033072  0.49784892  1
  O  O275  1  0.08906886  0.52033072  0.83118225  1
  O  O276  1  0.08906886  0.85366405  0.16451559  1
  O  O277  1  0.08906886  0.85366405  0.49784892  1
  O  O278  1  0.08906886  0.85366405  0.83118225  1
  O  O279  1  0.42240219  0.18699738  0.16451559  1
  O  O280  1  0.42240219  0.18699738  0.49784892  1
  O  O281  1  0.42240219  0.18699738  0.83118225  1
  O  O282  1  0.42240219  0.52033072  0.16451559  1
  O  O283  1  0.42240219  0.52033072  0.49784892  1
  O  O284  1  0.42240219  0.52033072  0.83118225  1
  O  O285  1  0.42240219  0.85366405  0.16451559  1
  O  O286  1  0.42240219  0.85366405  0.49784892  1
  O  O287  1  0.42240219  0.85366405  0.83118225  1
  O  O288  1  0.75573553  0.18699738  0.16451559  1
  O  O289  1  0.75573553  0.18699738  0.49784892  1
  O  O290  1  0.75573553  0.18699738  0.83118225  1
  O  O291  1  0.75573553  0.52033072  0.16451559  1
  O  O292  1  0.75573553  0.52033072  0.49784892  1
  O  O293  1  0.75573553  0.52033072  0.83118225  1
  O  O294  1  0.75573553  0.85366405  0.16451559  1
  O  O295  1  0.75573553  0.85366405  0.49784892  1
  O  O296  1  0.75573553  0.85366405  0.83118225  1
  O  O297  1  0.24426447  0.18699738  0.00215108  1
  O  O298  1  0.24426447  0.18699738  0.33548441  1
  O  O299  1  0.24426447  0.18699738  0.66881775  1
  O  O300  1  0.24426447  0.52033072  0.00215108  1
  O  O301  1  0.24426447  0.52033072  0.33548441  1
  O  O302  1  0.24426447  0.52033072  0.66881775  1
  O  O303  1  0.24426447  0.85366405  0.00215108  1
  O  O304  1  0.24426447  0.85366405  0.33548441  1
  O  O305  1  0.24426447  0.85366405  0.66881775  1
  O  O306  1  0.57759781  0.18699738  0.00215108  1
  O  O307  1  0.57759781  0.18699738  0.33548441  1
  O  O308  1  0.57759781  0.18699738  0.66881775  1
  O  O309  1  0.57759781  0.52033072  0.00215108  1
  O  O310  1  0.57759781  0.52033072  0.33548441  1
  O  O311  1  0.57759781  0.52033072  0.66881775  1
  O  O312  1  0.57759781  0.85366405  0.00215108  1
  O  O313  1  0.57759781  0.85366405  0.33548441  1
  O  O314  1  0.57759781  0.85366405  0.66881775  1
  O  O315  1  0.91093114  0.18699738  0.00215108  1
  O  O316  1  0.91093114  0.18699738  0.33548441  1
  O  O317  1  0.91093114  0.18699738  0.66881775  1
  O  O318  1  0.91093114  0.52033072  0.00215108  1
  O  O319  1  0.91093114  0.52033072  0.33548441  1
  O  O320  1  0.91093114  0.52033072  0.66881775  1
  O  O321  1  0.91093114  0.85366405  0.00215108  1
  O  O322  1  0.91093114  0.85366405  0.33548441  1
  O  O323  1  0.91093114  0.85366405  0.66881775  1
