# generated using pymatgen
data_Ca2SiO4
_symmetry_space_group_name_H-M   'P 1'
_cell_length_a   11.17376003
_cell_length_b   13.42819128
_cell_length_c   15.19309555
_cell_angle_alpha   90.00000000
_cell_angle_beta   90.00000000
_cell_angle_gamma   90.00000000
_symmetry_Int_Tables_number   1
_chemical_formula_structural   Ca2SiO4
_chemical_formula_sum   'Ca48 Si24 O96'
_cell_volume   2279.62351564
_cell_formula_units_Z   24
loop_
 _symmetry_equiv_pos_site_id
 _symmetry_equiv_pos_as_xyz
  1  'x, y, z'
loop_
 _atom_site_type_symbol
 _atom_site_label
 _atom_site_symmetry_multiplicity
 _atom_site_fract_x
 _atom_site_fract_y
 _atom_site_fract_z
 _atom_site_occupancy
  Ca  Ca0  1  0.21967876  0.37500000  0.16371965  1
  Ca  Ca1  1  0.21967876  0.37500000  0.49705298  1
  Ca  Ca2  1  0.21967876  0.37500000  0.83038632  1
  Ca  Ca3  1  0.21967876  0.87500000  0.16371965  1
  Ca  Ca4  1  0.21967876  0.87500000  0.49705298  1
  Ca  Ca5  1  0.21967876  0.87500000  0.83038632  1
  Ca  Ca6  1  0.28032124  0.12500000  0.33038632  1
  Ca  Ca7  1  0.28032124  0.12500000  0.66371965  1
  Ca  Ca8  1  0.28032124  0.12500000  0.99705298  1
  Ca  Ca9  1  0.28032124  0.62500000  0.33038632  1
  Ca  Ca10  1  0.28032124  0.62500000  0.66371965  1
  Ca  Ca11  1  0.28032124  0.62500000  0.99705298  1
  Ca  Ca12  1  0.78032124  0.12500000  0.16961368  1
  Ca  Ca13  1  0.78032124  0.12500000  0.50294702  1
  Ca  Ca14  1  0.78032124  0.12500000  0.83628035  1
  Ca  Ca15  1  0.78032124  0.62500000  0.16961368  1
  Ca  Ca16  1  0.78032124  0.62500000  0.50294702  1
  Ca  Ca17  1  0.78032124  0.62500000  0.83628035  1
  Ca  Ca18  1  0.71967876  0.37500000  0.00294702  1
  Ca  Ca19  1  0.71967876  0.37500000  0.33628035  1
  Ca  Ca20  1  0.71967876  0.37500000  0.66961368  1
  Ca  Ca21  1  0.71967876  0.87500000  0.00294702  1
  Ca  Ca22  1  0.71967876  0.87500000  0.33628035  1
  Ca  Ca23  1  0.71967876  0.87500000  0.66961368  1
  Ca  Ca24  1  0.50000000  0.25000000  0.16666667  1
  Ca  Ca25  1  0.50000000  0.25000000  0.50000000  1
  Ca  Ca26  1  0.50000000  0.25000000  0.83333333  1
  Ca  Ca27  1  0.50000000  0.75000000  0.16666667  1
  Ca  Ca28  1  0.50000000  0.75000000  0.50000000  1
  Ca  Ca29  1  0.50000000  0.75000000  0.83333333  1
  Ca  Ca30  1  0.00000000  0.25000000  0.00000000  1
  Ca  Ca31  1  0.00000000  0.25000000  0.33333333  1
  Ca  Ca32  1  0.00000000  0.25000000  0.66666667  1
  Ca  Ca33  1  0.00000000  0.75000000  0.00000000  1
  Ca  Ca34  1  0.00000000  0.75000000  0.33333333  1
  Ca  Ca35  1  0.00000000  0.75000000  0.66666667  1
  Ca  Ca36  1  0.50000000  0.00000000  0.16666667  1
  Ca  Ca37  1  0.50000000  0.00000000  0.50000000  1
  Ca  Ca38  1  0.50000000  0.00000000  0.83333333  1
  Ca  Ca39  1  0.50000000  0.50000000  0.16666667  1
  Ca  Ca40  1  0.50000000  0.50000000  0.50000000  1
  Ca  Ca41  1  0.50000000  0.50000000  0.83333333  1
  Ca  Ca42  1  0.00000000  0.00000000  0.00000000  1
  Ca  Ca43  1  0.00000000  0.00000000  0.33333333  1
  Ca  Ca44  1  0.00000000  0.00000000  0.66666667  1
  Ca  Ca45  1  0.00000000  0.50000000  0.00000000  1
  Ca  Ca46  1  0.00000000  0.50000000  0.33333333  1
  Ca  Ca47  1  0.00000000  0.50000000  0.66666667  1
  Si  Si48  1  0.40390066  0.37500000  0.30912090  1
  Si  Si49  1  0.40390066  0.37500000  0.64245423  1
  Si  Si50  1  0.40390066  0.37500000  0.97578757  1
  Si  Si51  1  0.40390066  0.87500000  0.30912090  1
  Si  Si52  1  0.40390066  0.87500000  0.64245423  1
  Si  Si53  1  0.40390066  0.87500000  0.97578757  1
  Si  Si54  1  0.09609934  0.12500000  0.14245423  1
  Si  Si55  1  0.09609934  0.12500000  0.47578757  1
  Si  Si56  1  0.09609934  0.12500000  0.80912090  1
  Si  Si57  1  0.09609934  0.62500000  0.14245423  1
  Si  Si58  1  0.09609934  0.62500000  0.47578757  1
  Si  Si59  1  0.09609934  0.62500000  0.80912090  1
  Si  Si60  1  0.59609934  0.12500000  0.02421243  1
  Si  Si61  1  0.59609934  0.12500000  0.35754577  1
  Si  Si62  1  0.59609934  0.12500000  0.69087910  1
  Si  Si63  1  0.59609934  0.62500000  0.02421243  1
  Si  Si64  1  0.59609934  0.62500000  0.35754577  1
  Si  Si65  1  0.59609934  0.62500000  0.69087910  1
  Si  Si66  1  0.90390066  0.37500000  0.19087910  1
  Si  Si67  1  0.90390066  0.37500000  0.52421243  1
  Si  Si68  1  0.90390066  0.37500000  0.85754577  1
  Si  Si69  1  0.90390066  0.87500000  0.19087910  1
  Si  Si70  1  0.90390066  0.87500000  0.52421243  1
  Si  Si71  1  0.90390066  0.87500000  0.85754577  1
  O  O72  1  0.66257556  0.22324756  0.06832932  1
  O  O73  1  0.66257556  0.22324756  0.40166266  1
  O  O74  1  0.66257556  0.22324756  0.73499599  1
  O  O75  1  0.66257556  0.72324756  0.06832932  1
  O  O76  1  0.66257556  0.72324756  0.40166266  1
  O  O77  1  0.66257556  0.72324756  0.73499599  1
  O  O78  1  0.83742444  0.27675244  0.23499599  1
  O  O79  1  0.83742444  0.27675244  0.56832932  1
  O  O80  1  0.83742444  0.27675244  0.90166266  1
  O  O81  1  0.83742444  0.77675244  0.23499599  1
  O  O82  1  0.83742444  0.77675244  0.56832932  1
  O  O83  1  0.83742444  0.77675244  0.90166266  1
  O  O84  1  0.33742444  0.47324756  0.26500401  1
  O  O85  1  0.33742444  0.47324756  0.59833734  1
  O  O86  1  0.33742444  0.47324756  0.93167068  1
  O  O87  1  0.33742444  0.97324756  0.26500401  1
  O  O88  1  0.33742444  0.97324756  0.59833734  1
  O  O89  1  0.33742444  0.97324756  0.93167068  1
  O  O90  1  0.16257556  0.02675244  0.09833734  1
  O  O91  1  0.16257556  0.02675244  0.43167068  1
  O  O92  1  0.16257556  0.02675244  0.76500401  1
  O  O93  1  0.16257556  0.52675244  0.09833734  1
  O  O94  1  0.16257556  0.52675244  0.43167068  1
  O  O95  1  0.16257556  0.52675244  0.76500401  1
  O  O96  1  0.33742444  0.27675244  0.26500401  1
  O  O97  1  0.33742444  0.27675244  0.59833734  1
  O  O98  1  0.33742444  0.27675244  0.93167068  1
  O  O99  1  0.33742444  0.77675244  0.26500401  1
  O  O100  1  0.33742444  0.77675244  0.59833734  1
  O  O101  1  0.33742444  0.77675244  0.93167068  1
  O  O102  1  0.16257556  0.22324756  0.09833734  1
  O  O103  1  0.16257556  0.22324756  0.43167068  1
  O  O104  1  0.16257556  0.22324756  0.76500401  1
  O  O105  1  0.16257556  0.72324756  0.09833734  1
  O  O106  1  0.16257556  0.72324756  0.43167068  1
  O  O107  1  0.16257556  0.72324756  0.76500401  1
  O  O108  1  0.66257556  0.02675244  0.06832932  1
  O  O109  1  0.66257556  0.02675244  0.40166266  1
  O  O110  1  0.66257556  0.02675244  0.73499599  1
  O  O111  1  0.66257556  0.52675244  0.06832932  1
  O  O112  1  0.66257556  0.52675244  0.40166266  1
  O  O113  1  0.66257556  0.52675244  0.73499599  1
  O  O114  1  0.83742444  0.47324756  0.23499599  1
  O  O115  1  0.83742444  0.47324756  0.56832932  1
  O  O116  1  0.83742444  0.47324756  0.90166266  1
  O  O117  1  0.83742444  0.97324756  0.23499599  1
  O  O118  1  0.83742444  0.97324756  0.56832932  1
  O  O119  1  0.83742444  0.97324756  0.90166266  1
  O  O120  1  0.54050694  0.37500000  0.26521389  1
  O  O121  1  0.54050694  0.37500000  0.59854722  1
  O  O122  1  0.54050694  0.37500000  0.93188055  1
  O  O123  1  0.54050694  0.87500000  0.26521389  1
  O  O124  1  0.54050694  0.87500000  0.59854722  1
  O  O125  1  0.54050694  0.87500000  0.93188055  1
  O  O126  1  0.95949306  0.12500000  0.09854722  1
  O  O127  1  0.95949306  0.12500000  0.43188055  1
  O  O128  1  0.95949306  0.12500000  0.76521389  1
  O  O129  1  0.95949306  0.62500000  0.09854722  1
  O  O130  1  0.95949306  0.62500000  0.43188055  1
  O  O131  1  0.95949306  0.62500000  0.76521389  1
  O  O132  1  0.45949306  0.12500000  0.06811945  1
  O  O133  1  0.45949306  0.12500000  0.40145278  1
  O  O134  1  0.45949306  0.12500000  0.73478611  1
  O  O135  1  0.45949306  0.62500000  0.06811945  1
  O  O136  1  0.45949306  0.62500000  0.40145278  1
  O  O137  1  0.45949306  0.62500000  0.73478611  1
  O  O138  1  0.04050694  0.37500000  0.23478611  1
  O  O139  1  0.04050694  0.37500000  0.56811945  1
  O  O140  1  0.04050694  0.37500000  0.90145278  1
  O  O141  1  0.04050694  0.87500000  0.23478611  1
  O  O142  1  0.04050694  0.87500000  0.56811945  1
  O  O143  1  0.04050694  0.87500000  0.90145278  1
  O  O144  1  0.90731464  0.37500000  0.08322000  1
  O  O145  1  0.90731464  0.37500000  0.41655333  1
  O  O146  1  0.90731464  0.37500000  0.74988666  1
  O  O147  1  0.90731464  0.87500000  0.08322000  1
  O  O148  1  0.90731464  0.87500000  0.41655333  1
  O  O149  1  0.90731464  0.87500000  0.74988666  1
  O  O150  1  0.59268536  0.12500000  0.24988666  1
  O  O151  1  0.59268536  0.12500000  0.58322000  1
  O  O152  1  0.59268536  0.12500000  0.91655333  1
  O  O153  1  0.59268536  0.62500000  0.24988666  1
  O  O154  1  0.59268536  0.62500000  0.58322000  1
  O  O155  1  0.59268536  0.62500000  0.91655333  1
  O  O156  1  0.09268536  0.12500000  0.25011334  1
  O  O157  1  0.09268536  0.12500000  0.58344667  1
  O  O158  1  0.09268536  0.12500000  0.91678000  1
  O  O159  1  0.09268536  0.62500000  0.25011334  1
  O  O160  1  0.09268536  0.62500000  0.58344667  1
  O  O161  1  0.09268536  0.62500000  0.91678000  1
  O  O162  1  0.40731464  0.37500000  0.08344667  1
  O  O163  1  0.40731464  0.37500000  0.41678000  1
  O  O164  1  0.40731464  0.37500000  0.75011334  1
  O  O165  1  0.40731464  0.87500000  0.08344667  1
  O  O166  1  0.40731464  0.87500000  0.41678000  1
  O  O167  1  0.40731464  0.87500000  0.75011334  1
