# generated using pymatgen
data_Ca2Ti3O8
_symmetry_space_group_name_H-M   'P 1'
_cell_length_a   11.08911613
_cell_length_b   12.10488486
_cell_length_c   10.09445414
_cell_angle_alpha   90.00000000
_cell_angle_beta   110.40170077
_cell_angle_gamma   90.00000000
_symmetry_Int_Tables_number   1
_chemical_formula_structural   Ca2Ti3O8
_chemical_formula_sum   'Ca16 Ti24 O64'
_cell_volume   1270.00640412
_cell_formula_units_Z   8
loop_
 _symmetry_equiv_pos_site_id
 _symmetry_equiv_pos_as_xyz
  1  'x, y, z'
loop_
 _atom_site_type_symbol
 _atom_site_label
 _atom_site_symmetry_multiplicity
 _atom_site_fract_x
 _atom_site_fract_y
 _atom_site_fract_z
 _atom_site_occupancy
  Ca  Ca0  1  0.72602076  -0.00000000  0.33066270  1
  Ca  Ca1  1  0.72602076  -0.00000000  0.83066270  1
  Ca  Ca2  1  0.72602076  0.50000000  0.33066270  1
  Ca  Ca3  1  0.72602076  0.50000000  0.83066270  1
  Ca  Ca4  1  1.22602076  0.25000000  0.33066270  1
  Ca  Ca5  1  1.22602076  0.25000000  0.83066270  1
  Ca  Ca6  1  1.22602076  0.75000000  0.33066270  1
  Ca  Ca7  1  1.22602076  0.75000000  0.83066270  1
  Ca  Ca8  1  0.27397924  0.00000000  0.16933730  1
  Ca  Ca9  1  0.27397924  0.00000000  0.66933730  1
  Ca  Ca10  1  0.27397924  0.50000000  0.16933730  1
  Ca  Ca11  1  0.27397924  0.50000000  0.66933730  1
  Ca  Ca12  1  0.77397924  0.25000000  0.16933730  1
  Ca  Ca13  1  0.77397924  0.25000000  0.66933730  1
  Ca  Ca14  1  0.77397924  0.75000000  0.16933730  1
  Ca  Ca15  1  0.77397924  0.75000000  0.66933730  1
  Ti  Ti16  1  0.00000000  0.00000000  0.25000000  1
  Ti  Ti17  1  0.00000000  0.00000000  0.75000000  1
  Ti  Ti18  1  0.00000000  0.50000000  0.25000000  1
  Ti  Ti19  1  0.00000000  0.50000000  0.75000000  1
  Ti  Ti20  1  0.50000000  0.25000000  0.25000000  1
  Ti  Ti21  1  0.50000000  0.25000000  0.75000000  1
  Ti  Ti22  1  0.50000000  0.75000000  0.25000000  1
  Ti  Ti23  1  0.50000000  0.75000000  0.75000000  1
  Ti  Ti24  1  0.50000000  0.11760480  0.00000000  1
  Ti  Ti25  1  0.50000000  0.11760480  0.50000000  1
  Ti  Ti26  1  0.50000000  0.61760480  0.00000000  1
  Ti  Ti27  1  0.50000000  0.61760480  0.50000000  1
  Ti  Ti28  1  1.00000000  0.36760480  0.00000000  1
  Ti  Ti29  1  1.00000000  0.36760480  0.50000000  1
  Ti  Ti30  1  1.00000000  0.86760480  0.00000000  1
  Ti  Ti31  1  1.00000000  0.86760480  0.50000000  1
  Ti  Ti32  1  0.50000000  -0.11760480  0.00000000  1
  Ti  Ti33  1  0.50000000  -0.11760480  0.50000000  1
  Ti  Ti34  1  0.50000000  0.38239520  0.00000000  1
  Ti  Ti35  1  0.50000000  0.38239520  0.50000000  1
  Ti  Ti36  1  1.00000000  0.13239520  0.00000000  1
  Ti  Ti37  1  1.00000000  0.13239520  0.50000000  1
  Ti  Ti38  1  1.00000000  0.63239520  0.00000000  1
  Ti  Ti39  1  1.00000000  0.63239520  0.50000000  1
  O  O40  1  0.39491137  -0.00000000  0.02476375  1
  O  O41  1  0.39491137  -0.00000000  0.52476375  1
  O  O42  1  0.39491137  0.50000000  0.02476375  1
  O  O43  1  0.39491137  0.50000000  0.52476375  1
  O  O44  1  0.89491137  0.25000000  0.02476375  1
  O  O45  1  0.89491137  0.25000000  0.52476375  1
  O  O46  1  0.89491137  0.75000000  0.02476375  1
  O  O47  1  0.89491137  0.75000000  0.52476375  1
  O  O48  1  0.60508863  0.00000000  0.47523625  1
  O  O49  1  0.60508863  0.00000000  0.97523625  1
  O  O50  1  0.60508863  0.50000000  0.47523625  1
  O  O51  1  0.60508863  0.50000000  0.97523625  1
  O  O52  1  1.10508863  0.25000000  0.47523625  1
  O  O53  1  1.10508863  0.25000000  0.97523625  1
  O  O54  1  1.10508863  0.75000000  0.47523625  1
  O  O55  1  1.10508863  0.75000000  0.97523625  1
  O  O56  1  0.89985933  0.00000000  0.04640129  1
  O  O57  1  0.89985933  0.00000000  0.54640129  1
  O  O58  1  0.89985933  0.50000000  0.04640129  1
  O  O59  1  0.89985933  0.50000000  0.54640129  1
  O  O60  1  1.39985933  0.25000000  0.04640129  1
  O  O61  1  1.39985933  0.25000000  0.54640129  1
  O  O62  1  1.39985933  0.75000000  0.04640129  1
  O  O63  1  1.39985933  0.75000000  0.54640129  1
  O  O64  1  0.10014067  0.00000000  0.45359871  1
  O  O65  1  0.10014067  0.00000000  0.95359871  1
  O  O66  1  0.10014067  0.50000000  0.45359871  1
  O  O67  1  0.10014067  0.50000000  0.95359871  1
  O  O68  1  0.60014067  0.25000000  0.45359871  1
  O  O69  1  0.60014067  0.25000000  0.95359871  1
  O  O70  1  0.60014067  0.75000000  0.45359871  1
  O  O71  1  0.60014067  0.75000000  0.95359871  1
  O  O72  1  0.60538523  -0.13957050  0.19767898  1
  O  O73  1  0.60538523  -0.13957050  0.69767898  1
  O  O74  1  0.60538523  0.36042950  0.19767898  1
  O  O75  1  0.60538523  0.36042950  0.69767898  1
  O  O76  1  1.10538523  0.11042950  0.19767898  1
  O  O77  1  1.10538523  0.11042950  0.69767898  1
  O  O78  1  1.10538523  0.61042950  0.19767898  1
  O  O79  1  1.10538523  0.61042950  0.69767898  1
  O  O80  1  0.60538523  0.13957050  0.19767898  1
  O  O81  1  0.60538523  0.13957050  0.69767898  1
  O  O82  1  0.60538523  0.63957050  0.19767898  1
  O  O83  1  0.60538523  0.63957050  0.69767898  1
  O  O84  1  1.10538523  0.38957050  0.19767898  1
  O  O85  1  1.10538523  0.38957050  0.69767898  1
  O  O86  1  1.10538523  0.88957050  0.19767898  1
  O  O87  1  1.10538523  0.88957050  0.69767898  1
  O  O88  1  0.39461477  -0.13957050  0.30232102  1
  O  O89  1  0.39461477  -0.13957050  0.80232102  1
  O  O90  1  0.39461477  0.36042950  0.30232102  1
  O  O91  1  0.39461477  0.36042950  0.80232102  1
  O  O92  1  0.89461477  0.11042950  0.30232102  1
  O  O93  1  0.89461477  0.11042950  0.80232102  1
  O  O94  1  0.89461477  0.61042950  0.30232102  1
  O  O95  1  0.89461477  0.61042950  0.80232102  1
  O  O96  1  0.39461477  0.13957050  0.30232102  1
  O  O97  1  0.39461477  0.13957050  0.80232102  1
  O  O98  1  0.39461477  0.63957050  0.30232102  1
  O  O99  1  0.39461477  0.63957050  0.80232102  1
  O  O100  1  0.89461477  0.38957050  0.30232102  1
  O  O101  1  0.89461477  0.38957050  0.80232102  1
  O  O102  1  0.89461477  0.88957050  0.30232102  1
  O  O103  1  0.89461477  0.88957050  0.80232102  1
