# generated using pymatgen
data_CsBeAsO4
_symmetry_space_group_name_H-M   'P 1'
_cell_length_a   18.83333995
_cell_length_b   17.71285432
_cell_length_c   20.63259078
_cell_angle_alpha   90.00000000
_cell_angle_beta   90.00000000
_cell_angle_gamma   90.00000000
_symmetry_Int_Tables_number   1
_chemical_formula_structural   CsBeAsO4
_chemical_formula_sum   'Cs64 Be64 As64 O256'
_cell_volume   6882.87149230
_cell_formula_units_Z   64
loop_
 _symmetry_equiv_pos_site_id
 _symmetry_equiv_pos_as_xyz
  1  'x, y, z'
loop_
 _atom_site_type_symbol
 _atom_site_label
 _atom_site_symmetry_multiplicity
 _atom_site_fract_x
 _atom_site_fract_y
 _atom_site_fract_z
 _atom_site_occupancy
  Cs  Cs0  1  0.25296036  0.15727840  0.12449098  1
  Cs  Cs1  1  0.25296036  0.15727840  0.37449098  1
  Cs  Cs2  1  0.25296036  0.15727840  0.62449098  1
  Cs  Cs3  1  0.25296036  0.15727840  0.87449098  1
  Cs  Cs4  1  0.25296036  0.65727840  0.12449098  1
  Cs  Cs5  1  0.25296036  0.65727840  0.37449098  1
  Cs  Cs6  1  0.25296036  0.65727840  0.62449098  1
  Cs  Cs7  1  0.25296036  0.65727840  0.87449098  1
  Cs  Cs8  1  0.75296036  0.15727840  0.12449098  1
  Cs  Cs9  1  0.75296036  0.15727840  0.37449098  1
  Cs  Cs10  1  0.75296036  0.15727840  0.62449098  1
  Cs  Cs11  1  0.75296036  0.15727840  0.87449098  1
  Cs  Cs12  1  0.75296036  0.65727840  0.12449098  1
  Cs  Cs13  1  0.75296036  0.65727840  0.37449098  1
  Cs  Cs14  1  0.75296036  0.65727840  0.62449098  1
  Cs  Cs15  1  0.75296036  0.65727840  0.87449098  1
  Cs  Cs16  1  0.24703964  0.34272160  0.24949098  1
  Cs  Cs17  1  0.24703964  0.34272160  0.49949098  1
  Cs  Cs18  1  0.24703964  0.34272160  0.74949098  1
  Cs  Cs19  1  0.24703964  0.34272160  0.99949098  1
  Cs  Cs20  1  0.24703964  0.84272160  0.24949098  1
  Cs  Cs21  1  0.24703964  0.84272160  0.49949098  1
  Cs  Cs22  1  0.24703964  0.84272160  0.74949098  1
  Cs  Cs23  1  0.24703964  0.84272160  0.99949098  1
  Cs  Cs24  1  0.74703964  0.34272160  0.24949098  1
  Cs  Cs25  1  0.74703964  0.34272160  0.49949098  1
  Cs  Cs26  1  0.74703964  0.34272160  0.74949098  1
  Cs  Cs27  1  0.74703964  0.34272160  0.99949098  1
  Cs  Cs28  1  0.74703964  0.84272160  0.24949098  1
  Cs  Cs29  1  0.74703964  0.84272160  0.49949098  1
  Cs  Cs30  1  0.74703964  0.84272160  0.74949098  1
  Cs  Cs31  1  0.74703964  0.84272160  0.99949098  1
  Cs  Cs32  1  0.00296036  0.09272160  0.12449098  1
  Cs  Cs33  1  0.00296036  0.09272160  0.37449098  1
  Cs  Cs34  1  0.00296036  0.09272160  0.62449098  1
  Cs  Cs35  1  0.00296036  0.09272160  0.87449098  1
  Cs  Cs36  1  0.00296036  0.59272160  0.12449098  1
  Cs  Cs37  1  0.00296036  0.59272160  0.37449098  1
  Cs  Cs38  1  0.00296036  0.59272160  0.62449098  1
  Cs  Cs39  1  0.00296036  0.59272160  0.87449098  1
  Cs  Cs40  1  0.50296036  0.09272160  0.12449098  1
  Cs  Cs41  1  0.50296036  0.09272160  0.37449098  1
  Cs  Cs42  1  0.50296036  0.09272160  0.62449098  1
  Cs  Cs43  1  0.50296036  0.09272160  0.87449098  1
  Cs  Cs44  1  0.50296036  0.59272160  0.12449098  1
  Cs  Cs45  1  0.50296036  0.59272160  0.37449098  1
  Cs  Cs46  1  0.50296036  0.59272160  0.62449098  1
  Cs  Cs47  1  0.50296036  0.59272160  0.87449098  1
  Cs  Cs48  1  0.49703964  0.40727840  0.24949098  1
  Cs  Cs49  1  0.49703964  0.40727840  0.49949098  1
  Cs  Cs50  1  0.49703964  0.40727840  0.74949098  1
  Cs  Cs51  1  0.49703964  0.40727840  0.99949098  1
  Cs  Cs52  1  0.49703964  0.90727840  0.24949098  1
  Cs  Cs53  1  0.49703964  0.90727840  0.49949098  1
  Cs  Cs54  1  0.49703964  0.90727840  0.74949098  1
  Cs  Cs55  1  0.49703964  0.90727840  0.99949098  1
  Cs  Cs56  1  0.99703964  0.40727840  0.24949098  1
  Cs  Cs57  1  0.99703964  0.40727840  0.49949098  1
  Cs  Cs58  1  0.99703964  0.40727840  0.74949098  1
  Cs  Cs59  1  0.99703964  0.40727840  0.99949098  1
  Cs  Cs60  1  0.99703964  0.90727840  0.24949098  1
  Cs  Cs61  1  0.99703964  0.90727840  0.49949098  1
  Cs  Cs62  1  0.99703964  0.90727840  0.74949098  1
  Cs  Cs63  1  0.99703964  0.90727840  0.99949098  1
  Be  Be64  1  0.33582889  0.04745061  0.24959048  1
  Be  Be65  1  0.33582889  0.04745061  0.49959048  1
  Be  Be66  1  0.33582889  0.04745061  0.74959048  1
  Be  Be67  1  0.33582889  0.04745061  0.99959048  1
  Be  Be68  1  0.33582889  0.54745061  0.24959048  1
  Be  Be69  1  0.33582889  0.54745061  0.49959048  1
  Be  Be70  1  0.33582889  0.54745061  0.74959048  1
  Be  Be71  1  0.33582889  0.54745061  0.99959048  1
  Be  Be72  1  0.83582889  0.04745061  0.24959048  1
  Be  Be73  1  0.83582889  0.04745061  0.49959048  1
  Be  Be74  1  0.83582889  0.04745061  0.74959048  1
  Be  Be75  1  0.83582889  0.04745061  0.99959048  1
  Be  Be76  1  0.83582889  0.54745061  0.24959048  1
  Be  Be77  1  0.83582889  0.54745061  0.49959048  1
  Be  Be78  1  0.83582889  0.54745061  0.74959048  1
  Be  Be79  1  0.83582889  0.54745061  0.99959048  1
  Be  Be80  1  0.41417111  0.29745061  0.12459048  1
  Be  Be81  1  0.41417111  0.29745061  0.37459048  1
  Be  Be82  1  0.41417111  0.29745061  0.62459048  1
  Be  Be83  1  0.41417111  0.29745061  0.87459048  1
  Be  Be84  1  0.41417111  0.79745061  0.12459048  1
  Be  Be85  1  0.41417111  0.79745061  0.37459048  1
  Be  Be86  1  0.41417111  0.79745061  0.62459048  1
  Be  Be87  1  0.41417111  0.79745061  0.87459048  1
  Be  Be88  1  0.91417111  0.29745061  0.12459048  1
  Be  Be89  1  0.91417111  0.29745061  0.37459048  1
  Be  Be90  1  0.91417111  0.29745061  0.62459048  1
  Be  Be91  1  0.91417111  0.29745061  0.87459048  1
  Be  Be92  1  0.91417111  0.79745061  0.12459048  1
  Be  Be93  1  0.91417111  0.79745061  0.37459048  1
  Be  Be94  1  0.91417111  0.79745061  0.62459048  1
  Be  Be95  1  0.91417111  0.79745061  0.87459048  1
  Be  Be96  1  0.08582889  0.20254939  0.24959048  1
  Be  Be97  1  0.08582889  0.20254939  0.49959048  1
  Be  Be98  1  0.08582889  0.20254939  0.74959048  1
  Be  Be99  1  0.08582889  0.20254939  0.99959048  1
  Be  Be100  1  0.08582889  0.70254939  0.24959048  1
  Be  Be101  1  0.08582889  0.70254939  0.49959048  1
  Be  Be102  1  0.08582889  0.70254939  0.74959048  1
  Be  Be103  1  0.08582889  0.70254939  0.99959048  1
  Be  Be104  1  0.58582889  0.20254939  0.24959048  1
  Be  Be105  1  0.58582889  0.20254939  0.49959048  1
  Be  Be106  1  0.58582889  0.20254939  0.74959048  1
  Be  Be107  1  0.58582889  0.20254939  0.99959048  1
  Be  Be108  1  0.58582889  0.70254939  0.24959048  1
  Be  Be109  1  0.58582889  0.70254939  0.49959048  1
  Be  Be110  1  0.58582889  0.70254939  0.74959048  1
  Be  Be111  1  0.58582889  0.70254939  0.99959048  1
  Be  Be112  1  0.16417111  0.45254939  0.12459048  1
  Be  Be113  1  0.16417111  0.45254939  0.37459048  1
  Be  Be114  1  0.16417111  0.45254939  0.62459048  1
  Be  Be115  1  0.16417111  0.45254939  0.87459048  1
  Be  Be116  1  0.16417111  0.95254939  0.12459048  1
  Be  Be117  1  0.16417111  0.95254939  0.37459048  1
  Be  Be118  1  0.16417111  0.95254939  0.62459048  1
  Be  Be119  1  0.16417111  0.95254939  0.87459048  1
  Be  Be120  1  0.66417111  0.45254939  0.12459048  1
  Be  Be121  1  0.66417111  0.45254939  0.37459048  1
  Be  Be122  1  0.66417111  0.45254939  0.62459048  1
  Be  Be123  1  0.66417111  0.45254939  0.87459048  1
  Be  Be124  1  0.66417111  0.95254939  0.12459048  1
  Be  Be125  1  0.66417111  0.95254939  0.37459048  1
  Be  Be126  1  0.66417111  0.95254939  0.62459048  1
  Be  Be127  1  0.66417111  0.95254939  0.87459048  1
  As  As128  1  0.33746229  0.45712826  0.12499800  1
  As  As129  1  0.33746229  0.45712826  0.37499800  1
  As  As130  1  0.33746229  0.45712826  0.62499800  1
  As  As131  1  0.33746229  0.45712826  0.87499800  1
  As  As132  1  0.33746229  0.95712826  0.12499800  1
  As  As133  1  0.33746229  0.95712826  0.37499800  1
  As  As134  1  0.33746229  0.95712826  0.62499800  1
  As  As135  1  0.33746229  0.95712826  0.87499800  1
  As  As136  1  0.83746229  0.45712826  0.12499800  1
  As  As137  1  0.83746229  0.45712826  0.37499800  1
  As  As138  1  0.83746229  0.45712826  0.62499800  1
  As  As139  1  0.83746229  0.45712826  0.87499800  1
  As  As140  1  0.83746229  0.95712826  0.12499800  1
  As  As141  1  0.83746229  0.95712826  0.37499800  1
  As  As142  1  0.83746229  0.95712826  0.62499800  1
  As  As143  1  0.83746229  0.95712826  0.87499800  1
  As  As144  1  0.16253771  0.04287174  0.24999800  1
  As  As145  1  0.16253771  0.04287174  0.49999800  1
  As  As146  1  0.16253771  0.04287174  0.74999800  1
  As  As147  1  0.16253771  0.04287174  0.99999800  1
  As  As148  1  0.16253771  0.54287174  0.24999800  1
  As  As149  1  0.16253771  0.54287174  0.49999800  1
  As  As150  1  0.16253771  0.54287174  0.74999800  1
  As  As151  1  0.16253771  0.54287174  0.99999800  1
  As  As152  1  0.66253771  0.04287174  0.24999800  1
  As  As153  1  0.66253771  0.04287174  0.49999800  1
  As  As154  1  0.66253771  0.04287174  0.74999800  1
  As  As155  1  0.66253771  0.04287174  0.99999800  1
  As  As156  1  0.66253771  0.54287174  0.24999800  1
  As  As157  1  0.66253771  0.54287174  0.49999800  1
  As  As158  1  0.66253771  0.54287174  0.74999800  1
  As  As159  1  0.66253771  0.54287174  0.99999800  1
  As  As160  1  0.08746229  0.29287174  0.12499800  1
  As  As161  1  0.08746229  0.29287174  0.37499800  1
  As  As162  1  0.08746229  0.29287174  0.62499800  1
  As  As163  1  0.08746229  0.29287174  0.87499800  1
  As  As164  1  0.08746229  0.79287174  0.12499800  1
  As  As165  1  0.08746229  0.79287174  0.37499800  1
  As  As166  1  0.08746229  0.79287174  0.62499800  1
  As  As167  1  0.08746229  0.79287174  0.87499800  1
  As  As168  1  0.58746229  0.29287174  0.12499800  1
  As  As169  1  0.58746229  0.29287174  0.37499800  1
  As  As170  1  0.58746229  0.29287174  0.62499800  1
  As  As171  1  0.58746229  0.29287174  0.87499800  1
  As  As172  1  0.58746229  0.79287174  0.12499800  1
  As  As173  1  0.58746229  0.79287174  0.37499800  1
  As  As174  1  0.58746229  0.79287174  0.62499800  1
  As  As175  1  0.58746229  0.79287174  0.87499800  1
  As  As176  1  0.41253771  0.20712826  0.24999800  1
  As  As177  1  0.41253771  0.20712826  0.49999800  1
  As  As178  1  0.41253771  0.20712826  0.74999800  1
  As  As179  1  0.41253771  0.20712826  0.99999800  1
  As  As180  1  0.41253771  0.70712826  0.24999800  1
  As  As181  1  0.41253771  0.70712826  0.49999800  1
  As  As182  1  0.41253771  0.70712826  0.74999800  1
  As  As183  1  0.41253771  0.70712826  0.99999800  1
  As  As184  1  0.91253771  0.20712826  0.24999800  1
  As  As185  1  0.91253771  0.20712826  0.49999800  1
  As  As186  1  0.91253771  0.20712826  0.74999800  1
  As  As187  1  0.91253771  0.20712826  0.99999800  1
  As  As188  1  0.91253771  0.70712826  0.24999800  1
  As  As189  1  0.91253771  0.70712826  0.49999800  1
  As  As190  1  0.91253771  0.70712826  0.74999800  1
  As  As191  1  0.91253771  0.70712826  0.99999800  1
  O  O192  1  0.25065135  0.06210715  0.00422031  1
  O  O193  1  0.25065135  0.06210715  0.25422031  1
  O  O194  1  0.25065135  0.06210715  0.50422031  1
  O  O195  1  0.25065135  0.06210715  0.75422031  1
  O  O196  1  0.25065135  0.56210715  0.00422031  1
  O  O197  1  0.25065135  0.56210715  0.25422031  1
  O  O198  1  0.25065135  0.56210715  0.50422031  1
  O  O199  1  0.25065135  0.56210715  0.75422031  1
  O  O200  1  0.75065135  0.06210715  0.00422031  1
  O  O201  1  0.75065135  0.06210715  0.25422031  1
  O  O202  1  0.75065135  0.06210715  0.50422031  1
  O  O203  1  0.75065135  0.06210715  0.75422031  1
  O  O204  1  0.75065135  0.56210715  0.00422031  1
  O  O205  1  0.75065135  0.56210715  0.25422031  1
  O  O206  1  0.75065135  0.56210715  0.50422031  1
  O  O207  1  0.75065135  0.56210715  0.75422031  1
  O  O208  1  0.49934865  0.31210715  0.12922031  1
  O  O209  1  0.49934865  0.31210715  0.37922031  1
  O  O210  1  0.49934865  0.31210715  0.62922031  1
  O  O211  1  0.49934865  0.31210715  0.87922031  1
  O  O212  1  0.49934865  0.81210715  0.12922031  1
  O  O213  1  0.49934865  0.81210715  0.37922031  1
  O  O214  1  0.49934865  0.81210715  0.62922031  1
  O  O215  1  0.49934865  0.81210715  0.87922031  1
  O  O216  1  0.99934865  0.31210715  0.12922031  1
  O  O217  1  0.99934865  0.31210715  0.37922031  1
  O  O218  1  0.99934865  0.31210715  0.62922031  1
  O  O219  1  0.99934865  0.31210715  0.87922031  1
  O  O220  1  0.99934865  0.81210715  0.12922031  1
  O  O221  1  0.99934865  0.81210715  0.37922031  1
  O  O222  1  0.99934865  0.81210715  0.62922031  1
  O  O223  1  0.99934865  0.81210715  0.87922031  1
  O  O224  1  0.00065135  0.18789285  0.00422031  1
  O  O225  1  0.00065135  0.18789285  0.25422031  1
  O  O226  1  0.00065135  0.18789285  0.50422031  1
  O  O227  1  0.00065135  0.18789285  0.75422031  1
  O  O228  1  0.00065135  0.68789285  0.00422031  1
  O  O229  1  0.00065135  0.68789285  0.25422031  1
  O  O230  1  0.00065135  0.68789285  0.50422031  1
  O  O231  1  0.00065135  0.68789285  0.75422031  1
  O  O232  1  0.50065135  0.18789285  0.00422031  1
  O  O233  1  0.50065135  0.18789285  0.25422031  1
  O  O234  1  0.50065135  0.18789285  0.50422031  1
  O  O235  1  0.50065135  0.18789285  0.75422031  1
  O  O236  1  0.50065135  0.68789285  0.00422031  1
  O  O237  1  0.50065135  0.68789285  0.25422031  1
  O  O238  1  0.50065135  0.68789285  0.50422031  1
  O  O239  1  0.50065135  0.68789285  0.75422031  1
  O  O240  1  0.24934865  0.43789285  0.12922031  1
  O  O241  1  0.24934865  0.43789285  0.37922031  1
  O  O242  1  0.24934865  0.43789285  0.62922031  1
  O  O243  1  0.24934865  0.43789285  0.87922031  1
  O  O244  1  0.24934865  0.93789285  0.12922031  1
  O  O245  1  0.24934865  0.93789285  0.37922031  1
  O  O246  1  0.24934865  0.93789285  0.62922031  1
  O  O247  1  0.24934865  0.93789285  0.87922031  1
  O  O248  1  0.74934865  0.43789285  0.12922031  1
  O  O249  1  0.74934865  0.43789285  0.37922031  1
  O  O250  1  0.74934865  0.43789285  0.62922031  1
  O  O251  1  0.74934865  0.43789285  0.87922031  1
  O  O252  1  0.74934865  0.93789285  0.12922031  1
  O  O253  1  0.74934865  0.93789285  0.37922031  1
  O  O254  1  0.74934865  0.93789285  0.62922031  1
  O  O255  1  0.74934865  0.93789285  0.87922031  1
  O  O256  1  0.38714253  0.22934951  0.17280414  1
  O  O257  1  0.38714253  0.22934951  0.42280414  1
  O  O258  1  0.38714253  0.22934951  0.67280414  1
  O  O259  1  0.38714253  0.22934951  0.92280414  1
  O  O260  1  0.38714253  0.72934951  0.17280414  1
  O  O261  1  0.38714253  0.72934951  0.42280414  1
  O  O262  1  0.38714253  0.72934951  0.67280414  1
  O  O263  1  0.38714253  0.72934951  0.92280414  1
  O  O264  1  0.88714253  0.22934951  0.17280414  1
  O  O265  1  0.88714253  0.22934951  0.42280414  1
  O  O266  1  0.88714253  0.22934951  0.67280414  1
  O  O267  1  0.88714253  0.22934951  0.92280414  1
  O  O268  1  0.88714253  0.72934951  0.17280414  1
  O  O269  1  0.88714253  0.72934951  0.42280414  1
  O  O270  1  0.88714253  0.72934951  0.67280414  1
  O  O271  1  0.88714253  0.72934951  0.92280414  1
  O  O272  1  0.11285747  0.27065049  0.04780414  1
  O  O273  1  0.11285747  0.27065049  0.29780414  1
  O  O274  1  0.11285747  0.27065049  0.54780414  1
  O  O275  1  0.11285747  0.27065049  0.79780414  1
  O  O276  1  0.11285747  0.77065049  0.04780414  1
  O  O277  1  0.11285747  0.77065049  0.29780414  1
  O  O278  1  0.11285747  0.77065049  0.54780414  1
  O  O279  1  0.11285747  0.77065049  0.79780414  1
  O  O280  1  0.61285747  0.27065049  0.04780414  1
  O  O281  1  0.61285747  0.27065049  0.29780414  1
  O  O282  1  0.61285747  0.27065049  0.54780414  1
  O  O283  1  0.61285747  0.27065049  0.79780414  1
  O  O284  1  0.61285747  0.77065049  0.04780414  1
  O  O285  1  0.61285747  0.77065049  0.29780414  1
  O  O286  1  0.61285747  0.77065049  0.54780414  1
  O  O287  1  0.61285747  0.77065049  0.79780414  1
  O  O288  1  0.13714253  0.02065049  0.17280414  1
  O  O289  1  0.13714253  0.02065049  0.42280414  1
  O  O290  1  0.13714253  0.02065049  0.67280414  1
  O  O291  1  0.13714253  0.02065049  0.92280414  1
  O  O292  1  0.13714253  0.52065049  0.17280414  1
  O  O293  1  0.13714253  0.52065049  0.42280414  1
  O  O294  1  0.13714253  0.52065049  0.67280414  1
  O  O295  1  0.13714253  0.52065049  0.92280414  1
  O  O296  1  0.63714253  0.02065049  0.17280414  1
  O  O297  1  0.63714253  0.02065049  0.42280414  1
  O  O298  1  0.63714253  0.02065049  0.67280414  1
  O  O299  1  0.63714253  0.02065049  0.92280414  1
  O  O300  1  0.63714253  0.52065049  0.17280414  1
  O  O301  1  0.63714253  0.52065049  0.42280414  1
  O  O302  1  0.63714253  0.52065049  0.67280414  1
  O  O303  1  0.63714253  0.52065049  0.92280414  1
  O  O304  1  0.36285747  0.47934951  0.04780414  1
  O  O305  1  0.36285747  0.47934951  0.29780414  1
  O  O306  1  0.36285747  0.47934951  0.54780414  1
  O  O307  1  0.36285747  0.47934951  0.79780414  1
  O  O308  1  0.36285747  0.97934951  0.04780414  1
  O  O309  1  0.36285747  0.97934951  0.29780414  1
  O  O310  1  0.36285747  0.97934951  0.54780414  1
  O  O311  1  0.36285747  0.97934951  0.79780414  1
  O  O312  1  0.86285747  0.47934951  0.04780414  1
  O  O313  1  0.86285747  0.47934951  0.29780414  1
  O  O314  1  0.86285747  0.47934951  0.54780414  1
  O  O315  1  0.86285747  0.47934951  0.79780414  1
  O  O316  1  0.86285747  0.97934951  0.04780414  1
  O  O317  1  0.86285747  0.97934951  0.29780414  1
  O  O318  1  0.86285747  0.97934951  0.54780414  1
  O  O319  1  0.86285747  0.97934951  0.79780414  1
  O  O320  1  0.37938434  0.37713184  0.14958024  1
  O  O321  1  0.37938434  0.37713184  0.39958024  1
  O  O322  1  0.37938434  0.37713184  0.64958024  1
  O  O323  1  0.37938434  0.37713184  0.89958024  1
  O  O324  1  0.37938434  0.87713184  0.14958024  1
  O  O325  1  0.37938434  0.87713184  0.39958024  1
  O  O326  1  0.37938434  0.87713184  0.64958024  1
  O  O327  1  0.37938434  0.87713184  0.89958024  1
  O  O328  1  0.87938434  0.37713184  0.14958024  1
  O  O329  1  0.87938434  0.37713184  0.39958024  1
  O  O330  1  0.87938434  0.37713184  0.64958024  1
  O  O331  1  0.87938434  0.37713184  0.89958024  1
  O  O332  1  0.87938434  0.87713184  0.14958024  1
  O  O333  1  0.87938434  0.87713184  0.39958024  1
  O  O334  1  0.87938434  0.87713184  0.64958024  1
  O  O335  1  0.87938434  0.87713184  0.89958024  1
  O  O336  1  0.12061566  0.12286816  0.02458024  1
  O  O337  1  0.12061566  0.12286816  0.27458024  1
  O  O338  1  0.12061566  0.12286816  0.52458024  1
  O  O339  1  0.12061566  0.12286816  0.77458024  1
  O  O340  1  0.12061566  0.62286816  0.02458024  1
  O  O341  1  0.12061566  0.62286816  0.27458024  1
  O  O342  1  0.12061566  0.62286816  0.52458024  1
  O  O343  1  0.12061566  0.62286816  0.77458024  1
  O  O344  1  0.62061566  0.12286816  0.02458024  1
  O  O345  1  0.62061566  0.12286816  0.27458024  1
  O  O346  1  0.62061566  0.12286816  0.52458024  1
  O  O347  1  0.62061566  0.12286816  0.77458024  1
  O  O348  1  0.62061566  0.62286816  0.02458024  1
  O  O349  1  0.62061566  0.62286816  0.27458024  1
  O  O350  1  0.62061566  0.62286816  0.52458024  1
  O  O351  1  0.62061566  0.62286816  0.77458024  1
  O  O352  1  0.12938434  0.37286816  0.14958024  1
  O  O353  1  0.12938434  0.37286816  0.39958024  1
  O  O354  1  0.12938434  0.37286816  0.64958024  1
  O  O355  1  0.12938434  0.37286816  0.89958024  1
  O  O356  1  0.12938434  0.87286816  0.14958024  1
  O  O357  1  0.12938434  0.87286816  0.39958024  1
  O  O358  1  0.12938434  0.87286816  0.64958024  1
  O  O359  1  0.12938434  0.87286816  0.89958024  1
  O  O360  1  0.62938434  0.37286816  0.14958024  1
  O  O361  1  0.62938434  0.37286816  0.39958024  1
  O  O362  1  0.62938434  0.37286816  0.64958024  1
  O  O363  1  0.62938434  0.37286816  0.89958024  1
  O  O364  1  0.62938434  0.87286816  0.14958024  1
  O  O365  1  0.62938434  0.87286816  0.39958024  1
  O  O366  1  0.62938434  0.87286816  0.64958024  1
  O  O367  1  0.62938434  0.87286816  0.89958024  1
  O  O368  1  0.37061566  0.12713184  0.02458024  1
  O  O369  1  0.37061566  0.12713184  0.27458024  1
  O  O370  1  0.37061566  0.12713184  0.52458024  1
  O  O371  1  0.37061566  0.12713184  0.77458024  1
  O  O372  1  0.37061566  0.62713184  0.02458024  1
  O  O373  1  0.37061566  0.62713184  0.27458024  1
  O  O374  1  0.37061566  0.62713184  0.52458024  1
  O  O375  1  0.37061566  0.62713184  0.77458024  1
  O  O376  1  0.87061566  0.12713184  0.02458024  1
  O  O377  1  0.87061566  0.12713184  0.27458024  1
  O  O378  1  0.87061566  0.12713184  0.52458024  1
  O  O379  1  0.87061566  0.12713184  0.77458024  1
  O  O380  1  0.87061566  0.62713184  0.02458024  1
  O  O381  1  0.87061566  0.62713184  0.27458024  1
  O  O382  1  0.87061566  0.62713184  0.52458024  1
  O  O383  1  0.87061566  0.62713184  0.77458024  1
  O  O384  1  0.11227585  0.22107481  0.17581584  1
  O  O385  1  0.11227585  0.22107481  0.42581584  1
  O  O386  1  0.11227585  0.22107481  0.67581584  1
  O  O387  1  0.11227585  0.22107481  0.92581584  1
  O  O388  1  0.11227585  0.72107481  0.17581584  1
  O  O389  1  0.11227585  0.72107481  0.42581584  1
  O  O390  1  0.11227585  0.72107481  0.67581584  1
  O  O391  1  0.11227585  0.72107481  0.92581584  1
  O  O392  1  0.61227585  0.22107481  0.17581584  1
  O  O393  1  0.61227585  0.22107481  0.42581584  1
  O  O394  1  0.61227585  0.22107481  0.67581584  1
  O  O395  1  0.61227585  0.22107481  0.92581584  1
  O  O396  1  0.61227585  0.72107481  0.17581584  1
  O  O397  1  0.61227585  0.72107481  0.42581584  1
  O  O398  1  0.61227585  0.72107481  0.67581584  1
  O  O399  1  0.61227585  0.72107481  0.92581584  1
  O  O400  1  0.38772415  0.27892519  0.05081584  1
  O  O401  1  0.38772415  0.27892519  0.30081584  1
  O  O402  1  0.38772415  0.27892519  0.55081584  1
  O  O403  1  0.38772415  0.27892519  0.80081584  1
  O  O404  1  0.38772415  0.77892519  0.05081584  1
  O  O405  1  0.38772415  0.77892519  0.30081584  1
  O  O406  1  0.38772415  0.77892519  0.55081584  1
  O  O407  1  0.38772415  0.77892519  0.80081584  1
  O  O408  1  0.88772415  0.27892519  0.05081584  1
  O  O409  1  0.88772415  0.27892519  0.30081584  1
  O  O410  1  0.88772415  0.27892519  0.55081584  1
  O  O411  1  0.88772415  0.27892519  0.80081584  1
  O  O412  1  0.88772415  0.77892519  0.05081584  1
  O  O413  1  0.88772415  0.77892519  0.30081584  1
  O  O414  1  0.88772415  0.77892519  0.55081584  1
  O  O415  1  0.88772415  0.77892519  0.80081584  1
  O  O416  1  0.36227585  0.02892519  0.17581584  1
  O  O417  1  0.36227585  0.02892519  0.42581584  1
  O  O418  1  0.36227585  0.02892519  0.67581584  1
  O  O419  1  0.36227585  0.02892519  0.92581584  1
  O  O420  1  0.36227585  0.52892519  0.17581584  1
  O  O421  1  0.36227585  0.52892519  0.42581584  1
  O  O422  1  0.36227585  0.52892519  0.67581584  1
  O  O423  1  0.36227585  0.52892519  0.92581584  1
  O  O424  1  0.86227585  0.02892519  0.17581584  1
  O  O425  1  0.86227585  0.02892519  0.42581584  1
  O  O426  1  0.86227585  0.02892519  0.67581584  1
  O  O427  1  0.86227585  0.02892519  0.92581584  1
  O  O428  1  0.86227585  0.52892519  0.17581584  1
  O  O429  1  0.86227585  0.52892519  0.42581584  1
  O  O430  1  0.86227585  0.52892519  0.67581584  1
  O  O431  1  0.86227585  0.52892519  0.92581584  1
  O  O432  1  0.13772415  0.47107481  0.05081584  1
  O  O433  1  0.13772415  0.47107481  0.30081584  1
  O  O434  1  0.13772415  0.47107481  0.55081584  1
  O  O435  1  0.13772415  0.47107481  0.80081584  1
  O  O436  1  0.13772415  0.97107481  0.05081584  1
  O  O437  1  0.13772415  0.97107481  0.30081584  1
  O  O438  1  0.13772415  0.97107481  0.55081584  1
  O  O439  1  0.13772415  0.97107481  0.80081584  1
  O  O440  1  0.63772415  0.47107481  0.05081584  1
  O  O441  1  0.63772415  0.47107481  0.30081584  1
  O  O442  1  0.63772415  0.47107481  0.55081584  1
  O  O443  1  0.63772415  0.47107481  0.80081584  1
  O  O444  1  0.63772415  0.97107481  0.05081584  1
  O  O445  1  0.63772415  0.97107481  0.30081584  1
  O  O446  1  0.63772415  0.97107481  0.55081584  1
  O  O447  1  0.63772415  0.97107481  0.80081584  1
