# generated using pymatgen
data_Ba2Sc2O5
_symmetry_space_group_name_H-M   'P 1'
_cell_length_a   11.87250104
_cell_length_b   11.74542195
_cell_length_c   11.93163149
_cell_angle_alpha   90.00000000
_cell_angle_beta   90.00000000
_cell_angle_gamma   90.00000000
_symmetry_Int_Tables_number   1
_chemical_formula_structural   Ba2Sc2O5
_chemical_formula_sum   'Ba24 Sc24 O60'
_cell_volume   1663.83659205
_cell_formula_units_Z   12
loop_
 _symmetry_equiv_pos_site_id
 _symmetry_equiv_pos_as_xyz
  1  'x, y, z'
loop_
 _atom_site_type_symbol
 _atom_site_label
 _atom_site_symmetry_multiplicity
 _atom_site_fract_x
 _atom_site_fract_y
 _atom_site_fract_z
 _atom_site_occupancy
  Ba  Ba0  1  0.11664149  0.87256517  0.16666667  1
  Ba  Ba1  1  0.11664149  0.87256517  0.50000000  1
  Ba  Ba2  1  0.11664149  0.87256517  0.83333333  1
  Ba  Ba3  1  0.61664149  0.87256517  0.16666667  1
  Ba  Ba4  1  0.61664149  0.87256517  0.50000000  1
  Ba  Ba5  1  0.61664149  0.87256517  0.83333333  1
  Ba  Ba6  1  0.13335851  0.37256517  0.16666667  1
  Ba  Ba7  1  0.13335851  0.37256517  0.50000000  1
  Ba  Ba8  1  0.13335851  0.37256517  0.83333333  1
  Ba  Ba9  1  0.63335851  0.37256517  0.16666667  1
  Ba  Ba10  1  0.63335851  0.37256517  0.50000000  1
  Ba  Ba11  1  0.63335851  0.37256517  0.83333333  1
  Ba  Ba12  1  0.36664149  0.62743483  0.16666667  1
  Ba  Ba13  1  0.36664149  0.62743483  0.50000000  1
  Ba  Ba14  1  0.36664149  0.62743483  0.83333333  1
  Ba  Ba15  1  0.86664149  0.62743483  0.16666667  1
  Ba  Ba16  1  0.86664149  0.62743483  0.50000000  1
  Ba  Ba17  1  0.86664149  0.62743483  0.83333333  1
  Ba  Ba18  1  0.38335851  0.12743483  0.16666667  1
  Ba  Ba19  1  0.38335851  0.12743483  0.50000000  1
  Ba  Ba20  1  0.38335851  0.12743483  0.83333333  1
  Ba  Ba21  1  0.88335851  0.12743483  0.16666667  1
  Ba  Ba22  1  0.88335851  0.12743483  0.50000000  1
  Ba  Ba23  1  0.88335851  0.12743483  0.83333333  1
  Sc  Sc24  1  0.13163433  0.63192402  0.00000000  1
  Sc  Sc25  1  0.13163433  0.63192402  0.33333333  1
  Sc  Sc26  1  0.13163433  0.63192402  0.66666667  1
  Sc  Sc27  1  0.63163433  0.63192402  0.00000000  1
  Sc  Sc28  1  0.63163433  0.63192402  0.33333333  1
  Sc  Sc29  1  0.63163433  0.63192402  0.66666667  1
  Sc  Sc30  1  0.11836567  0.13192402  0.00000000  1
  Sc  Sc31  1  0.11836567  0.13192402  0.33333333  1
  Sc  Sc32  1  0.11836567  0.13192402  0.66666667  1
  Sc  Sc33  1  0.61836567  0.13192402  0.00000000  1
  Sc  Sc34  1  0.61836567  0.13192402  0.33333333  1
  Sc  Sc35  1  0.61836567  0.13192402  0.66666667  1
  Sc  Sc36  1  0.38163433  0.86807598  0.00000000  1
  Sc  Sc37  1  0.38163433  0.86807598  0.33333333  1
  Sc  Sc38  1  0.38163433  0.86807598  0.66666667  1
  Sc  Sc39  1  0.88163433  0.86807598  0.00000000  1
  Sc  Sc40  1  0.88163433  0.86807598  0.33333333  1
  Sc  Sc41  1  0.88163433  0.86807598  0.66666667  1
  Sc  Sc42  1  0.36836567  0.36807598  0.00000000  1
  Sc  Sc43  1  0.36836567  0.36807598  0.33333333  1
  Sc  Sc44  1  0.36836567  0.36807598  0.66666667  1
  Sc  Sc45  1  0.86836567  0.36807598  0.00000000  1
  Sc  Sc46  1  0.86836567  0.36807598  0.33333333  1
  Sc  Sc47  1  0.86836567  0.36807598  0.66666667  1
  O  O48  1  0.00000000  0.00000000  0.00000000  1
  O  O49  1  0.00000000  0.00000000  0.33333333  1
  O  O50  1  0.00000000  0.00000000  0.66666667  1
  O  O51  1  0.50000000  0.00000000  0.00000000  1
  O  O52  1  0.50000000  0.00000000  0.33333333  1
  O  O53  1  0.50000000  0.00000000  0.66666667  1
  O  O54  1  0.00927135  0.25753450  0.00000000  1
  O  O55  1  0.00927135  0.25753450  0.33333333  1
  O  O56  1  0.00927135  0.25753450  0.66666667  1
  O  O57  1  0.50927135  0.25753450  0.00000000  1
  O  O58  1  0.50927135  0.25753450  0.33333333  1
  O  O59  1  0.50927135  0.25753450  0.66666667  1
  O  O60  1  0.09615470  0.59879727  0.16666667  1
  O  O61  1  0.09615470  0.59879727  0.50000000  1
  O  O62  1  0.09615470  0.59879727  0.83333333  1
  O  O63  1  0.59615470  0.59879727  0.16666667  1
  O  O64  1  0.59615470  0.59879727  0.50000000  1
  O  O65  1  0.59615470  0.59879727  0.83333333  1
  O  O66  1  0.15384530  0.09879727  0.16666667  1
  O  O67  1  0.15384530  0.09879727  0.50000000  1
  O  O68  1  0.15384530  0.09879727  0.83333333  1
  O  O69  1  0.65384530  0.09879727  0.16666667  1
  O  O70  1  0.65384530  0.09879727  0.50000000  1
  O  O71  1  0.65384530  0.09879727  0.83333333  1
  O  O72  1  0.24072865  0.75753450  0.00000000  1
  O  O73  1  0.24072865  0.75753450  0.33333333  1
  O  O74  1  0.24072865  0.75753450  0.66666667  1
  O  O75  1  0.74072865  0.75753450  0.00000000  1
  O  O76  1  0.74072865  0.75753450  0.33333333  1
  O  O77  1  0.74072865  0.75753450  0.66666667  1
  O  O78  1  0.25000000  0.50000000  0.00000000  1
  O  O79  1  0.25000000  0.50000000  0.33333333  1
  O  O80  1  0.25000000  0.50000000  0.66666667  1
  O  O81  1  0.75000000  0.50000000  0.00000000  1
  O  O82  1  0.75000000  0.50000000  0.33333333  1
  O  O83  1  0.75000000  0.50000000  0.66666667  1
  O  O84  1  0.25927135  0.24246550  0.00000000  1
  O  O85  1  0.25927135  0.24246550  0.33333333  1
  O  O86  1  0.25927135  0.24246550  0.66666667  1
  O  O87  1  0.75927135  0.24246550  0.00000000  1
  O  O88  1  0.75927135  0.24246550  0.33333333  1
  O  O89  1  0.75927135  0.24246550  0.66666667  1
  O  O90  1  0.34615470  0.90120273  0.16666667  1
  O  O91  1  0.34615470  0.90120273  0.50000000  1
  O  O92  1  0.34615470  0.90120273  0.83333333  1
  O  O93  1  0.84615470  0.90120273  0.16666667  1
  O  O94  1  0.84615470  0.90120273  0.50000000  1
  O  O95  1  0.84615470  0.90120273  0.83333333  1
  O  O96  1  0.40384530  0.40120273  0.16666667  1
  O  O97  1  0.40384530  0.40120273  0.50000000  1
  O  O98  1  0.40384530  0.40120273  0.83333333  1
  O  O99  1  0.90384530  0.40120273  0.16666667  1
  O  O100  1  0.90384530  0.40120273  0.50000000  1
  O  O101  1  0.90384530  0.40120273  0.83333333  1
  O  O102  1  0.49072865  0.74246550  0.00000000  1
  O  O103  1  0.49072865  0.74246550  0.33333333  1
  O  O104  1  0.49072865  0.74246550  0.66666667  1
  O  O105  1  0.99072865  0.74246550  0.00000000  1
  O  O106  1  0.99072865  0.74246550  0.33333333  1
  O  O107  1  0.99072865  0.74246550  0.66666667  1
