# generated using pymatgen
data_Ba(AsO3)2
_symmetry_space_group_name_H-M   'P 1'
_cell_length_a   22.11523705
_cell_length_b   17.81842993
_cell_length_c   20.11330408
_cell_angle_alpha   90.00000000
_cell_angle_beta   129.22258375
_cell_angle_gamma   90.00000000
_symmetry_Int_Tables_number   1
_chemical_formula_structural   Ba(AsO3)2
_chemical_formula_sum   'Ba48 As96 O288'
_cell_volume   6140.09904981
_cell_formula_units_Z   48
loop_
 _symmetry_equiv_pos_site_id
 _symmetry_equiv_pos_as_xyz
  1  'x, y, z'
loop_
 _atom_site_type_symbol
 _atom_site_label
 _atom_site_symmetry_multiplicity
 _atom_site_fract_x
 _atom_site_fract_y
 _atom_site_fract_z
 _atom_site_occupancy
  Ba  Ba0  1  0.16666667  0.35666059  0.06250000  1
  Ba  Ba1  1  0.16666667  0.35666059  0.31250000  1
  Ba  Ba2  1  0.16666667  0.35666059  0.56250000  1
  Ba  Ba3  1  0.16666667  0.35666059  0.81250000  1
  Ba  Ba4  1  0.50000000  0.35666059  0.06250000  1
  Ba  Ba5  1  0.50000000  0.35666059  0.31250000  1
  Ba  Ba6  1  0.50000000  0.35666059  0.56250000  1
  Ba  Ba7  1  0.50000000  0.35666059  0.81250000  1
  Ba  Ba8  1  0.83333333  0.35666059  0.06250000  1
  Ba  Ba9  1  0.83333333  0.35666059  0.31250000  1
  Ba  Ba10  1  0.83333333  0.35666059  0.56250000  1
  Ba  Ba11  1  0.83333333  0.35666059  0.81250000  1
  Ba  Ba12  1  0.33333333  0.85666059  0.06250000  1
  Ba  Ba13  1  0.33333333  0.85666059  0.31250000  1
  Ba  Ba14  1  0.33333333  0.85666059  0.56250000  1
  Ba  Ba15  1  0.33333333  0.85666059  0.81250000  1
  Ba  Ba16  1  0.66666667  0.85666059  0.06250000  1
  Ba  Ba17  1  0.66666667  0.85666059  0.31250000  1
  Ba  Ba18  1  0.66666667  0.85666059  0.56250000  1
  Ba  Ba19  1  0.66666667  0.85666059  0.81250000  1
  Ba  Ba20  1  1.00000000  0.85666059  0.06250000  1
  Ba  Ba21  1  1.00000000  0.85666059  0.31250000  1
  Ba  Ba22  1  1.00000000  0.85666059  0.56250000  1
  Ba  Ba23  1  1.00000000  0.85666059  0.81250000  1
  Ba  Ba24  1  0.16666667  -0.35666059  0.18750000  1
  Ba  Ba25  1  0.16666667  -0.35666059  0.43750000  1
  Ba  Ba26  1  0.16666667  -0.35666059  0.68750000  1
  Ba  Ba27  1  0.16666667  -0.35666059  0.93750000  1
  Ba  Ba28  1  0.50000000  -0.35666059  0.18750000  1
  Ba  Ba29  1  0.50000000  -0.35666059  0.43750000  1
  Ba  Ba30  1  0.50000000  -0.35666059  0.68750000  1
  Ba  Ba31  1  0.50000000  -0.35666059  0.93750000  1
  Ba  Ba32  1  0.83333333  -0.35666059  0.18750000  1
  Ba  Ba33  1  0.83333333  -0.35666059  0.43750000  1
  Ba  Ba34  1  0.83333333  -0.35666059  0.68750000  1
  Ba  Ba35  1  0.83333333  -0.35666059  0.93750000  1
  Ba  Ba36  1  0.33333333  0.14333941  0.18750000  1
  Ba  Ba37  1  0.33333333  0.14333941  0.43750000  1
  Ba  Ba38  1  0.33333333  0.14333941  0.68750000  1
  Ba  Ba39  1  0.33333333  0.14333941  0.93750000  1
  Ba  Ba40  1  0.66666667  0.14333941  0.18750000  1
  Ba  Ba41  1  0.66666667  0.14333941  0.43750000  1
  Ba  Ba42  1  0.66666667  0.14333941  0.68750000  1
  Ba  Ba43  1  0.66666667  0.14333941  0.93750000  1
  Ba  Ba44  1  1.00000000  0.14333941  0.18750000  1
  Ba  Ba45  1  1.00000000  0.14333941  0.43750000  1
  Ba  Ba46  1  1.00000000  0.14333941  0.68750000  1
  Ba  Ba47  1  1.00000000  0.14333941  0.93750000  1
  As  As48  1  0.16666667  -0.03487892  0.06250000  1
  As  As49  1  0.16666667  -0.03487892  0.31250000  1
  As  As50  1  0.16666667  -0.03487892  0.56250000  1
  As  As51  1  0.16666667  -0.03487892  0.81250000  1
  As  As52  1  0.50000000  -0.03487892  0.06250000  1
  As  As53  1  0.50000000  -0.03487892  0.31250000  1
  As  As54  1  0.50000000  -0.03487892  0.56250000  1
  As  As55  1  0.50000000  -0.03487892  0.81250000  1
  As  As56  1  0.83333333  -0.03487892  0.06250000  1
  As  As57  1  0.83333333  -0.03487892  0.31250000  1
  As  As58  1  0.83333333  -0.03487892  0.56250000  1
  As  As59  1  0.83333333  -0.03487892  0.81250000  1
  As  As60  1  0.33333333  0.46512108  0.06250000  1
  As  As61  1  0.33333333  0.46512108  0.31250000  1
  As  As62  1  0.33333333  0.46512108  0.56250000  1
  As  As63  1  0.33333333  0.46512108  0.81250000  1
  As  As64  1  0.66666667  0.46512108  0.06250000  1
  As  As65  1  0.66666667  0.46512108  0.31250000  1
  As  As66  1  0.66666667  0.46512108  0.56250000  1
  As  As67  1  0.66666667  0.46512108  0.81250000  1
  As  As68  1  1.00000000  0.46512108  0.06250000  1
  As  As69  1  1.00000000  0.46512108  0.31250000  1
  As  As70  1  1.00000000  0.46512108  0.56250000  1
  As  As71  1  1.00000000  0.46512108  0.81250000  1
  As  As72  1  0.16666667  0.03487892  0.18750000  1
  As  As73  1  0.16666667  0.03487892  0.43750000  1
  As  As74  1  0.16666667  0.03487892  0.68750000  1
  As  As75  1  0.16666667  0.03487892  0.93750000  1
  As  As76  1  0.50000000  0.03487892  0.18750000  1
  As  As77  1  0.50000000  0.03487892  0.43750000  1
  As  As78  1  0.50000000  0.03487892  0.68750000  1
  As  As79  1  0.50000000  0.03487892  0.93750000  1
  As  As80  1  0.83333333  0.03487892  0.18750000  1
  As  As81  1  0.83333333  0.03487892  0.43750000  1
  As  As82  1  0.83333333  0.03487892  0.68750000  1
  As  As83  1  0.83333333  0.03487892  0.93750000  1
  As  As84  1  0.33333333  0.53487892  0.18750000  1
  As  As85  1  0.33333333  0.53487892  0.43750000  1
  As  As86  1  0.33333333  0.53487892  0.68750000  1
  As  As87  1  0.33333333  0.53487892  0.93750000  1
  As  As88  1  0.66666667  0.53487892  0.18750000  1
  As  As89  1  0.66666667  0.53487892  0.43750000  1
  As  As90  1  0.66666667  0.53487892  0.68750000  1
  As  As91  1  0.66666667  0.53487892  0.93750000  1
  As  As92  1  1.00000000  0.53487892  0.18750000  1
  As  As93  1  1.00000000  0.53487892  0.43750000  1
  As  As94  1  1.00000000  0.53487892  0.68750000  1
  As  As95  1  1.00000000  0.53487892  0.93750000  1
  As  As96  1  0.16666667  -0.19012256  0.06250000  1
  As  As97  1  0.16666667  -0.19012256  0.31250000  1
  As  As98  1  0.16666667  -0.19012256  0.56250000  1
  As  As99  1  0.16666667  -0.19012256  0.81250000  1
  As  As100  1  0.50000000  -0.19012256  0.06250000  1
  As  As101  1  0.50000000  -0.19012256  0.31250000  1
  As  As102  1  0.50000000  -0.19012256  0.56250000  1
  As  As103  1  0.50000000  -0.19012256  0.81250000  1
  As  As104  1  0.83333333  -0.19012256  0.06250000  1
  As  As105  1  0.83333333  -0.19012256  0.31250000  1
  As  As106  1  0.83333333  -0.19012256  0.56250000  1
  As  As107  1  0.83333333  -0.19012256  0.81250000  1
  As  As108  1  0.33333333  0.30987744  0.06250000  1
  As  As109  1  0.33333333  0.30987744  0.31250000  1
  As  As110  1  0.33333333  0.30987744  0.56250000  1
  As  As111  1  0.33333333  0.30987744  0.81250000  1
  As  As112  1  0.66666667  0.30987744  0.06250000  1
  As  As113  1  0.66666667  0.30987744  0.31250000  1
  As  As114  1  0.66666667  0.30987744  0.56250000  1
  As  As115  1  0.66666667  0.30987744  0.81250000  1
  As  As116  1  1.00000000  0.30987744  0.06250000  1
  As  As117  1  1.00000000  0.30987744  0.31250000  1
  As  As118  1  1.00000000  0.30987744  0.56250000  1
  As  As119  1  1.00000000  0.30987744  0.81250000  1
  As  As120  1  0.16666667  0.19012256  0.18750000  1
  As  As121  1  0.16666667  0.19012256  0.43750000  1
  As  As122  1  0.16666667  0.19012256  0.68750000  1
  As  As123  1  0.16666667  0.19012256  0.93750000  1
  As  As124  1  0.50000000  0.19012256  0.18750000  1
  As  As125  1  0.50000000  0.19012256  0.43750000  1
  As  As126  1  0.50000000  0.19012256  0.68750000  1
  As  As127  1  0.50000000  0.19012256  0.93750000  1
  As  As128  1  0.83333333  0.19012256  0.18750000  1
  As  As129  1  0.83333333  0.19012256  0.43750000  1
  As  As130  1  0.83333333  0.19012256  0.68750000  1
  As  As131  1  0.83333333  0.19012256  0.93750000  1
  As  As132  1  0.33333333  0.69012256  0.18750000  1
  As  As133  1  0.33333333  0.69012256  0.43750000  1
  As  As134  1  0.33333333  0.69012256  0.68750000  1
  As  As135  1  0.33333333  0.69012256  0.93750000  1
  As  As136  1  0.66666667  0.69012256  0.18750000  1
  As  As137  1  0.66666667  0.69012256  0.43750000  1
  As  As138  1  0.66666667  0.69012256  0.68750000  1
  As  As139  1  0.66666667  0.69012256  0.93750000  1
  As  As140  1  1.00000000  0.69012256  0.18750000  1
  As  As141  1  1.00000000  0.69012256  0.43750000  1
  As  As142  1  1.00000000  0.69012256  0.68750000  1
  As  As143  1  1.00000000  0.69012256  0.93750000  1
  O  O144  1  0.10606104  -0.03064488  0.09698723  1
  O  O145  1  0.10606104  -0.03064488  0.34698723  1
  O  O146  1  0.10606104  -0.03064488  0.59698723  1
  O  O147  1  0.10606104  -0.03064488  0.84698723  1
  O  O148  1  0.43939437  -0.03064488  0.09698723  1
  O  O149  1  0.43939437  -0.03064488  0.34698723  1
  O  O150  1  0.43939437  -0.03064488  0.59698723  1
  O  O151  1  0.43939437  -0.03064488  0.84698723  1
  O  O152  1  0.77272771  -0.03064488  0.09698723  1
  O  O153  1  0.77272771  -0.03064488  0.34698723  1
  O  O154  1  0.77272771  -0.03064488  0.59698723  1
  O  O155  1  0.77272771  -0.03064488  0.84698723  1
  O  O156  1  0.27272771  0.46935512  0.09698723  1
  O  O157  1  0.27272771  0.46935512  0.34698723  1
  O  O158  1  0.27272771  0.46935512  0.59698723  1
  O  O159  1  0.27272771  0.46935512  0.84698723  1
  O  O160  1  0.60606104  0.46935512  0.09698723  1
  O  O161  1  0.60606104  0.46935512  0.34698723  1
  O  O162  1  0.60606104  0.46935512  0.59698723  1
  O  O163  1  0.60606104  0.46935512  0.84698723  1
  O  O164  1  0.93939437  0.46935512  0.09698723  1
  O  O165  1  0.93939437  0.46935512  0.34698723  1
  O  O166  1  0.93939437  0.46935512  0.59698723  1
  O  O167  1  0.93939437  0.46935512  0.84698723  1
  O  O168  1  0.22727229  -0.03064488  0.02801277  1
  O  O169  1  0.22727229  -0.03064488  0.27801277  1
  O  O170  1  0.22727229  -0.03064488  0.52801277  1
  O  O171  1  0.22727229  -0.03064488  0.77801277  1
  O  O172  1  0.56060563  -0.03064488  0.02801277  1
  O  O173  1  0.56060563  -0.03064488  0.27801277  1
  O  O174  1  0.56060563  -0.03064488  0.52801277  1
  O  O175  1  0.56060563  -0.03064488  0.77801277  1
  O  O176  1  0.89393896  -0.03064488  0.02801277  1
  O  O177  1  0.89393896  -0.03064488  0.27801277  1
  O  O178  1  0.89393896  -0.03064488  0.52801277  1
  O  O179  1  0.89393896  -0.03064488  0.77801277  1
  O  O180  1  0.39393896  0.46935512  0.02801277  1
  O  O181  1  0.39393896  0.46935512  0.27801277  1
  O  O182  1  0.39393896  0.46935512  0.52801277  1
  O  O183  1  0.39393896  0.46935512  0.77801277  1
  O  O184  1  0.72727229  0.46935512  0.02801277  1
  O  O185  1  0.72727229  0.46935512  0.27801277  1
  O  O186  1  0.72727229  0.46935512  0.52801277  1
  O  O187  1  0.72727229  0.46935512  0.77801277  1
  O  O188  1  1.06060563  0.46935512  0.02801277  1
  O  O189  1  1.06060563  0.46935512  0.27801277  1
  O  O190  1  1.06060563  0.46935512  0.52801277  1
  O  O191  1  1.06060563  0.46935512  0.77801277  1
  O  O192  1  0.22727229  0.03064488  0.15301277  1
  O  O193  1  0.22727229  0.03064488  0.40301277  1
  O  O194  1  0.22727229  0.03064488  0.65301277  1
  O  O195  1  0.22727229  0.03064488  0.90301277  1
  O  O196  1  0.56060563  0.03064488  0.15301277  1
  O  O197  1  0.56060563  0.03064488  0.40301277  1
  O  O198  1  0.56060563  0.03064488  0.65301277  1
  O  O199  1  0.56060563  0.03064488  0.90301277  1
  O  O200  1  0.89393896  0.03064488  0.15301277  1
  O  O201  1  0.89393896  0.03064488  0.40301277  1
  O  O202  1  0.89393896  0.03064488  0.65301277  1
  O  O203  1  0.89393896  0.03064488  0.90301277  1
  O  O204  1  0.39393896  0.53064488  0.15301277  1
  O  O205  1  0.39393896  0.53064488  0.40301277  1
  O  O206  1  0.39393896  0.53064488  0.65301277  1
  O  O207  1  0.39393896  0.53064488  0.90301277  1
  O  O208  1  0.72727229  0.53064488  0.15301277  1
  O  O209  1  0.72727229  0.53064488  0.40301277  1
  O  O210  1  0.72727229  0.53064488  0.65301277  1
  O  O211  1  0.72727229  0.53064488  0.90301277  1
  O  O212  1  1.06060563  0.53064488  0.15301277  1
  O  O213  1  1.06060563  0.53064488  0.40301277  1
  O  O214  1  1.06060563  0.53064488  0.65301277  1
  O  O215  1  1.06060563  0.53064488  0.90301277  1
  O  O216  1  0.10606104  0.03064488  0.22198723  1
  O  O217  1  0.10606104  0.03064488  0.47198723  1
  O  O218  1  0.10606104  0.03064488  0.72198723  1
  O  O219  1  0.10606104  0.03064488  0.97198723  1
  O  O220  1  0.43939437  0.03064488  0.22198723  1
  O  O221  1  0.43939437  0.03064488  0.47198723  1
  O  O222  1  0.43939437  0.03064488  0.72198723  1
  O  O223  1  0.43939437  0.03064488  0.97198723  1
  O  O224  1  0.77272771  0.03064488  0.22198723  1
  O  O225  1  0.77272771  0.03064488  0.47198723  1
  O  O226  1  0.77272771  0.03064488  0.72198723  1
  O  O227  1  0.77272771  0.03064488  0.97198723  1
  O  O228  1  0.27272771  0.53064488  0.22198723  1
  O  O229  1  0.27272771  0.53064488  0.47198723  1
  O  O230  1  0.27272771  0.53064488  0.72198723  1
  O  O231  1  0.27272771  0.53064488  0.97198723  1
  O  O232  1  0.60606104  0.53064488  0.22198723  1
  O  O233  1  0.60606104  0.53064488  0.47198723  1
  O  O234  1  0.60606104  0.53064488  0.72198723  1
  O  O235  1  0.60606104  0.53064488  0.97198723  1
  O  O236  1  0.93939437  0.53064488  0.22198723  1
  O  O237  1  0.93939437  0.53064488  0.47198723  1
  O  O238  1  0.93939437  0.53064488  0.72198723  1
  O  O239  1  0.93939437  0.53064488  0.97198723  1
  O  O240  1  0.10453788  -0.11646523  0.23930552  1
  O  O241  1  0.10453788  -0.11646523  0.48930552  1
  O  O242  1  0.10453788  -0.11646523  0.73930552  1
  O  O243  1  0.10453788  -0.11646523  0.98930552  1
  O  O244  1  0.43787122  -0.11646523  0.23930552  1
  O  O245  1  0.43787122  -0.11646523  0.48930552  1
  O  O246  1  0.43787122  -0.11646523  0.73930552  1
  O  O247  1  0.43787122  -0.11646523  0.98930552  1
  O  O248  1  0.77120455  -0.11646523  0.23930552  1
  O  O249  1  0.77120455  -0.11646523  0.48930552  1
  O  O250  1  0.77120455  -0.11646523  0.73930552  1
  O  O251  1  0.77120455  -0.11646523  0.98930552  1
  O  O252  1  0.27120455  0.38353477  0.23930552  1
  O  O253  1  0.27120455  0.38353477  0.48930552  1
  O  O254  1  0.27120455  0.38353477  0.73930552  1
  O  O255  1  0.27120455  0.38353477  0.98930552  1
  O  O256  1  0.60453788  0.38353477  0.23930552  1
  O  O257  1  0.60453788  0.38353477  0.48930552  1
  O  O258  1  0.60453788  0.38353477  0.73930552  1
  O  O259  1  0.60453788  0.38353477  0.98930552  1
  O  O260  1  0.93787122  0.38353477  0.23930552  1
  O  O261  1  0.93787122  0.38353477  0.48930552  1
  O  O262  1  0.93787122  0.38353477  0.73930552  1
  O  O263  1  0.93787122  0.38353477  0.98930552  1
  O  O264  1  0.22879545  -0.11646523  0.13569448  1
  O  O265  1  0.22879545  -0.11646523  0.38569448  1
  O  O266  1  0.22879545  -0.11646523  0.63569448  1
  O  O267  1  0.22879545  -0.11646523  0.88569448  1
  O  O268  1  0.56212878  -0.11646523  0.13569448  1
  O  O269  1  0.56212878  -0.11646523  0.38569448  1
  O  O270  1  0.56212878  -0.11646523  0.63569448  1
  O  O271  1  0.56212878  -0.11646523  0.88569448  1
  O  O272  1  0.89546212  -0.11646523  0.13569448  1
  O  O273  1  0.89546212  -0.11646523  0.38569448  1
  O  O274  1  0.89546212  -0.11646523  0.63569448  1
  O  O275  1  0.89546212  -0.11646523  0.88569448  1
  O  O276  1  0.39546212  0.38353477  0.13569448  1
  O  O277  1  0.39546212  0.38353477  0.38569448  1
  O  O278  1  0.39546212  0.38353477  0.63569448  1
  O  O279  1  0.39546212  0.38353477  0.88569448  1
  O  O280  1  0.72879545  0.38353477  0.13569448  1
  O  O281  1  0.72879545  0.38353477  0.38569448  1
  O  O282  1  0.72879545  0.38353477  0.63569448  1
  O  O283  1  0.72879545  0.38353477  0.88569448  1
  O  O284  1  1.06212878  0.38353477  0.13569448  1
  O  O285  1  1.06212878  0.38353477  0.38569448  1
  O  O286  1  1.06212878  0.38353477  0.63569448  1
  O  O287  1  1.06212878  0.38353477  0.88569448  1
  O  O288  1  0.22879545  0.11646523  0.01069448  1
  O  O289  1  0.22879545  0.11646523  0.26069448  1
  O  O290  1  0.22879545  0.11646523  0.51069448  1
  O  O291  1  0.22879545  0.11646523  0.76069448  1
  O  O292  1  0.56212878  0.11646523  0.01069448  1
  O  O293  1  0.56212878  0.11646523  0.26069448  1
  O  O294  1  0.56212878  0.11646523  0.51069448  1
  O  O295  1  0.56212878  0.11646523  0.76069448  1
  O  O296  1  0.89546212  0.11646523  0.01069448  1
  O  O297  1  0.89546212  0.11646523  0.26069448  1
  O  O298  1  0.89546212  0.11646523  0.51069448  1
  O  O299  1  0.89546212  0.11646523  0.76069448  1
  O  O300  1  0.39546212  0.61646523  0.01069448  1
  O  O301  1  0.39546212  0.61646523  0.26069448  1
  O  O302  1  0.39546212  0.61646523  0.51069448  1
  O  O303  1  0.39546212  0.61646523  0.76069448  1
  O  O304  1  0.72879545  0.61646523  0.01069448  1
  O  O305  1  0.72879545  0.61646523  0.26069448  1
  O  O306  1  0.72879545  0.61646523  0.51069448  1
  O  O307  1  0.72879545  0.61646523  0.76069448  1
  O  O308  1  1.06212878  0.61646523  0.01069448  1
  O  O309  1  1.06212878  0.61646523  0.26069448  1
  O  O310  1  1.06212878  0.61646523  0.51069448  1
  O  O311  1  1.06212878  0.61646523  0.76069448  1
  O  O312  1  0.10453788  0.11646523  0.11430552  1
  O  O313  1  0.10453788  0.11646523  0.36430552  1
  O  O314  1  0.10453788  0.11646523  0.61430552  1
  O  O315  1  0.10453788  0.11646523  0.86430552  1
  O  O316  1  0.43787122  0.11646523  0.11430552  1
  O  O317  1  0.43787122  0.11646523  0.36430552  1
  O  O318  1  0.43787122  0.11646523  0.61430552  1
  O  O319  1  0.43787122  0.11646523  0.86430552  1
  O  O320  1  0.77120455  0.11646523  0.11430552  1
  O  O321  1  0.77120455  0.11646523  0.36430552  1
  O  O322  1  0.77120455  0.11646523  0.61430552  1
  O  O323  1  0.77120455  0.11646523  0.86430552  1
  O  O324  1  0.27120455  0.61646523  0.11430552  1
  O  O325  1  0.27120455  0.61646523  0.36430552  1
  O  O326  1  0.27120455  0.61646523  0.61430552  1
  O  O327  1  0.27120455  0.61646523  0.86430552  1
  O  O328  1  0.60453788  0.61646523  0.11430552  1
  O  O329  1  0.60453788  0.61646523  0.36430552  1
  O  O330  1  0.60453788  0.61646523  0.61430552  1
  O  O331  1  0.60453788  0.61646523  0.86430552  1
  O  O332  1  0.93787122  0.61646523  0.11430552  1
  O  O333  1  0.93787122  0.61646523  0.36430552  1
  O  O334  1  0.93787122  0.61646523  0.61430552  1
  O  O335  1  0.93787122  0.61646523  0.86430552  1
  O  O336  1  0.11589437  -0.23420724  0.08663602  1
  O  O337  1  0.11589437  -0.23420724  0.33663602  1
  O  O338  1  0.11589437  -0.23420724  0.58663602  1
  O  O339  1  0.11589437  -0.23420724  0.83663602  1
  O  O340  1  0.44922771  -0.23420724  0.08663602  1
  O  O341  1  0.44922771  -0.23420724  0.33663602  1
  O  O342  1  0.44922771  -0.23420724  0.58663602  1
  O  O343  1  0.44922771  -0.23420724  0.83663602  1
  O  O344  1  0.78256104  -0.23420724  0.08663602  1
  O  O345  1  0.78256104  -0.23420724  0.33663602  1
  O  O346  1  0.78256104  -0.23420724  0.58663602  1
  O  O347  1  0.78256104  -0.23420724  0.83663602  1
  O  O348  1  0.28256104  0.26579276  0.08663602  1
  O  O349  1  0.28256104  0.26579276  0.33663602  1
  O  O350  1  0.28256104  0.26579276  0.58663602  1
  O  O351  1  0.28256104  0.26579276  0.83663602  1
  O  O352  1  0.61589437  0.26579276  0.08663602  1
  O  O353  1  0.61589437  0.26579276  0.33663602  1
  O  O354  1  0.61589437  0.26579276  0.58663602  1
  O  O355  1  0.61589437  0.26579276  0.83663602  1
  O  O356  1  0.94922771  0.26579276  0.08663602  1
  O  O357  1  0.94922771  0.26579276  0.33663602  1
  O  O358  1  0.94922771  0.26579276  0.58663602  1
  O  O359  1  0.94922771  0.26579276  0.83663602  1
  O  O360  1  0.21743896  -0.23420724  0.03836398  1
  O  O361  1  0.21743896  -0.23420724  0.28836398  1
  O  O362  1  0.21743896  -0.23420724  0.53836398  1
  O  O363  1  0.21743896  -0.23420724  0.78836398  1
  O  O364  1  0.55077229  -0.23420724  0.03836398  1
  O  O365  1  0.55077229  -0.23420724  0.28836398  1
  O  O366  1  0.55077229  -0.23420724  0.53836398  1
  O  O367  1  0.55077229  -0.23420724  0.78836398  1
  O  O368  1  0.88410563  -0.23420724  0.03836398  1
  O  O369  1  0.88410563  -0.23420724  0.28836398  1
  O  O370  1  0.88410563  -0.23420724  0.53836398  1
  O  O371  1  0.88410563  -0.23420724  0.78836398  1
  O  O372  1  0.38410563  0.26579276  0.03836398  1
  O  O373  1  0.38410563  0.26579276  0.28836398  1
  O  O374  1  0.38410563  0.26579276  0.53836398  1
  O  O375  1  0.38410563  0.26579276  0.78836398  1
  O  O376  1  0.71743896  0.26579276  0.03836398  1
  O  O377  1  0.71743896  0.26579276  0.28836398  1
  O  O378  1  0.71743896  0.26579276  0.53836398  1
  O  O379  1  0.71743896  0.26579276  0.78836398  1
  O  O380  1  1.05077229  0.26579276  0.03836398  1
  O  O381  1  1.05077229  0.26579276  0.28836398  1
  O  O382  1  1.05077229  0.26579276  0.53836398  1
  O  O383  1  1.05077229  0.26579276  0.78836398  1
  O  O384  1  0.21743896  0.23420724  0.16336398  1
  O  O385  1  0.21743896  0.23420724  0.41336398  1
  O  O386  1  0.21743896  0.23420724  0.66336398  1
  O  O387  1  0.21743896  0.23420724  0.91336398  1
  O  O388  1  0.55077229  0.23420724  0.16336398  1
  O  O389  1  0.55077229  0.23420724  0.41336398  1
  O  O390  1  0.55077229  0.23420724  0.66336398  1
  O  O391  1  0.55077229  0.23420724  0.91336398  1
  O  O392  1  0.88410563  0.23420724  0.16336398  1
  O  O393  1  0.88410563  0.23420724  0.41336398  1
  O  O394  1  0.88410563  0.23420724  0.66336398  1
  O  O395  1  0.88410563  0.23420724  0.91336398  1
  O  O396  1  0.38410563  0.73420724  0.16336398  1
  O  O397  1  0.38410563  0.73420724  0.41336398  1
  O  O398  1  0.38410563  0.73420724  0.66336398  1
  O  O399  1  0.38410563  0.73420724  0.91336398  1
  O  O400  1  0.71743896  0.73420724  0.16336398  1
  O  O401  1  0.71743896  0.73420724  0.41336398  1
  O  O402  1  0.71743896  0.73420724  0.66336398  1
  O  O403  1  0.71743896  0.73420724  0.91336398  1
  O  O404  1  1.05077229  0.73420724  0.16336398  1
  O  O405  1  1.05077229  0.73420724  0.41336398  1
  O  O406  1  1.05077229  0.73420724  0.66336398  1
  O  O407  1  1.05077229  0.73420724  0.91336398  1
  O  O408  1  0.11589437  0.23420724  0.21163602  1
  O  O409  1  0.11589437  0.23420724  0.46163602  1
  O  O410  1  0.11589437  0.23420724  0.71163602  1
  O  O411  1  0.11589437  0.23420724  0.96163602  1
  O  O412  1  0.44922771  0.23420724  0.21163602  1
  O  O413  1  0.44922771  0.23420724  0.46163602  1
  O  O414  1  0.44922771  0.23420724  0.71163602  1
  O  O415  1  0.44922771  0.23420724  0.96163602  1
  O  O416  1  0.78256104  0.23420724  0.21163602  1
  O  O417  1  0.78256104  0.23420724  0.46163602  1
  O  O418  1  0.78256104  0.23420724  0.71163602  1
  O  O419  1  0.78256104  0.23420724  0.96163602  1
  O  O420  1  0.28256104  0.73420724  0.21163602  1
  O  O421  1  0.28256104  0.73420724  0.46163602  1
  O  O422  1  0.28256104  0.73420724  0.71163602  1
  O  O423  1  0.28256104  0.73420724  0.96163602  1
  O  O424  1  0.61589437  0.73420724  0.21163602  1
  O  O425  1  0.61589437  0.73420724  0.46163602  1
  O  O426  1  0.61589437  0.73420724  0.71163602  1
  O  O427  1  0.61589437  0.73420724  0.96163602  1
  O  O428  1  0.94922771  0.73420724  0.21163602  1
  O  O429  1  0.94922771  0.73420724  0.46163602  1
  O  O430  1  0.94922771  0.73420724  0.71163602  1
  O  O431  1  0.94922771  0.73420724  0.96163602  1
