# generated using pymatgen
data_K2TiO3
_symmetry_space_group_name_H-M   'P 1'
_cell_length_a   20.18020136
_cell_length_b   21.02410931
_cell_length_c   16.35139502
_cell_angle_alpha   90.00000000
_cell_angle_beta   90.00000000
_cell_angle_gamma   90.00000000
_symmetry_Int_Tables_number   1
_chemical_formula_structural   K2TiO3
_chemical_formula_sum   'K144 Ti72 O216'
_cell_volume   6937.41878229
_cell_formula_units_Z   72
loop_
 _symmetry_equiv_pos_site_id
 _symmetry_equiv_pos_as_xyz
  1  'x, y, z'
loop_
 _atom_site_type_symbol
 _atom_site_label
 _atom_site_symmetry_multiplicity
 _atom_site_fract_x
 _atom_site_fract_y
 _atom_site_fract_z
 _atom_site_occupancy
  K  K0  1  0.33106434  0.04988666  0.08333333  1
  K  K1  1  0.33106434  0.04988666  0.41666667  1
  K  K2  1  0.33106434  0.04988666  0.75000000  1
  K  K3  1  0.33106434  0.38321999  0.08333333  1
  K  K4  1  0.33106434  0.38321999  0.41666667  1
  K  K5  1  0.33106434  0.38321999  0.75000000  1
  K  K6  1  0.33106434  0.71655332  0.08333333  1
  K  K7  1  0.33106434  0.71655332  0.41666667  1
  K  K8  1  0.33106434  0.71655332  0.75000000  1
  K  K9  1  0.83106434  0.04988666  0.08333333  1
  K  K10  1  0.83106434  0.04988666  0.41666667  1
  K  K11  1  0.83106434  0.04988666  0.75000000  1
  K  K12  1  0.83106434  0.38321999  0.08333333  1
  K  K13  1  0.83106434  0.38321999  0.41666667  1
  K  K14  1  0.83106434  0.38321999  0.75000000  1
  K  K15  1  0.83106434  0.71655332  0.08333333  1
  K  K16  1  0.83106434  0.71655332  0.41666667  1
  K  K17  1  0.83106434  0.71655332  0.75000000  1
  K  K18  1  0.58106434  0.21655332  0.08333333  1
  K  K19  1  0.58106434  0.21655332  0.41666667  1
  K  K20  1  0.58106434  0.21655332  0.75000000  1
  K  K21  1  0.58106434  0.54988666  0.08333333  1
  K  K22  1  0.58106434  0.54988666  0.41666667  1
  K  K23  1  0.58106434  0.54988666  0.75000000  1
  K  K24  1  0.58106434  0.88321999  0.08333333  1
  K  K25  1  0.58106434  0.88321999  0.41666667  1
  K  K26  1  0.58106434  0.88321999  0.75000000  1
  K  K27  1  1.08106434  0.21655332  0.08333333  1
  K  K28  1  1.08106434  0.21655332  0.41666667  1
  K  K29  1  1.08106434  0.21655332  0.75000000  1
  K  K30  1  1.08106434  0.54988666  0.08333333  1
  K  K31  1  1.08106434  0.54988666  0.41666667  1
  K  K32  1  1.08106434  0.54988666  0.75000000  1
  K  K33  1  1.08106434  0.88321999  0.08333333  1
  K  K34  1  1.08106434  0.88321999  0.41666667  1
  K  K35  1  1.08106434  0.88321999  0.75000000  1
  K  K36  1  0.16893566  0.04988666  0.08333333  1
  K  K37  1  0.16893566  0.04988666  0.41666667  1
  K  K38  1  0.16893566  0.04988666  0.75000000  1
  K  K39  1  0.16893566  0.38321999  0.08333333  1
  K  K40  1  0.16893566  0.38321999  0.41666667  1
  K  K41  1  0.16893566  0.38321999  0.75000000  1
  K  K42  1  0.16893566  0.71655332  0.08333333  1
  K  K43  1  0.16893566  0.71655332  0.41666667  1
  K  K44  1  0.16893566  0.71655332  0.75000000  1
  K  K45  1  0.66893566  0.04988666  0.08333333  1
  K  K46  1  0.66893566  0.04988666  0.41666667  1
  K  K47  1  0.66893566  0.04988666  0.75000000  1
  K  K48  1  0.66893566  0.38321999  0.08333333  1
  K  K49  1  0.66893566  0.38321999  0.41666667  1
  K  K50  1  0.66893566  0.38321999  0.75000000  1
  K  K51  1  0.66893566  0.71655332  0.08333333  1
  K  K52  1  0.66893566  0.71655332  0.41666667  1
  K  K53  1  0.66893566  0.71655332  0.75000000  1
  K  K54  1  0.41893566  0.21655332  0.08333333  1
  K  K55  1  0.41893566  0.21655332  0.41666667  1
  K  K56  1  0.41893566  0.21655332  0.75000000  1
  K  K57  1  0.41893566  0.54988666  0.08333333  1
  K  K58  1  0.41893566  0.54988666  0.41666667  1
  K  K59  1  0.41893566  0.54988666  0.75000000  1
  K  K60  1  0.41893566  0.88321999  0.08333333  1
  K  K61  1  0.41893566  0.88321999  0.41666667  1
  K  K62  1  0.41893566  0.88321999  0.75000000  1
  K  K63  1  0.91893566  0.21655332  0.08333333  1
  K  K64  1  0.91893566  0.21655332  0.41666667  1
  K  K65  1  0.91893566  0.21655332  0.75000000  1
  K  K66  1  0.91893566  0.54988666  0.08333333  1
  K  K67  1  0.91893566  0.54988666  0.41666667  1
  K  K68  1  0.91893566  0.54988666  0.75000000  1
  K  K69  1  0.91893566  0.88321999  0.08333333  1
  K  K70  1  0.91893566  0.88321999  0.41666667  1
  K  K71  1  0.91893566  0.88321999  0.75000000  1
  K  K72  1  0.16893566  -0.04988666  0.25000000  1
  K  K73  1  0.16893566  -0.04988666  0.58333333  1
  K  K74  1  0.16893566  -0.04988666  0.91666667  1
  K  K75  1  0.16893566  0.28344668  0.25000000  1
  K  K76  1  0.16893566  0.28344668  0.58333333  1
  K  K77  1  0.16893566  0.28344668  0.91666667  1
  K  K78  1  0.16893566  0.61678001  0.25000000  1
  K  K79  1  0.16893566  0.61678001  0.58333333  1
  K  K80  1  0.16893566  0.61678001  0.91666667  1
  K  K81  1  0.66893566  -0.04988666  0.25000000  1
  K  K82  1  0.66893566  -0.04988666  0.58333333  1
  K  K83  1  0.66893566  -0.04988666  0.91666667  1
  K  K84  1  0.66893566  0.28344668  0.25000000  1
  K  K85  1  0.66893566  0.28344668  0.58333333  1
  K  K86  1  0.66893566  0.28344668  0.91666667  1
  K  K87  1  0.66893566  0.61678001  0.25000000  1
  K  K88  1  0.66893566  0.61678001  0.58333333  1
  K  K89  1  0.66893566  0.61678001  0.91666667  1
  K  K90  1  0.41893566  0.11678001  0.25000000  1
  K  K91  1  0.41893566  0.11678001  0.58333333  1
  K  K92  1  0.41893566  0.11678001  0.91666667  1
  K  K93  1  0.41893566  0.45011334  0.25000000  1
  K  K94  1  0.41893566  0.45011334  0.58333333  1
  K  K95  1  0.41893566  0.45011334  0.91666667  1
  K  K96  1  0.41893566  0.78344668  0.25000000  1
  K  K97  1  0.41893566  0.78344668  0.58333333  1
  K  K98  1  0.41893566  0.78344668  0.91666667  1
  K  K99  1  0.91893566  0.11678001  0.25000000  1
  K  K100  1  0.91893566  0.11678001  0.58333333  1
  K  K101  1  0.91893566  0.11678001  0.91666667  1
  K  K102  1  0.91893566  0.45011334  0.25000000  1
  K  K103  1  0.91893566  0.45011334  0.58333333  1
  K  K104  1  0.91893566  0.45011334  0.91666667  1
  K  K105  1  0.91893566  0.78344668  0.25000000  1
  K  K106  1  0.91893566  0.78344668  0.58333333  1
  K  K107  1  0.91893566  0.78344668  0.91666667  1
  K  K108  1  0.33106434  -0.04988666  0.25000000  1
  K  K109  1  0.33106434  -0.04988666  0.58333333  1
  K  K110  1  0.33106434  -0.04988666  0.91666667  1
  K  K111  1  0.33106434  0.28344668  0.25000000  1
  K  K112  1  0.33106434  0.28344668  0.58333333  1
  K  K113  1  0.33106434  0.28344668  0.91666667  1
  K  K114  1  0.33106434  0.61678001  0.25000000  1
  K  K115  1  0.33106434  0.61678001  0.58333333  1
  K  K116  1  0.33106434  0.61678001  0.91666667  1
  K  K117  1  0.83106434  -0.04988666  0.25000000  1
  K  K118  1  0.83106434  -0.04988666  0.58333333  1
  K  K119  1  0.83106434  -0.04988666  0.91666667  1
  K  K120  1  0.83106434  0.28344668  0.25000000  1
  K  K121  1  0.83106434  0.28344668  0.58333333  1
  K  K122  1  0.83106434  0.28344668  0.91666667  1
  K  K123  1  0.83106434  0.61678001  0.25000000  1
  K  K124  1  0.83106434  0.61678001  0.58333333  1
  K  K125  1  0.83106434  0.61678001  0.91666667  1
  K  K126  1  0.58106434  0.11678001  0.25000000  1
  K  K127  1  0.58106434  0.11678001  0.58333333  1
  K  K128  1  0.58106434  0.11678001  0.91666667  1
  K  K129  1  0.58106434  0.45011334  0.25000000  1
  K  K130  1  0.58106434  0.45011334  0.58333333  1
  K  K131  1  0.58106434  0.45011334  0.91666667  1
  K  K132  1  0.58106434  0.78344668  0.25000000  1
  K  K133  1  0.58106434  0.78344668  0.58333333  1
  K  K134  1  0.58106434  0.78344668  0.91666667  1
  K  K135  1  1.08106434  0.11678001  0.25000000  1
  K  K136  1  1.08106434  0.11678001  0.58333333  1
  K  K137  1  1.08106434  0.11678001  0.91666667  1
  K  K138  1  1.08106434  0.45011334  0.25000000  1
  K  K139  1  1.08106434  0.45011334  0.58333333  1
  K  K140  1  1.08106434  0.45011334  0.91666667  1
  K  K141  1  1.08106434  0.78344668  0.25000000  1
  K  K142  1  1.08106434  0.78344668  0.58333333  1
  K  K143  1  1.08106434  0.78344668  0.91666667  1
  Ti  Ti144  1  0.25000000  0.13843603  0.25000000  1
  Ti  Ti145  1  0.25000000  0.13843603  0.58333333  1
  Ti  Ti146  1  0.25000000  0.13843603  0.91666667  1
  Ti  Ti147  1  0.25000000  0.47176937  0.25000000  1
  Ti  Ti148  1  0.25000000  0.47176937  0.58333333  1
  Ti  Ti149  1  0.25000000  0.47176937  0.91666667  1
  Ti  Ti150  1  0.25000000  0.80510270  0.25000000  1
  Ti  Ti151  1  0.25000000  0.80510270  0.58333333  1
  Ti  Ti152  1  0.25000000  0.80510270  0.91666667  1
  Ti  Ti153  1  0.75000000  0.13843603  0.25000000  1
  Ti  Ti154  1  0.75000000  0.13843603  0.58333333  1
  Ti  Ti155  1  0.75000000  0.13843603  0.91666667  1
  Ti  Ti156  1  0.75000000  0.47176937  0.25000000  1
  Ti  Ti157  1  0.75000000  0.47176937  0.58333333  1
  Ti  Ti158  1  0.75000000  0.47176937  0.91666667  1
  Ti  Ti159  1  0.75000000  0.80510270  0.25000000  1
  Ti  Ti160  1  0.75000000  0.80510270  0.58333333  1
  Ti  Ti161  1  0.75000000  0.80510270  0.91666667  1
  Ti  Ti162  1  0.50000000  0.30510270  0.25000000  1
  Ti  Ti163  1  0.50000000  0.30510270  0.58333333  1
  Ti  Ti164  1  0.50000000  0.30510270  0.91666667  1
  Ti  Ti165  1  0.50000000  0.63843603  0.25000000  1
  Ti  Ti166  1  0.50000000  0.63843603  0.58333333  1
  Ti  Ti167  1  0.50000000  0.63843603  0.91666667  1
  Ti  Ti168  1  0.50000000  0.97176937  0.25000000  1
  Ti  Ti169  1  0.50000000  0.97176937  0.58333333  1
  Ti  Ti170  1  0.50000000  0.97176937  0.91666667  1
  Ti  Ti171  1  1.00000000  0.30510270  0.25000000  1
  Ti  Ti172  1  1.00000000  0.30510270  0.58333333  1
  Ti  Ti173  1  1.00000000  0.30510270  0.91666667  1
  Ti  Ti174  1  1.00000000  0.63843603  0.25000000  1
  Ti  Ti175  1  1.00000000  0.63843603  0.58333333  1
  Ti  Ti176  1  1.00000000  0.63843603  0.91666667  1
  Ti  Ti177  1  1.00000000  0.97176937  0.25000000  1
  Ti  Ti178  1  1.00000000  0.97176937  0.58333333  1
  Ti  Ti179  1  1.00000000  0.97176937  0.91666667  1
  Ti  Ti180  1  0.25000000  -0.13843603  0.08333333  1
  Ti  Ti181  1  0.25000000  -0.13843603  0.41666667  1
  Ti  Ti182  1  0.25000000  -0.13843603  0.75000000  1
  Ti  Ti183  1  0.25000000  0.19489730  0.08333333  1
  Ti  Ti184  1  0.25000000  0.19489730  0.41666667  1
  Ti  Ti185  1  0.25000000  0.19489730  0.75000000  1
  Ti  Ti186  1  0.25000000  0.52823063  0.08333333  1
  Ti  Ti187  1  0.25000000  0.52823063  0.41666667  1
  Ti  Ti188  1  0.25000000  0.52823063  0.75000000  1
  Ti  Ti189  1  0.75000000  -0.13843603  0.08333333  1
  Ti  Ti190  1  0.75000000  -0.13843603  0.41666667  1
  Ti  Ti191  1  0.75000000  -0.13843603  0.75000000  1
  Ti  Ti192  1  0.75000000  0.19489730  0.08333333  1
  Ti  Ti193  1  0.75000000  0.19489730  0.41666667  1
  Ti  Ti194  1  0.75000000  0.19489730  0.75000000  1
  Ti  Ti195  1  0.75000000  0.52823063  0.08333333  1
  Ti  Ti196  1  0.75000000  0.52823063  0.41666667  1
  Ti  Ti197  1  0.75000000  0.52823063  0.75000000  1
  Ti  Ti198  1  0.50000000  0.02823063  0.08333333  1
  Ti  Ti199  1  0.50000000  0.02823063  0.41666667  1
  Ti  Ti200  1  0.50000000  0.02823063  0.75000000  1
  Ti  Ti201  1  0.50000000  0.36156397  0.08333333  1
  Ti  Ti202  1  0.50000000  0.36156397  0.41666667  1
  Ti  Ti203  1  0.50000000  0.36156397  0.75000000  1
  Ti  Ti204  1  0.50000000  0.69489730  0.08333333  1
  Ti  Ti205  1  0.50000000  0.69489730  0.41666667  1
  Ti  Ti206  1  0.50000000  0.69489730  0.75000000  1
  Ti  Ti207  1  1.00000000  0.02823063  0.08333333  1
  Ti  Ti208  1  1.00000000  0.02823063  0.41666667  1
  Ti  Ti209  1  1.00000000  0.02823063  0.75000000  1
  Ti  Ti210  1  1.00000000  0.36156397  0.08333333  1
  Ti  Ti211  1  1.00000000  0.36156397  0.41666667  1
  Ti  Ti212  1  1.00000000  0.36156397  0.75000000  1
  Ti  Ti213  1  1.00000000  0.69489730  0.08333333  1
  Ti  Ti214  1  1.00000000  0.69489730  0.41666667  1
  Ti  Ti215  1  1.00000000  0.69489730  0.75000000  1
  O  O216  1  0.25000000  0.05336842  0.25000000  1
  O  O217  1  0.25000000  0.05336842  0.58333333  1
  O  O218  1  0.25000000  0.05336842  0.91666667  1
  O  O219  1  0.25000000  0.38670175  0.25000000  1
  O  O220  1  0.25000000  0.38670175  0.58333333  1
  O  O221  1  0.25000000  0.38670175  0.91666667  1
  O  O222  1  0.25000000  0.72003508  0.25000000  1
  O  O223  1  0.25000000  0.72003508  0.58333333  1
  O  O224  1  0.25000000  0.72003508  0.91666667  1
  O  O225  1  0.75000000  0.05336842  0.25000000  1
  O  O226  1  0.75000000  0.05336842  0.58333333  1
  O  O227  1  0.75000000  0.05336842  0.91666667  1
  O  O228  1  0.75000000  0.38670175  0.25000000  1
  O  O229  1  0.75000000  0.38670175  0.58333333  1
  O  O230  1  0.75000000  0.38670175  0.91666667  1
  O  O231  1  0.75000000  0.72003508  0.25000000  1
  O  O232  1  0.75000000  0.72003508  0.58333333  1
  O  O233  1  0.75000000  0.72003508  0.91666667  1
  O  O234  1  0.50000000  0.22003508  0.25000000  1
  O  O235  1  0.50000000  0.22003508  0.58333333  1
  O  O236  1  0.50000000  0.22003508  0.91666667  1
  O  O237  1  0.50000000  0.55336842  0.25000000  1
  O  O238  1  0.50000000  0.55336842  0.58333333  1
  O  O239  1  0.50000000  0.55336842  0.91666667  1
  O  O240  1  0.50000000  0.88670175  0.25000000  1
  O  O241  1  0.50000000  0.88670175  0.58333333  1
  O  O242  1  0.50000000  0.88670175  0.91666667  1
  O  O243  1  1.00000000  0.22003508  0.25000000  1
  O  O244  1  1.00000000  0.22003508  0.58333333  1
  O  O245  1  1.00000000  0.22003508  0.91666667  1
  O  O246  1  1.00000000  0.55336842  0.25000000  1
  O  O247  1  1.00000000  0.55336842  0.58333333  1
  O  O248  1  1.00000000  0.55336842  0.91666667  1
  O  O249  1  1.00000000  0.88670175  0.25000000  1
  O  O250  1  1.00000000  0.88670175  0.58333333  1
  O  O251  1  1.00000000  0.88670175  0.91666667  1
  O  O252  1  0.25000000  -0.05336842  0.08333333  1
  O  O253  1  0.25000000  -0.05336842  0.41666667  1
  O  O254  1  0.25000000  -0.05336842  0.75000000  1
  O  O255  1  0.25000000  0.27996492  0.08333333  1
  O  O256  1  0.25000000  0.27996492  0.41666667  1
  O  O257  1  0.25000000  0.27996492  0.75000000  1
  O  O258  1  0.25000000  0.61329825  0.08333333  1
  O  O259  1  0.25000000  0.61329825  0.41666667  1
  O  O260  1  0.25000000  0.61329825  0.75000000  1
  O  O261  1  0.75000000  -0.05336842  0.08333333  1
  O  O262  1  0.75000000  -0.05336842  0.41666667  1
  O  O263  1  0.75000000  -0.05336842  0.75000000  1
  O  O264  1  0.75000000  0.27996492  0.08333333  1
  O  O265  1  0.75000000  0.27996492  0.41666667  1
  O  O266  1  0.75000000  0.27996492  0.75000000  1
  O  O267  1  0.75000000  0.61329825  0.08333333  1
  O  O268  1  0.75000000  0.61329825  0.41666667  1
  O  O269  1  0.75000000  0.61329825  0.75000000  1
  O  O270  1  0.50000000  0.11329825  0.08333333  1
  O  O271  1  0.50000000  0.11329825  0.41666667  1
  O  O272  1  0.50000000  0.11329825  0.75000000  1
  O  O273  1  0.50000000  0.44663158  0.08333333  1
  O  O274  1  0.50000000  0.44663158  0.41666667  1
  O  O275  1  0.50000000  0.44663158  0.75000000  1
  O  O276  1  0.50000000  0.77996492  0.08333333  1
  O  O277  1  0.50000000  0.77996492  0.41666667  1
  O  O278  1  0.50000000  0.77996492  0.75000000  1
  O  O279  1  1.00000000  0.11329825  0.08333333  1
  O  O280  1  1.00000000  0.11329825  0.41666667  1
  O  O281  1  1.00000000  0.11329825  0.75000000  1
  O  O282  1  1.00000000  0.44663158  0.08333333  1
  O  O283  1  1.00000000  0.44663158  0.41666667  1
  O  O284  1  1.00000000  0.44663158  0.75000000  1
  O  O285  1  1.00000000  0.77996492  0.08333333  1
  O  O286  1  1.00000000  0.77996492  0.41666667  1
  O  O287  1  1.00000000  0.77996492  0.75000000  1
  O  O288  1  0.43677111  -0.00000000  0.16666667  1
  O  O289  1  0.43677111  -0.00000000  0.50000000  1
  O  O290  1  0.43677111  -0.00000000  0.83333333  1
  O  O291  1  0.43677111  0.33333333  0.16666667  1
  O  O292  1  0.43677111  0.33333333  0.50000000  1
  O  O293  1  0.43677111  0.33333333  0.83333333  1
  O  O294  1  0.43677111  0.66666667  0.16666667  1
  O  O295  1  0.43677111  0.66666667  0.50000000  1
  O  O296  1  0.43677111  0.66666667  0.83333333  1
  O  O297  1  0.93677111  -0.00000000  0.16666667  1
  O  O298  1  0.93677111  -0.00000000  0.50000000  1
  O  O299  1  0.93677111  -0.00000000  0.83333333  1
  O  O300  1  0.93677111  0.33333333  0.16666667  1
  O  O301  1  0.93677111  0.33333333  0.50000000  1
  O  O302  1  0.93677111  0.33333333  0.83333333  1
  O  O303  1  0.93677111  0.66666667  0.16666667  1
  O  O304  1  0.93677111  0.66666667  0.50000000  1
  O  O305  1  0.93677111  0.66666667  0.83333333  1
  O  O306  1  0.68677111  0.16666667  0.16666667  1
  O  O307  1  0.68677111  0.16666667  0.50000000  1
  O  O308  1  0.68677111  0.16666667  0.83333333  1
  O  O309  1  0.68677111  0.50000000  0.16666667  1
  O  O310  1  0.68677111  0.50000000  0.50000000  1
  O  O311  1  0.68677111  0.50000000  0.83333333  1
  O  O312  1  0.68677111  0.83333333  0.16666667  1
  O  O313  1  0.68677111  0.83333333  0.50000000  1
  O  O314  1  0.68677111  0.83333333  0.83333333  1
  O  O315  1  1.18677111  0.16666667  0.16666667  1
  O  O316  1  1.18677111  0.16666667  0.50000000  1
  O  O317  1  1.18677111  0.16666667  0.83333333  1
  O  O318  1  1.18677111  0.50000000  0.16666667  1
  O  O319  1  1.18677111  0.50000000  0.50000000  1
  O  O320  1  1.18677111  0.50000000  0.83333333  1
  O  O321  1  1.18677111  0.83333333  0.16666667  1
  O  O322  1  1.18677111  0.83333333  0.50000000  1
  O  O323  1  1.18677111  0.83333333  0.83333333  1
  O  O324  1  0.06322889  0.00000000  0.00000000  1
  O  O325  1  0.06322889  0.00000000  0.33333333  1
  O  O326  1  0.06322889  0.00000000  0.66666667  1
  O  O327  1  0.06322889  0.33333333  0.00000000  1
  O  O328  1  0.06322889  0.33333333  0.33333333  1
  O  O329  1  0.06322889  0.33333333  0.66666667  1
  O  O330  1  0.06322889  0.66666667  0.00000000  1
  O  O331  1  0.06322889  0.66666667  0.33333333  1
  O  O332  1  0.06322889  0.66666667  0.66666667  1
  O  O333  1  0.56322889  0.00000000  0.00000000  1
  O  O334  1  0.56322889  0.00000000  0.33333333  1
  O  O335  1  0.56322889  0.00000000  0.66666667  1
  O  O336  1  0.56322889  0.33333333  0.00000000  1
  O  O337  1  0.56322889  0.33333333  0.33333333  1
  O  O338  1  0.56322889  0.33333333  0.66666667  1
  O  O339  1  0.56322889  0.66666667  0.00000000  1
  O  O340  1  0.56322889  0.66666667  0.33333333  1
  O  O341  1  0.56322889  0.66666667  0.66666667  1
  O  O342  1  0.31322889  0.16666667  0.00000000  1
  O  O343  1  0.31322889  0.16666667  0.33333333  1
  O  O344  1  0.31322889  0.16666667  0.66666667  1
  O  O345  1  0.31322889  0.50000000  0.00000000  1
  O  O346  1  0.31322889  0.50000000  0.33333333  1
  O  O347  1  0.31322889  0.50000000  0.66666667  1
  O  O348  1  0.31322889  0.83333333  0.00000000  1
  O  O349  1  0.31322889  0.83333333  0.33333333  1
  O  O350  1  0.31322889  0.83333333  0.66666667  1
  O  O351  1  0.81322889  0.16666667  0.00000000  1
  O  O352  1  0.81322889  0.16666667  0.33333333  1
  O  O353  1  0.81322889  0.16666667  0.66666667  1
  O  O354  1  0.81322889  0.50000000  0.00000000  1
  O  O355  1  0.81322889  0.50000000  0.33333333  1
  O  O356  1  0.81322889  0.50000000  0.66666667  1
  O  O357  1  0.81322889  0.83333333  0.00000000  1
  O  O358  1  0.81322889  0.83333333  0.33333333  1
  O  O359  1  0.81322889  0.83333333  0.66666667  1
  O  O360  1  0.43677111  -0.00000000  0.00000000  1
  O  O361  1  0.43677111  -0.00000000  0.33333333  1
  O  O362  1  0.43677111  -0.00000000  0.66666667  1
  O  O363  1  0.43677111  0.33333333  0.00000000  1
  O  O364  1  0.43677111  0.33333333  0.33333333  1
  O  O365  1  0.43677111  0.33333333  0.66666667  1
  O  O366  1  0.43677111  0.66666667  0.00000000  1
  O  O367  1  0.43677111  0.66666667  0.33333333  1
  O  O368  1  0.43677111  0.66666667  0.66666667  1
  O  O369  1  0.93677111  -0.00000000  0.00000000  1
  O  O370  1  0.93677111  -0.00000000  0.33333333  1
  O  O371  1  0.93677111  -0.00000000  0.66666667  1
  O  O372  1  0.93677111  0.33333333  0.00000000  1
  O  O373  1  0.93677111  0.33333333  0.33333333  1
  O  O374  1  0.93677111  0.33333333  0.66666667  1
  O  O375  1  0.93677111  0.66666667  0.00000000  1
  O  O376  1  0.93677111  0.66666667  0.33333333  1
  O  O377  1  0.93677111  0.66666667  0.66666667  1
  O  O378  1  0.68677111  0.16666667  0.00000000  1
  O  O379  1  0.68677111  0.16666667  0.33333333  1
  O  O380  1  0.68677111  0.16666667  0.66666667  1
  O  O381  1  0.68677111  0.50000000  0.00000000  1
  O  O382  1  0.68677111  0.50000000  0.33333333  1
  O  O383  1  0.68677111  0.50000000  0.66666667  1
  O  O384  1  0.68677111  0.83333333  0.00000000  1
  O  O385  1  0.68677111  0.83333333  0.33333333  1
  O  O386  1  0.68677111  0.83333333  0.66666667  1
  O  O387  1  1.18677111  0.16666667  0.00000000  1
  O  O388  1  1.18677111  0.16666667  0.33333333  1
  O  O389  1  1.18677111  0.16666667  0.66666667  1
  O  O390  1  1.18677111  0.50000000  0.00000000  1
  O  O391  1  1.18677111  0.50000000  0.33333333  1
  O  O392  1  1.18677111  0.50000000  0.66666667  1
  O  O393  1  1.18677111  0.83333333  0.00000000  1
  O  O394  1  1.18677111  0.83333333  0.33333333  1
  O  O395  1  1.18677111  0.83333333  0.66666667  1
  O  O396  1  0.06322889  0.00000000  0.16666667  1
  O  O397  1  0.06322889  0.00000000  0.50000000  1
  O  O398  1  0.06322889  0.00000000  0.83333333  1
  O  O399  1  0.06322889  0.33333333  0.16666667  1
  O  O400  1  0.06322889  0.33333333  0.50000000  1
  O  O401  1  0.06322889  0.33333333  0.83333333  1
  O  O402  1  0.06322889  0.66666667  0.16666667  1
  O  O403  1  0.06322889  0.66666667  0.50000000  1
  O  O404  1  0.06322889  0.66666667  0.83333333  1
  O  O405  1  0.56322889  0.00000000  0.16666667  1
  O  O406  1  0.56322889  0.00000000  0.50000000  1
  O  O407  1  0.56322889  0.00000000  0.83333333  1
  O  O408  1  0.56322889  0.33333333  0.16666667  1
  O  O409  1  0.56322889  0.33333333  0.50000000  1
  O  O410  1  0.56322889  0.33333333  0.83333333  1
  O  O411  1  0.56322889  0.66666667  0.16666667  1
  O  O412  1  0.56322889  0.66666667  0.50000000  1
  O  O413  1  0.56322889  0.66666667  0.83333333  1
  O  O414  1  0.31322889  0.16666667  0.16666667  1
  O  O415  1  0.31322889  0.16666667  0.50000000  1
  O  O416  1  0.31322889  0.16666667  0.83333333  1
  O  O417  1  0.31322889  0.50000000  0.16666667  1
  O  O418  1  0.31322889  0.50000000  0.50000000  1
  O  O419  1  0.31322889  0.50000000  0.83333333  1
  O  O420  1  0.31322889  0.83333333  0.16666667  1
  O  O421  1  0.31322889  0.83333333  0.50000000  1
  O  O422  1  0.31322889  0.83333333  0.83333333  1
  O  O423  1  0.81322889  0.16666667  0.16666667  1
  O  O424  1  0.81322889  0.16666667  0.50000000  1
  O  O425  1  0.81322889  0.16666667  0.83333333  1
  O  O426  1  0.81322889  0.50000000  0.16666667  1
  O  O427  1  0.81322889  0.50000000  0.50000000  1
  O  O428  1  0.81322889  0.50000000  0.83333333  1
  O  O429  1  0.81322889  0.83333333  0.16666667  1
  O  O430  1  0.81322889  0.83333333  0.50000000  1
  O  O431  1  0.81322889  0.83333333  0.83333333  1
