# generated using pymatgen
data_MgWO4
_symmetry_space_group_name_H-M   'P 1'
_cell_length_a   9.38017953
_cell_length_b   11.36188480
_cell_length_c   9.85640851
_cell_angle_alpha   90.00000000
_cell_angle_beta   90.58238907
_cell_angle_gamma   90.00000000
_symmetry_Int_Tables_number   1
_chemical_formula_structural   MgWO4
_chemical_formula_sum   'Mg16 W16 O64'
_cell_volume   1050.40744495
_cell_formula_units_Z   16
loop_
 _symmetry_equiv_pos_site_id
 _symmetry_equiv_pos_as_xyz
  1  'x, y, z'
loop_
 _atom_site_type_symbol
 _atom_site_label
 _atom_site_symmetry_multiplicity
 _atom_site_fract_x
 _atom_site_fract_y
 _atom_site_fract_z
 _atom_site_occupancy
  Mg  Mg0  1  0.25000000  0.16462361  0.12500000  1
  Mg  Mg1  1  0.25000000  0.16462361  0.62500000  1
  Mg  Mg2  1  0.25000000  0.66462361  0.12500000  1
  Mg  Mg3  1  0.25000000  0.66462361  0.62500000  1
  Mg  Mg4  1  0.75000000  0.16462361  0.12500000  1
  Mg  Mg5  1  0.75000000  0.16462361  0.62500000  1
  Mg  Mg6  1  0.75000000  0.66462361  0.12500000  1
  Mg  Mg7  1  0.75000000  0.66462361  0.62500000  1
  Mg  Mg8  1  0.25000000  0.33537639  0.37500000  1
  Mg  Mg9  1  0.25000000  0.33537639  0.87500000  1
  Mg  Mg10  1  0.25000000  0.83537639  0.37500000  1
  Mg  Mg11  1  0.25000000  0.83537639  0.87500000  1
  Mg  Mg12  1  0.75000000  0.33537639  0.37500000  1
  Mg  Mg13  1  0.75000000  0.33537639  0.87500000  1
  Mg  Mg14  1  0.75000000  0.83537639  0.37500000  1
  Mg  Mg15  1  0.75000000  0.83537639  0.87500000  1
  W  W16  1  -0.00000000  0.40968180  0.12500000  1
  W  W17  1  -0.00000000  0.40968180  0.62500000  1
  W  W18  1  -0.00000000  0.90968180  0.12500000  1
  W  W19  1  -0.00000000  0.90968180  0.62500000  1
  W  W20  1  0.50000000  0.40968180  0.12500000  1
  W  W21  1  0.50000000  0.40968180  0.62500000  1
  W  W22  1  0.50000000  0.90968180  0.12500000  1
  W  W23  1  0.50000000  0.90968180  0.62500000  1
  W  W24  1  -0.00000000  0.09031820  0.37500000  1
  W  W25  1  -0.00000000  0.09031820  0.87500000  1
  W  W26  1  -0.00000000  0.59031820  0.37500000  1
  W  W27  1  -0.00000000  0.59031820  0.87500000  1
  W  W28  1  0.50000000  0.09031820  0.37500000  1
  W  W29  1  0.50000000  0.09031820  0.87500000  1
  W  W30  1  0.50000000  0.59031820  0.37500000  1
  W  W31  1  0.50000000  0.59031820  0.87500000  1
  O  O32  1  0.12937306  0.18890048  0.44988566  1
  O  O33  1  0.12937306  0.18890048  0.94988566  1
  O  O34  1  0.12937306  0.68890048  0.44988566  1
  O  O35  1  0.12937306  0.68890048  0.94988566  1
  O  O36  1  0.62937306  0.18890048  0.44988566  1
  O  O37  1  0.62937306  0.18890048  0.94988566  1
  O  O38  1  0.62937306  0.68890048  0.44988566  1
  O  O39  1  0.62937306  0.68890048  0.94988566  1
  O  O40  1  0.37062694  0.18890048  0.30011434  1
  O  O41  1  0.37062694  0.18890048  0.80011434  1
  O  O42  1  0.37062694  0.68890048  0.30011434  1
  O  O43  1  0.37062694  0.68890048  0.80011434  1
  O  O44  1  0.87062694  0.18890048  0.30011434  1
  O  O45  1  0.87062694  0.18890048  0.80011434  1
  O  O46  1  0.87062694  0.68890048  0.30011434  1
  O  O47  1  0.87062694  0.68890048  0.80011434  1
  O  O48  1  0.37062694  0.31109952  0.05011434  1
  O  O49  1  0.37062694  0.31109952  0.55011434  1
  O  O50  1  0.37062694  0.81109952  0.05011434  1
  O  O51  1  0.37062694  0.81109952  0.55011434  1
  O  O52  1  0.87062694  0.31109952  0.05011434  1
  O  O53  1  0.87062694  0.31109952  0.55011434  1
  O  O54  1  0.87062694  0.81109952  0.05011434  1
  O  O55  1  0.87062694  0.81109952  0.55011434  1
  O  O56  1  0.12937306  0.31109952  0.19988566  1
  O  O57  1  0.12937306  0.31109952  0.69988566  1
  O  O58  1  0.12937306  0.81109952  0.19988566  1
  O  O59  1  0.12937306  0.81109952  0.69988566  1
  O  O60  1  0.62937306  0.31109952  0.19988566  1
  O  O61  1  0.62937306  0.31109952  0.69988566  1
  O  O62  1  0.62937306  0.81109952  0.19988566  1
  O  O63  1  0.62937306  0.81109952  0.69988566  1
  O  O64  1  0.10805937  0.44664352  0.46705614  1
  O  O65  1  0.10805937  0.44664352  0.96705614  1
  O  O66  1  0.10805937  0.94664352  0.46705614  1
  O  O67  1  0.10805937  0.94664352  0.96705614  1
  O  O68  1  0.60805937  0.44664352  0.46705614  1
  O  O69  1  0.60805937  0.44664352  0.96705614  1
  O  O70  1  0.60805937  0.94664352  0.46705614  1
  O  O71  1  0.60805937  0.94664352  0.96705614  1
  O  O72  1  0.39194063  0.44664352  0.28294386  1
  O  O73  1  0.39194063  0.44664352  0.78294386  1
  O  O74  1  0.39194063  0.94664352  0.28294386  1
  O  O75  1  0.39194063  0.94664352  0.78294386  1
  O  O76  1  0.89194063  0.44664352  0.28294386  1
  O  O77  1  0.89194063  0.44664352  0.78294386  1
  O  O78  1  0.89194063  0.94664352  0.28294386  1
  O  O79  1  0.89194063  0.94664352  0.78294386  1
  O  O80  1  0.39194063  0.05335648  0.03294386  1
  O  O81  1  0.39194063  0.05335648  0.53294386  1
  O  O82  1  0.39194063  0.55335648  0.03294386  1
  O  O83  1  0.39194063  0.55335648  0.53294386  1
  O  O84  1  0.89194063  0.05335648  0.03294386  1
  O  O85  1  0.89194063  0.05335648  0.53294386  1
  O  O86  1  0.89194063  0.55335648  0.03294386  1
  O  O87  1  0.89194063  0.55335648  0.53294386  1
  O  O88  1  0.10805937  0.05335648  0.21705614  1
  O  O89  1  0.10805937  0.05335648  0.71705614  1
  O  O90  1  0.10805937  0.55335648  0.21705614  1
  O  O91  1  0.10805937  0.55335648  0.71705614  1
  O  O92  1  0.60805937  0.05335648  0.21705614  1
  O  O93  1  0.60805937  0.05335648  0.71705614  1
  O  O94  1  0.60805937  0.55335648  0.21705614  1
  O  O95  1  0.60805937  0.55335648  0.71705614  1
