# generated using pymatgen
data_Sr3(BO3)2
_symmetry_space_group_name_H-M   'P 1'
_cell_length_a   9.02715138
_cell_length_b   9.02715138
_cell_length_c   12.43785584
_cell_angle_alpha   90.00000000
_cell_angle_beta   90.00000000
_cell_angle_gamma   120.00000000
_symmetry_Int_Tables_number   1
_chemical_formula_structural   Sr3(BO3)2
_chemical_formula_sum   'Sr18 B12 O36'
_cell_volume   877.76366933
_cell_formula_units_Z   6
loop_
 _symmetry_equiv_pos_site_id
 _symmetry_equiv_pos_as_xyz
  1  'x, y, z'
loop_
 _atom_site_type_symbol
 _atom_site_label
 _atom_site_symmetry_multiplicity
 _atom_site_fract_x
 _atom_site_fract_y
 _atom_site_fract_z
 _atom_site_occupancy
  Sr  Sr0  1  -0.31183779  -0.33333333  0.41666667  1
  Sr  Sr1  1  0.35482888  -0.00000000  0.75000000  1
  Sr  Sr2  1  0.02149555  0.33333333  1.08333333  1
  Sr  Sr3  1  0.33333333  0.02149555  0.41666667  1
  Sr  Sr4  1  1.00000000  0.35482888  0.75000000  1
  Sr  Sr5  1  0.66666667  0.68816221  1.08333333  1
  Sr  Sr6  1  -0.02149555  0.31183779  0.41666667  1
  Sr  Sr7  1  0.64517112  0.64517112  0.75000000  1
  Sr  Sr8  1  0.31183779  0.97850445  1.08333333  1
  Sr  Sr9  1  0.31183779  0.33333333  0.58333333  1
  Sr  Sr10  1  0.97850445  0.66666667  0.91666667  1
  Sr  Sr11  1  0.64517112  1.00000000  1.25000000  1
  Sr  Sr12  1  -0.33333333  -0.02149555  0.58333333  1
  Sr  Sr13  1  0.33333333  0.31183779  0.91666667  1
  Sr  Sr14  1  -0.00000000  0.64517112  1.25000000  1
  Sr  Sr15  1  0.02149555  -0.31183779  0.58333333  1
  Sr  Sr16  1  0.68816221  0.02149555  0.91666667  1
  Sr  Sr17  1  0.35482888  0.35482888  1.25000000  1
  B  B18  1  0.00000000  -0.00000000  0.38501446  1
  B  B19  1  0.66666667  0.33333333  0.71834779  1
  B  B20  1  0.33333333  0.66666667  1.05168112  1
  B  B21  1  0.00000000  0.00000000  0.61498554  1
  B  B22  1  0.66666667  0.33333333  0.94831888  1
  B  B23  1  0.33333333  0.66666667  1.28165221  1
  B  B24  1  0.00000000  0.00000000  0.88501446  1
  B  B25  1  0.66666667  0.33333333  1.21834779  1
  B  B26  1  0.33333333  0.66666667  1.55168112  1
  B  B27  1  -0.00000000  -0.00000000  0.11498554  1
  B  B28  1  0.66666667  0.33333333  0.44831888  1
  B  B29  1  0.33333333  0.66666667  0.78165221  1
  O  O30  1  0.34345454  -0.17399866  0.55286265  1
  O  O31  1  1.01012120  0.15933467  0.88619599  1
  O  O32  1  0.67678787  0.49266800  1.21952932  1
  O  O33  1  0.17399866  0.51745320  0.55286265  1
  O  O34  1  0.84066533  0.85078653  0.88619599  1
  O  O35  1  0.50733200  1.18411987  1.21952932  1
  O  O36  1  -0.51745320  -0.34345454  0.55286265  1
  O  O37  1  0.14921347  -0.01012120  0.88619599  1
  O  O38  1  -0.18411987  0.32321213  1.21952932  1
  O  O39  1  0.15933467  0.01012120  0.61380401  1
  O  O40  1  0.82600134  0.34345454  0.94713735  1
  O  O41  1  0.49266800  0.67678787  1.28047068  1
  O  O42  1  -0.14921347  -0.15933467  0.61380401  1
  O  O43  1  0.51745320  0.17399866  0.94713735  1
  O  O44  1  0.18411987  0.50733200  1.28047068  1
  O  O45  1  -0.01012120  0.14921347  0.61380401  1
  O  O46  1  0.65654546  0.48254680  0.94713735  1
  O  O47  1  0.32321213  0.81588013  1.28047068  1
  O  O48  1  -0.17399866  -0.51745320  0.44713735  1
  O  O49  1  0.49266800  -0.18411987  0.78047068  1
  O  O50  1  0.15933467  0.14921347  1.11380401  1
  O  O51  1  -0.34345454  0.17399866  0.44713735  1
  O  O52  1  0.32321213  0.50733200  0.78047068  1
  O  O53  1  -0.01012120  0.84066533  1.11380401  1
  O  O54  1  0.51745320  0.34345454  0.44713735  1
  O  O55  1  1.18411987  0.67678787  0.78047068  1
  O  O56  1  0.85078653  1.01012120  1.11380401  1
  O  O57  1  0.14921347  0.15933467  0.38619599  1
  O  O58  1  0.81588013  0.49266800  0.71952932  1
  O  O59  1  0.48254680  0.82600134  1.05286265  1
  O  O60  1  0.01012120  -0.14921347  0.38619599  1
  O  O61  1  0.67678787  0.18411987  0.71952932  1
  O  O62  1  0.34345454  0.51745320  1.05286265  1
  O  O63  1  -0.15933467  -0.01012120  0.38619599  1
  O  O64  1  0.50733200  0.32321213  0.71952932  1
  O  O65  1  0.17399866  0.65654546  1.05286265  1
