# generated using pymatgen
data_BaAl2Sb2O7
_symmetry_space_group_name_H-M   'P 1'
_cell_length_a   16.33559250
_cell_length_b   16.33559250
_cell_length_c   24.10790377
_cell_angle_alpha   90.00000000
_cell_angle_beta   90.00000000
_cell_angle_gamma   120.00000000
_symmetry_Int_Tables_number   1
_chemical_formula_structural   BaAl2Sb2O7
_chemical_formula_sum   'Ba27 Al54 Sb54 O189'
_cell_volume   5571.34256918
_cell_formula_units_Z   27
loop_
 _symmetry_equiv_pos_site_id
 _symmetry_equiv_pos_as_xyz
  1  'x, y, z'
loop_
 _atom_site_type_symbol
 _atom_site_label
 _atom_site_symmetry_multiplicity
 _atom_site_fract_x
 _atom_site_fract_y
 _atom_site_fract_z
 _atom_site_occupancy
  Ba  Ba0  1  -0.00000000  0.00000000  0.50000000  1
  Ba  Ba1  1  -0.00000000  0.33333333  0.50000000  1
  Ba  Ba2  1  -0.00000000  0.66666667  0.50000000  1
  Ba  Ba3  1  0.33333333  0.00000000  0.50000000  1
  Ba  Ba4  1  0.33333333  0.33333333  0.50000000  1
  Ba  Ba5  1  0.33333333  0.66666667  0.50000000  1
  Ba  Ba6  1  0.66666667  0.00000000  0.50000000  1
  Ba  Ba7  1  0.66666667  0.33333333  0.50000000  1
  Ba  Ba8  1  0.66666667  0.66666667  0.50000000  1
  Ba  Ba9  1  0.22222222  0.11111111  0.83333333  1
  Ba  Ba10  1  0.22222222  0.44444444  0.83333333  1
  Ba  Ba11  1  0.22222222  0.77777778  0.83333333  1
  Ba  Ba12  1  0.55555556  0.11111111  0.83333333  1
  Ba  Ba13  1  0.55555556  0.44444444  0.83333333  1
  Ba  Ba14  1  0.55555556  0.77777778  0.83333333  1
  Ba  Ba15  1  0.88888889  0.11111111  0.83333333  1
  Ba  Ba16  1  0.88888889  0.44444444  0.83333333  1
  Ba  Ba17  1  0.88888889  0.77777778  0.83333333  1
  Ba  Ba18  1  0.11111111  0.22222222  1.16666667  1
  Ba  Ba19  1  0.11111111  0.55555556  1.16666667  1
  Ba  Ba20  1  0.11111111  0.88888889  1.16666667  1
  Ba  Ba21  1  0.44444444  0.22222222  1.16666667  1
  Ba  Ba22  1  0.44444444  0.55555556  1.16666667  1
  Ba  Ba23  1  0.44444444  0.88888889  1.16666667  1
  Ba  Ba24  1  0.77777778  0.22222222  1.16666667  1
  Ba  Ba25  1  0.77777778  0.55555556  1.16666667  1
  Ba  Ba26  1  0.77777778  0.88888889  1.16666667  1
  Al  Al27  1  0.00000000  -0.00000000  0.92849738  1
  Al  Al28  1  -0.00000000  0.33333333  0.92849738  1
  Al  Al29  1  -0.00000000  0.66666667  0.92849738  1
  Al  Al30  1  0.33333333  -0.00000000  0.92849738  1
  Al  Al31  1  0.33333333  0.33333333  0.92849738  1
  Al  Al32  1  0.33333333  0.66666667  0.92849738  1
  Al  Al33  1  0.66666667  -0.00000000  0.92849738  1
  Al  Al34  1  0.66666667  0.33333333  0.92849738  1
  Al  Al35  1  0.66666667  0.66666667  0.92849738  1
  Al  Al36  1  0.22222222  0.11111111  1.26183072  1
  Al  Al37  1  0.22222222  0.44444444  1.26183072  1
  Al  Al38  1  0.22222222  0.77777778  1.26183072  1
  Al  Al39  1  0.55555556  0.11111111  1.26183072  1
  Al  Al40  1  0.55555556  0.44444444  1.26183072  1
  Al  Al41  1  0.55555556  0.77777778  1.26183072  1
  Al  Al42  1  0.88888889  0.11111111  1.26183072  1
  Al  Al43  1  0.88888889  0.44444444  1.26183072  1
  Al  Al44  1  0.88888889  0.77777778  1.26183072  1
  Al  Al45  1  0.11111111  0.22222222  1.59516405  1
  Al  Al46  1  0.11111111  0.55555556  1.59516405  1
  Al  Al47  1  0.11111111  0.88888889  1.59516405  1
  Al  Al48  1  0.44444444  0.22222222  1.59516405  1
  Al  Al49  1  0.44444444  0.55555556  1.59516405  1
  Al  Al50  1  0.44444444  0.88888889  1.59516405  1
  Al  Al51  1  0.77777778  0.22222222  1.59516405  1
  Al  Al52  1  0.77777778  0.55555556  1.59516405  1
  Al  Al53  1  0.77777778  0.88888889  1.59516405  1
  Al  Al54  1  -0.00000000  -0.00000000  0.07150262  1
  Al  Al55  1  -0.00000000  0.33333333  0.07150262  1
  Al  Al56  1  -0.00000000  0.66666667  0.07150262  1
  Al  Al57  1  0.33333333  -0.00000000  0.07150262  1
  Al  Al58  1  0.33333333  0.33333333  0.07150262  1
  Al  Al59  1  0.33333333  0.66666667  0.07150262  1
  Al  Al60  1  0.66666667  -0.00000000  0.07150262  1
  Al  Al61  1  0.66666667  0.33333333  0.07150262  1
  Al  Al62  1  0.66666667  0.66666667  0.07150262  1
  Al  Al63  1  0.22222222  0.11111111  0.40483595  1
  Al  Al64  1  0.22222222  0.44444444  0.40483595  1
  Al  Al65  1  0.22222222  0.77777778  0.40483595  1
  Al  Al66  1  0.55555556  0.11111111  0.40483595  1
  Al  Al67  1  0.55555556  0.44444444  0.40483595  1
  Al  Al68  1  0.55555556  0.77777778  0.40483595  1
  Al  Al69  1  0.88888889  0.11111111  0.40483595  1
  Al  Al70  1  0.88888889  0.44444444  0.40483595  1
  Al  Al71  1  0.88888889  0.77777778  0.40483595  1
  Al  Al72  1  0.11111111  0.22222222  0.73816928  1
  Al  Al73  1  0.11111111  0.55555556  0.73816928  1
  Al  Al74  1  0.11111111  0.88888889  0.73816928  1
  Al  Al75  1  0.44444444  0.22222222  0.73816928  1
  Al  Al76  1  0.44444444  0.55555556  0.73816928  1
  Al  Al77  1  0.44444444  0.88888889  0.73816928  1
  Al  Al78  1  0.77777778  0.22222222  0.73816928  1
  Al  Al79  1  0.77777778  0.55555556  0.73816928  1
  Al  Al80  1  0.77777778  0.88888889  0.73816928  1
  Sb  Sb81  1  -0.00000000  -0.00000000  0.71998291  1
  Sb  Sb82  1  -0.00000000  0.33333333  0.71998291  1
  Sb  Sb83  1  -0.00000000  0.66666667  0.71998291  1
  Sb  Sb84  1  0.33333333  -0.00000000  0.71998291  1
  Sb  Sb85  1  0.33333333  0.33333333  0.71998291  1
  Sb  Sb86  1  0.33333333  0.66666667  0.71998291  1
  Sb  Sb87  1  0.66666667  -0.00000000  0.71998291  1
  Sb  Sb88  1  0.66666667  0.33333333  0.71998291  1
  Sb  Sb89  1  0.66666667  0.66666667  0.71998291  1
  Sb  Sb90  1  0.22222222  0.11111111  1.05331625  1
  Sb  Sb91  1  0.22222222  0.44444444  1.05331625  1
  Sb  Sb92  1  0.22222222  0.77777778  1.05331625  1
  Sb  Sb93  1  0.55555556  0.11111111  1.05331625  1
  Sb  Sb94  1  0.55555556  0.44444444  1.05331625  1
  Sb  Sb95  1  0.55555556  0.77777778  1.05331625  1
  Sb  Sb96  1  0.88888889  0.11111111  1.05331625  1
  Sb  Sb97  1  0.88888889  0.44444444  1.05331625  1
  Sb  Sb98  1  0.88888889  0.77777778  1.05331625  1
  Sb  Sb99  1  0.11111111  0.22222222  1.38664958  1
  Sb  Sb100  1  0.11111111  0.55555556  1.38664958  1
  Sb  Sb101  1  0.11111111  0.88888889  1.38664958  1
  Sb  Sb102  1  0.44444444  0.22222222  1.38664958  1
  Sb  Sb103  1  0.44444444  0.55555556  1.38664958  1
  Sb  Sb104  1  0.44444444  0.88888889  1.38664958  1
  Sb  Sb105  1  0.77777778  0.22222222  1.38664958  1
  Sb  Sb106  1  0.77777778  0.55555556  1.38664958  1
  Sb  Sb107  1  0.77777778  0.88888889  1.38664958  1
  Sb  Sb108  1  -0.00000000  -0.00000000  0.28001709  1
  Sb  Sb109  1  -0.00000000  0.33333333  0.28001709  1
  Sb  Sb110  1  -0.00000000  0.66666667  0.28001709  1
  Sb  Sb111  1  0.33333333  -0.00000000  0.28001709  1
  Sb  Sb112  1  0.33333333  0.33333333  0.28001709  1
  Sb  Sb113  1  0.33333333  0.66666667  0.28001709  1
  Sb  Sb114  1  0.66666667  -0.00000000  0.28001709  1
  Sb  Sb115  1  0.66666667  0.33333333  0.28001709  1
  Sb  Sb116  1  0.66666667  0.66666667  0.28001709  1
  Sb  Sb117  1  0.22222222  0.11111111  0.61335042  1
  Sb  Sb118  1  0.22222222  0.44444444  0.61335042  1
  Sb  Sb119  1  0.22222222  0.77777778  0.61335042  1
  Sb  Sb120  1  0.55555556  0.11111111  0.61335042  1
  Sb  Sb121  1  0.55555556  0.44444444  0.61335042  1
  Sb  Sb122  1  0.55555556  0.77777778  0.61335042  1
  Sb  Sb123  1  0.88888889  0.11111111  0.61335042  1
  Sb  Sb124  1  0.88888889  0.44444444  0.61335042  1
  Sb  Sb125  1  0.88888889  0.77777778  0.61335042  1
  Sb  Sb126  1  0.11111111  0.22222222  0.94668375  1
  Sb  Sb127  1  0.11111111  0.55555556  0.94668375  1
  Sb  Sb128  1  0.11111111  0.88888889  0.94668375  1
  Sb  Sb129  1  0.44444444  0.22222222  0.94668375  1
  Sb  Sb130  1  0.44444444  0.55555556  0.94668375  1
  Sb  Sb131  1  0.44444444  0.88888889  0.94668375  1
  Sb  Sb132  1  0.77777778  0.22222222  0.94668375  1
  Sb  Sb133  1  0.77777778  0.55555556  0.94668375  1
  Sb  Sb134  1  0.77777778  0.88888889  0.94668375  1
  O  O135  1  0.13453522  0.13444647  0.56905790  1
  O  O136  1  0.13453522  0.46777980  0.56905790  1
  O  O137  1  0.13453522  0.80111314  0.56905790  1
  O  O138  1  0.46786855  0.13444647  0.56905790  1
  O  O139  1  0.46786855  0.46777980  0.56905790  1
  O  O140  1  0.46786855  0.80111314  0.56905790  1
  O  O141  1  0.80120188  0.13444647  0.56905790  1
  O  O142  1  0.80120188  0.46777980  0.56905790  1
  O  O143  1  0.80120188  0.80111314  0.56905790  1
  O  O144  1  0.35675744  0.24555758  0.90239123  1
  O  O145  1  0.35675744  0.57889091  0.90239123  1
  O  O146  1  0.35675744  0.91222425  0.90239123  1
  O  O147  1  0.69009077  0.24555758  0.90239123  1
  O  O148  1  0.69009077  0.57889091  0.90239123  1
  O  O149  1  0.69009077  0.91222425  0.90239123  1
  O  O150  1  1.02342410  0.24555758  0.90239123  1
  O  O151  1  1.02342410  0.57889091  0.90239123  1
  O  O152  1  1.02342410  0.91222425  0.90239123  1
  O  O153  1  0.24564633  0.35666869  1.23572456  1
  O  O154  1  0.24564633  0.69000203  1.23572456  1
  O  O155  1  0.24564633  1.02333536  1.23572456  1
  O  O156  1  0.57897966  0.35666869  1.23572456  1
  O  O157  1  0.57897966  0.69000203  1.23572456  1
  O  O158  1  0.57897966  1.02333536  1.23572456  1
  O  O159  1  0.91231299  0.35666869  1.23572456  1
  O  O160  1  0.91231299  0.69000203  1.23572456  1
  O  O161  1  0.91231299  1.02333536  1.23572456  1
  O  O162  1  -0.13444647  0.00008875  0.56905790  1
  O  O163  1  -0.13444647  0.33342208  0.56905790  1
  O  O164  1  -0.13444647  0.66675541  0.56905790  1
  O  O165  1  0.19888686  0.00008875  0.56905790  1
  O  O166  1  0.19888686  0.33342208  0.56905790  1
  O  O167  1  0.19888686  0.66675541  0.56905790  1
  O  O168  1  0.53222020  0.00008875  0.56905790  1
  O  O169  1  0.53222020  0.33342208  0.56905790  1
  O  O170  1  0.53222020  0.66675541  0.56905790  1
  O  O171  1  0.08777575  0.11119986  0.90239123  1
  O  O172  1  0.08777575  0.44453319  0.90239123  1
  O  O173  1  0.08777575  0.77786652  0.90239123  1
  O  O174  1  0.42110909  0.11119986  0.90239123  1
  O  O175  1  0.42110909  0.44453319  0.90239123  1
  O  O176  1  0.42110909  0.77786652  0.90239123  1
  O  O177  1  0.75444242  0.11119986  0.90239123  1
  O  O178  1  0.75444242  0.44453319  0.90239123  1
  O  O179  1  0.75444242  0.77786652  0.90239123  1
  O  O180  1  -0.02333536  0.22231097  1.23572456  1
  O  O181  1  -0.02333536  0.55564430  1.23572456  1
  O  O182  1  -0.02333536  0.88897763  1.23572456  1
  O  O183  1  0.30999797  0.22231097  1.23572456  1
  O  O184  1  0.30999797  0.55564430  1.23572456  1
  O  O185  1  0.30999797  0.88897763  1.23572456  1
  O  O186  1  0.64333131  0.22231097  1.23572456  1
  O  O187  1  0.64333131  0.55564430  1.23572456  1
  O  O188  1  0.64333131  0.88897763  1.23572456  1
  O  O189  1  -0.00008875  -0.13453522  0.56905790  1
  O  O190  1  -0.00008875  0.19879812  0.56905790  1
  O  O191  1  -0.00008875  0.53213145  0.56905790  1
  O  O192  1  0.33324459  -0.13453522  0.56905790  1
  O  O193  1  0.33324459  0.19879812  0.56905790  1
  O  O194  1  0.33324459  0.53213145  0.56905790  1
  O  O195  1  0.66657792  -0.13453522  0.56905790  1
  O  O196  1  0.66657792  0.19879812  0.56905790  1
  O  O197  1  0.66657792  0.53213145  0.56905790  1
  O  O198  1  0.22213348  -0.02342410  0.90239123  1
  O  O199  1  0.22213348  0.30990923  0.90239123  1
  O  O200  1  0.22213348  0.64324256  0.90239123  1
  O  O201  1  0.55546681  -0.02342410  0.90239123  1
  O  O202  1  0.55546681  0.30990923  0.90239123  1
  O  O203  1  0.55546681  0.64324256  0.90239123  1
  O  O204  1  0.88880014  -0.02342410  0.90239123  1
  O  O205  1  0.88880014  0.30990923  0.90239123  1
  O  O206  1  0.88880014  0.64324256  0.90239123  1
  O  O207  1  0.11102237  0.08768701  1.23572456  1
  O  O208  1  0.11102237  0.42102034  1.23572456  1
  O  O209  1  0.11102237  0.75435367  1.23572456  1
  O  O210  1  0.44435570  0.08768701  1.23572456  1
  O  O211  1  0.44435570  0.42102034  1.23572456  1
  O  O212  1  0.44435570  0.75435367  1.23572456  1
  O  O213  1  0.77768903  0.08768701  1.23572456  1
  O  O214  1  0.77768903  0.42102034  1.23572456  1
  O  O215  1  0.77768903  0.75435367  1.23572456  1
  O  O216  1  -0.13453522  -0.00008875  0.43094210  1
  O  O217  1  -0.13453522  0.33324459  0.43094210  1
  O  O218  1  -0.13453522  0.66657792  0.43094210  1
  O  O219  1  0.19879812  -0.00008875  0.43094210  1
  O  O220  1  0.19879812  0.33324459  0.43094210  1
  O  O221  1  0.19879812  0.66657792  0.43094210  1
  O  O222  1  0.53213145  -0.00008875  0.43094210  1
  O  O223  1  0.53213145  0.33324459  0.43094210  1
  O  O224  1  0.53213145  0.66657792  0.43094210  1
  O  O225  1  0.08768701  0.11102237  0.76427544  1
  O  O226  1  0.08768701  0.44435570  0.76427544  1
  O  O227  1  0.08768701  0.77768903  0.76427544  1
  O  O228  1  0.42102034  0.11102237  0.76427544  1
  O  O229  1  0.42102034  0.44435570  0.76427544  1
  O  O230  1  0.42102034  0.77768903  0.76427544  1
  O  O231  1  0.75435367  0.11102237  0.76427544  1
  O  O232  1  0.75435367  0.44435570  0.76427544  1
  O  O233  1  0.75435367  0.77768903  0.76427544  1
  O  O234  1  -0.02342410  0.22213348  1.09760877  1
  O  O235  1  -0.02342410  0.55546681  1.09760877  1
  O  O236  1  -0.02342410  0.88880014  1.09760877  1
  O  O237  1  0.30990923  0.22213348  1.09760877  1
  O  O238  1  0.30990923  0.55546681  1.09760877  1
  O  O239  1  0.30990923  0.88880014  1.09760877  1
  O  O240  1  0.64324256  0.22213348  1.09760877  1
  O  O241  1  0.64324256  0.55546681  1.09760877  1
  O  O242  1  0.64324256  0.88880014  1.09760877  1
  O  O243  1  0.00008875  -0.13444647  0.43094210  1
  O  O244  1  0.00008875  0.19888686  0.43094210  1
  O  O245  1  0.00008875  0.53222020  0.43094210  1
  O  O246  1  0.33342208  -0.13444647  0.43094210  1
  O  O247  1  0.33342208  0.19888686  0.43094210  1
  O  O248  1  0.33342208  0.53222020  0.43094210  1
  O  O249  1  0.66675541  -0.13444647  0.43094210  1
  O  O250  1  0.66675541  0.19888686  0.43094210  1
  O  O251  1  0.66675541  0.53222020  0.43094210  1
  O  O252  1  0.22231097  -0.02333536  0.76427544  1
  O  O253  1  0.22231097  0.30999797  0.76427544  1
  O  O254  1  0.22231097  0.64333131  0.76427544  1
  O  O255  1  0.55564430  -0.02333536  0.76427544  1
  O  O256  1  0.55564430  0.30999797  0.76427544  1
  O  O257  1  0.55564430  0.64333131  0.76427544  1
  O  O258  1  0.88897763  -0.02333536  0.76427544  1
  O  O259  1  0.88897763  0.30999797  0.76427544  1
  O  O260  1  0.88897763  0.64333131  0.76427544  1
  O  O261  1  0.11119986  0.08777575  1.09760877  1
  O  O262  1  0.11119986  0.42110909  1.09760877  1
  O  O263  1  0.11119986  0.75444242  1.09760877  1
  O  O264  1  0.44453319  0.08777575  1.09760877  1
  O  O265  1  0.44453319  0.42110909  1.09760877  1
  O  O266  1  0.44453319  0.75444242  1.09760877  1
  O  O267  1  0.77786652  0.08777575  1.09760877  1
  O  O268  1  0.77786652  0.42110909  1.09760877  1
  O  O269  1  0.77786652  0.75444242  1.09760877  1
  O  O270  1  -0.00000000  -0.00000000  -0.00000000  1
  O  O271  1  -0.00000000  0.33333333  -0.00000000  1
  O  O272  1  -0.00000000  0.66666667  -0.00000000  1
  O  O273  1  0.33333333  -0.00000000  -0.00000000  1
  O  O274  1  0.33333333  0.33333333  -0.00000000  1
  O  O275  1  0.33333333  0.66666667  -0.00000000  1
  O  O276  1  0.66666667  -0.00000000  -0.00000000  1
  O  O277  1  0.66666667  0.33333333  -0.00000000  1
  O  O278  1  0.66666667  0.66666667  -0.00000000  1
  O  O279  1  0.22222222  0.11111111  0.33333333  1
  O  O280  1  0.22222222  0.44444444  0.33333333  1
  O  O281  1  0.22222222  0.77777778  0.33333333  1
  O  O282  1  0.55555556  0.11111111  0.33333333  1
  O  O283  1  0.55555556  0.44444444  0.33333333  1
  O  O284  1  0.55555556  0.77777778  0.33333333  1
  O  O285  1  0.88888889  0.11111111  0.33333333  1
  O  O286  1  0.88888889  0.44444444  0.33333333  1
  O  O287  1  0.88888889  0.77777778  0.33333333  1
  O  O288  1  0.11111111  0.22222222  0.66666667  1
  O  O289  1  0.11111111  0.55555556  0.66666667  1
  O  O290  1  0.11111111  0.88888889  0.66666667  1
  O  O291  1  0.44444444  0.22222222  0.66666667  1
  O  O292  1  0.44444444  0.55555556  0.66666667  1
  O  O293  1  0.44444444  0.88888889  0.66666667  1
  O  O294  1  0.77777778  0.22222222  0.66666667  1
  O  O295  1  0.77777778  0.55555556  0.66666667  1
  O  O296  1  0.77777778  0.88888889  0.66666667  1
  O  O297  1  0.13444647  0.13453522  0.43094210  1
  O  O298  1  0.13444647  0.46786855  0.43094210  1
  O  O299  1  0.13444647  0.80120188  0.43094210  1
  O  O300  1  0.46777980  0.13453522  0.43094210  1
  O  O301  1  0.46777980  0.46786855  0.43094210  1
  O  O302  1  0.46777980  0.80120188  0.43094210  1
  O  O303  1  0.80111314  0.13453522  0.43094210  1
  O  O304  1  0.80111314  0.46786855  0.43094210  1
  O  O305  1  0.80111314  0.80120188  0.43094210  1
  O  O306  1  0.35666869  0.24564633  0.76427544  1
  O  O307  1  0.35666869  0.57897966  0.76427544  1
  O  O308  1  0.35666869  0.91231299  0.76427544  1
  O  O309  1  0.69000203  0.24564633  0.76427544  1
  O  O310  1  0.69000203  0.57897966  0.76427544  1
  O  O311  1  0.69000203  0.91231299  0.76427544  1
  O  O312  1  1.02333536  0.24564633  0.76427544  1
  O  O313  1  1.02333536  0.57897966  0.76427544  1
  O  O314  1  1.02333536  0.91231299  0.76427544  1
  O  O315  1  0.24555758  0.35675744  1.09760877  1
  O  O316  1  0.24555758  0.69009077  1.09760877  1
  O  O317  1  0.24555758  1.02342410  1.09760877  1
  O  O318  1  0.57889091  0.35675744  1.09760877  1
  O  O319  1  0.57889091  0.69009077  1.09760877  1
  O  O320  1  0.57889091  1.02342410  1.09760877  1
  O  O321  1  0.91222425  0.35675744  1.09760877  1
  O  O322  1  0.91222425  0.69009077  1.09760877  1
  O  O323  1  0.91222425  1.02342410  1.09760877  1
