# generated using pymatgen
data_CaMgGeO4
_symmetry_space_group_name_H-M   'P 1'
_cell_length_a   11.22585557
_cell_length_b   12.72962065
_cell_length_c   10.05097187
_cell_angle_alpha   90.00000000
_cell_angle_beta   90.00000000
_cell_angle_gamma   90.00000000
_symmetry_Int_Tables_number   1
_chemical_formula_structural   CaMgGeO4
_chemical_formula_sum   'Ca16 Mg16 Ge16 O64'
_cell_volume   1436.29275402
_cell_formula_units_Z   16
loop_
 _symmetry_equiv_pos_site_id
 _symmetry_equiv_pos_as_xyz
  1  'x, y, z'
loop_
 _atom_site_type_symbol
 _atom_site_label
 _atom_site_symmetry_multiplicity
 _atom_site_fract_x
 _atom_site_fract_y
 _atom_site_fract_z
 _atom_site_occupancy
  Ca  Ca0  1  0.22586536  0.12500000  0.25443462  1
  Ca  Ca1  1  0.22586536  0.12500000  0.75443462  1
  Ca  Ca2  1  0.22586536  0.62500000  0.25443462  1
  Ca  Ca3  1  0.22586536  0.62500000  0.75443462  1
  Ca  Ca4  1  0.72586536  0.12500000  0.49556538  1
  Ca  Ca5  1  0.72586536  0.12500000  0.99556538  1
  Ca  Ca6  1  0.72586536  0.62500000  0.49556538  1
  Ca  Ca7  1  0.72586536  0.62500000  0.99556538  1
  Ca  Ca8  1  0.77413464  0.37500000  0.24556538  1
  Ca  Ca9  1  0.77413464  0.37500000  0.74556538  1
  Ca  Ca10  1  0.77413464  0.87500000  0.24556538  1
  Ca  Ca11  1  0.77413464  0.87500000  0.74556538  1
  Ca  Ca12  1  0.27413464  0.37500000  0.00443462  1
  Ca  Ca13  1  0.27413464  0.37500000  0.50443462  1
  Ca  Ca14  1  0.27413464  0.87500000  0.00443462  1
  Ca  Ca15  1  0.27413464  0.87500000  0.50443462  1
  Mg  Mg16  1  0.00000000  0.25000000  0.00000000  1
  Mg  Mg17  1  0.00000000  0.25000000  0.50000000  1
  Mg  Mg18  1  0.00000000  0.75000000  0.00000000  1
  Mg  Mg19  1  0.00000000  0.75000000  0.50000000  1
  Mg  Mg20  1  0.50000000  0.00000000  0.25000000  1
  Mg  Mg21  1  0.50000000  0.00000000  0.75000000  1
  Mg  Mg22  1  0.50000000  0.50000000  0.25000000  1
  Mg  Mg23  1  0.50000000  0.50000000  0.75000000  1
  Mg  Mg24  1  0.50000000  0.25000000  0.25000000  1
  Mg  Mg25  1  0.50000000  0.25000000  0.75000000  1
  Mg  Mg26  1  0.50000000  0.75000000  0.25000000  1
  Mg  Mg27  1  0.50000000  0.75000000  0.75000000  1
  Mg  Mg28  1  0.00000000  0.00000000  0.00000000  1
  Mg  Mg29  1  0.00000000  0.00000000  0.50000000  1
  Mg  Mg30  1  0.00000000  0.50000000  0.00000000  1
  Mg  Mg31  1  0.00000000  0.50000000  0.50000000  1
  Ge  Ge32  1  0.41988915  0.12500000  0.03770703  1
  Ge  Ge33  1  0.41988915  0.12500000  0.53770703  1
  Ge  Ge34  1  0.41988915  0.62500000  0.03770703  1
  Ge  Ge35  1  0.41988915  0.62500000  0.53770703  1
  Ge  Ge36  1  0.91988915  0.12500000  0.21229297  1
  Ge  Ge37  1  0.91988915  0.12500000  0.71229297  1
  Ge  Ge38  1  0.91988915  0.62500000  0.21229297  1
  Ge  Ge39  1  0.91988915  0.62500000  0.71229297  1
  Ge  Ge40  1  0.08011085  0.37500000  0.28770703  1
  Ge  Ge41  1  0.08011085  0.37500000  0.78770703  1
  Ge  Ge42  1  0.08011085  0.87500000  0.28770703  1
  Ge  Ge43  1  0.08011085  0.87500000  0.78770703  1
  Ge  Ge44  1  0.58011085  0.37500000  0.46229297  1
  Ge  Ge45  1  0.58011085  0.37500000  0.96229297  1
  Ge  Ge46  1  0.58011085  0.87500000  0.46229297  1
  Ge  Ge47  1  0.58011085  0.87500000  0.96229297  1
  O  O48  1  0.85157586  0.23584105  0.13179383  1
  O  O49  1  0.85157586  0.23584105  0.63179383  1
  O  O50  1  0.85157586  0.73584105  0.13179383  1
  O  O51  1  0.85157586  0.73584105  0.63179383  1
  O  O52  1  0.64842414  0.26415895  0.38179383  1
  O  O53  1  0.64842414  0.26415895  0.88179383  1
  O  O54  1  0.64842414  0.76415895  0.38179383  1
  O  O55  1  0.64842414  0.76415895  0.88179383  1
  O  O56  1  0.94049736  0.37500000  0.37854418  1
  O  O57  1  0.94049736  0.37500000  0.87854418  1
  O  O58  1  0.94049736  0.87500000  0.37854418  1
  O  O59  1  0.94049736  0.87500000  0.87854418  1
  O  O60  1  0.35157586  0.01415895  0.11820617  1
  O  O61  1  0.35157586  0.01415895  0.61820617  1
  O  O62  1  0.35157586  0.51415895  0.11820617  1
  O  O63  1  0.35157586  0.51415895  0.61820617  1
  O  O64  1  0.35157586  0.23584105  0.11820617  1
  O  O65  1  0.35157586  0.23584105  0.61820617  1
  O  O66  1  0.35157586  0.73584105  0.11820617  1
  O  O67  1  0.35157586  0.73584105  0.61820617  1
  O  O68  1  0.41985030  0.12500000  0.36165144  1
  O  O69  1  0.41985030  0.12500000  0.86165144  1
  O  O70  1  0.41985030  0.62500000  0.36165144  1
  O  O71  1  0.41985030  0.62500000  0.86165144  1
  O  O72  1  0.64842414  0.48584105  0.38179383  1
  O  O73  1  0.64842414  0.48584105  0.88179383  1
  O  O74  1  0.64842414  0.98584105  0.38179383  1
  O  O75  1  0.64842414  0.98584105  0.88179383  1
  O  O76  1  0.08014970  0.37500000  0.11165144  1
  O  O77  1  0.08014970  0.37500000  0.61165144  1
  O  O78  1  0.08014970  0.87500000  0.11165144  1
  O  O79  1  0.08014970  0.87500000  0.61165144  1
  O  O80  1  0.44049736  0.37500000  0.37145582  1
  O  O81  1  0.44049736  0.37500000  0.87145582  1
  O  O82  1  0.44049736  0.87500000  0.37145582  1
  O  O83  1  0.44049736  0.87500000  0.87145582  1
  O  O84  1  0.85157586  0.01415895  0.13179383  1
  O  O85  1  0.85157586  0.01415895  0.63179383  1
  O  O86  1  0.85157586  0.51415895  0.13179383  1
  O  O87  1  0.85157586  0.51415895  0.63179383  1
  O  O88  1  0.14842414  0.26415895  0.36820617  1
  O  O89  1  0.14842414  0.26415895  0.86820617  1
  O  O90  1  0.14842414  0.76415895  0.36820617  1
  O  O91  1  0.14842414  0.76415895  0.86820617  1
  O  O92  1  0.58014970  0.37500000  0.13834856  1
  O  O93  1  0.58014970  0.37500000  0.63834856  1
  O  O94  1  0.58014970  0.87500000  0.13834856  1
  O  O95  1  0.58014970  0.87500000  0.63834856  1
  O  O96  1  0.91985030  0.12500000  0.38834856  1
  O  O97  1  0.91985030  0.12500000  0.88834856  1
  O  O98  1  0.91985030  0.62500000  0.38834856  1
  O  O99  1  0.91985030  0.62500000  0.88834856  1
  O  O100  1  0.14842414  0.48584105  0.36820617  1
  O  O101  1  0.14842414  0.48584105  0.86820617  1
  O  O102  1  0.14842414  0.98584105  0.36820617  1
  O  O103  1  0.14842414  0.98584105  0.86820617  1
  O  O104  1  0.05950264  0.12500000  0.12145582  1
  O  O105  1  0.05950264  0.12500000  0.62145582  1
  O  O106  1  0.05950264  0.62500000  0.12145582  1
  O  O107  1  0.05950264  0.62500000  0.62145582  1
  O  O108  1  0.55950264  0.12500000  0.12854418  1
  O  O109  1  0.55950264  0.12500000  0.62854418  1
  O  O110  1  0.55950264  0.62500000  0.12854418  1
  O  O111  1  0.55950264  0.62500000  0.62854418  1
