# generated using pymatgen
data_Cs3BiO3
_symmetry_space_group_name_H-M   'P 1'
_cell_length_a   18.37081284
_cell_length_b   18.37081284
_cell_length_c   18.37081284
_cell_angle_alpha   90.00000000
_cell_angle_beta   90.00000000
_cell_angle_gamma   90.00000000
_symmetry_Int_Tables_number   1
_chemical_formula_structural   Cs3BiO3
_chemical_formula_sum   'Cs96 Bi32 O96'
_cell_volume   6199.90618797
_cell_formula_units_Z   32
loop_
 _symmetry_equiv_pos_site_id
 _symmetry_equiv_pos_as_xyz
  1  'x, y, z'
loop_
 _atom_site_type_symbol
 _atom_site_label
 _atom_site_symmetry_multiplicity
 _atom_site_fract_x
 _atom_site_fract_y
 _atom_site_fract_z
 _atom_site_occupancy
  Cs  Cs0  1  0.01417347  0.01417347  0.01417347  1
  Cs  Cs1  1  0.01417347  0.01417347  0.51417347  1
  Cs  Cs2  1  0.01417347  0.51417347  0.01417347  1
  Cs  Cs3  1  0.01417347  0.51417347  0.51417347  1
  Cs  Cs4  1  0.51417347  0.01417347  0.01417347  1
  Cs  Cs5  1  0.51417347  0.01417347  0.51417347  1
  Cs  Cs6  1  0.51417347  0.51417347  0.01417347  1
  Cs  Cs7  1  0.51417347  0.51417347  0.51417347  1
  Cs  Cs8  1  0.23582653  0.48582653  0.26417347  1
  Cs  Cs9  1  0.23582653  0.48582653  0.76417347  1
  Cs  Cs10  1  0.23582653  0.98582653  0.26417347  1
  Cs  Cs11  1  0.23582653  0.98582653  0.76417347  1
  Cs  Cs12  1  0.73582653  0.48582653  0.26417347  1
  Cs  Cs13  1  0.73582653  0.48582653  0.76417347  1
  Cs  Cs14  1  0.73582653  0.98582653  0.26417347  1
  Cs  Cs15  1  0.73582653  0.98582653  0.76417347  1
  Cs  Cs16  1  0.26417347  0.23582653  0.48582653  1
  Cs  Cs17  1  0.26417347  0.23582653  0.98582653  1
  Cs  Cs18  1  0.26417347  0.73582653  0.48582653  1
  Cs  Cs19  1  0.26417347  0.73582653  0.98582653  1
  Cs  Cs20  1  0.76417347  0.23582653  0.48582653  1
  Cs  Cs21  1  0.76417347  0.23582653  0.98582653  1
  Cs  Cs22  1  0.76417347  0.73582653  0.48582653  1
  Cs  Cs23  1  0.76417347  0.73582653  0.98582653  1
  Cs  Cs24  1  0.48582653  0.26417347  0.23582653  1
  Cs  Cs25  1  0.48582653  0.26417347  0.73582653  1
  Cs  Cs26  1  0.48582653  0.76417347  0.23582653  1
  Cs  Cs27  1  0.48582653  0.76417347  0.73582653  1
  Cs  Cs28  1  0.98582653  0.26417347  0.23582653  1
  Cs  Cs29  1  0.98582653  0.26417347  0.73582653  1
  Cs  Cs30  1  0.98582653  0.76417347  0.23582653  1
  Cs  Cs31  1  0.98582653  0.76417347  0.73582653  1
  Cs  Cs32  1  0.48402794  0.23402794  0.01597206  1
  Cs  Cs33  1  0.48402794  0.23402794  0.51597206  1
  Cs  Cs34  1  0.48402794  0.73402794  0.01597206  1
  Cs  Cs35  1  0.48402794  0.73402794  0.51597206  1
  Cs  Cs36  1  0.98402794  0.23402794  0.01597206  1
  Cs  Cs37  1  0.98402794  0.23402794  0.51597206  1
  Cs  Cs38  1  0.98402794  0.73402794  0.01597206  1
  Cs  Cs39  1  0.98402794  0.73402794  0.51597206  1
  Cs  Cs40  1  0.26597206  0.26597206  0.26597206  1
  Cs  Cs41  1  0.26597206  0.26597206  0.76597206  1
  Cs  Cs42  1  0.26597206  0.76597206  0.26597206  1
  Cs  Cs43  1  0.26597206  0.76597206  0.76597206  1
  Cs  Cs44  1  0.76597206  0.26597206  0.26597206  1
  Cs  Cs45  1  0.76597206  0.26597206  0.76597206  1
  Cs  Cs46  1  0.76597206  0.76597206  0.26597206  1
  Cs  Cs47  1  0.76597206  0.76597206  0.76597206  1
  Cs  Cs48  1  0.11612615  0.13387385  0.36612615  1
  Cs  Cs49  1  0.11612615  0.13387385  0.86612615  1
  Cs  Cs50  1  0.11612615  0.63387385  0.36612615  1
  Cs  Cs51  1  0.11612615  0.63387385  0.86612615  1
  Cs  Cs52  1  0.61612615  0.13387385  0.36612615  1
  Cs  Cs53  1  0.61612615  0.13387385  0.86612615  1
  Cs  Cs54  1  0.61612615  0.63387385  0.36612615  1
  Cs  Cs55  1  0.61612615  0.63387385  0.86612615  1
  Cs  Cs56  1  0.13387385  0.36612615  0.11612615  1
  Cs  Cs57  1  0.13387385  0.36612615  0.61612615  1
  Cs  Cs58  1  0.13387385  0.86612615  0.11612615  1
  Cs  Cs59  1  0.13387385  0.86612615  0.61612615  1
  Cs  Cs60  1  0.63387385  0.36612615  0.11612615  1
  Cs  Cs61  1  0.63387385  0.36612615  0.61612615  1
  Cs  Cs62  1  0.63387385  0.86612615  0.11612615  1
  Cs  Cs63  1  0.63387385  0.86612615  0.61612615  1
  Cs  Cs64  1  0.36612615  0.11612615  0.13387385  1
  Cs  Cs65  1  0.36612615  0.11612615  0.63387385  1
  Cs  Cs66  1  0.36612615  0.61612615  0.13387385  1
  Cs  Cs67  1  0.36612615  0.61612615  0.63387385  1
  Cs  Cs68  1  0.86612615  0.11612615  0.13387385  1
  Cs  Cs69  1  0.86612615  0.11612615  0.63387385  1
  Cs  Cs70  1  0.86612615  0.61612615  0.13387385  1
  Cs  Cs71  1  0.86612615  0.61612615  0.63387385  1
  Cs  Cs72  1  0.38387385  0.38387385  0.38387385  1
  Cs  Cs73  1  0.38387385  0.38387385  0.88387385  1
  Cs  Cs74  1  0.38387385  0.88387385  0.38387385  1
  Cs  Cs75  1  0.38387385  0.88387385  0.88387385  1
  Cs  Cs76  1  0.88387385  0.38387385  0.38387385  1
  Cs  Cs77  1  0.88387385  0.38387385  0.88387385  1
  Cs  Cs78  1  0.88387385  0.88387385  0.38387385  1
  Cs  Cs79  1  0.88387385  0.88387385  0.88387385  1
  Cs  Cs80  1  0.23402794  0.01597206  0.48402794  1
  Cs  Cs81  1  0.23402794  0.01597206  0.98402794  1
  Cs  Cs82  1  0.23402794  0.51597206  0.48402794  1
  Cs  Cs83  1  0.23402794  0.51597206  0.98402794  1
  Cs  Cs84  1  0.73402794  0.01597206  0.48402794  1
  Cs  Cs85  1  0.73402794  0.01597206  0.98402794  1
  Cs  Cs86  1  0.73402794  0.51597206  0.48402794  1
  Cs  Cs87  1  0.73402794  0.51597206  0.98402794  1
  Cs  Cs88  1  0.01597206  0.48402794  0.23402794  1
  Cs  Cs89  1  0.01597206  0.48402794  0.73402794  1
  Cs  Cs90  1  0.01597206  0.98402794  0.23402794  1
  Cs  Cs91  1  0.01597206  0.98402794  0.73402794  1
  Cs  Cs92  1  0.51597206  0.48402794  0.23402794  1
  Cs  Cs93  1  0.51597206  0.48402794  0.73402794  1
  Cs  Cs94  1  0.51597206  0.98402794  0.23402794  1
  Cs  Cs95  1  0.51597206  0.98402794  0.73402794  1
  Bi  Bi96  1  0.37099088  0.37900912  0.12099088  1
  Bi  Bi97  1  0.37099088  0.37900912  0.62099088  1
  Bi  Bi98  1  0.37099088  0.87900912  0.12099088  1
  Bi  Bi99  1  0.37099088  0.87900912  0.62099088  1
  Bi  Bi100  1  0.87099088  0.37900912  0.12099088  1
  Bi  Bi101  1  0.87099088  0.37900912  0.62099088  1
  Bi  Bi102  1  0.87099088  0.87900912  0.12099088  1
  Bi  Bi103  1  0.87099088  0.87900912  0.62099088  1
  Bi  Bi104  1  0.37900912  0.12099088  0.37099088  1
  Bi  Bi105  1  0.37900912  0.12099088  0.87099088  1
  Bi  Bi106  1  0.37900912  0.62099088  0.37099088  1
  Bi  Bi107  1  0.37900912  0.62099088  0.87099088  1
  Bi  Bi108  1  0.87900912  0.12099088  0.37099088  1
  Bi  Bi109  1  0.87900912  0.12099088  0.87099088  1
  Bi  Bi110  1  0.87900912  0.62099088  0.37099088  1
  Bi  Bi111  1  0.87900912  0.62099088  0.87099088  1
  Bi  Bi112  1  0.12099088  0.37099088  0.37900912  1
  Bi  Bi113  1  0.12099088  0.37099088  0.87900912  1
  Bi  Bi114  1  0.12099088  0.87099088  0.37900912  1
  Bi  Bi115  1  0.12099088  0.87099088  0.87900912  1
  Bi  Bi116  1  0.62099088  0.37099088  0.37900912  1
  Bi  Bi117  1  0.62099088  0.37099088  0.87900912  1
  Bi  Bi118  1  0.62099088  0.87099088  0.37900912  1
  Bi  Bi119  1  0.62099088  0.87099088  0.87900912  1
  Bi  Bi120  1  0.12900912  0.12900912  0.12900912  1
  Bi  Bi121  1  0.12900912  0.12900912  0.62900912  1
  Bi  Bi122  1  0.12900912  0.62900912  0.12900912  1
  Bi  Bi123  1  0.12900912  0.62900912  0.62900912  1
  Bi  Bi124  1  0.62900912  0.12900912  0.12900912  1
  Bi  Bi125  1  0.62900912  0.12900912  0.62900912  1
  Bi  Bi126  1  0.62900912  0.62900912  0.12900912  1
  Bi  Bi127  1  0.62900912  0.62900912  0.62900912  1
  O  O128  1  0.26738581  0.12289800  0.35182025  1
  O  O129  1  0.26738581  0.12289800  0.85182025  1
  O  O130  1  0.26738581  0.62289800  0.35182025  1
  O  O131  1  0.26738581  0.62289800  0.85182025  1
  O  O132  1  0.76738581  0.12289800  0.35182025  1
  O  O133  1  0.76738581  0.12289800  0.85182025  1
  O  O134  1  0.76738581  0.62289800  0.35182025  1
  O  O135  1  0.76738581  0.62289800  0.85182025  1
  O  O136  1  0.01738581  0.12710200  0.14817975  1
  O  O137  1  0.01738581  0.12710200  0.64817975  1
  O  O138  1  0.01738581  0.62710200  0.14817975  1
  O  O139  1  0.01738581  0.62710200  0.64817975  1
  O  O140  1  0.51738581  0.12710200  0.14817975  1
  O  O141  1  0.51738581  0.12710200  0.64817975  1
  O  O142  1  0.51738581  0.62710200  0.14817975  1
  O  O143  1  0.51738581  0.62710200  0.64817975  1
  O  O144  1  0.23261419  0.37289800  0.39817975  1
  O  O145  1  0.23261419  0.37289800  0.89817975  1
  O  O146  1  0.23261419  0.87289800  0.39817975  1
  O  O147  1  0.23261419  0.87289800  0.89817975  1
  O  O148  1  0.73261419  0.37289800  0.39817975  1
  O  O149  1  0.73261419  0.37289800  0.89817975  1
  O  O150  1  0.73261419  0.87289800  0.39817975  1
  O  O151  1  0.73261419  0.87289800  0.89817975  1
  O  O152  1  0.12710200  0.14817975  0.01738581  1
  O  O153  1  0.12710200  0.14817975  0.51738581  1
  O  O154  1  0.12710200  0.64817975  0.01738581  1
  O  O155  1  0.12710200  0.64817975  0.51738581  1
  O  O156  1  0.62710200  0.14817975  0.01738581  1
  O  O157  1  0.62710200  0.14817975  0.51738581  1
  O  O158  1  0.62710200  0.64817975  0.01738581  1
  O  O159  1  0.62710200  0.64817975  0.51738581  1
  O  O160  1  0.12289800  0.35182025  0.26738581  1
  O  O161  1  0.12289800  0.35182025  0.76738581  1
  O  O162  1  0.12289800  0.85182025  0.26738581  1
  O  O163  1  0.12289800  0.85182025  0.76738581  1
  O  O164  1  0.62289800  0.35182025  0.26738581  1
  O  O165  1  0.62289800  0.35182025  0.76738581  1
  O  O166  1  0.62289800  0.85182025  0.26738581  1
  O  O167  1  0.62289800  0.85182025  0.76738581  1
  O  O168  1  0.35182025  0.26738581  0.12289800  1
  O  O169  1  0.35182025  0.26738581  0.62289800  1
  O  O170  1  0.35182025  0.76738581  0.12289800  1
  O  O171  1  0.35182025  0.76738581  0.62289800  1
  O  O172  1  0.85182025  0.26738581  0.12289800  1
  O  O173  1  0.85182025  0.26738581  0.62289800  1
  O  O174  1  0.85182025  0.76738581  0.12289800  1
  O  O175  1  0.85182025  0.76738581  0.62289800  1
  O  O176  1  0.37289800  0.39817975  0.23261419  1
  O  O177  1  0.37289800  0.39817975  0.73261419  1
  O  O178  1  0.37289800  0.89817975  0.23261419  1
  O  O179  1  0.37289800  0.89817975  0.73261419  1
  O  O180  1  0.87289800  0.39817975  0.23261419  1
  O  O181  1  0.87289800  0.39817975  0.73261419  1
  O  O182  1  0.87289800  0.89817975  0.23261419  1
  O  O183  1  0.87289800  0.89817975  0.73261419  1
  O  O184  1  0.37710200  0.10182025  0.48261419  1
  O  O185  1  0.37710200  0.10182025  0.98261419  1
  O  O186  1  0.37710200  0.60182025  0.48261419  1
  O  O187  1  0.37710200  0.60182025  0.98261419  1
  O  O188  1  0.87710200  0.10182025  0.48261419  1
  O  O189  1  0.87710200  0.10182025  0.98261419  1
  O  O190  1  0.87710200  0.60182025  0.48261419  1
  O  O191  1  0.87710200  0.60182025  0.98261419  1
  O  O192  1  0.10182025  0.48261419  0.37710200  1
  O  O193  1  0.10182025  0.48261419  0.87710200  1
  O  O194  1  0.10182025  0.98261419  0.37710200  1
  O  O195  1  0.10182025  0.98261419  0.87710200  1
  O  O196  1  0.60182025  0.48261419  0.37710200  1
  O  O197  1  0.60182025  0.48261419  0.87710200  1
  O  O198  1  0.60182025  0.98261419  0.37710200  1
  O  O199  1  0.60182025  0.98261419  0.87710200  1
  O  O200  1  0.48261419  0.37710200  0.10182025  1
  O  O201  1  0.48261419  0.37710200  0.60182025  1
  O  O202  1  0.48261419  0.87710200  0.10182025  1
  O  O203  1  0.48261419  0.87710200  0.60182025  1
  O  O204  1  0.98261419  0.37710200  0.10182025  1
  O  O205  1  0.98261419  0.37710200  0.60182025  1
  O  O206  1  0.98261419  0.87710200  0.10182025  1
  O  O207  1  0.98261419  0.87710200  0.60182025  1
  O  O208  1  0.39817975  0.23261419  0.37289800  1
  O  O209  1  0.39817975  0.23261419  0.87289800  1
  O  O210  1  0.39817975  0.73261419  0.37289800  1
  O  O211  1  0.39817975  0.73261419  0.87289800  1
  O  O212  1  0.89817975  0.23261419  0.37289800  1
  O  O213  1  0.89817975  0.23261419  0.87289800  1
  O  O214  1  0.89817975  0.73261419  0.37289800  1
  O  O215  1  0.89817975  0.73261419  0.87289800  1
  O  O216  1  0.14817975  0.01738581  0.12710200  1
  O  O217  1  0.14817975  0.01738581  0.62710200  1
  O  O218  1  0.14817975  0.51738581  0.12710200  1
  O  O219  1  0.14817975  0.51738581  0.62710200  1
  O  O220  1  0.64817975  0.01738581  0.12710200  1
  O  O221  1  0.64817975  0.01738581  0.62710200  1
  O  O222  1  0.64817975  0.51738581  0.12710200  1
  O  O223  1  0.64817975  0.51738581  0.62710200  1
