# generated using pymatgen
data_K4PbO4
_symmetry_space_group_name_H-M   'P 1'
_cell_length_a   19.85065708
_cell_length_b   19.90293987
_cell_length_c   20.00168781
_cell_angle_alpha   80.22281359
_cell_angle_beta   71.36005251
_cell_angle_gamma   67.79930817
_symmetry_Int_Tables_number   1
_chemical_formula_structural   K4PbO4
_chemical_formula_sum   'K144 Pb36 O144'
_cell_volume   6921.93184075
_cell_formula_units_Z   36
loop_
 _symmetry_equiv_pos_site_id
 _symmetry_equiv_pos_as_xyz
  1  'x, y, z'
loop_
 _atom_site_type_symbol
 _atom_site_label
 _atom_site_symmetry_multiplicity
 _atom_site_fract_x
 _atom_site_fract_y
 _atom_site_fract_z
 _atom_site_occupancy
  K  K0  1  0.17237358  0.25631604  0.46756433  1
  K  K1  1  0.17237358  0.25631604  0.96756433  1
  K  K2  1  0.17237358  0.58964938  0.46756433  1
  K  K3  1  0.17237358  0.58964938  0.96756433  1
  K  K4  1  0.17237358  0.92298271  0.46756433  1
  K  K5  1  0.17237358  0.92298271  0.96756433  1
  K  K6  1  0.50570692  0.25631604  0.46756433  1
  K  K7  1  0.50570692  0.25631604  0.96756433  1
  K  K8  1  0.50570692  0.58964938  0.46756433  1
  K  K9  1  0.50570692  0.58964938  0.96756433  1
  K  K10  1  0.50570692  0.92298271  0.46756433  1
  K  K11  1  0.50570692  0.92298271  0.96756433  1
  K  K12  1  0.83904025  0.25631604  0.46756433  1
  K  K13  1  0.83904025  0.25631604  0.96756433  1
  K  K14  1  0.83904025  0.58964938  0.46756433  1
  K  K15  1  0.83904025  0.58964938  0.96756433  1
  K  K16  1  0.83904025  0.92298271  0.46756433  1
  K  K17  1  0.83904025  0.92298271  0.96756433  1
  K  K18  1  0.01549540  0.08868832  0.44685934  1
  K  K19  1  0.01549540  0.08868832  0.94685934  1
  K  K20  1  0.01549540  0.42202166  0.44685934  1
  K  K21  1  0.01549540  0.42202166  0.94685934  1
  K  K22  1  0.01549540  0.75535499  0.44685934  1
  K  K23  1  0.01549540  0.75535499  0.94685934  1
  K  K24  1  0.34882873  0.08868832  0.44685934  1
  K  K25  1  0.34882873  0.08868832  0.94685934  1
  K  K26  1  0.34882873  0.42202166  0.44685934  1
  K  K27  1  0.34882873  0.42202166  0.94685934  1
  K  K28  1  0.34882873  0.75535499  0.44685934  1
  K  K29  1  0.34882873  0.75535499  0.94685934  1
  K  K30  1  0.68216207  0.08868832  0.44685934  1
  K  K31  1  0.68216207  0.08868832  0.94685934  1
  K  K32  1  0.68216207  0.42202166  0.44685934  1
  K  K33  1  0.68216207  0.42202166  0.94685934  1
  K  K34  1  0.68216207  0.75535499  0.44685934  1
  K  K35  1  0.68216207  0.75535499  0.94685934  1
  K  K36  1  0.13341767  0.25433538  0.16056183  1
  K  K37  1  0.13341767  0.25433538  0.66056183  1
  K  K38  1  0.13341767  0.58766872  0.16056183  1
  K  K39  1  0.13341767  0.58766872  0.66056183  1
  K  K40  1  0.13341767  0.92100205  0.16056183  1
  K  K41  1  0.13341767  0.92100205  0.66056183  1
  K  K42  1  0.46675100  0.25433538  0.16056183  1
  K  K43  1  0.46675100  0.25433538  0.66056183  1
  K  K44  1  0.46675100  0.58766872  0.16056183  1
  K  K45  1  0.46675100  0.58766872  0.66056183  1
  K  K46  1  0.46675100  0.92100205  0.16056183  1
  K  K47  1  0.46675100  0.92100205  0.66056183  1
  K  K48  1  0.80008434  0.25433538  0.16056183  1
  K  K49  1  0.80008434  0.25433538  0.66056183  1
  K  K50  1  0.80008434  0.58766872  0.16056183  1
  K  K51  1  0.80008434  0.58766872  0.66056183  1
  K  K52  1  0.80008434  0.92100205  0.16056183  1
  K  K53  1  0.80008434  0.92100205  0.66056183  1
  K  K54  1  0.08081398  0.08516286  0.24164044  1
  K  K55  1  0.08081398  0.08516286  0.74164044  1
  K  K56  1  0.08081398  0.41849619  0.24164044  1
  K  K57  1  0.08081398  0.41849619  0.74164044  1
  K  K58  1  0.08081398  0.75182952  0.24164044  1
  K  K59  1  0.08081398  0.75182952  0.74164044  1
  K  K60  1  0.41414731  0.08516286  0.24164044  1
  K  K61  1  0.41414731  0.08516286  0.74164044  1
  K  K62  1  0.41414731  0.41849619  0.24164044  1
  K  K63  1  0.41414731  0.41849619  0.74164044  1
  K  K64  1  0.41414731  0.75182952  0.24164044  1
  K  K65  1  0.41414731  0.75182952  0.74164044  1
  K  K66  1  0.74748064  0.08516286  0.24164044  1
  K  K67  1  0.74748064  0.08516286  0.74164044  1
  K  K68  1  0.74748064  0.41849619  0.24164044  1
  K  K69  1  0.74748064  0.41849619  0.74164044  1
  K  K70  1  0.74748064  0.75182952  0.24164044  1
  K  K71  1  0.74748064  0.75182952  0.74164044  1
  K  K72  1  0.25251936  0.24817048  0.25835956  1
  K  K73  1  0.25251936  0.24817048  0.75835956  1
  K  K74  1  0.25251936  0.58150381  0.25835956  1
  K  K75  1  0.25251936  0.58150381  0.75835956  1
  K  K76  1  0.25251936  0.91483714  0.25835956  1
  K  K77  1  0.25251936  0.91483714  0.75835956  1
  K  K78  1  0.58585269  0.24817048  0.25835956  1
  K  K79  1  0.58585269  0.24817048  0.75835956  1
  K  K80  1  0.58585269  0.58150381  0.25835956  1
  K  K81  1  0.58585269  0.58150381  0.75835956  1
  K  K82  1  0.58585269  0.91483714  0.25835956  1
  K  K83  1  0.58585269  0.91483714  0.75835956  1
  K  K84  1  0.91918602  0.24817048  0.25835956  1
  K  K85  1  0.91918602  0.24817048  0.75835956  1
  K  K86  1  0.91918602  0.58150381  0.25835956  1
  K  K87  1  0.91918602  0.58150381  0.75835956  1
  K  K88  1  0.91918602  0.91483714  0.25835956  1
  K  K89  1  0.91918602  0.91483714  0.75835956  1
  K  K90  1  0.31783793  0.24464501  0.05314066  1
  K  K91  1  0.31783793  0.24464501  0.55314066  1
  K  K92  1  0.31783793  0.57797834  0.05314066  1
  K  K93  1  0.31783793  0.57797834  0.55314066  1
  K  K94  1  0.31783793  0.91131168  0.05314066  1
  K  K95  1  0.31783793  0.91131168  0.55314066  1
  K  K96  1  0.65117127  0.24464501  0.05314066  1
  K  K97  1  0.65117127  0.24464501  0.55314066  1
  K  K98  1  0.65117127  0.57797834  0.05314066  1
  K  K99  1  0.65117127  0.57797834  0.55314066  1
  K  K100  1  0.65117127  0.91131168  0.05314066  1
  K  K101  1  0.65117127  0.91131168  0.55314066  1
  K  K102  1  0.98450460  0.24464501  0.05314066  1
  K  K103  1  0.98450460  0.24464501  0.55314066  1
  K  K104  1  0.98450460  0.57797834  0.05314066  1
  K  K105  1  0.98450460  0.57797834  0.55314066  1
  K  K106  1  0.98450460  0.91131168  0.05314066  1
  K  K107  1  0.98450460  0.91131168  0.55314066  1
  K  K108  1  0.16095975  0.07701729  0.03243567  1
  K  K109  1  0.16095975  0.07701729  0.53243567  1
  K  K110  1  0.16095975  0.41035062  0.03243567  1
  K  K111  1  0.16095975  0.41035062  0.53243567  1
  K  K112  1  0.16095975  0.74368396  0.03243567  1
  K  K113  1  0.16095975  0.74368396  0.53243567  1
  K  K114  1  0.49429308  0.07701729  0.03243567  1
  K  K115  1  0.49429308  0.07701729  0.53243567  1
  K  K116  1  0.49429308  0.41035062  0.03243567  1
  K  K117  1  0.49429308  0.41035062  0.53243567  1
  K  K118  1  0.49429308  0.74368396  0.03243567  1
  K  K119  1  0.49429308  0.74368396  0.53243567  1
  K  K120  1  0.82762642  0.07701729  0.03243567  1
  K  K121  1  0.82762642  0.07701729  0.53243567  1
  K  K122  1  0.82762642  0.41035062  0.03243567  1
  K  K123  1  0.82762642  0.41035062  0.53243567  1
  K  K124  1  0.82762642  0.74368396  0.03243567  1
  K  K125  1  0.82762642  0.74368396  0.53243567  1
  K  K126  1  0.19991566  0.07899795  0.33943817  1
  K  K127  1  0.19991566  0.07899795  0.83943817  1
  K  K128  1  0.19991566  0.41233128  0.33943817  1
  K  K129  1  0.19991566  0.41233128  0.83943817  1
  K  K130  1  0.19991566  0.74566462  0.33943817  1
  K  K131  1  0.19991566  0.74566462  0.83943817  1
  K  K132  1  0.53324900  0.07899795  0.33943817  1
  K  K133  1  0.53324900  0.07899795  0.83943817  1
  K  K134  1  0.53324900  0.41233128  0.33943817  1
  K  K135  1  0.53324900  0.41233128  0.83943817  1
  K  K136  1  0.53324900  0.74566462  0.33943817  1
  K  K137  1  0.53324900  0.74566462  0.83943817  1
  K  K138  1  0.86658233  0.07899795  0.33943817  1
  K  K139  1  0.86658233  0.07899795  0.83943817  1
  K  K140  1  0.86658233  0.41233128  0.33943817  1
  K  K141  1  0.86658233  0.41233128  0.83943817  1
  K  K142  1  0.86658233  0.74566462  0.33943817  1
  K  K143  1  0.86658233  0.74566462  0.83943817  1
  Pb  Pb144  1  0.05168130  0.26025869  0.37217354  1
  Pb  Pb145  1  0.05168130  0.26025869  0.87217354  1
  Pb  Pb146  1  0.05168130  0.59359202  0.37217354  1
  Pb  Pb147  1  0.05168130  0.59359202  0.87217354  1
  Pb  Pb148  1  0.05168130  0.92692535  0.37217354  1
  Pb  Pb149  1  0.05168130  0.92692535  0.87217354  1
  Pb  Pb150  1  0.38501463  0.26025869  0.37217354  1
  Pb  Pb151  1  0.38501463  0.26025869  0.87217354  1
  Pb  Pb152  1  0.38501463  0.59359202  0.37217354  1
  Pb  Pb153  1  0.38501463  0.59359202  0.87217354  1
  Pb  Pb154  1  0.38501463  0.92692535  0.37217354  1
  Pb  Pb155  1  0.38501463  0.92692535  0.87217354  1
  Pb  Pb156  1  0.71834796  0.26025869  0.37217354  1
  Pb  Pb157  1  0.71834796  0.26025869  0.87217354  1
  Pb  Pb158  1  0.71834796  0.59359202  0.37217354  1
  Pb  Pb159  1  0.71834796  0.59359202  0.87217354  1
  Pb  Pb160  1  0.71834796  0.92692535  0.37217354  1
  Pb  Pb161  1  0.71834796  0.92692535  0.87217354  1
  Pb  Pb162  1  0.28165204  0.07307465  0.12782646  1
  Pb  Pb163  1  0.28165204  0.07307465  0.62782646  1
  Pb  Pb164  1  0.28165204  0.40640798  0.12782646  1
  Pb  Pb165  1  0.28165204  0.40640798  0.62782646  1
  Pb  Pb166  1  0.28165204  0.73974131  0.12782646  1
  Pb  Pb167  1  0.28165204  0.73974131  0.62782646  1
  Pb  Pb168  1  0.61498537  0.07307465  0.12782646  1
  Pb  Pb169  1  0.61498537  0.07307465  0.62782646  1
  Pb  Pb170  1  0.61498537  0.40640798  0.12782646  1
  Pb  Pb171  1  0.61498537  0.40640798  0.62782646  1
  Pb  Pb172  1  0.61498537  0.73974131  0.12782646  1
  Pb  Pb173  1  0.61498537  0.73974131  0.62782646  1
  Pb  Pb174  1  0.94831870  0.07307465  0.12782646  1
  Pb  Pb175  1  0.94831870  0.07307465  0.62782646  1
  Pb  Pb176  1  0.94831870  0.40640798  0.12782646  1
  Pb  Pb177  1  0.94831870  0.40640798  0.62782646  1
  Pb  Pb178  1  0.94831870  0.73974131  0.12782646  1
  Pb  Pb179  1  0.94831870  0.73974131  0.62782646  1
  O  O180  1  0.21257561  0.00823732  0.15213470  1
  O  O181  1  0.21257561  0.00823732  0.65213470  1
  O  O182  1  0.21257561  0.34157066  0.15213470  1
  O  O183  1  0.21257561  0.34157066  0.65213470  1
  O  O184  1  0.21257561  0.67490399  0.15213470  1
  O  O185  1  0.21257561  0.67490399  0.65213470  1
  O  O186  1  0.54590894  0.00823732  0.15213470  1
  O  O187  1  0.54590894  0.00823732  0.65213470  1
  O  O188  1  0.54590894  0.34157066  0.15213470  1
  O  O189  1  0.54590894  0.34157066  0.65213470  1
  O  O190  1  0.54590894  0.67490399  0.15213470  1
  O  O191  1  0.54590894  0.67490399  0.65213470  1
  O  O192  1  0.87924228  0.00823732  0.15213470  1
  O  O193  1  0.87924228  0.00823732  0.65213470  1
  O  O194  1  0.87924228  0.34157066  0.15213470  1
  O  O195  1  0.87924228  0.34157066  0.65213470  1
  O  O196  1  0.87924228  0.67490399  0.15213470  1
  O  O197  1  0.87924228  0.67490399  0.65213470  1
  O  O198  1  0.23323212  0.15910295  0.06014665  1
  O  O199  1  0.23323212  0.15910295  0.56014665  1
  O  O200  1  0.23323212  0.49243628  0.06014665  1
  O  O201  1  0.23323212  0.49243628  0.56014665  1
  O  O202  1  0.23323212  0.82576962  0.06014665  1
  O  O203  1  0.23323212  0.82576962  0.56014665  1
  O  O204  1  0.56656545  0.15910295  0.06014665  1
  O  O205  1  0.56656545  0.15910295  0.56014665  1
  O  O206  1  0.56656545  0.49243628  0.06014665  1
  O  O207  1  0.56656545  0.49243628  0.56014665  1
  O  O208  1  0.56656545  0.82576962  0.06014665  1
  O  O209  1  0.56656545  0.82576962  0.56014665  1
  O  O210  1  0.89989879  0.15910295  0.06014665  1
  O  O211  1  0.89989879  0.15910295  0.56014665  1
  O  O212  1  0.89989879  0.49243628  0.06014665  1
  O  O213  1  0.89989879  0.49243628  0.56014665  1
  O  O214  1  0.89989879  0.82576962  0.06014665  1
  O  O215  1  0.89989879  0.82576962  0.56014665  1
  O  O216  1  0.12075772  0.32509601  0.34786530  1
  O  O217  1  0.12075772  0.32509601  0.84786530  1
  O  O218  1  0.12075772  0.65842934  0.34786530  1
  O  O219  1  0.12075772  0.65842934  0.84786530  1
  O  O220  1  0.12075772  0.99176268  0.34786530  1
  O  O221  1  0.12075772  0.99176268  0.84786530  1
  O  O222  1  0.45409106  0.32509601  0.34786530  1
  O  O223  1  0.45409106  0.32509601  0.84786530  1
  O  O224  1  0.45409106  0.65842934  0.34786530  1
  O  O225  1  0.45409106  0.65842934  0.84786530  1
  O  O226  1  0.45409106  0.99176268  0.34786530  1
  O  O227  1  0.45409106  0.99176268  0.84786530  1
  O  O228  1  0.78742439  0.32509601  0.34786530  1
  O  O229  1  0.78742439  0.32509601  0.84786530  1
  O  O230  1  0.78742439  0.65842934  0.34786530  1
  O  O231  1  0.78742439  0.65842934  0.84786530  1
  O  O232  1  0.78742439  0.99176268  0.34786530  1
  O  O233  1  0.78742439  0.99176268  0.84786530  1
  O  O234  1  0.10010121  0.17423038  0.43985335  1
  O  O235  1  0.10010121  0.17423038  0.93985335  1
  O  O236  1  0.10010121  0.50756372  0.43985335  1
  O  O237  1  0.10010121  0.50756372  0.93985335  1
  O  O238  1  0.10010121  0.84089705  0.43985335  1
  O  O239  1  0.10010121  0.84089705  0.93985335  1
  O  O240  1  0.43343455  0.17423038  0.43985335  1
  O  O241  1  0.43343455  0.17423038  0.93985335  1
  O  O242  1  0.43343455  0.50756372  0.43985335  1
  O  O243  1  0.43343455  0.50756372  0.93985335  1
  O  O244  1  0.43343455  0.84089705  0.43985335  1
  O  O245  1  0.43343455  0.84089705  0.93985335  1
  O  O246  1  0.76676788  0.17423038  0.43985335  1
  O  O247  1  0.76676788  0.17423038  0.93985335  1
  O  O248  1  0.76676788  0.50756372  0.43985335  1
  O  O249  1  0.76676788  0.50756372  0.93985335  1
  O  O250  1  0.76676788  0.84089705  0.43985335  1
  O  O251  1  0.76676788  0.84089705  0.93985335  1
  O  O252  1  0.27730263  0.32548651  0.43224004  1
  O  O253  1  0.27730263  0.32548651  0.93224004  1
  O  O254  1  0.27730263  0.65881985  0.43224004  1
  O  O255  1  0.27730263  0.65881985  0.93224004  1
  O  O256  1  0.27730263  0.99215318  0.43224004  1
  O  O257  1  0.27730263  0.99215318  0.93224004  1
  O  O258  1  0.61063596  0.32548651  0.43224004  1
  O  O259  1  0.61063596  0.32548651  0.93224004  1
  O  O260  1  0.61063596  0.65881985  0.43224004  1
  O  O261  1  0.61063596  0.65881985  0.93224004  1
  O  O262  1  0.61063596  0.99215318  0.43224004  1
  O  O263  1  0.61063596  0.99215318  0.93224004  1
  O  O264  1  0.94396929  0.32548651  0.43224004  1
  O  O265  1  0.94396929  0.32548651  0.93224004  1
  O  O266  1  0.94396929  0.65881985  0.43224004  1
  O  O267  1  0.94396929  0.65881985  0.93224004  1
  O  O268  1  0.94396929  0.99215318  0.43224004  1
  O  O269  1  0.94396929  0.99215318  0.93224004  1
  O  O270  1  0.05070206  0.21436445  0.28591947  1
  O  O271  1  0.05070206  0.21436445  0.78591947  1
  O  O272  1  0.05070206  0.54769779  0.28591947  1
  O  O273  1  0.05070206  0.54769779  0.78591947  1
  O  O274  1  0.05070206  0.88103112  0.28591947  1
  O  O275  1  0.05070206  0.88103112  0.78591947  1
  O  O276  1  0.38403540  0.21436445  0.28591947  1
  O  O277  1  0.38403540  0.21436445  0.78591947  1
  O  O278  1  0.38403540  0.54769779  0.28591947  1
  O  O279  1  0.38403540  0.54769779  0.78591947  1
  O  O280  1  0.38403540  0.88103112  0.28591947  1
  O  O281  1  0.38403540  0.88103112  0.78591947  1
  O  O282  1  0.71736873  0.21436445  0.28591947  1
  O  O283  1  0.71736873  0.21436445  0.78591947  1
  O  O284  1  0.71736873  0.54769779  0.28591947  1
  O  O285  1  0.71736873  0.54769779  0.78591947  1
  O  O286  1  0.71736873  0.88103112  0.28591947  1
  O  O287  1  0.71736873  0.88103112  0.78591947  1
  O  O288  1  0.28263127  0.11896888  0.21408053  1
  O  O289  1  0.28263127  0.11896888  0.71408053  1
  O  O290  1  0.28263127  0.45230221  0.21408053  1
  O  O291  1  0.28263127  0.45230221  0.71408053  1
  O  O292  1  0.28263127  0.78563555  0.21408053  1
  O  O293  1  0.28263127  0.78563555  0.71408053  1
  O  O294  1  0.61596460  0.11896888  0.21408053  1
  O  O295  1  0.61596460  0.11896888  0.71408053  1
  O  O296  1  0.61596460  0.45230221  0.21408053  1
  O  O297  1  0.61596460  0.45230221  0.71408053  1
  O  O298  1  0.61596460  0.78563555  0.21408053  1
  O  O299  1  0.61596460  0.78563555  0.71408053  1
  O  O300  1  0.94929794  0.11896888  0.21408053  1
  O  O301  1  0.94929794  0.11896888  0.71408053  1
  O  O302  1  0.94929794  0.45230221  0.21408053  1
  O  O303  1  0.94929794  0.45230221  0.71408053  1
  O  O304  1  0.94929794  0.78563555  0.21408053  1
  O  O305  1  0.94929794  0.78563555  0.71408053  1
  O  O306  1  0.05603071  0.00784682  0.06775996  1
  O  O307  1  0.05603071  0.00784682  0.56775996  1
  O  O308  1  0.05603071  0.34118015  0.06775996  1
  O  O309  1  0.05603071  0.34118015  0.56775996  1
  O  O310  1  0.05603071  0.67451349  0.06775996  1
  O  O311  1  0.05603071  0.67451349  0.56775996  1
  O  O312  1  0.38936404  0.00784682  0.06775996  1
  O  O313  1  0.38936404  0.00784682  0.56775996  1
  O  O314  1  0.38936404  0.34118015  0.06775996  1
  O  O315  1  0.38936404  0.34118015  0.56775996  1
  O  O316  1  0.38936404  0.67451349  0.06775996  1
  O  O317  1  0.38936404  0.67451349  0.56775996  1
  O  O318  1  0.72269737  0.00784682  0.06775996  1
  O  O319  1  0.72269737  0.00784682  0.56775996  1
  O  O320  1  0.72269737  0.34118015  0.06775996  1
  O  O321  1  0.72269737  0.34118015  0.56775996  1
  O  O322  1  0.72269737  0.67451349  0.06775996  1
  O  O323  1  0.72269737  0.67451349  0.56775996  1
