# generated using pymatgen
data_TiSnO3
_symmetry_space_group_name_H-M   'P 1'
_cell_length_a   20.34663538
_cell_length_b   20.34663538
_cell_length_c   20.42844435
_cell_angle_alpha   90.00000000
_cell_angle_beta   90.00000000
_cell_angle_gamma   120.00000000
_symmetry_Int_Tables_number   1
_chemical_formula_structural   TiSnO3
_chemical_formula_sum   'Ti96 Sn96 O288'
_cell_volume   7324.04716693
_cell_formula_units_Z   96
loop_
 _symmetry_equiv_pos_site_id
 _symmetry_equiv_pos_as_xyz
  1  'x, y, z'
loop_
 _atom_site_type_symbol
 _atom_site_label
 _atom_site_symmetry_multiplicity
 _atom_site_fract_x
 _atom_site_fract_y
 _atom_site_fract_z
 _atom_site_occupancy
  Ti  Ti0  1  -0.00000000  -0.00000000  0.66845998  1
  Ti  Ti1  1  -0.00000000  0.25000000  0.66845998  1
  Ti  Ti2  1  -0.00000000  0.50000000  0.66845998  1
  Ti  Ti3  1  -0.00000000  0.75000000  0.66845998  1
  Ti  Ti4  1  0.25000000  -0.00000000  0.66845998  1
  Ti  Ti5  1  0.25000000  0.25000000  0.66845998  1
  Ti  Ti6  1  0.25000000  0.50000000  0.66845998  1
  Ti  Ti7  1  0.25000000  0.75000000  0.66845998  1
  Ti  Ti8  1  0.50000000  -0.00000000  0.66845998  1
  Ti  Ti9  1  0.50000000  0.25000000  0.66845998  1
  Ti  Ti10  1  0.50000000  0.50000000  0.66845998  1
  Ti  Ti11  1  0.50000000  0.75000000  0.66845998  1
  Ti  Ti12  1  0.75000000  -0.00000000  0.66845998  1
  Ti  Ti13  1  0.75000000  0.25000000  0.66845998  1
  Ti  Ti14  1  0.75000000  0.50000000  0.66845998  1
  Ti  Ti15  1  0.75000000  0.75000000  0.66845998  1
  Ti  Ti16  1  0.16666667  0.08333333  1.00179331  1
  Ti  Ti17  1  0.16666667  0.33333333  1.00179331  1
  Ti  Ti18  1  0.16666667  0.58333333  1.00179331  1
  Ti  Ti19  1  0.16666667  0.83333333  1.00179331  1
  Ti  Ti20  1  0.41666667  0.08333333  1.00179331  1
  Ti  Ti21  1  0.41666667  0.33333333  1.00179331  1
  Ti  Ti22  1  0.41666667  0.58333333  1.00179331  1
  Ti  Ti23  1  0.41666667  0.83333333  1.00179331  1
  Ti  Ti24  1  0.66666667  0.08333333  1.00179331  1
  Ti  Ti25  1  0.66666667  0.33333333  1.00179331  1
  Ti  Ti26  1  0.66666667  0.58333333  1.00179331  1
  Ti  Ti27  1  0.66666667  0.83333333  1.00179331  1
  Ti  Ti28  1  0.91666667  0.08333333  1.00179331  1
  Ti  Ti29  1  0.91666667  0.33333333  1.00179331  1
  Ti  Ti30  1  0.91666667  0.58333333  1.00179331  1
  Ti  Ti31  1  0.91666667  0.83333333  1.00179331  1
  Ti  Ti32  1  0.08333333  0.16666667  1.33512665  1
  Ti  Ti33  1  0.08333333  0.41666667  1.33512665  1
  Ti  Ti34  1  0.08333333  0.66666667  1.33512665  1
  Ti  Ti35  1  0.08333333  0.91666667  1.33512665  1
  Ti  Ti36  1  0.33333333  0.16666667  1.33512665  1
  Ti  Ti37  1  0.33333333  0.41666667  1.33512665  1
  Ti  Ti38  1  0.33333333  0.66666667  1.33512665  1
  Ti  Ti39  1  0.33333333  0.91666667  1.33512665  1
  Ti  Ti40  1  0.58333333  0.16666667  1.33512665  1
  Ti  Ti41  1  0.58333333  0.41666667  1.33512665  1
  Ti  Ti42  1  0.58333333  0.66666667  1.33512665  1
  Ti  Ti43  1  0.58333333  0.91666667  1.33512665  1
  Ti  Ti44  1  0.83333333  0.16666667  1.33512665  1
  Ti  Ti45  1  0.83333333  0.41666667  1.33512665  1
  Ti  Ti46  1  0.83333333  0.66666667  1.33512665  1
  Ti  Ti47  1  0.83333333  0.91666667  1.33512665  1
  Ti  Ti48  1  -0.00000000  -0.00000000  0.33154002  1
  Ti  Ti49  1  -0.00000000  0.25000000  0.33154002  1
  Ti  Ti50  1  -0.00000000  0.50000000  0.33154002  1
  Ti  Ti51  1  -0.00000000  0.75000000  0.33154002  1
  Ti  Ti52  1  0.25000000  -0.00000000  0.33154002  1
  Ti  Ti53  1  0.25000000  0.25000000  0.33154002  1
  Ti  Ti54  1  0.25000000  0.50000000  0.33154002  1
  Ti  Ti55  1  0.25000000  0.75000000  0.33154002  1
  Ti  Ti56  1  0.50000000  -0.00000000  0.33154002  1
  Ti  Ti57  1  0.50000000  0.25000000  0.33154002  1
  Ti  Ti58  1  0.50000000  0.50000000  0.33154002  1
  Ti  Ti59  1  0.50000000  0.75000000  0.33154002  1
  Ti  Ti60  1  0.75000000  -0.00000000  0.33154002  1
  Ti  Ti61  1  0.75000000  0.25000000  0.33154002  1
  Ti  Ti62  1  0.75000000  0.50000000  0.33154002  1
  Ti  Ti63  1  0.75000000  0.75000000  0.33154002  1
  Ti  Ti64  1  0.16666667  0.08333333  0.66487335  1
  Ti  Ti65  1  0.16666667  0.33333333  0.66487335  1
  Ti  Ti66  1  0.16666667  0.58333333  0.66487335  1
  Ti  Ti67  1  0.16666667  0.83333333  0.66487335  1
  Ti  Ti68  1  0.41666667  0.08333333  0.66487335  1
  Ti  Ti69  1  0.41666667  0.33333333  0.66487335  1
  Ti  Ti70  1  0.41666667  0.58333333  0.66487335  1
  Ti  Ti71  1  0.41666667  0.83333333  0.66487335  1
  Ti  Ti72  1  0.66666667  0.08333333  0.66487335  1
  Ti  Ti73  1  0.66666667  0.33333333  0.66487335  1
  Ti  Ti74  1  0.66666667  0.58333333  0.66487335  1
  Ti  Ti75  1  0.66666667  0.83333333  0.66487335  1
  Ti  Ti76  1  0.91666667  0.08333333  0.66487335  1
  Ti  Ti77  1  0.91666667  0.33333333  0.66487335  1
  Ti  Ti78  1  0.91666667  0.58333333  0.66487335  1
  Ti  Ti79  1  0.91666667  0.83333333  0.66487335  1
  Ti  Ti80  1  0.08333333  0.16666667  0.99820669  1
  Ti  Ti81  1  0.08333333  0.41666667  0.99820669  1
  Ti  Ti82  1  0.08333333  0.66666667  0.99820669  1
  Ti  Ti83  1  0.08333333  0.91666667  0.99820669  1
  Ti  Ti84  1  0.33333333  0.16666667  0.99820669  1
  Ti  Ti85  1  0.33333333  0.41666667  0.99820669  1
  Ti  Ti86  1  0.33333333  0.66666667  0.99820669  1
  Ti  Ti87  1  0.33333333  0.91666667  0.99820669  1
  Ti  Ti88  1  0.58333333  0.16666667  0.99820669  1
  Ti  Ti89  1  0.58333333  0.41666667  0.99820669  1
  Ti  Ti90  1  0.58333333  0.66666667  0.99820669  1
  Ti  Ti91  1  0.58333333  0.91666667  0.99820669  1
  Ti  Ti92  1  0.83333333  0.16666667  0.99820669  1
  Ti  Ti93  1  0.83333333  0.41666667  0.99820669  1
  Ti  Ti94  1  0.83333333  0.66666667  0.99820669  1
  Ti  Ti95  1  0.83333333  0.91666667  0.99820669  1
  Sn  Sn96  1  0.00000000  -0.00000000  0.89243749  1
  Sn  Sn97  1  -0.00000000  0.25000000  0.89243749  1
  Sn  Sn98  1  -0.00000000  0.50000000  0.89243749  1
  Sn  Sn99  1  -0.00000000  0.75000000  0.89243749  1
  Sn  Sn100  1  0.25000000  -0.00000000  0.89243749  1
  Sn  Sn101  1  0.25000000  0.25000000  0.89243749  1
  Sn  Sn102  1  0.25000000  0.50000000  0.89243749  1
  Sn  Sn103  1  0.25000000  0.75000000  0.89243749  1
  Sn  Sn104  1  0.50000000  -0.00000000  0.89243749  1
  Sn  Sn105  1  0.50000000  0.25000000  0.89243749  1
  Sn  Sn106  1  0.50000000  0.50000000  0.89243749  1
  Sn  Sn107  1  0.50000000  0.75000000  0.89243749  1
  Sn  Sn108  1  0.75000000  -0.00000000  0.89243749  1
  Sn  Sn109  1  0.75000000  0.25000000  0.89243749  1
  Sn  Sn110  1  0.75000000  0.50000000  0.89243749  1
  Sn  Sn111  1  0.75000000  0.75000000  0.89243749  1
  Sn  Sn112  1  0.16666667  0.08333333  1.22577082  1
  Sn  Sn113  1  0.16666667  0.33333333  1.22577082  1
  Sn  Sn114  1  0.16666667  0.58333333  1.22577082  1
  Sn  Sn115  1  0.16666667  0.83333333  1.22577082  1
  Sn  Sn116  1  0.41666667  0.08333333  1.22577082  1
  Sn  Sn117  1  0.41666667  0.33333333  1.22577082  1
  Sn  Sn118  1  0.41666667  0.58333333  1.22577082  1
  Sn  Sn119  1  0.41666667  0.83333333  1.22577082  1
  Sn  Sn120  1  0.66666667  0.08333333  1.22577082  1
  Sn  Sn121  1  0.66666667  0.33333333  1.22577082  1
  Sn  Sn122  1  0.66666667  0.58333333  1.22577082  1
  Sn  Sn123  1  0.66666667  0.83333333  1.22577082  1
  Sn  Sn124  1  0.91666667  0.08333333  1.22577082  1
  Sn  Sn125  1  0.91666667  0.33333333  1.22577082  1
  Sn  Sn126  1  0.91666667  0.58333333  1.22577082  1
  Sn  Sn127  1  0.91666667  0.83333333  1.22577082  1
  Sn  Sn128  1  0.08333333  0.16666667  1.55910415  1
  Sn  Sn129  1  0.08333333  0.41666667  1.55910415  1
  Sn  Sn130  1  0.08333333  0.66666667  1.55910415  1
  Sn  Sn131  1  0.08333333  0.91666667  1.55910415  1
  Sn  Sn132  1  0.33333333  0.16666667  1.55910415  1
  Sn  Sn133  1  0.33333333  0.41666667  1.55910415  1
  Sn  Sn134  1  0.33333333  0.66666667  1.55910415  1
  Sn  Sn135  1  0.33333333  0.91666667  1.55910415  1
  Sn  Sn136  1  0.58333333  0.16666667  1.55910415  1
  Sn  Sn137  1  0.58333333  0.41666667  1.55910415  1
  Sn  Sn138  1  0.58333333  0.66666667  1.55910415  1
  Sn  Sn139  1  0.58333333  0.91666667  1.55910415  1
  Sn  Sn140  1  0.83333333  0.16666667  1.55910415  1
  Sn  Sn141  1  0.83333333  0.41666667  1.55910415  1
  Sn  Sn142  1  0.83333333  0.66666667  1.55910415  1
  Sn  Sn143  1  0.83333333  0.91666667  1.55910415  1
  Sn  Sn144  1  -0.00000000  -0.00000000  0.10756251  1
  Sn  Sn145  1  -0.00000000  0.25000000  0.10756251  1
  Sn  Sn146  1  -0.00000000  0.50000000  0.10756251  1
  Sn  Sn147  1  -0.00000000  0.75000000  0.10756251  1
  Sn  Sn148  1  0.25000000  -0.00000000  0.10756251  1
  Sn  Sn149  1  0.25000000  0.25000000  0.10756251  1
  Sn  Sn150  1  0.25000000  0.50000000  0.10756251  1
  Sn  Sn151  1  0.25000000  0.75000000  0.10756251  1
  Sn  Sn152  1  0.50000000  -0.00000000  0.10756251  1
  Sn  Sn153  1  0.50000000  0.25000000  0.10756251  1
  Sn  Sn154  1  0.50000000  0.50000000  0.10756251  1
  Sn  Sn155  1  0.50000000  0.75000000  0.10756251  1
  Sn  Sn156  1  0.75000000  -0.00000000  0.10756251  1
  Sn  Sn157  1  0.75000000  0.25000000  0.10756251  1
  Sn  Sn158  1  0.75000000  0.50000000  0.10756251  1
  Sn  Sn159  1  0.75000000  0.75000000  0.10756251  1
  Sn  Sn160  1  0.16666667  0.08333333  0.44089585  1
  Sn  Sn161  1  0.16666667  0.33333333  0.44089585  1
  Sn  Sn162  1  0.16666667  0.58333333  0.44089585  1
  Sn  Sn163  1  0.16666667  0.83333333  0.44089585  1
  Sn  Sn164  1  0.41666667  0.08333333  0.44089585  1
  Sn  Sn165  1  0.41666667  0.33333333  0.44089585  1
  Sn  Sn166  1  0.41666667  0.58333333  0.44089585  1
  Sn  Sn167  1  0.41666667  0.83333333  0.44089585  1
  Sn  Sn168  1  0.66666667  0.08333333  0.44089585  1
  Sn  Sn169  1  0.66666667  0.33333333  0.44089585  1
  Sn  Sn170  1  0.66666667  0.58333333  0.44089585  1
  Sn  Sn171  1  0.66666667  0.83333333  0.44089585  1
  Sn  Sn172  1  0.91666667  0.08333333  0.44089585  1
  Sn  Sn173  1  0.91666667  0.33333333  0.44089585  1
  Sn  Sn174  1  0.91666667  0.58333333  0.44089585  1
  Sn  Sn175  1  0.91666667  0.83333333  0.44089585  1
  Sn  Sn176  1  0.08333333  0.16666667  0.77422918  1
  Sn  Sn177  1  0.08333333  0.41666667  0.77422918  1
  Sn  Sn178  1  0.08333333  0.66666667  0.77422918  1
  Sn  Sn179  1  0.08333333  0.91666667  0.77422918  1
  Sn  Sn180  1  0.33333333  0.16666667  0.77422918  1
  Sn  Sn181  1  0.33333333  0.41666667  0.77422918  1
  Sn  Sn182  1  0.33333333  0.66666667  0.77422918  1
  Sn  Sn183  1  0.33333333  0.91666667  0.77422918  1
  Sn  Sn184  1  0.58333333  0.16666667  0.77422918  1
  Sn  Sn185  1  0.58333333  0.41666667  0.77422918  1
  Sn  Sn186  1  0.58333333  0.66666667  0.77422918  1
  Sn  Sn187  1  0.58333333  0.91666667  0.77422918  1
  Sn  Sn188  1  0.83333333  0.16666667  0.77422918  1
  Sn  Sn189  1  0.83333333  0.41666667  0.77422918  1
  Sn  Sn190  1  0.83333333  0.66666667  0.77422918  1
  Sn  Sn191  1  0.83333333  0.91666667  0.77422918  1
  O  O192  1  -0.00566628  0.07736772  0.61390914  1
  O  O193  1  -0.00566628  0.32736772  0.61390914  1
  O  O194  1  -0.00566628  0.57736772  0.61390914  1
  O  O195  1  -0.00566628  0.82736772  0.61390914  1
  O  O196  1  0.24433372  0.07736772  0.61390914  1
  O  O197  1  0.24433372  0.32736772  0.61390914  1
  O  O198  1  0.24433372  0.57736772  0.61390914  1
  O  O199  1  0.24433372  0.82736772  0.61390914  1
  O  O200  1  0.49433372  0.07736772  0.61390914  1
  O  O201  1  0.49433372  0.32736772  0.61390914  1
  O  O202  1  0.49433372  0.57736772  0.61390914  1
  O  O203  1  0.49433372  0.82736772  0.61390914  1
  O  O204  1  0.74433372  0.07736772  0.61390914  1
  O  O205  1  0.74433372  0.32736772  0.61390914  1
  O  O206  1  0.74433372  0.57736772  0.61390914  1
  O  O207  1  0.74433372  0.82736772  0.61390914  1
  O  O208  1  0.16100038  0.16070105  0.94724247  1
  O  O209  1  0.16100038  0.41070105  0.94724247  1
  O  O210  1  0.16100038  0.66070105  0.94724247  1
  O  O211  1  0.16100038  0.91070105  0.94724247  1
  O  O212  1  0.41100038  0.16070105  0.94724247  1
  O  O213  1  0.41100038  0.41070105  0.94724247  1
  O  O214  1  0.41100038  0.66070105  0.94724247  1
  O  O215  1  0.41100038  0.91070105  0.94724247  1
  O  O216  1  0.66100038  0.16070105  0.94724247  1
  O  O217  1  0.66100038  0.41070105  0.94724247  1
  O  O218  1  0.66100038  0.66070105  0.94724247  1
  O  O219  1  0.66100038  0.91070105  0.94724247  1
  O  O220  1  0.91100038  0.16070105  0.94724247  1
  O  O221  1  0.91100038  0.41070105  0.94724247  1
  O  O222  1  0.91100038  0.66070105  0.94724247  1
  O  O223  1  0.91100038  0.91070105  0.94724247  1
  O  O224  1  0.07766705  0.24403439  1.28057580  1
  O  O225  1  0.07766705  0.49403439  1.28057580  1
  O  O226  1  0.07766705  0.74403439  1.28057580  1
  O  O227  1  0.07766705  0.99403439  1.28057580  1
  O  O228  1  0.32766705  0.24403439  1.28057580  1
  O  O229  1  0.32766705  0.49403439  1.28057580  1
  O  O230  1  0.32766705  0.74403439  1.28057580  1
  O  O231  1  0.32766705  0.99403439  1.28057580  1
  O  O232  1  0.57766705  0.24403439  1.28057580  1
  O  O233  1  0.57766705  0.49403439  1.28057580  1
  O  O234  1  0.57766705  0.74403439  1.28057580  1
  O  O235  1  0.57766705  0.99403439  1.28057580  1
  O  O236  1  0.82766705  0.24403439  1.28057580  1
  O  O237  1  0.82766705  0.49403439  1.28057580  1
  O  O238  1  0.82766705  0.74403439  1.28057580  1
  O  O239  1  0.82766705  0.99403439  1.28057580  1
  O  O240  1  -0.07736772  -0.08303400  0.61390914  1
  O  O241  1  -0.07736772  0.16696600  0.61390914  1
  O  O242  1  -0.07736772  0.41696600  0.61390914  1
  O  O243  1  -0.07736772  0.66696600  0.61390914  1
  O  O244  1  0.17263228  -0.08303400  0.61390914  1
  O  O245  1  0.17263228  0.16696600  0.61390914  1
  O  O246  1  0.17263228  0.41696600  0.61390914  1
  O  O247  1  0.17263228  0.66696600  0.61390914  1
  O  O248  1  0.42263228  -0.08303400  0.61390914  1
  O  O249  1  0.42263228  0.16696600  0.61390914  1
  O  O250  1  0.42263228  0.41696600  0.61390914  1
  O  O251  1  0.42263228  0.66696600  0.61390914  1
  O  O252  1  0.67263228  -0.08303400  0.61390914  1
  O  O253  1  0.67263228  0.16696600  0.61390914  1
  O  O254  1  0.67263228  0.41696600  0.61390914  1
  O  O255  1  0.67263228  0.66696600  0.61390914  1
  O  O256  1  0.08929895  0.00029933  0.94724247  1
  O  O257  1  0.08929895  0.25029933  0.94724247  1
  O  O258  1  0.08929895  0.50029933  0.94724247  1
  O  O259  1  0.08929895  0.75029933  0.94724247  1
  O  O260  1  0.33929895  0.00029933  0.94724247  1
  O  O261  1  0.33929895  0.25029933  0.94724247  1
  O  O262  1  0.33929895  0.50029933  0.94724247  1
  O  O263  1  0.33929895  0.75029933  0.94724247  1
  O  O264  1  0.58929895  0.00029933  0.94724247  1
  O  O265  1  0.58929895  0.25029933  0.94724247  1
  O  O266  1  0.58929895  0.50029933  0.94724247  1
  O  O267  1  0.58929895  0.75029933  0.94724247  1
  O  O268  1  0.83929895  0.00029933  0.94724247  1
  O  O269  1  0.83929895  0.25029933  0.94724247  1
  O  O270  1  0.83929895  0.50029933  0.94724247  1
  O  O271  1  0.83929895  0.75029933  0.94724247  1
  O  O272  1  0.00596561  0.08363266  1.28057580  1
  O  O273  1  0.00596561  0.33363266  1.28057580  1
  O  O274  1  0.00596561  0.58363266  1.28057580  1
  O  O275  1  0.00596561  0.83363266  1.28057580  1
  O  O276  1  0.25596561  0.08363266  1.28057580  1
  O  O277  1  0.25596561  0.33363266  1.28057580  1
  O  O278  1  0.25596561  0.58363266  1.28057580  1
  O  O279  1  0.25596561  0.83363266  1.28057580  1
  O  O280  1  0.50596561  0.08363266  1.28057580  1
  O  O281  1  0.50596561  0.33363266  1.28057580  1
  O  O282  1  0.50596561  0.58363266  1.28057580  1
  O  O283  1  0.50596561  0.83363266  1.28057580  1
  O  O284  1  0.75596561  0.08363266  1.28057580  1
  O  O285  1  0.75596561  0.33363266  1.28057580  1
  O  O286  1  0.75596561  0.58363266  1.28057580  1
  O  O287  1  0.75596561  0.83363266  1.28057580  1
  O  O288  1  -0.08303400  -0.00566628  0.38609086  1
  O  O289  1  -0.08303400  0.24433372  0.38609086  1
  O  O290  1  -0.08303400  0.49433372  0.38609086  1
  O  O291  1  -0.08303400  0.74433372  0.38609086  1
  O  O292  1  0.16696600  -0.00566628  0.38609086  1
  O  O293  1  0.16696600  0.24433372  0.38609086  1
  O  O294  1  0.16696600  0.49433372  0.38609086  1
  O  O295  1  0.16696600  0.74433372  0.38609086  1
  O  O296  1  0.41696600  -0.00566628  0.38609086  1
  O  O297  1  0.41696600  0.24433372  0.38609086  1
  O  O298  1  0.41696600  0.49433372  0.38609086  1
  O  O299  1  0.41696600  0.74433372  0.38609086  1
  O  O300  1  0.66696600  -0.00566628  0.38609086  1
  O  O301  1  0.66696600  0.24433372  0.38609086  1
  O  O302  1  0.66696600  0.49433372  0.38609086  1
  O  O303  1  0.66696600  0.74433372  0.38609086  1
  O  O304  1  0.08363266  0.07766705  0.71942420  1
  O  O305  1  0.08363266  0.32766705  0.71942420  1
  O  O306  1  0.08363266  0.57766705  0.71942420  1
  O  O307  1  0.08363266  0.82766705  0.71942420  1
  O  O308  1  0.33363266  0.07766705  0.71942420  1
  O  O309  1  0.33363266  0.32766705  0.71942420  1
  O  O310  1  0.33363266  0.57766705  0.71942420  1
  O  O311  1  0.33363266  0.82766705  0.71942420  1
  O  O312  1  0.58363266  0.07766705  0.71942420  1
  O  O313  1  0.58363266  0.32766705  0.71942420  1
  O  O314  1  0.58363266  0.57766705  0.71942420  1
  O  O315  1  0.58363266  0.82766705  0.71942420  1
  O  O316  1  0.83363266  0.07766705  0.71942420  1
  O  O317  1  0.83363266  0.32766705  0.71942420  1
  O  O318  1  0.83363266  0.57766705  0.71942420  1
  O  O319  1  0.83363266  0.82766705  0.71942420  1
  O  O320  1  0.00029933  0.16100038  1.05275753  1
  O  O321  1  0.00029933  0.41100038  1.05275753  1
  O  O322  1  0.00029933  0.66100038  1.05275753  1
  O  O323  1  0.00029933  0.91100038  1.05275753  1
  O  O324  1  0.25029933  0.16100038  1.05275753  1
  O  O325  1  0.25029933  0.41100038  1.05275753  1
  O  O326  1  0.25029933  0.66100038  1.05275753  1
  O  O327  1  0.25029933  0.91100038  1.05275753  1
  O  O328  1  0.50029933  0.16100038  1.05275753  1
  O  O329  1  0.50029933  0.41100038  1.05275753  1
  O  O330  1  0.50029933  0.66100038  1.05275753  1
  O  O331  1  0.50029933  0.91100038  1.05275753  1
  O  O332  1  0.75029933  0.16100038  1.05275753  1
  O  O333  1  0.75029933  0.41100038  1.05275753  1
  O  O334  1  0.75029933  0.66100038  1.05275753  1
  O  O335  1  0.75029933  0.91100038  1.05275753  1
  O  O336  1  0.08303400  0.00566628  0.61390914  1
  O  O337  1  0.08303400  0.25566628  0.61390914  1
  O  O338  1  0.08303400  0.50566628  0.61390914  1
  O  O339  1  0.08303400  0.75566628  0.61390914  1
  O  O340  1  0.33303400  0.00566628  0.61390914  1
  O  O341  1  0.33303400  0.25566628  0.61390914  1
  O  O342  1  0.33303400  0.50566628  0.61390914  1
  O  O343  1  0.33303400  0.75566628  0.61390914  1
  O  O344  1  0.58303400  0.00566628  0.61390914  1
  O  O345  1  0.58303400  0.25566628  0.61390914  1
  O  O346  1  0.58303400  0.50566628  0.61390914  1
  O  O347  1  0.58303400  0.75566628  0.61390914  1
  O  O348  1  0.83303400  0.00566628  0.61390914  1
  O  O349  1  0.83303400  0.25566628  0.61390914  1
  O  O350  1  0.83303400  0.50566628  0.61390914  1
  O  O351  1  0.83303400  0.75566628  0.61390914  1
  O  O352  1  0.24970067  0.08899962  0.94724247  1
  O  O353  1  0.24970067  0.33899962  0.94724247  1
  O  O354  1  0.24970067  0.58899962  0.94724247  1
  O  O355  1  0.24970067  0.83899962  0.94724247  1
  O  O356  1  0.49970067  0.08899962  0.94724247  1
  O  O357  1  0.49970067  0.33899962  0.94724247  1
  O  O358  1  0.49970067  0.58899962  0.94724247  1
  O  O359  1  0.49970067  0.83899962  0.94724247  1
  O  O360  1  0.74970067  0.08899962  0.94724247  1
  O  O361  1  0.74970067  0.33899962  0.94724247  1
  O  O362  1  0.74970067  0.58899962  0.94724247  1
  O  O363  1  0.74970067  0.83899962  0.94724247  1
  O  O364  1  0.99970067  0.08899962  0.94724247  1
  O  O365  1  0.99970067  0.33899962  0.94724247  1
  O  O366  1  0.99970067  0.58899962  0.94724247  1
  O  O367  1  0.99970067  0.83899962  0.94724247  1
  O  O368  1  0.16636734  0.17233295  1.28057580  1
  O  O369  1  0.16636734  0.42233295  1.28057580  1
  O  O370  1  0.16636734  0.67233295  1.28057580  1
  O  O371  1  0.16636734  0.92233295  1.28057580  1
  O  O372  1  0.41636734  0.17233295  1.28057580  1
  O  O373  1  0.41636734  0.42233295  1.28057580  1
  O  O374  1  0.41636734  0.67233295  1.28057580  1
  O  O375  1  0.41636734  0.92233295  1.28057580  1
  O  O376  1  0.66636734  0.17233295  1.28057580  1
  O  O377  1  0.66636734  0.42233295  1.28057580  1
  O  O378  1  0.66636734  0.67233295  1.28057580  1
  O  O379  1  0.66636734  0.92233295  1.28057580  1
  O  O380  1  0.91636734  0.17233295  1.28057580  1
  O  O381  1  0.91636734  0.42233295  1.28057580  1
  O  O382  1  0.91636734  0.67233295  1.28057580  1
  O  O383  1  0.91636734  0.92233295  1.28057580  1
  O  O384  1  0.07736772  0.08303400  0.38609086  1
  O  O385  1  0.07736772  0.33303400  0.38609086  1
  O  O386  1  0.07736772  0.58303400  0.38609086  1
  O  O387  1  0.07736772  0.83303400  0.38609086  1
  O  O388  1  0.32736772  0.08303400  0.38609086  1
  O  O389  1  0.32736772  0.33303400  0.38609086  1
  O  O390  1  0.32736772  0.58303400  0.38609086  1
  O  O391  1  0.32736772  0.83303400  0.38609086  1
  O  O392  1  0.57736772  0.08303400  0.38609086  1
  O  O393  1  0.57736772  0.33303400  0.38609086  1
  O  O394  1  0.57736772  0.58303400  0.38609086  1
  O  O395  1  0.57736772  0.83303400  0.38609086  1
  O  O396  1  0.82736772  0.08303400  0.38609086  1
  O  O397  1  0.82736772  0.33303400  0.38609086  1
  O  O398  1  0.82736772  0.58303400  0.38609086  1
  O  O399  1  0.82736772  0.83303400  0.38609086  1
  O  O400  1  0.24403439  0.16636734  0.71942420  1
  O  O401  1  0.24403439  0.41636734  0.71942420  1
  O  O402  1  0.24403439  0.66636734  0.71942420  1
  O  O403  1  0.24403439  0.91636734  0.71942420  1
  O  O404  1  0.49403439  0.16636734  0.71942420  1
  O  O405  1  0.49403439  0.41636734  0.71942420  1
  O  O406  1  0.49403439  0.66636734  0.71942420  1
  O  O407  1  0.49403439  0.91636734  0.71942420  1
  O  O408  1  0.74403439  0.16636734  0.71942420  1
  O  O409  1  0.74403439  0.41636734  0.71942420  1
  O  O410  1  0.74403439  0.66636734  0.71942420  1
  O  O411  1  0.74403439  0.91636734  0.71942420  1
  O  O412  1  0.99403439  0.16636734  0.71942420  1
  O  O413  1  0.99403439  0.41636734  0.71942420  1
  O  O414  1  0.99403439  0.66636734  0.71942420  1
  O  O415  1  0.99403439  0.91636734  0.71942420  1
  O  O416  1  0.16070105  0.24970067  1.05275753  1
  O  O417  1  0.16070105  0.49970067  1.05275753  1
  O  O418  1  0.16070105  0.74970067  1.05275753  1
  O  O419  1  0.16070105  0.99970067  1.05275753  1
  O  O420  1  0.41070105  0.24970067  1.05275753  1
  O  O421  1  0.41070105  0.49970067  1.05275753  1
  O  O422  1  0.41070105  0.74970067  1.05275753  1
  O  O423  1  0.41070105  0.99970067  1.05275753  1
  O  O424  1  0.66070105  0.24970067  1.05275753  1
  O  O425  1  0.66070105  0.49970067  1.05275753  1
  O  O426  1  0.66070105  0.74970067  1.05275753  1
  O  O427  1  0.66070105  0.99970067  1.05275753  1
  O  O428  1  0.91070105  0.24970067  1.05275753  1
  O  O429  1  0.91070105  0.49970067  1.05275753  1
  O  O430  1  0.91070105  0.74970067  1.05275753  1
  O  O431  1  0.91070105  0.99970067  1.05275753  1
  O  O432  1  0.00566628  -0.07736772  0.38609086  1
  O  O433  1  0.00566628  0.17263228  0.38609086  1
  O  O434  1  0.00566628  0.42263228  0.38609086  1
  O  O435  1  0.00566628  0.67263228  0.38609086  1
  O  O436  1  0.25566628  -0.07736772  0.38609086  1
  O  O437  1  0.25566628  0.17263228  0.38609086  1
  O  O438  1  0.25566628  0.42263228  0.38609086  1
  O  O439  1  0.25566628  0.67263228  0.38609086  1
  O  O440  1  0.50566628  -0.07736772  0.38609086  1
  O  O441  1  0.50566628  0.17263228  0.38609086  1
  O  O442  1  0.50566628  0.42263228  0.38609086  1
  O  O443  1  0.50566628  0.67263228  0.38609086  1
  O  O444  1  0.75566628  -0.07736772  0.38609086  1
  O  O445  1  0.75566628  0.17263228  0.38609086  1
  O  O446  1  0.75566628  0.42263228  0.38609086  1
  O  O447  1  0.75566628  0.67263228  0.38609086  1
  O  O448  1  0.17233295  0.00596561  0.71942420  1
  O  O449  1  0.17233295  0.25596561  0.71942420  1
  O  O450  1  0.17233295  0.50596561  0.71942420  1
  O  O451  1  0.17233295  0.75596561  0.71942420  1
  O  O452  1  0.42233295  0.00596561  0.71942420  1
  O  O453  1  0.42233295  0.25596561  0.71942420  1
  O  O454  1  0.42233295  0.50596561  0.71942420  1
  O  O455  1  0.42233295  0.75596561  0.71942420  1
  O  O456  1  0.67233295  0.00596561  0.71942420  1
  O  O457  1  0.67233295  0.25596561  0.71942420  1
  O  O458  1  0.67233295  0.50596561  0.71942420  1
  O  O459  1  0.67233295  0.75596561  0.71942420  1
  O  O460  1  0.92233295  0.00596561  0.71942420  1
  O  O461  1  0.92233295  0.25596561  0.71942420  1
  O  O462  1  0.92233295  0.50596561  0.71942420  1
  O  O463  1  0.92233295  0.75596561  0.71942420  1
  O  O464  1  0.08899962  0.08929895  1.05275753  1
  O  O465  1  0.08899962  0.33929895  1.05275753  1
  O  O466  1  0.08899962  0.58929895  1.05275753  1
  O  O467  1  0.08899962  0.83929895  1.05275753  1
  O  O468  1  0.33899962  0.08929895  1.05275753  1
  O  O469  1  0.33899962  0.33929895  1.05275753  1
  O  O470  1  0.33899962  0.58929895  1.05275753  1
  O  O471  1  0.33899962  0.83929895  1.05275753  1
  O  O472  1  0.58899962  0.08929895  1.05275753  1
  O  O473  1  0.58899962  0.33929895  1.05275753  1
  O  O474  1  0.58899962  0.58929895  1.05275753  1
  O  O475  1  0.58899962  0.83929895  1.05275753  1
  O  O476  1  0.83899962  0.08929895  1.05275753  1
  O  O477  1  0.83899962  0.33929895  1.05275753  1
  O  O478  1  0.83899962  0.58929895  1.05275753  1
  O  O479  1  0.83899962  0.83929895  1.05275753  1
