# generated using pymatgen
data_NaSr3BiO6
_symmetry_space_group_name_H-M   'P 1'
_cell_length_a   9.93020455
_cell_length_b   9.93020455
_cell_length_c   11.71147831
_cell_angle_alpha   90.00000000
_cell_angle_beta   90.00000000
_cell_angle_gamma   120.00000000
_symmetry_Int_Tables_number   1
_chemical_formula_structural   NaSr3BiO6
_chemical_formula_sum   'Na6 Sr18 Bi6 O36'
_cell_volume   1000.13526058
_cell_formula_units_Z   6
loop_
 _symmetry_equiv_pos_site_id
 _symmetry_equiv_pos_as_xyz
  1  'x, y, z'
loop_
 _atom_site_type_symbol
 _atom_site_label
 _atom_site_symmetry_multiplicity
 _atom_site_fract_x
 _atom_site_fract_y
 _atom_site_fract_z
 _atom_site_occupancy
  Na  Na0  1  -0.00000000  -0.00000000  0.25000000  1
  Na  Na1  1  0.66666667  0.33333333  0.58333333  1
  Na  Na2  1  0.33333333  0.66666667  0.91666667  1
  Na  Na3  1  0.00000000  0.00000000  0.75000000  1
  Na  Na4  1  0.66666667  0.33333333  1.08333333  1
  Na  Na5  1  0.33333333  0.66666667  1.41666667  1
  Sr  Sr6  1  0.33333333  0.01725052  0.41666667  1
  Sr  Sr7  1  1.00000000  0.35058385  0.75000000  1
  Sr  Sr8  1  0.66666667  0.68391719  1.08333333  1
  Sr  Sr9  1  0.31608281  0.33333333  0.58333333  1
  Sr  Sr10  1  0.98274948  0.66666667  0.91666667  1
  Sr  Sr11  1  0.64941615  1.00000000  1.25000000  1
  Sr  Sr12  1  -0.31608281  -0.33333333  0.41666667  1
  Sr  Sr13  1  0.35058385  0.00000000  0.75000000  1
  Sr  Sr14  1  0.01725052  0.33333333  1.08333333  1
  Sr  Sr15  1  -0.33333333  -0.01725052  0.58333333  1
  Sr  Sr16  1  0.33333333  0.31608281  0.91666667  1
  Sr  Sr17  1  -0.00000000  0.64941615  1.25000000  1
  Sr  Sr18  1  -0.01725052  0.31608281  0.41666667  1
  Sr  Sr19  1  0.64941615  0.64941615  0.75000000  1
  Sr  Sr20  1  0.31608281  0.98274948  1.08333333  1
  Sr  Sr21  1  0.01725052  -0.31608281  0.58333333  1
  Sr  Sr22  1  0.68391719  0.01725052  0.91666667  1
  Sr  Sr23  1  0.35058385  0.35058385  1.25000000  1
  Bi  Bi24  1  -0.00000000  -0.00000000  -0.00000000  1
  Bi  Bi25  1  0.66666667  0.33333333  0.33333333  1
  Bi  Bi26  1  0.33333333  0.66666667  0.66666667  1
  Bi  Bi27  1  0.00000000  0.00000000  0.50000000  1
  Bi  Bi28  1  0.66666667  0.33333333  0.83333333  1
  Bi  Bi29  1  0.33333333  0.66666667  1.16666667  1
  O  O30  1  -0.03056572  0.15825677  0.60409985  1
  O  O31  1  0.63610095  0.49159010  0.93743319  1
  O  O32  1  0.30276761  0.82492344  1.27076652  1
  O  O33  1  0.18882249  0.03056572  0.60409985  1
  O  O34  1  0.85548916  0.36389905  0.93743319  1
  O  O35  1  0.52215582  0.69723239  1.27076652  1
  O  O36  1  -0.18882249  -0.03056572  0.39590015  1
  O  O37  1  0.47784418  0.30276761  0.72923348  1
  O  O38  1  0.14451084  0.63610095  1.06256681  1
  O  O39  1  -0.36389905  0.14451084  0.43743319  1
  O  O40  1  0.30276761  0.47784418  0.77076652  1
  O  O41  1  -0.03056572  0.81117751  1.10409985  1
  O  O42  1  0.15825677  0.18882249  0.39590015  1
  O  O43  1  0.82492344  0.52215582  0.72923348  1
  O  O44  1  0.49159010  0.85548916  1.06256681  1
  O  O45  1  0.03056572  -0.15825677  0.39590015  1
  O  O46  1  0.69723239  0.17507656  0.72923348  1
  O  O47  1  0.36389905  0.50840990  1.06256681  1
  O  O48  1  0.50840990  0.36389905  0.43743319  1
  O  O49  1  1.17507656  0.69723239  0.77076652  1
  O  O50  1  0.84174323  1.03056572  1.10409985  1
  O  O51  1  -0.14451084  -0.50840990  0.43743319  1
  O  O52  1  0.52215582  -0.17507656  0.77076652  1
  O  O53  1  0.18882249  0.15825677  1.10409985  1
  O  O54  1  0.36389905  -0.14451084  0.56256681  1
  O  O55  1  1.03056572  0.18882249  0.89590015  1
  O  O56  1  0.69723239  0.52215582  1.22923348  1
  O  O57  1  -0.15825677  -0.18882249  0.60409985  1
  O  O58  1  0.50840990  0.14451084  0.93743319  1
  O  O59  1  0.17507656  0.47784418  1.27076652  1
  O  O60  1  -0.50840990  -0.36389905  0.56256681  1
  O  O61  1  0.15825677  -0.03056572  0.89590015  1
  O  O62  1  -0.17507656  0.30276761  1.22923348  1
  O  O63  1  0.14451084  0.50840990  0.56256681  1
  O  O64  1  0.81117751  0.84174323  0.89590015  1
  O  O65  1  0.47784418  1.17507656  1.22923348  1
