# generated using pymatgen
data_CsNb2BiO7
_symmetry_space_group_name_H-M   'P 1'
_cell_length_a   11.42924953
_cell_length_b   10.83091079
_cell_length_c   10.99923611
_cell_angle_alpha   90.00000000
_cell_angle_beta   90.00000000
_cell_angle_gamma   90.00000000
_symmetry_Int_Tables_number   1
_chemical_formula_structural   CsNb2BiO7
_chemical_formula_sum   'Cs8 Nb16 Bi8 O56'
_cell_volume   1361.58644189
_cell_formula_units_Z   8
loop_
 _symmetry_equiv_pos_site_id
 _symmetry_equiv_pos_as_xyz
  1  'x, y, z'
loop_
 _atom_site_type_symbol
 _atom_site_label
 _atom_site_symmetry_multiplicity
 _atom_site_fract_x
 _atom_site_fract_y
 _atom_site_fract_z
 _atom_site_occupancy
  Cs  Cs0  1  0.50000000  0.12935784  0.12132728  1
  Cs  Cs1  1  0.50000000  0.12935784  0.62132728  1
  Cs  Cs2  1  0.50000000  0.62935784  0.12132728  1
  Cs  Cs3  1  0.50000000  0.62935784  0.62132728  1
  Cs  Cs4  1  0.50000000  0.37064216  0.37132728  1
  Cs  Cs5  1  0.50000000  0.37064216  0.87132728  1
  Cs  Cs6  1  0.50000000  0.87064216  0.37132728  1
  Cs  Cs7  1  0.50000000  0.87064216  0.87132728  1
  Nb  Nb8  1  0.79459024  0.12380671  0.37737685  1
  Nb  Nb9  1  0.79459024  0.12380671  0.87737685  1
  Nb  Nb10  1  0.79459024  0.62380671  0.37737685  1
  Nb  Nb11  1  0.79459024  0.62380671  0.87737685  1
  Nb  Nb12  1  0.20540976  0.37619329  0.12737685  1
  Nb  Nb13  1  0.20540976  0.37619329  0.62737685  1
  Nb  Nb14  1  0.20540976  0.87619329  0.12737685  1
  Nb  Nb15  1  0.20540976  0.87619329  0.62737685  1
  Nb  Nb16  1  0.79459024  0.37619329  0.12737685  1
  Nb  Nb17  1  0.79459024  0.37619329  0.62737685  1
  Nb  Nb18  1  0.79459024  0.87619329  0.12737685  1
  Nb  Nb19  1  0.79459024  0.87619329  0.62737685  1
  Nb  Nb20  1  0.20540976  0.12380671  0.37737685  1
  Nb  Nb21  1  0.20540976  0.12380671  0.87737685  1
  Nb  Nb22  1  0.20540976  0.62380671  0.37737685  1
  Nb  Nb23  1  0.20540976  0.62380671  0.87737685  1
  Bi  Bi24  1  0.00000000  0.13317619  0.09715455  1
  Bi  Bi25  1  0.00000000  0.13317619  0.59715455  1
  Bi  Bi26  1  0.00000000  0.63317619  0.09715455  1
  Bi  Bi27  1  0.00000000  0.63317619  0.59715455  1
  Bi  Bi28  1  0.00000000  0.36682381  0.34715455  1
  Bi  Bi29  1  0.00000000  0.36682381  0.84715455  1
  Bi  Bi30  1  0.00000000  0.86682381  0.34715455  1
  Bi  Bi31  1  0.00000000  0.86682381  0.84715455  1
  O  O32  1  0.81309631  0.21877555  0.03981657  1
  O  O33  1  0.81309631  0.21877555  0.53981657  1
  O  O34  1  0.81309631  0.71877555  0.03981657  1
  O  O35  1  0.81309631  0.71877555  0.53981657  1
  O  O36  1  0.84738855  0.48136669  0.49095653  1
  O  O37  1  0.84738855  0.48136669  0.99095653  1
  O  O38  1  0.84738855  0.98136669  0.49095653  1
  O  O39  1  0.84738855  0.98136669  0.99095653  1
  O  O40  1  0.36117006  0.39220661  0.12358720  1
  O  O41  1  0.36117006  0.39220661  0.62358720  1
  O  O42  1  0.36117006  0.89220661  0.12358720  1
  O  O43  1  0.36117006  0.89220661  0.62358720  1
  O  O44  1  0.15261145  0.48136669  0.49095653  1
  O  O45  1  0.15261145  0.48136669  0.99095653  1
  O  O46  1  0.15261145  0.98136669  0.49095653  1
  O  O47  1  0.15261145  0.98136669  0.99095653  1
  O  O48  1  0.15261145  0.01863331  0.24095653  1
  O  O49  1  0.15261145  0.01863331  0.74095653  1
  O  O50  1  0.15261145  0.51863331  0.24095653  1
  O  O51  1  0.15261145  0.51863331  0.74095653  1
  O  O52  1  0.00000000  0.33582097  0.14654437  1
  O  O53  1  0.00000000  0.33582097  0.64654437  1
  O  O54  1  0.00000000  0.83582097  0.14654437  1
  O  O55  1  0.00000000  0.83582097  0.64654437  1
  O  O56  1  0.63882994  0.10779339  0.37358720  1
  O  O57  1  0.63882994  0.10779339  0.87358720  1
  O  O58  1  0.63882994  0.60779339  0.37358720  1
  O  O59  1  0.63882994  0.60779339  0.87358720  1
  O  O60  1  0.81309631  0.28122445  0.28981657  1
  O  O61  1  0.81309631  0.28122445  0.78981657  1
  O  O62  1  0.81309631  0.78122445  0.28981657  1
  O  O63  1  0.81309631  0.78122445  0.78981657  1
  O  O64  1  0.00000000  0.16417903  0.39654437  1
  O  O65  1  0.00000000  0.16417903  0.89654437  1
  O  O66  1  0.00000000  0.66417903  0.39654437  1
  O  O67  1  0.00000000  0.66417903  0.89654437  1
  O  O68  1  0.18690369  0.28122445  0.28981657  1
  O  O69  1  0.18690369  0.28122445  0.78981657  1
  O  O70  1  0.18690369  0.78122445  0.28981657  1
  O  O71  1  0.18690369  0.78122445  0.78981657  1
  O  O72  1  0.63882994  0.39220661  0.12358720  1
  O  O73  1  0.63882994  0.39220661  0.62358720  1
  O  O74  1  0.63882994  0.89220661  0.12358720  1
  O  O75  1  0.63882994  0.89220661  0.62358720  1
  O  O76  1  0.36117006  0.10779339  0.37358720  1
  O  O77  1  0.36117006  0.10779339  0.87358720  1
  O  O78  1  0.36117006  0.60779339  0.37358720  1
  O  O79  1  0.36117006  0.60779339  0.87358720  1
  O  O80  1  0.18690369  0.21877555  0.03981657  1
  O  O81  1  0.18690369  0.21877555  0.53981657  1
  O  O82  1  0.18690369  0.71877555  0.03981657  1
  O  O83  1  0.18690369  0.71877555  0.53981657  1
  O  O84  1  0.84738855  0.01863331  0.24095653  1
  O  O85  1  0.84738855  0.01863331  0.74095653  1
  O  O86  1  0.84738855  0.51863331  0.24095653  1
  O  O87  1  0.84738855  0.51863331  0.74095653  1
