# generated using pymatgen
data_CaAgAsO4
_symmetry_space_group_name_H-M   'P 1'
_cell_length_a   17.52430310
_cell_length_b   18.80041398
_cell_length_c   13.99968007
_cell_angle_alpha   90.00000000
_cell_angle_beta   90.00000000
_cell_angle_gamma   90.00000000
_symmetry_Int_Tables_number   1
_chemical_formula_structural   CaAgAsO4
_chemical_formula_sum   'Ca48 Ag48 As48 O192'
_cell_volume   4612.39273344
_cell_formula_units_Z   48
loop_
 _symmetry_equiv_pos_site_id
 _symmetry_equiv_pos_as_xyz
  1  'x, y, z'
loop_
 _atom_site_type_symbol
 _atom_site_label
 _atom_site_symmetry_multiplicity
 _atom_site_fract_x
 _atom_site_fract_y
 _atom_site_fract_z
 _atom_site_occupancy
  Ca  Ca0  1  0.00000000  0.00000000  0.25000000  1
  Ca  Ca1  1  0.00000000  0.00000000  0.75000000  1
  Ca  Ca2  1  0.00000000  0.50000000  0.25000000  1
  Ca  Ca3  1  0.00000000  0.50000000  0.75000000  1
  Ca  Ca4  1  0.33333333  0.00000000  0.25000000  1
  Ca  Ca5  1  0.33333333  0.00000000  0.75000000  1
  Ca  Ca6  1  0.33333333  0.50000000  0.25000000  1
  Ca  Ca7  1  0.33333333  0.50000000  0.75000000  1
  Ca  Ca8  1  0.66666667  0.00000000  0.25000000  1
  Ca  Ca9  1  0.66666667  0.00000000  0.75000000  1
  Ca  Ca10  1  0.66666667  0.50000000  0.25000000  1
  Ca  Ca11  1  0.66666667  0.50000000  0.75000000  1
  Ca  Ca12  1  0.16666667  0.25000000  0.25000000  1
  Ca  Ca13  1  0.16666667  0.25000000  0.75000000  1
  Ca  Ca14  1  0.16666667  0.75000000  0.25000000  1
  Ca  Ca15  1  0.16666667  0.75000000  0.75000000  1
  Ca  Ca16  1  0.50000000  0.25000000  0.25000000  1
  Ca  Ca17  1  0.50000000  0.25000000  0.75000000  1
  Ca  Ca18  1  0.50000000  0.75000000  0.25000000  1
  Ca  Ca19  1  0.50000000  0.75000000  0.75000000  1
  Ca  Ca20  1  0.83333333  0.25000000  0.25000000  1
  Ca  Ca21  1  0.83333333  0.25000000  0.75000000  1
  Ca  Ca22  1  0.83333333  0.75000000  0.25000000  1
  Ca  Ca23  1  0.83333333  0.75000000  0.75000000  1
  Ca  Ca24  1  0.00000000  0.00000000  0.00000000  1
  Ca  Ca25  1  0.00000000  0.00000000  0.50000000  1
  Ca  Ca26  1  0.00000000  0.50000000  0.00000000  1
  Ca  Ca27  1  0.00000000  0.50000000  0.50000000  1
  Ca  Ca28  1  0.33333333  0.00000000  0.00000000  1
  Ca  Ca29  1  0.33333333  0.00000000  0.50000000  1
  Ca  Ca30  1  0.33333333  0.50000000  0.00000000  1
  Ca  Ca31  1  0.33333333  0.50000000  0.50000000  1
  Ca  Ca32  1  0.66666667  0.00000000  0.00000000  1
  Ca  Ca33  1  0.66666667  0.00000000  0.50000000  1
  Ca  Ca34  1  0.66666667  0.50000000  0.00000000  1
  Ca  Ca35  1  0.66666667  0.50000000  0.50000000  1
  Ca  Ca36  1  0.16666667  0.25000000  0.00000000  1
  Ca  Ca37  1  0.16666667  0.25000000  0.50000000  1
  Ca  Ca38  1  0.16666667  0.75000000  0.00000000  1
  Ca  Ca39  1  0.16666667  0.75000000  0.50000000  1
  Ca  Ca40  1  0.50000000  0.25000000  0.00000000  1
  Ca  Ca41  1  0.50000000  0.25000000  0.50000000  1
  Ca  Ca42  1  0.50000000  0.75000000  0.00000000  1
  Ca  Ca43  1  0.50000000  0.75000000  0.50000000  1
  Ca  Ca44  1  0.83333333  0.25000000  0.00000000  1
  Ca  Ca45  1  0.83333333  0.25000000  0.50000000  1
  Ca  Ca46  1  0.83333333  0.75000000  0.00000000  1
  Ca  Ca47  1  0.83333333  0.75000000  0.50000000  1
  Ag  Ag48  1  0.16666667  0.09370339  0.37500000  1
  Ag  Ag49  1  0.16666667  0.09370339  0.87500000  1
  Ag  Ag50  1  0.16666667  0.59370339  0.37500000  1
  Ag  Ag51  1  0.16666667  0.59370339  0.87500000  1
  Ag  Ag52  1  0.50000000  0.09370339  0.37500000  1
  Ag  Ag53  1  0.50000000  0.09370339  0.87500000  1
  Ag  Ag54  1  0.50000000  0.59370339  0.37500000  1
  Ag  Ag55  1  0.50000000  0.59370339  0.87500000  1
  Ag  Ag56  1  0.83333333  0.09370339  0.37500000  1
  Ag  Ag57  1  0.83333333  0.09370339  0.87500000  1
  Ag  Ag58  1  0.83333333  0.59370339  0.37500000  1
  Ag  Ag59  1  0.83333333  0.59370339  0.87500000  1
  Ag  Ag60  1  0.33333333  0.34370339  0.37500000  1
  Ag  Ag61  1  0.33333333  0.34370339  0.87500000  1
  Ag  Ag62  1  0.33333333  0.84370339  0.37500000  1
  Ag  Ag63  1  0.33333333  0.84370339  0.87500000  1
  Ag  Ag64  1  0.66666667  0.34370339  0.37500000  1
  Ag  Ag65  1  0.66666667  0.34370339  0.87500000  1
  Ag  Ag66  1  0.66666667  0.84370339  0.37500000  1
  Ag  Ag67  1  0.66666667  0.84370339  0.87500000  1
  Ag  Ag68  1  1.00000000  0.34370339  0.37500000  1
  Ag  Ag69  1  1.00000000  0.34370339  0.87500000  1
  Ag  Ag70  1  1.00000000  0.84370339  0.37500000  1
  Ag  Ag71  1  1.00000000  0.84370339  0.87500000  1
  Ag  Ag72  1  0.16666667  -0.09370339  0.12500000  1
  Ag  Ag73  1  0.16666667  -0.09370339  0.62500000  1
  Ag  Ag74  1  0.16666667  0.40629661  0.12500000  1
  Ag  Ag75  1  0.16666667  0.40629661  0.62500000  1
  Ag  Ag76  1  0.50000000  -0.09370339  0.12500000  1
  Ag  Ag77  1  0.50000000  -0.09370339  0.62500000  1
  Ag  Ag78  1  0.50000000  0.40629661  0.12500000  1
  Ag  Ag79  1  0.50000000  0.40629661  0.62500000  1
  Ag  Ag80  1  0.83333333  -0.09370339  0.12500000  1
  Ag  Ag81  1  0.83333333  -0.09370339  0.62500000  1
  Ag  Ag82  1  0.83333333  0.40629661  0.12500000  1
  Ag  Ag83  1  0.83333333  0.40629661  0.62500000  1
  Ag  Ag84  1  0.33333333  0.15629661  0.12500000  1
  Ag  Ag85  1  0.33333333  0.15629661  0.62500000  1
  Ag  Ag86  1  0.33333333  0.65629661  0.12500000  1
  Ag  Ag87  1  0.33333333  0.65629661  0.62500000  1
  Ag  Ag88  1  0.66666667  0.15629661  0.12500000  1
  Ag  Ag89  1  0.66666667  0.15629661  0.62500000  1
  Ag  Ag90  1  0.66666667  0.65629661  0.12500000  1
  Ag  Ag91  1  0.66666667  0.65629661  0.62500000  1
  Ag  Ag92  1  1.00000000  0.15629661  0.12500000  1
  Ag  Ag93  1  1.00000000  0.15629661  0.62500000  1
  Ag  Ag94  1  1.00000000  0.65629661  0.12500000  1
  Ag  Ag95  1  1.00000000  0.65629661  0.62500000  1
  As  As96  1  0.16666667  -0.07576391  0.37500000  1
  As  As97  1  0.16666667  -0.07576391  0.87500000  1
  As  As98  1  0.16666667  0.42423609  0.37500000  1
  As  As99  1  0.16666667  0.42423609  0.87500000  1
  As  As100  1  0.50000000  -0.07576391  0.37500000  1
  As  As101  1  0.50000000  -0.07576391  0.87500000  1
  As  As102  1  0.50000000  0.42423609  0.37500000  1
  As  As103  1  0.50000000  0.42423609  0.87500000  1
  As  As104  1  0.83333333  -0.07576391  0.37500000  1
  As  As105  1  0.83333333  -0.07576391  0.87500000  1
  As  As106  1  0.83333333  0.42423609  0.37500000  1
  As  As107  1  0.83333333  0.42423609  0.87500000  1
  As  As108  1  0.33333333  0.17423609  0.37500000  1
  As  As109  1  0.33333333  0.17423609  0.87500000  1
  As  As110  1  0.33333333  0.67423609  0.37500000  1
  As  As111  1  0.33333333  0.67423609  0.87500000  1
  As  As112  1  0.66666667  0.17423609  0.37500000  1
  As  As113  1  0.66666667  0.17423609  0.87500000  1
  As  As114  1  0.66666667  0.67423609  0.37500000  1
  As  As115  1  0.66666667  0.67423609  0.87500000  1
  As  As116  1  1.00000000  0.17423609  0.37500000  1
  As  As117  1  1.00000000  0.17423609  0.87500000  1
  As  As118  1  1.00000000  0.67423609  0.37500000  1
  As  As119  1  1.00000000  0.67423609  0.87500000  1
  As  As120  1  0.16666667  0.07576391  0.12500000  1
  As  As121  1  0.16666667  0.07576391  0.62500000  1
  As  As122  1  0.16666667  0.57576391  0.12500000  1
  As  As123  1  0.16666667  0.57576391  0.62500000  1
  As  As124  1  0.50000000  0.07576391  0.12500000  1
  As  As125  1  0.50000000  0.07576391  0.62500000  1
  As  As126  1  0.50000000  0.57576391  0.12500000  1
  As  As127  1  0.50000000  0.57576391  0.62500000  1
  As  As128  1  0.83333333  0.07576391  0.12500000  1
  As  As129  1  0.83333333  0.07576391  0.62500000  1
  As  As130  1  0.83333333  0.57576391  0.12500000  1
  As  As131  1  0.83333333  0.57576391  0.62500000  1
  As  As132  1  0.33333333  0.32576391  0.12500000  1
  As  As133  1  0.33333333  0.32576391  0.62500000  1
  As  As134  1  0.33333333  0.82576391  0.12500000  1
  As  As135  1  0.33333333  0.82576391  0.62500000  1
  As  As136  1  0.66666667  0.32576391  0.12500000  1
  As  As137  1  0.66666667  0.32576391  0.62500000  1
  As  As138  1  0.66666667  0.82576391  0.12500000  1
  As  As139  1  0.66666667  0.82576391  0.62500000  1
  As  As140  1  1.00000000  0.32576391  0.12500000  1
  As  As141  1  1.00000000  0.32576391  0.62500000  1
  As  As142  1  1.00000000  0.82576391  0.12500000  1
  As  As143  1  1.00000000  0.82576391  0.62500000  1
  O  O144  1  0.16666667  -0.12937647  0.27681236  1
  O  O145  1  0.16666667  -0.12937647  0.77681236  1
  O  O146  1  0.16666667  0.37062353  0.27681236  1
  O  O147  1  0.16666667  0.37062353  0.77681236  1
  O  O148  1  0.50000000  -0.12937647  0.27681236  1
  O  O149  1  0.50000000  -0.12937647  0.77681236  1
  O  O150  1  0.50000000  0.37062353  0.27681236  1
  O  O151  1  0.50000000  0.37062353  0.77681236  1
  O  O152  1  0.83333333  -0.12937647  0.27681236  1
  O  O153  1  0.83333333  -0.12937647  0.77681236  1
  O  O154  1  0.83333333  0.37062353  0.27681236  1
  O  O155  1  0.83333333  0.37062353  0.77681236  1
  O  O156  1  0.33333333  0.12062353  0.27681236  1
  O  O157  1  0.33333333  0.12062353  0.77681236  1
  O  O158  1  0.33333333  0.62062353  0.27681236  1
  O  O159  1  0.33333333  0.62062353  0.77681236  1
  O  O160  1  0.66666667  0.12062353  0.27681236  1
  O  O161  1  0.66666667  0.12062353  0.77681236  1
  O  O162  1  0.66666667  0.62062353  0.27681236  1
  O  O163  1  0.66666667  0.62062353  0.77681236  1
  O  O164  1  1.00000000  0.12062353  0.27681236  1
  O  O165  1  1.00000000  0.12062353  0.77681236  1
  O  O166  1  1.00000000  0.62062353  0.27681236  1
  O  O167  1  1.00000000  0.62062353  0.77681236  1
  O  O168  1  0.16666667  0.12937647  0.22318764  1
  O  O169  1  0.16666667  0.12937647  0.72318764  1
  O  O170  1  0.16666667  0.62937647  0.22318764  1
  O  O171  1  0.16666667  0.62937647  0.72318764  1
  O  O172  1  0.50000000  0.12937647  0.22318764  1
  O  O173  1  0.50000000  0.12937647  0.72318764  1
  O  O174  1  0.50000000  0.62937647  0.22318764  1
  O  O175  1  0.50000000  0.62937647  0.72318764  1
  O  O176  1  0.83333333  0.12937647  0.22318764  1
  O  O177  1  0.83333333  0.12937647  0.72318764  1
  O  O178  1  0.83333333  0.62937647  0.22318764  1
  O  O179  1  0.83333333  0.62937647  0.72318764  1
  O  O180  1  0.33333333  0.37937647  0.22318764  1
  O  O181  1  0.33333333  0.37937647  0.72318764  1
  O  O182  1  0.33333333  0.87937647  0.22318764  1
  O  O183  1  0.33333333  0.87937647  0.72318764  1
  O  O184  1  0.66666667  0.37937647  0.22318764  1
  O  O185  1  0.66666667  0.37937647  0.72318764  1
  O  O186  1  0.66666667  0.87937647  0.22318764  1
  O  O187  1  0.66666667  0.87937647  0.72318764  1
  O  O188  1  1.00000000  0.37937647  0.22318764  1
  O  O189  1  1.00000000  0.37937647  0.72318764  1
  O  O190  1  1.00000000  0.87937647  0.22318764  1
  O  O191  1  1.00000000  0.87937647  0.72318764  1
  O  O192  1  0.16666667  0.12937647  0.02681236  1
  O  O193  1  0.16666667  0.12937647  0.52681236  1
  O  O194  1  0.16666667  0.62937647  0.02681236  1
  O  O195  1  0.16666667  0.62937647  0.52681236  1
  O  O196  1  0.50000000  0.12937647  0.02681236  1
  O  O197  1  0.50000000  0.12937647  0.52681236  1
  O  O198  1  0.50000000  0.62937647  0.02681236  1
  O  O199  1  0.50000000  0.62937647  0.52681236  1
  O  O200  1  0.83333333  0.12937647  0.02681236  1
  O  O201  1  0.83333333  0.12937647  0.52681236  1
  O  O202  1  0.83333333  0.62937647  0.02681236  1
  O  O203  1  0.83333333  0.62937647  0.52681236  1
  O  O204  1  0.33333333  0.37937647  0.02681236  1
  O  O205  1  0.33333333  0.37937647  0.52681236  1
  O  O206  1  0.33333333  0.87937647  0.02681236  1
  O  O207  1  0.33333333  0.87937647  0.52681236  1
  O  O208  1  0.66666667  0.37937647  0.02681236  1
  O  O209  1  0.66666667  0.37937647  0.52681236  1
  O  O210  1  0.66666667  0.87937647  0.02681236  1
  O  O211  1  0.66666667  0.87937647  0.52681236  1
  O  O212  1  1.00000000  0.37937647  0.02681236  1
  O  O213  1  1.00000000  0.37937647  0.52681236  1
  O  O214  1  1.00000000  0.87937647  0.02681236  1
  O  O215  1  1.00000000  0.87937647  0.52681236  1
  O  O216  1  0.16666667  -0.12937647  0.47318764  1
  O  O217  1  0.16666667  -0.12937647  0.97318764  1
  O  O218  1  0.16666667  0.37062353  0.47318764  1
  O  O219  1  0.16666667  0.37062353  0.97318764  1
  O  O220  1  0.50000000  -0.12937647  0.47318764  1
  O  O221  1  0.50000000  -0.12937647  0.97318764  1
  O  O222  1  0.50000000  0.37062353  0.47318764  1
  O  O223  1  0.50000000  0.37062353  0.97318764  1
  O  O224  1  0.83333333  -0.12937647  0.47318764  1
  O  O225  1  0.83333333  -0.12937647  0.97318764  1
  O  O226  1  0.83333333  0.37062353  0.47318764  1
  O  O227  1  0.83333333  0.37062353  0.97318764  1
  O  O228  1  0.33333333  0.12062353  0.47318764  1
  O  O229  1  0.33333333  0.12062353  0.97318764  1
  O  O230  1  0.33333333  0.62062353  0.47318764  1
  O  O231  1  0.33333333  0.62062353  0.97318764  1
  O  O232  1  0.66666667  0.12062353  0.47318764  1
  O  O233  1  0.66666667  0.12062353  0.97318764  1
  O  O234  1  0.66666667  0.62062353  0.47318764  1
  O  O235  1  0.66666667  0.62062353  0.97318764  1
  O  O236  1  1.00000000  0.12062353  0.47318764  1
  O  O237  1  1.00000000  0.12062353  0.97318764  1
  O  O238  1  1.00000000  0.62062353  0.47318764  1
  O  O239  1  1.00000000  0.62062353  0.97318764  1
  O  O240  1  0.24499970  -0.01973554  0.37500000  1
  O  O241  1  0.24499970  -0.01973554  0.87500000  1
  O  O242  1  0.24499970  0.48026446  0.37500000  1
  O  O243  1  0.24499970  0.48026446  0.87500000  1
  O  O244  1  0.57833303  -0.01973554  0.37500000  1
  O  O245  1  0.57833303  -0.01973554  0.87500000  1
  O  O246  1  0.57833303  0.48026446  0.37500000  1
  O  O247  1  0.57833303  0.48026446  0.87500000  1
  O  O248  1  0.91166637  -0.01973554  0.37500000  1
  O  O249  1  0.91166637  -0.01973554  0.87500000  1
  O  O250  1  0.91166637  0.48026446  0.37500000  1
  O  O251  1  0.91166637  0.48026446  0.87500000  1
  O  O252  1  0.41166637  0.23026446  0.37500000  1
  O  O253  1  0.41166637  0.23026446  0.87500000  1
  O  O254  1  0.41166637  0.73026446  0.37500000  1
  O  O255  1  0.41166637  0.73026446  0.87500000  1
  O  O256  1  0.74499970  0.23026446  0.37500000  1
  O  O257  1  0.74499970  0.23026446  0.87500000  1
  O  O258  1  0.74499970  0.73026446  0.37500000  1
  O  O259  1  0.74499970  0.73026446  0.87500000  1
  O  O260  1  1.07833303  0.23026446  0.37500000  1
  O  O261  1  1.07833303  0.23026446  0.87500000  1
  O  O262  1  1.07833303  0.73026446  0.37500000  1
  O  O263  1  1.07833303  0.73026446  0.87500000  1
  O  O264  1  0.08833363  0.01973554  0.12500000  1
  O  O265  1  0.08833363  0.01973554  0.62500000  1
  O  O266  1  0.08833363  0.51973554  0.12500000  1
  O  O267  1  0.08833363  0.51973554  0.62500000  1
  O  O268  1  0.42166697  0.01973554  0.12500000  1
  O  O269  1  0.42166697  0.01973554  0.62500000  1
  O  O270  1  0.42166697  0.51973554  0.12500000  1
  O  O271  1  0.42166697  0.51973554  0.62500000  1
  O  O272  1  0.75500030  0.01973554  0.12500000  1
  O  O273  1  0.75500030  0.01973554  0.62500000  1
  O  O274  1  0.75500030  0.51973554  0.12500000  1
  O  O275  1  0.75500030  0.51973554  0.62500000  1
  O  O276  1  0.25500030  0.26973554  0.12500000  1
  O  O277  1  0.25500030  0.26973554  0.62500000  1
  O  O278  1  0.25500030  0.76973554  0.12500000  1
  O  O279  1  0.25500030  0.76973554  0.62500000  1
  O  O280  1  0.58833363  0.26973554  0.12500000  1
  O  O281  1  0.58833363  0.26973554  0.62500000  1
  O  O282  1  0.58833363  0.76973554  0.12500000  1
  O  O283  1  0.58833363  0.76973554  0.62500000  1
  O  O284  1  0.92166697  0.26973554  0.12500000  1
  O  O285  1  0.92166697  0.26973554  0.62500000  1
  O  O286  1  0.92166697  0.76973554  0.12500000  1
  O  O287  1  0.92166697  0.76973554  0.62500000  1
  O  O288  1  0.08833363  -0.01973554  0.37500000  1
  O  O289  1  0.08833363  -0.01973554  0.87500000  1
  O  O290  1  0.08833363  0.48026446  0.37500000  1
  O  O291  1  0.08833363  0.48026446  0.87500000  1
  O  O292  1  0.42166697  -0.01973554  0.37500000  1
  O  O293  1  0.42166697  -0.01973554  0.87500000  1
  O  O294  1  0.42166697  0.48026446  0.37500000  1
  O  O295  1  0.42166697  0.48026446  0.87500000  1
  O  O296  1  0.75500030  -0.01973554  0.37500000  1
  O  O297  1  0.75500030  -0.01973554  0.87500000  1
  O  O298  1  0.75500030  0.48026446  0.37500000  1
  O  O299  1  0.75500030  0.48026446  0.87500000  1
  O  O300  1  0.25500030  0.23026446  0.37500000  1
  O  O301  1  0.25500030  0.23026446  0.87500000  1
  O  O302  1  0.25500030  0.73026446  0.37500000  1
  O  O303  1  0.25500030  0.73026446  0.87500000  1
  O  O304  1  0.58833363  0.23026446  0.37500000  1
  O  O305  1  0.58833363  0.23026446  0.87500000  1
  O  O306  1  0.58833363  0.73026446  0.37500000  1
  O  O307  1  0.58833363  0.73026446  0.87500000  1
  O  O308  1  0.92166697  0.23026446  0.37500000  1
  O  O309  1  0.92166697  0.23026446  0.87500000  1
  O  O310  1  0.92166697  0.73026446  0.37500000  1
  O  O311  1  0.92166697  0.73026446  0.87500000  1
  O  O312  1  0.24499970  0.01973554  0.12500000  1
  O  O313  1  0.24499970  0.01973554  0.62500000  1
  O  O314  1  0.24499970  0.51973554  0.12500000  1
  O  O315  1  0.24499970  0.51973554  0.62500000  1
  O  O316  1  0.57833303  0.01973554  0.12500000  1
  O  O317  1  0.57833303  0.01973554  0.62500000  1
  O  O318  1  0.57833303  0.51973554  0.12500000  1
  O  O319  1  0.57833303  0.51973554  0.62500000  1
  O  O320  1  0.91166637  0.01973554  0.12500000  1
  O  O321  1  0.91166637  0.01973554  0.62500000  1
  O  O322  1  0.91166637  0.51973554  0.12500000  1
  O  O323  1  0.91166637  0.51973554  0.62500000  1
  O  O324  1  0.41166637  0.26973554  0.12500000  1
  O  O325  1  0.41166637  0.26973554  0.62500000  1
  O  O326  1  0.41166637  0.76973554  0.12500000  1
  O  O327  1  0.41166637  0.76973554  0.62500000  1
  O  O328  1  0.74499970  0.26973554  0.12500000  1
  O  O329  1  0.74499970  0.26973554  0.62500000  1
  O  O330  1  0.74499970  0.76973554  0.12500000  1
  O  O331  1  0.74499970  0.76973554  0.62500000  1
  O  O332  1  1.07833303  0.26973554  0.12500000  1
  O  O333  1  1.07833303  0.26973554  0.62500000  1
  O  O334  1  1.07833303  0.76973554  0.12500000  1
  O  O335  1  1.07833303  0.76973554  0.62500000  1
