# generated using pymatgen
data_K2PdO2
_symmetry_space_group_name_H-M   'P 1'
_cell_length_a   18.81821615
_cell_length_b   18.11090662
_cell_length_c   17.19457643
_cell_angle_alpha   90.00000000
_cell_angle_beta   90.00000000
_cell_angle_gamma   90.00000000
_symmetry_Int_Tables_number   1
_chemical_formula_structural   K2PdO2
_chemical_formula_sum   'K144 Pd72 O144'
_cell_volume   5860.16879782
_cell_formula_units_Z   72
loop_
 _symmetry_equiv_pos_site_id
 _symmetry_equiv_pos_as_xyz
  1  'x, y, z'
loop_
 _atom_site_type_symbol
 _atom_site_label
 _atom_site_symmetry_multiplicity
 _atom_site_fract_x
 _atom_site_fract_y
 _atom_site_fract_z
 _atom_site_occupancy
  K  K0  1  0.08333333  0.00000000  0.16185226  1
  K  K1  1  0.08333333  0.00000000  0.66185226  1
  K  K2  1  0.08333333  0.33333333  0.16185226  1
  K  K3  1  0.08333333  0.33333333  0.66185226  1
  K  K4  1  0.08333333  0.66666667  0.16185226  1
  K  K5  1  0.08333333  0.66666667  0.66185226  1
  K  K6  1  0.25000000  0.00000000  0.16185226  1
  K  K7  1  0.25000000  0.00000000  0.66185226  1
  K  K8  1  0.25000000  0.33333333  0.16185226  1
  K  K9  1  0.25000000  0.33333333  0.66185226  1
  K  K10  1  0.25000000  0.66666667  0.16185226  1
  K  K11  1  0.25000000  0.66666667  0.66185226  1
  K  K12  1  0.41666667  0.00000000  0.16185226  1
  K  K13  1  0.41666667  0.00000000  0.66185226  1
  K  K14  1  0.41666667  0.33333333  0.16185226  1
  K  K15  1  0.41666667  0.33333333  0.66185226  1
  K  K16  1  0.41666667  0.66666667  0.16185226  1
  K  K17  1  0.41666667  0.66666667  0.66185226  1
  K  K18  1  0.58333333  0.00000000  0.16185226  1
  K  K19  1  0.58333333  0.00000000  0.66185226  1
  K  K20  1  0.58333333  0.33333333  0.16185226  1
  K  K21  1  0.58333333  0.33333333  0.66185226  1
  K  K22  1  0.58333333  0.66666667  0.16185226  1
  K  K23  1  0.58333333  0.66666667  0.66185226  1
  K  K24  1  0.75000000  0.00000000  0.16185226  1
  K  K25  1  0.75000000  0.00000000  0.66185226  1
  K  K26  1  0.75000000  0.33333333  0.16185226  1
  K  K27  1  0.75000000  0.33333333  0.66185226  1
  K  K28  1  0.75000000  0.66666667  0.16185226  1
  K  K29  1  0.75000000  0.66666667  0.66185226  1
  K  K30  1  0.91666667  0.00000000  0.16185226  1
  K  K31  1  0.91666667  0.00000000  0.66185226  1
  K  K32  1  0.91666667  0.33333333  0.16185226  1
  K  K33  1  0.91666667  0.33333333  0.66185226  1
  K  K34  1  0.91666667  0.66666667  0.16185226  1
  K  K35  1  0.91666667  0.66666667  0.66185226  1
  K  K36  1  0.16666667  0.16666667  0.41185226  1
  K  K37  1  0.16666667  0.16666667  0.91185226  1
  K  K38  1  0.16666667  0.50000000  0.41185226  1
  K  K39  1  0.16666667  0.50000000  0.91185226  1
  K  K40  1  0.16666667  0.83333333  0.41185226  1
  K  K41  1  0.16666667  0.83333333  0.91185226  1
  K  K42  1  0.33333333  0.16666667  0.41185226  1
  K  K43  1  0.33333333  0.16666667  0.91185226  1
  K  K44  1  0.33333333  0.50000000  0.41185226  1
  K  K45  1  0.33333333  0.50000000  0.91185226  1
  K  K46  1  0.33333333  0.83333333  0.41185226  1
  K  K47  1  0.33333333  0.83333333  0.91185226  1
  K  K48  1  0.50000000  0.16666667  0.41185226  1
  K  K49  1  0.50000000  0.16666667  0.91185226  1
  K  K50  1  0.50000000  0.50000000  0.41185226  1
  K  K51  1  0.50000000  0.50000000  0.91185226  1
  K  K52  1  0.50000000  0.83333333  0.41185226  1
  K  K53  1  0.50000000  0.83333333  0.91185226  1
  K  K54  1  0.66666667  0.16666667  0.41185226  1
  K  K55  1  0.66666667  0.16666667  0.91185226  1
  K  K56  1  0.66666667  0.50000000  0.41185226  1
  K  K57  1  0.66666667  0.50000000  0.91185226  1
  K  K58  1  0.66666667  0.83333333  0.41185226  1
  K  K59  1  0.66666667  0.83333333  0.91185226  1
  K  K60  1  0.83333333  0.16666667  0.41185226  1
  K  K61  1  0.83333333  0.16666667  0.91185226  1
  K  K62  1  0.83333333  0.50000000  0.41185226  1
  K  K63  1  0.83333333  0.50000000  0.91185226  1
  K  K64  1  0.83333333  0.83333333  0.41185226  1
  K  K65  1  0.83333333  0.83333333  0.91185226  1
  K  K66  1  1.00000000  0.16666667  0.41185226  1
  K  K67  1  1.00000000  0.16666667  0.91185226  1
  K  K68  1  1.00000000  0.50000000  0.41185226  1
  K  K69  1  1.00000000  0.50000000  0.91185226  1
  K  K70  1  1.00000000  0.83333333  0.41185226  1
  K  K71  1  1.00000000  0.83333333  0.91185226  1
  K  K72  1  0.00000000  0.16666667  0.08814774  1
  K  K73  1  0.00000000  0.16666667  0.58814774  1
  K  K74  1  0.00000000  0.50000000  0.08814774  1
  K  K75  1  0.00000000  0.50000000  0.58814774  1
  K  K76  1  0.00000000  0.83333333  0.08814774  1
  K  K77  1  0.00000000  0.83333333  0.58814774  1
  K  K78  1  0.16666667  0.16666667  0.08814774  1
  K  K79  1  0.16666667  0.16666667  0.58814774  1
  K  K80  1  0.16666667  0.50000000  0.08814774  1
  K  K81  1  0.16666667  0.50000000  0.58814774  1
  K  K82  1  0.16666667  0.83333333  0.08814774  1
  K  K83  1  0.16666667  0.83333333  0.58814774  1
  K  K84  1  0.33333333  0.16666667  0.08814774  1
  K  K85  1  0.33333333  0.16666667  0.58814774  1
  K  K86  1  0.33333333  0.50000000  0.08814774  1
  K  K87  1  0.33333333  0.50000000  0.58814774  1
  K  K88  1  0.33333333  0.83333333  0.08814774  1
  K  K89  1  0.33333333  0.83333333  0.58814774  1
  K  K90  1  0.50000000  0.16666667  0.08814774  1
  K  K91  1  0.50000000  0.16666667  0.58814774  1
  K  K92  1  0.50000000  0.50000000  0.08814774  1
  K  K93  1  0.50000000  0.50000000  0.58814774  1
  K  K94  1  0.50000000  0.83333333  0.08814774  1
  K  K95  1  0.50000000  0.83333333  0.58814774  1
  K  K96  1  0.66666667  0.16666667  0.08814774  1
  K  K97  1  0.66666667  0.16666667  0.58814774  1
  K  K98  1  0.66666667  0.50000000  0.08814774  1
  K  K99  1  0.66666667  0.50000000  0.58814774  1
  K  K100  1  0.66666667  0.83333333  0.08814774  1
  K  K101  1  0.66666667  0.83333333  0.58814774  1
  K  K102  1  0.83333333  0.16666667  0.08814774  1
  K  K103  1  0.83333333  0.16666667  0.58814774  1
  K  K104  1  0.83333333  0.50000000  0.08814774  1
  K  K105  1  0.83333333  0.50000000  0.58814774  1
  K  K106  1  0.83333333  0.83333333  0.08814774  1
  K  K107  1  0.83333333  0.83333333  0.58814774  1
  K  K108  1  0.08333333  0.33333333  0.33814774  1
  K  K109  1  0.08333333  0.33333333  0.83814774  1
  K  K110  1  0.08333333  0.66666667  0.33814774  1
  K  K111  1  0.08333333  0.66666667  0.83814774  1
  K  K112  1  0.08333333  1.00000000  0.33814774  1
  K  K113  1  0.08333333  1.00000000  0.83814774  1
  K  K114  1  0.25000000  0.33333333  0.33814774  1
  K  K115  1  0.25000000  0.33333333  0.83814774  1
  K  K116  1  0.25000000  0.66666667  0.33814774  1
  K  K117  1  0.25000000  0.66666667  0.83814774  1
  K  K118  1  0.25000000  1.00000000  0.33814774  1
  K  K119  1  0.25000000  1.00000000  0.83814774  1
  K  K120  1  0.41666667  0.33333333  0.33814774  1
  K  K121  1  0.41666667  0.33333333  0.83814774  1
  K  K122  1  0.41666667  0.66666667  0.33814774  1
  K  K123  1  0.41666667  0.66666667  0.83814774  1
  K  K124  1  0.41666667  1.00000000  0.33814774  1
  K  K125  1  0.41666667  1.00000000  0.83814774  1
  K  K126  1  0.58333333  0.33333333  0.33814774  1
  K  K127  1  0.58333333  0.33333333  0.83814774  1
  K  K128  1  0.58333333  0.66666667  0.33814774  1
  K  K129  1  0.58333333  0.66666667  0.83814774  1
  K  K130  1  0.58333333  1.00000000  0.33814774  1
  K  K131  1  0.58333333  1.00000000  0.83814774  1
  K  K132  1  0.75000000  0.33333333  0.33814774  1
  K  K133  1  0.75000000  0.33333333  0.83814774  1
  K  K134  1  0.75000000  0.66666667  0.33814774  1
  K  K135  1  0.75000000  0.66666667  0.83814774  1
  K  K136  1  0.75000000  1.00000000  0.33814774  1
  K  K137  1  0.75000000  1.00000000  0.83814774  1
  K  K138  1  0.91666667  0.33333333  0.33814774  1
  K  K139  1  0.91666667  0.33333333  0.83814774  1
  K  K140  1  0.91666667  0.66666667  0.33814774  1
  K  K141  1  0.91666667  0.66666667  0.83814774  1
  K  K142  1  0.91666667  1.00000000  0.33814774  1
  K  K143  1  0.91666667  1.00000000  0.83814774  1
  Pd  Pd144  1  0.00000000  0.00000000  0.00000000  1
  Pd  Pd145  1  0.00000000  0.00000000  0.50000000  1
  Pd  Pd146  1  0.00000000  0.33333333  0.00000000  1
  Pd  Pd147  1  0.00000000  0.33333333  0.50000000  1
  Pd  Pd148  1  0.00000000  0.66666667  0.00000000  1
  Pd  Pd149  1  0.00000000  0.66666667  0.50000000  1
  Pd  Pd150  1  0.16666667  0.00000000  0.00000000  1
  Pd  Pd151  1  0.16666667  0.00000000  0.50000000  1
  Pd  Pd152  1  0.16666667  0.33333333  0.00000000  1
  Pd  Pd153  1  0.16666667  0.33333333  0.50000000  1
  Pd  Pd154  1  0.16666667  0.66666667  0.00000000  1
  Pd  Pd155  1  0.16666667  0.66666667  0.50000000  1
  Pd  Pd156  1  0.33333333  0.00000000  0.00000000  1
  Pd  Pd157  1  0.33333333  0.00000000  0.50000000  1
  Pd  Pd158  1  0.33333333  0.33333333  0.00000000  1
  Pd  Pd159  1  0.33333333  0.33333333  0.50000000  1
  Pd  Pd160  1  0.33333333  0.66666667  0.00000000  1
  Pd  Pd161  1  0.33333333  0.66666667  0.50000000  1
  Pd  Pd162  1  0.50000000  0.00000000  0.00000000  1
  Pd  Pd163  1  0.50000000  0.00000000  0.50000000  1
  Pd  Pd164  1  0.50000000  0.33333333  0.00000000  1
  Pd  Pd165  1  0.50000000  0.33333333  0.50000000  1
  Pd  Pd166  1  0.50000000  0.66666667  0.00000000  1
  Pd  Pd167  1  0.50000000  0.66666667  0.50000000  1
  Pd  Pd168  1  0.66666667  0.00000000  0.00000000  1
  Pd  Pd169  1  0.66666667  0.00000000  0.50000000  1
  Pd  Pd170  1  0.66666667  0.33333333  0.00000000  1
  Pd  Pd171  1  0.66666667  0.33333333  0.50000000  1
  Pd  Pd172  1  0.66666667  0.66666667  0.00000000  1
  Pd  Pd173  1  0.66666667  0.66666667  0.50000000  1
  Pd  Pd174  1  0.83333333  0.00000000  0.00000000  1
  Pd  Pd175  1  0.83333333  0.00000000  0.50000000  1
  Pd  Pd176  1  0.83333333  0.33333333  0.00000000  1
  Pd  Pd177  1  0.83333333  0.33333333  0.50000000  1
  Pd  Pd178  1  0.83333333  0.66666667  0.00000000  1
  Pd  Pd179  1  0.83333333  0.66666667  0.50000000  1
  Pd  Pd180  1  0.08333333  0.16666667  0.25000000  1
  Pd  Pd181  1  0.08333333  0.16666667  0.75000000  1
  Pd  Pd182  1  0.08333333  0.50000000  0.25000000  1
  Pd  Pd183  1  0.08333333  0.50000000  0.75000000  1
  Pd  Pd184  1  0.08333333  0.83333333  0.25000000  1
  Pd  Pd185  1  0.08333333  0.83333333  0.75000000  1
  Pd  Pd186  1  0.25000000  0.16666667  0.25000000  1
  Pd  Pd187  1  0.25000000  0.16666667  0.75000000  1
  Pd  Pd188  1  0.25000000  0.50000000  0.25000000  1
  Pd  Pd189  1  0.25000000  0.50000000  0.75000000  1
  Pd  Pd190  1  0.25000000  0.83333333  0.25000000  1
  Pd  Pd191  1  0.25000000  0.83333333  0.75000000  1
  Pd  Pd192  1  0.41666667  0.16666667  0.25000000  1
  Pd  Pd193  1  0.41666667  0.16666667  0.75000000  1
  Pd  Pd194  1  0.41666667  0.50000000  0.25000000  1
  Pd  Pd195  1  0.41666667  0.50000000  0.75000000  1
  Pd  Pd196  1  0.41666667  0.83333333  0.25000000  1
  Pd  Pd197  1  0.41666667  0.83333333  0.75000000  1
  Pd  Pd198  1  0.58333333  0.16666667  0.25000000  1
  Pd  Pd199  1  0.58333333  0.16666667  0.75000000  1
  Pd  Pd200  1  0.58333333  0.50000000  0.25000000  1
  Pd  Pd201  1  0.58333333  0.50000000  0.75000000  1
  Pd  Pd202  1  0.58333333  0.83333333  0.25000000  1
  Pd  Pd203  1  0.58333333  0.83333333  0.75000000  1
  Pd  Pd204  1  0.75000000  0.16666667  0.25000000  1
  Pd  Pd205  1  0.75000000  0.16666667  0.75000000  1
  Pd  Pd206  1  0.75000000  0.50000000  0.25000000  1
  Pd  Pd207  1  0.75000000  0.50000000  0.75000000  1
  Pd  Pd208  1  0.75000000  0.83333333  0.25000000  1
  Pd  Pd209  1  0.75000000  0.83333333  0.75000000  1
  Pd  Pd210  1  0.91666667  0.16666667  0.25000000  1
  Pd  Pd211  1  0.91666667  0.16666667  0.75000000  1
  Pd  Pd212  1  0.91666667  0.50000000  0.25000000  1
  Pd  Pd213  1  0.91666667  0.50000000  0.75000000  1
  Pd  Pd214  1  0.91666667  0.83333333  0.25000000  1
  Pd  Pd215  1  0.91666667  0.83333333  0.75000000  1
  O  O216  1  0.08333333  0.07261003  -0.00000000  1
  O  O217  1  0.08333333  0.07261003  0.50000000  1
  O  O218  1  0.08333333  0.40594336  -0.00000000  1
  O  O219  1  0.08333333  0.40594336  0.50000000  1
  O  O220  1  0.08333333  0.73927670  -0.00000000  1
  O  O221  1  0.08333333  0.73927670  0.50000000  1
  O  O222  1  0.25000000  0.07261003  -0.00000000  1
  O  O223  1  0.25000000  0.07261003  0.50000000  1
  O  O224  1  0.25000000  0.40594336  -0.00000000  1
  O  O225  1  0.25000000  0.40594336  0.50000000  1
  O  O226  1  0.25000000  0.73927670  -0.00000000  1
  O  O227  1  0.25000000  0.73927670  0.50000000  1
  O  O228  1  0.41666667  0.07261003  -0.00000000  1
  O  O229  1  0.41666667  0.07261003  0.50000000  1
  O  O230  1  0.41666667  0.40594336  -0.00000000  1
  O  O231  1  0.41666667  0.40594336  0.50000000  1
  O  O232  1  0.41666667  0.73927670  -0.00000000  1
  O  O233  1  0.41666667  0.73927670  0.50000000  1
  O  O234  1  0.58333333  0.07261003  -0.00000000  1
  O  O235  1  0.58333333  0.07261003  0.50000000  1
  O  O236  1  0.58333333  0.40594336  -0.00000000  1
  O  O237  1  0.58333333  0.40594336  0.50000000  1
  O  O238  1  0.58333333  0.73927670  -0.00000000  1
  O  O239  1  0.58333333  0.73927670  0.50000000  1
  O  O240  1  0.75000000  0.07261003  -0.00000000  1
  O  O241  1  0.75000000  0.07261003  0.50000000  1
  O  O242  1  0.75000000  0.40594336  -0.00000000  1
  O  O243  1  0.75000000  0.40594336  0.50000000  1
  O  O244  1  0.75000000  0.73927670  -0.00000000  1
  O  O245  1  0.75000000  0.73927670  0.50000000  1
  O  O246  1  0.91666667  0.07261003  -0.00000000  1
  O  O247  1  0.91666667  0.07261003  0.50000000  1
  O  O248  1  0.91666667  0.40594336  -0.00000000  1
  O  O249  1  0.91666667  0.40594336  0.50000000  1
  O  O250  1  0.91666667  0.73927670  -0.00000000  1
  O  O251  1  0.91666667  0.73927670  0.50000000  1
  O  O252  1  0.16666667  0.23927670  0.25000000  1
  O  O253  1  0.16666667  0.23927670  0.75000000  1
  O  O254  1  0.16666667  0.57261003  0.25000000  1
  O  O255  1  0.16666667  0.57261003  0.75000000  1
  O  O256  1  0.16666667  0.90594336  0.25000000  1
  O  O257  1  0.16666667  0.90594336  0.75000000  1
  O  O258  1  0.33333333  0.23927670  0.25000000  1
  O  O259  1  0.33333333  0.23927670  0.75000000  1
  O  O260  1  0.33333333  0.57261003  0.25000000  1
  O  O261  1  0.33333333  0.57261003  0.75000000  1
  O  O262  1  0.33333333  0.90594336  0.25000000  1
  O  O263  1  0.33333333  0.90594336  0.75000000  1
  O  O264  1  0.50000000  0.23927670  0.25000000  1
  O  O265  1  0.50000000  0.23927670  0.75000000  1
  O  O266  1  0.50000000  0.57261003  0.25000000  1
  O  O267  1  0.50000000  0.57261003  0.75000000  1
  O  O268  1  0.50000000  0.90594336  0.25000000  1
  O  O269  1  0.50000000  0.90594336  0.75000000  1
  O  O270  1  0.66666667  0.23927670  0.25000000  1
  O  O271  1  0.66666667  0.23927670  0.75000000  1
  O  O272  1  0.66666667  0.57261003  0.25000000  1
  O  O273  1  0.66666667  0.57261003  0.75000000  1
  O  O274  1  0.66666667  0.90594336  0.25000000  1
  O  O275  1  0.66666667  0.90594336  0.75000000  1
  O  O276  1  0.83333333  0.23927670  0.25000000  1
  O  O277  1  0.83333333  0.23927670  0.75000000  1
  O  O278  1  0.83333333  0.57261003  0.25000000  1
  O  O279  1  0.83333333  0.57261003  0.75000000  1
  O  O280  1  0.83333333  0.90594336  0.25000000  1
  O  O281  1  0.83333333  0.90594336  0.75000000  1
  O  O282  1  1.00000000  0.23927670  0.25000000  1
  O  O283  1  1.00000000  0.23927670  0.75000000  1
  O  O284  1  1.00000000  0.57261003  0.25000000  1
  O  O285  1  1.00000000  0.57261003  0.75000000  1
  O  O286  1  1.00000000  0.90594336  0.25000000  1
  O  O287  1  1.00000000  0.90594336  0.75000000  1
  O  O288  1  -0.00000000  0.09405664  0.25000000  1
  O  O289  1  -0.00000000  0.09405664  0.75000000  1
  O  O290  1  -0.00000000  0.42738997  0.25000000  1
  O  O291  1  -0.00000000  0.42738997  0.75000000  1
  O  O292  1  -0.00000000  0.76072330  0.25000000  1
  O  O293  1  -0.00000000  0.76072330  0.75000000  1
  O  O294  1  0.16666667  0.09405664  0.25000000  1
  O  O295  1  0.16666667  0.09405664  0.75000000  1
  O  O296  1  0.16666667  0.42738997  0.25000000  1
  O  O297  1  0.16666667  0.42738997  0.75000000  1
  O  O298  1  0.16666667  0.76072330  0.25000000  1
  O  O299  1  0.16666667  0.76072330  0.75000000  1
  O  O300  1  0.33333333  0.09405664  0.25000000  1
  O  O301  1  0.33333333  0.09405664  0.75000000  1
  O  O302  1  0.33333333  0.42738997  0.25000000  1
  O  O303  1  0.33333333  0.42738997  0.75000000  1
  O  O304  1  0.33333333  0.76072330  0.25000000  1
  O  O305  1  0.33333333  0.76072330  0.75000000  1
  O  O306  1  0.50000000  0.09405664  0.25000000  1
  O  O307  1  0.50000000  0.09405664  0.75000000  1
  O  O308  1  0.50000000  0.42738997  0.25000000  1
  O  O309  1  0.50000000  0.42738997  0.75000000  1
  O  O310  1  0.50000000  0.76072330  0.25000000  1
  O  O311  1  0.50000000  0.76072330  0.75000000  1
  O  O312  1  0.66666667  0.09405664  0.25000000  1
  O  O313  1  0.66666667  0.09405664  0.75000000  1
  O  O314  1  0.66666667  0.42738997  0.25000000  1
  O  O315  1  0.66666667  0.42738997  0.75000000  1
  O  O316  1  0.66666667  0.76072330  0.25000000  1
  O  O317  1  0.66666667  0.76072330  0.75000000  1
  O  O318  1  0.83333333  0.09405664  0.25000000  1
  O  O319  1  0.83333333  0.09405664  0.75000000  1
  O  O320  1  0.83333333  0.42738997  0.25000000  1
  O  O321  1  0.83333333  0.42738997  0.75000000  1
  O  O322  1  0.83333333  0.76072330  0.25000000  1
  O  O323  1  0.83333333  0.76072330  0.75000000  1
  O  O324  1  0.08333333  0.26072330  0.50000000  1
  O  O325  1  0.08333333  0.26072330  1.00000000  1
  O  O326  1  0.08333333  0.59405664  0.50000000  1
  O  O327  1  0.08333333  0.59405664  1.00000000  1
  O  O328  1  0.08333333  0.92738997  0.50000000  1
  O  O329  1  0.08333333  0.92738997  1.00000000  1
  O  O330  1  0.25000000  0.26072330  0.50000000  1
  O  O331  1  0.25000000  0.26072330  1.00000000  1
  O  O332  1  0.25000000  0.59405664  0.50000000  1
  O  O333  1  0.25000000  0.59405664  1.00000000  1
  O  O334  1  0.25000000  0.92738997  0.50000000  1
  O  O335  1  0.25000000  0.92738997  1.00000000  1
  O  O336  1  0.41666667  0.26072330  0.50000000  1
  O  O337  1  0.41666667  0.26072330  1.00000000  1
  O  O338  1  0.41666667  0.59405664  0.50000000  1
  O  O339  1  0.41666667  0.59405664  1.00000000  1
  O  O340  1  0.41666667  0.92738997  0.50000000  1
  O  O341  1  0.41666667  0.92738997  1.00000000  1
  O  O342  1  0.58333333  0.26072330  0.50000000  1
  O  O343  1  0.58333333  0.26072330  1.00000000  1
  O  O344  1  0.58333333  0.59405664  0.50000000  1
  O  O345  1  0.58333333  0.59405664  1.00000000  1
  O  O346  1  0.58333333  0.92738997  0.50000000  1
  O  O347  1  0.58333333  0.92738997  1.00000000  1
  O  O348  1  0.75000000  0.26072330  0.50000000  1
  O  O349  1  0.75000000  0.26072330  1.00000000  1
  O  O350  1  0.75000000  0.59405664  0.50000000  1
  O  O351  1  0.75000000  0.59405664  1.00000000  1
  O  O352  1  0.75000000  0.92738997  0.50000000  1
  O  O353  1  0.75000000  0.92738997  1.00000000  1
  O  O354  1  0.91666667  0.26072330  0.50000000  1
  O  O355  1  0.91666667  0.26072330  1.00000000  1
  O  O356  1  0.91666667  0.59405664  0.50000000  1
  O  O357  1  0.91666667  0.59405664  1.00000000  1
  O  O358  1  0.91666667  0.92738997  0.50000000  1
  O  O359  1  0.91666667  0.92738997  1.00000000  1
