# generated using pymatgen
data_LaAsO3
_symmetry_space_group_name_H-M   'P 1'
_cell_length_a   17.55186586
_cell_length_b   15.88095926
_cell_length_c   18.54579667
_cell_angle_alpha   90.00000000
_cell_angle_beta   105.49619636
_cell_angle_gamma   90.00000000
_symmetry_Int_Tables_number   1
_chemical_formula_structural   LaAsO3
_chemical_formula_sum   'La72 As72 O216'
_cell_volume   4981.54465733
_cell_formula_units_Z   72
loop_
 _symmetry_equiv_pos_site_id
 _symmetry_equiv_pos_as_xyz
  1  'x, y, z'
loop_
 _atom_site_type_symbol
 _atom_site_label
 _atom_site_symmetry_multiplicity
 _atom_site_fract_x
 _atom_site_fract_y
 _atom_site_fract_z
 _atom_site_occupancy
  La  La0  1  0.08367844  0.25000000  0.23349621  1
  La  La1  1  0.08367844  0.25000000  0.56682954  1
  La  La2  1  0.08367844  0.25000000  0.90016288  1
  La  La3  1  0.08367844  0.58333333  0.23349621  1
  La  La4  1  0.08367844  0.58333333  0.56682954  1
  La  La5  1  0.08367844  0.58333333  0.90016288  1
  La  La6  1  0.08367844  0.91666667  0.23349621  1
  La  La7  1  0.08367844  0.91666667  0.56682954  1
  La  La8  1  0.08367844  0.91666667  0.90016288  1
  La  La9  1  0.33367844  0.25000000  0.23349621  1
  La  La10  1  0.33367844  0.25000000  0.56682954  1
  La  La11  1  0.33367844  0.25000000  0.90016288  1
  La  La12  1  0.33367844  0.58333333  0.23349621  1
  La  La13  1  0.33367844  0.58333333  0.56682954  1
  La  La14  1  0.33367844  0.58333333  0.90016288  1
  La  La15  1  0.33367844  0.91666667  0.23349621  1
  La  La16  1  0.33367844  0.91666667  0.56682954  1
  La  La17  1  0.33367844  0.91666667  0.90016288  1
  La  La18  1  0.58367844  0.25000000  0.23349621  1
  La  La19  1  0.58367844  0.25000000  0.56682954  1
  La  La20  1  0.58367844  0.25000000  0.90016288  1
  La  La21  1  0.58367844  0.58333333  0.23349621  1
  La  La22  1  0.58367844  0.58333333  0.56682954  1
  La  La23  1  0.58367844  0.58333333  0.90016288  1
  La  La24  1  0.58367844  0.91666667  0.23349621  1
  La  La25  1  0.58367844  0.91666667  0.56682954  1
  La  La26  1  0.58367844  0.91666667  0.90016288  1
  La  La27  1  0.83367844  0.25000000  0.23349621  1
  La  La28  1  0.83367844  0.25000000  0.56682954  1
  La  La29  1  0.83367844  0.25000000  0.90016288  1
  La  La30  1  0.83367844  0.58333333  0.23349621  1
  La  La31  1  0.83367844  0.58333333  0.56682954  1
  La  La32  1  0.83367844  0.58333333  0.90016288  1
  La  La33  1  0.83367844  0.91666667  0.23349621  1
  La  La34  1  0.83367844  0.91666667  0.56682954  1
  La  La35  1  0.83367844  0.91666667  0.90016288  1
  La  La36  1  0.16632156  0.08333333  0.09983712  1
  La  La37  1  0.16632156  0.08333333  0.43317046  1
  La  La38  1  0.16632156  0.08333333  0.76650379  1
  La  La39  1  0.16632156  0.41666667  0.09983712  1
  La  La40  1  0.16632156  0.41666667  0.43317046  1
  La  La41  1  0.16632156  0.41666667  0.76650379  1
  La  La42  1  0.16632156  0.75000000  0.09983712  1
  La  La43  1  0.16632156  0.75000000  0.43317046  1
  La  La44  1  0.16632156  0.75000000  0.76650379  1
  La  La45  1  0.41632156  0.08333333  0.09983712  1
  La  La46  1  0.41632156  0.08333333  0.43317046  1
  La  La47  1  0.41632156  0.08333333  0.76650379  1
  La  La48  1  0.41632156  0.41666667  0.09983712  1
  La  La49  1  0.41632156  0.41666667  0.43317046  1
  La  La50  1  0.41632156  0.41666667  0.76650379  1
  La  La51  1  0.41632156  0.75000000  0.09983712  1
  La  La52  1  0.41632156  0.75000000  0.43317046  1
  La  La53  1  0.41632156  0.75000000  0.76650379  1
  La  La54  1  0.66632156  0.08333333  0.09983712  1
  La  La55  1  0.66632156  0.08333333  0.43317046  1
  La  La56  1  0.66632156  0.08333333  0.76650379  1
  La  La57  1  0.66632156  0.41666667  0.09983712  1
  La  La58  1  0.66632156  0.41666667  0.43317046  1
  La  La59  1  0.66632156  0.41666667  0.76650379  1
  La  La60  1  0.66632156  0.75000000  0.09983712  1
  La  La61  1  0.66632156  0.75000000  0.43317046  1
  La  La62  1  0.66632156  0.75000000  0.76650379  1
  La  La63  1  0.91632156  0.08333333  0.09983712  1
  La  La64  1  0.91632156  0.08333333  0.43317046  1
  La  La65  1  0.91632156  0.08333333  0.76650379  1
  La  La66  1  0.91632156  0.41666667  0.09983712  1
  La  La67  1  0.91632156  0.41666667  0.43317046  1
  La  La68  1  0.91632156  0.41666667  0.76650379  1
  La  La69  1  0.91632156  0.75000000  0.09983712  1
  La  La70  1  0.91632156  0.75000000  0.43317046  1
  La  La71  1  0.91632156  0.75000000  0.76650379  1
  As  As72  1  0.01941257  0.25000000  0.04713689  1
  As  As73  1  0.01941257  0.25000000  0.38047022  1
  As  As74  1  0.01941257  0.25000000  0.71380356  1
  As  As75  1  0.01941257  0.58333333  0.04713689  1
  As  As76  1  0.01941257  0.58333333  0.38047022  1
  As  As77  1  0.01941257  0.58333333  0.71380356  1
  As  As78  1  0.01941257  0.91666667  0.04713689  1
  As  As79  1  0.01941257  0.91666667  0.38047022  1
  As  As80  1  0.01941257  0.91666667  0.71380356  1
  As  As81  1  0.26941257  0.25000000  0.04713689  1
  As  As82  1  0.26941257  0.25000000  0.38047022  1
  As  As83  1  0.26941257  0.25000000  0.71380356  1
  As  As84  1  0.26941257  0.58333333  0.04713689  1
  As  As85  1  0.26941257  0.58333333  0.38047022  1
  As  As86  1  0.26941257  0.58333333  0.71380356  1
  As  As87  1  0.26941257  0.91666667  0.04713689  1
  As  As88  1  0.26941257  0.91666667  0.38047022  1
  As  As89  1  0.26941257  0.91666667  0.71380356  1
  As  As90  1  0.51941257  0.25000000  0.04713689  1
  As  As91  1  0.51941257  0.25000000  0.38047022  1
  As  As92  1  0.51941257  0.25000000  0.71380356  1
  As  As93  1  0.51941257  0.58333333  0.04713689  1
  As  As94  1  0.51941257  0.58333333  0.38047022  1
  As  As95  1  0.51941257  0.58333333  0.71380356  1
  As  As96  1  0.51941257  0.91666667  0.04713689  1
  As  As97  1  0.51941257  0.91666667  0.38047022  1
  As  As98  1  0.51941257  0.91666667  0.71380356  1
  As  As99  1  0.76941257  0.25000000  0.04713689  1
  As  As100  1  0.76941257  0.25000000  0.38047022  1
  As  As101  1  0.76941257  0.25000000  0.71380356  1
  As  As102  1  0.76941257  0.58333333  0.04713689  1
  As  As103  1  0.76941257  0.58333333  0.38047022  1
  As  As104  1  0.76941257  0.58333333  0.71380356  1
  As  As105  1  0.76941257  0.91666667  0.04713689  1
  As  As106  1  0.76941257  0.91666667  0.38047022  1
  As  As107  1  0.76941257  0.91666667  0.71380356  1
  As  As108  1  0.23058743  0.08333333  0.28619644  1
  As  As109  1  0.23058743  0.08333333  0.61952978  1
  As  As110  1  0.23058743  0.08333333  0.95286311  1
  As  As111  1  0.23058743  0.41666667  0.28619644  1
  As  As112  1  0.23058743  0.41666667  0.61952978  1
  As  As113  1  0.23058743  0.41666667  0.95286311  1
  As  As114  1  0.23058743  0.75000000  0.28619644  1
  As  As115  1  0.23058743  0.75000000  0.61952978  1
  As  As116  1  0.23058743  0.75000000  0.95286311  1
  As  As117  1  0.48058743  0.08333333  0.28619644  1
  As  As118  1  0.48058743  0.08333333  0.61952978  1
  As  As119  1  0.48058743  0.08333333  0.95286311  1
  As  As120  1  0.48058743  0.41666667  0.28619644  1
  As  As121  1  0.48058743  0.41666667  0.61952978  1
  As  As122  1  0.48058743  0.41666667  0.95286311  1
  As  As123  1  0.48058743  0.75000000  0.28619644  1
  As  As124  1  0.48058743  0.75000000  0.61952978  1
  As  As125  1  0.48058743  0.75000000  0.95286311  1
  As  As126  1  0.73058743  0.08333333  0.28619644  1
  As  As127  1  0.73058743  0.08333333  0.61952978  1
  As  As128  1  0.73058743  0.08333333  0.95286311  1
  As  As129  1  0.73058743  0.41666667  0.28619644  1
  As  As130  1  0.73058743  0.41666667  0.61952978  1
  As  As131  1  0.73058743  0.41666667  0.95286311  1
  As  As132  1  0.73058743  0.75000000  0.28619644  1
  As  As133  1  0.73058743  0.75000000  0.61952978  1
  As  As134  1  0.73058743  0.75000000  0.95286311  1
  As  As135  1  0.98058743  0.08333333  0.28619644  1
  As  As136  1  0.98058743  0.08333333  0.61952978  1
  As  As137  1  0.98058743  0.08333333  0.95286311  1
  As  As138  1  0.98058743  0.41666667  0.28619644  1
  As  As139  1  0.98058743  0.41666667  0.61952978  1
  As  As140  1  0.98058743  0.41666667  0.95286311  1
  As  As141  1  0.98058743  0.75000000  0.28619644  1
  As  As142  1  0.98058743  0.75000000  0.61952978  1
  As  As143  1  0.98058743  0.75000000  0.95286311  1
  O  O144  1  0.16566381  0.25000000  0.03913229  1
  O  O145  1  0.16566381  0.25000000  0.37246562  1
  O  O146  1  0.16566381  0.25000000  0.70579896  1
  O  O147  1  0.16566381  0.58333333  0.03913229  1
  O  O148  1  0.16566381  0.58333333  0.37246562  1
  O  O149  1  0.16566381  0.58333333  0.70579896  1
  O  O150  1  0.16566381  0.91666667  0.03913229  1
  O  O151  1  0.16566381  0.91666667  0.37246562  1
  O  O152  1  0.16566381  0.91666667  0.70579896  1
  O  O153  1  0.41566381  0.25000000  0.03913229  1
  O  O154  1  0.41566381  0.25000000  0.37246562  1
  O  O155  1  0.41566381  0.25000000  0.70579896  1
  O  O156  1  0.41566381  0.58333333  0.03913229  1
  O  O157  1  0.41566381  0.58333333  0.37246562  1
  O  O158  1  0.41566381  0.58333333  0.70579896  1
  O  O159  1  0.41566381  0.91666667  0.03913229  1
  O  O160  1  0.41566381  0.91666667  0.37246562  1
  O  O161  1  0.41566381  0.91666667  0.70579896  1
  O  O162  1  0.66566381  0.25000000  0.03913229  1
  O  O163  1  0.66566381  0.25000000  0.37246562  1
  O  O164  1  0.66566381  0.25000000  0.70579896  1
  O  O165  1  0.66566381  0.58333333  0.03913229  1
  O  O166  1  0.66566381  0.58333333  0.37246562  1
  O  O167  1  0.66566381  0.58333333  0.70579896  1
  O  O168  1  0.66566381  0.91666667  0.03913229  1
  O  O169  1  0.66566381  0.91666667  0.37246562  1
  O  O170  1  0.66566381  0.91666667  0.70579896  1
  O  O171  1  0.91566381  0.25000000  0.03913229  1
  O  O172  1  0.91566381  0.25000000  0.37246562  1
  O  O173  1  0.91566381  0.25000000  0.70579896  1
  O  O174  1  0.91566381  0.58333333  0.03913229  1
  O  O175  1  0.91566381  0.58333333  0.37246562  1
  O  O176  1  0.91566381  0.58333333  0.70579896  1
  O  O177  1  0.91566381  0.91666667  0.03913229  1
  O  O178  1  0.91566381  0.91666667  0.37246562  1
  O  O179  1  0.91566381  0.91666667  0.70579896  1
  O  O180  1  0.08433619  0.08333333  0.29420104  1
  O  O181  1  0.08433619  0.08333333  0.62753438  1
  O  O182  1  0.08433619  0.08333333  0.96086771  1
  O  O183  1  0.08433619  0.41666667  0.29420104  1
  O  O184  1  0.08433619  0.41666667  0.62753438  1
  O  O185  1  0.08433619  0.41666667  0.96086771  1
  O  O186  1  0.08433619  0.75000000  0.29420104  1
  O  O187  1  0.08433619  0.75000000  0.62753438  1
  O  O188  1  0.08433619  0.75000000  0.96086771  1
  O  O189  1  0.33433619  0.08333333  0.29420104  1
  O  O190  1  0.33433619  0.08333333  0.62753438  1
  O  O191  1  0.33433619  0.08333333  0.96086771  1
  O  O192  1  0.33433619  0.41666667  0.29420104  1
  O  O193  1  0.33433619  0.41666667  0.62753438  1
  O  O194  1  0.33433619  0.41666667  0.96086771  1
  O  O195  1  0.33433619  0.75000000  0.29420104  1
  O  O196  1  0.33433619  0.75000000  0.62753438  1
  O  O197  1  0.33433619  0.75000000  0.96086771  1
  O  O198  1  0.58433619  0.08333333  0.29420104  1
  O  O199  1  0.58433619  0.08333333  0.62753438  1
  O  O200  1  0.58433619  0.08333333  0.96086771  1
  O  O201  1  0.58433619  0.41666667  0.29420104  1
  O  O202  1  0.58433619  0.41666667  0.62753438  1
  O  O203  1  0.58433619  0.41666667  0.96086771  1
  O  O204  1  0.58433619  0.75000000  0.29420104  1
  O  O205  1  0.58433619  0.75000000  0.62753438  1
  O  O206  1  0.58433619  0.75000000  0.96086771  1
  O  O207  1  0.83433619  0.08333333  0.29420104  1
  O  O208  1  0.83433619  0.08333333  0.62753438  1
  O  O209  1  0.83433619  0.08333333  0.96086771  1
  O  O210  1  0.83433619  0.41666667  0.29420104  1
  O  O211  1  0.83433619  0.41666667  0.62753438  1
  O  O212  1  0.83433619  0.41666667  0.96086771  1
  O  O213  1  0.83433619  0.75000000  0.29420104  1
  O  O214  1  0.83433619  0.75000000  0.62753438  1
  O  O215  1  0.83433619  0.75000000  0.96086771  1
  O  O216  1  0.04834494  0.16677015  0.11411517  1
  O  O217  1  0.04834494  0.16677015  0.44744851  1
  O  O218  1  0.04834494  0.16677015  0.78078184  1
  O  O219  1  0.04834494  0.50010348  0.11411517  1
  O  O220  1  0.04834494  0.50010348  0.44744851  1
  O  O221  1  0.04834494  0.50010348  0.78078184  1
  O  O222  1  0.04834494  0.83343681  0.11411517  1
  O  O223  1  0.04834494  0.83343681  0.44744851  1
  O  O224  1  0.04834494  0.83343681  0.78078184  1
  O  O225  1  0.29834494  0.16677015  0.11411517  1
  O  O226  1  0.29834494  0.16677015  0.44744851  1
  O  O227  1  0.29834494  0.16677015  0.78078184  1
  O  O228  1  0.29834494  0.50010348  0.11411517  1
  O  O229  1  0.29834494  0.50010348  0.44744851  1
  O  O230  1  0.29834494  0.50010348  0.78078184  1
  O  O231  1  0.29834494  0.83343681  0.11411517  1
  O  O232  1  0.29834494  0.83343681  0.44744851  1
  O  O233  1  0.29834494  0.83343681  0.78078184  1
  O  O234  1  0.54834494  0.16677015  0.11411517  1
  O  O235  1  0.54834494  0.16677015  0.44744851  1
  O  O236  1  0.54834494  0.16677015  0.78078184  1
  O  O237  1  0.54834494  0.50010348  0.11411517  1
  O  O238  1  0.54834494  0.50010348  0.44744851  1
  O  O239  1  0.54834494  0.50010348  0.78078184  1
  O  O240  1  0.54834494  0.83343681  0.11411517  1
  O  O241  1  0.54834494  0.83343681  0.44744851  1
  O  O242  1  0.54834494  0.83343681  0.78078184  1
  O  O243  1  0.79834494  0.16677015  0.11411517  1
  O  O244  1  0.79834494  0.16677015  0.44744851  1
  O  O245  1  0.79834494  0.16677015  0.78078184  1
  O  O246  1  0.79834494  0.50010348  0.11411517  1
  O  O247  1  0.79834494  0.50010348  0.44744851  1
  O  O248  1  0.79834494  0.50010348  0.78078184  1
  O  O249  1  0.79834494  0.83343681  0.11411517  1
  O  O250  1  0.79834494  0.83343681  0.44744851  1
  O  O251  1  0.79834494  0.83343681  0.78078184  1
  O  O252  1  0.20165506  0.00010348  0.21921816  1
  O  O253  1  0.20165506  0.00010348  0.55255149  1
  O  O254  1  0.20165506  0.00010348  0.88588483  1
  O  O255  1  0.20165506  0.33343681  0.21921816  1
  O  O256  1  0.20165506  0.33343681  0.55255149  1
  O  O257  1  0.20165506  0.33343681  0.88588483  1
  O  O258  1  0.20165506  0.66677015  0.21921816  1
  O  O259  1  0.20165506  0.66677015  0.55255149  1
  O  O260  1  0.20165506  0.66677015  0.88588483  1
  O  O261  1  0.45165506  0.00010348  0.21921816  1
  O  O262  1  0.45165506  0.00010348  0.55255149  1
  O  O263  1  0.45165506  0.00010348  0.88588483  1
  O  O264  1  0.45165506  0.33343681  0.21921816  1
  O  O265  1  0.45165506  0.33343681  0.55255149  1
  O  O266  1  0.45165506  0.33343681  0.88588483  1
  O  O267  1  0.45165506  0.66677015  0.21921816  1
  O  O268  1  0.45165506  0.66677015  0.55255149  1
  O  O269  1  0.45165506  0.66677015  0.88588483  1
  O  O270  1  0.70165506  0.00010348  0.21921816  1
  O  O271  1  0.70165506  0.00010348  0.55255149  1
  O  O272  1  0.70165506  0.00010348  0.88588483  1
  O  O273  1  0.70165506  0.33343681  0.21921816  1
  O  O274  1  0.70165506  0.33343681  0.55255149  1
  O  O275  1  0.70165506  0.33343681  0.88588483  1
  O  O276  1  0.70165506  0.66677015  0.21921816  1
  O  O277  1  0.70165506  0.66677015  0.55255149  1
  O  O278  1  0.70165506  0.66677015  0.88588483  1
  O  O279  1  0.95165506  0.00010348  0.21921816  1
  O  O280  1  0.95165506  0.00010348  0.55255149  1
  O  O281  1  0.95165506  0.00010348  0.88588483  1
  O  O282  1  0.95165506  0.33343681  0.21921816  1
  O  O283  1  0.95165506  0.33343681  0.55255149  1
  O  O284  1  0.95165506  0.33343681  0.88588483  1
  O  O285  1  0.95165506  0.66677015  0.21921816  1
  O  O286  1  0.95165506  0.66677015  0.55255149  1
  O  O287  1  0.95165506  0.66677015  0.88588483  1
  O  O288  1  0.20165506  0.16656319  0.21921816  1
  O  O289  1  0.20165506  0.16656319  0.55255149  1
  O  O290  1  0.20165506  0.16656319  0.88588483  1
  O  O291  1  0.20165506  0.49989652  0.21921816  1
  O  O292  1  0.20165506  0.49989652  0.55255149  1
  O  O293  1  0.20165506  0.49989652  0.88588483  1
  O  O294  1  0.20165506  0.83322985  0.21921816  1
  O  O295  1  0.20165506  0.83322985  0.55255149  1
  O  O296  1  0.20165506  0.83322985  0.88588483  1
  O  O297  1  0.45165506  0.16656319  0.21921816  1
  O  O298  1  0.45165506  0.16656319  0.55255149  1
  O  O299  1  0.45165506  0.16656319  0.88588483  1
  O  O300  1  0.45165506  0.49989652  0.21921816  1
  O  O301  1  0.45165506  0.49989652  0.55255149  1
  O  O302  1  0.45165506  0.49989652  0.88588483  1
  O  O303  1  0.45165506  0.83322985  0.21921816  1
  O  O304  1  0.45165506  0.83322985  0.55255149  1
  O  O305  1  0.45165506  0.83322985  0.88588483  1
  O  O306  1  0.70165506  0.16656319  0.21921816  1
  O  O307  1  0.70165506  0.16656319  0.55255149  1
  O  O308  1  0.70165506  0.16656319  0.88588483  1
  O  O309  1  0.70165506  0.49989652  0.21921816  1
  O  O310  1  0.70165506  0.49989652  0.55255149  1
  O  O311  1  0.70165506  0.49989652  0.88588483  1
  O  O312  1  0.70165506  0.83322985  0.21921816  1
  O  O313  1  0.70165506  0.83322985  0.55255149  1
  O  O314  1  0.70165506  0.83322985  0.88588483  1
  O  O315  1  0.95165506  0.16656319  0.21921816  1
  O  O316  1  0.95165506  0.16656319  0.55255149  1
  O  O317  1  0.95165506  0.16656319  0.88588483  1
  O  O318  1  0.95165506  0.49989652  0.21921816  1
  O  O319  1  0.95165506  0.49989652  0.55255149  1
  O  O320  1  0.95165506  0.49989652  0.88588483  1
  O  O321  1  0.95165506  0.83322985  0.21921816  1
  O  O322  1  0.95165506  0.83322985  0.55255149  1
  O  O323  1  0.95165506  0.83322985  0.88588483  1
  O  O324  1  0.04834494  0.33322985  0.11411517  1
  O  O325  1  0.04834494  0.33322985  0.44744851  1
  O  O326  1  0.04834494  0.33322985  0.78078184  1
  O  O327  1  0.04834494  0.66656319  0.11411517  1
  O  O328  1  0.04834494  0.66656319  0.44744851  1
  O  O329  1  0.04834494  0.66656319  0.78078184  1
  O  O330  1  0.04834494  0.99989652  0.11411517  1
  O  O331  1  0.04834494  0.99989652  0.44744851  1
  O  O332  1  0.04834494  0.99989652  0.78078184  1
  O  O333  1  0.29834494  0.33322985  0.11411517  1
  O  O334  1  0.29834494  0.33322985  0.44744851  1
  O  O335  1  0.29834494  0.33322985  0.78078184  1
  O  O336  1  0.29834494  0.66656319  0.11411517  1
  O  O337  1  0.29834494  0.66656319  0.44744851  1
  O  O338  1  0.29834494  0.66656319  0.78078184  1
  O  O339  1  0.29834494  0.99989652  0.11411517  1
  O  O340  1  0.29834494  0.99989652  0.44744851  1
  O  O341  1  0.29834494  0.99989652  0.78078184  1
  O  O342  1  0.54834494  0.33322985  0.11411517  1
  O  O343  1  0.54834494  0.33322985  0.44744851  1
  O  O344  1  0.54834494  0.33322985  0.78078184  1
  O  O345  1  0.54834494  0.66656319  0.11411517  1
  O  O346  1  0.54834494  0.66656319  0.44744851  1
  O  O347  1  0.54834494  0.66656319  0.78078184  1
  O  O348  1  0.54834494  0.99989652  0.11411517  1
  O  O349  1  0.54834494  0.99989652  0.44744851  1
  O  O350  1  0.54834494  0.99989652  0.78078184  1
  O  O351  1  0.79834494  0.33322985  0.11411517  1
  O  O352  1  0.79834494  0.33322985  0.44744851  1
  O  O353  1  0.79834494  0.33322985  0.78078184  1
  O  O354  1  0.79834494  0.66656319  0.11411517  1
  O  O355  1  0.79834494  0.66656319  0.44744851  1
  O  O356  1  0.79834494  0.66656319  0.78078184  1
  O  O357  1  0.79834494  0.99989652  0.11411517  1
  O  O358  1  0.79834494  0.99989652  0.44744851  1
  O  O359  1  0.79834494  0.99989652  0.78078184  1
