# generated using pymatgen
data_BaTiO3
_symmetry_space_group_name_H-M   'P 1'
_cell_length_a   16.98362438
_cell_length_b   16.98362438
_cell_length_c   13.90097996
_cell_angle_alpha   90.00000000
_cell_angle_beta   90.00000000
_cell_angle_gamma   120.00000000
_symmetry_Int_Tables_number   1
_chemical_formula_structural   BaTiO3
_chemical_formula_sum   'Ba54 Ti54 O162'
_cell_volume   3472.45639697
_cell_formula_units_Z   54
loop_
 _symmetry_equiv_pos_site_id
 _symmetry_equiv_pos_as_xyz
  1  'x, y, z'
loop_
 _atom_site_type_symbol
 _atom_site_label
 _atom_site_symmetry_multiplicity
 _atom_site_fract_x
 _atom_site_fract_y
 _atom_site_fract_z
 _atom_site_occupancy
  Ba  Ba0  1  -0.00000000  0.00000000  0.49871949  1
  Ba  Ba1  1  -0.00000000  0.00000000  0.99871949  1
  Ba  Ba2  1  0.00000000  0.33333333  0.49871949  1
  Ba  Ba3  1  0.00000000  0.33333333  0.99871949  1
  Ba  Ba4  1  0.00000000  0.66666667  0.49871949  1
  Ba  Ba5  1  0.00000000  0.66666667  0.99871949  1
  Ba  Ba6  1  0.33333333  0.00000000  0.49871949  1
  Ba  Ba7  1  0.33333333  0.00000000  0.99871949  1
  Ba  Ba8  1  0.33333333  0.33333333  0.49871949  1
  Ba  Ba9  1  0.33333333  0.33333333  0.99871949  1
  Ba  Ba10  1  0.33333333  0.66666667  0.49871949  1
  Ba  Ba11  1  0.33333333  0.66666667  0.99871949  1
  Ba  Ba12  1  0.66666667  0.00000000  0.49871949  1
  Ba  Ba13  1  0.66666667  0.00000000  0.99871949  1
  Ba  Ba14  1  0.66666667  0.33333333  0.49871949  1
  Ba  Ba15  1  0.66666667  0.33333333  0.99871949  1
  Ba  Ba16  1  0.66666667  0.66666667  0.49871949  1
  Ba  Ba17  1  0.66666667  0.66666667  0.99871949  1
  Ba  Ba18  1  0.22222222  0.11111111  0.66538616  1
  Ba  Ba19  1  0.22222222  0.11111111  1.16538616  1
  Ba  Ba20  1  0.22222222  0.44444444  0.66538616  1
  Ba  Ba21  1  0.22222222  0.44444444  1.16538616  1
  Ba  Ba22  1  0.22222222  0.77777778  0.66538616  1
  Ba  Ba23  1  0.22222222  0.77777778  1.16538616  1
  Ba  Ba24  1  0.55555556  0.11111111  0.66538616  1
  Ba  Ba25  1  0.55555556  0.11111111  1.16538616  1
  Ba  Ba26  1  0.55555556  0.44444444  0.66538616  1
  Ba  Ba27  1  0.55555556  0.44444444  1.16538616  1
  Ba  Ba28  1  0.55555556  0.77777778  0.66538616  1
  Ba  Ba29  1  0.55555556  0.77777778  1.16538616  1
  Ba  Ba30  1  0.88888889  0.11111111  0.66538616  1
  Ba  Ba31  1  0.88888889  0.11111111  1.16538616  1
  Ba  Ba32  1  0.88888889  0.44444444  0.66538616  1
  Ba  Ba33  1  0.88888889  0.44444444  1.16538616  1
  Ba  Ba34  1  0.88888889  0.77777778  0.66538616  1
  Ba  Ba35  1  0.88888889  0.77777778  1.16538616  1
  Ba  Ba36  1  0.11111111  0.22222222  0.83205282  1
  Ba  Ba37  1  0.11111111  0.22222222  1.33205282  1
  Ba  Ba38  1  0.11111111  0.55555556  0.83205282  1
  Ba  Ba39  1  0.11111111  0.55555556  1.33205282  1
  Ba  Ba40  1  0.11111111  0.88888889  0.83205282  1
  Ba  Ba41  1  0.11111111  0.88888889  1.33205282  1
  Ba  Ba42  1  0.44444444  0.22222222  0.83205282  1
  Ba  Ba43  1  0.44444444  0.22222222  1.33205282  1
  Ba  Ba44  1  0.44444444  0.55555556  0.83205282  1
  Ba  Ba45  1  0.44444444  0.55555556  1.33205282  1
  Ba  Ba46  1  0.44444444  0.88888889  0.83205282  1
  Ba  Ba47  1  0.44444444  0.88888889  1.33205282  1
  Ba  Ba48  1  0.77777778  0.22222222  0.83205282  1
  Ba  Ba49  1  0.77777778  0.22222222  1.33205282  1
  Ba  Ba50  1  0.77777778  0.55555556  0.83205282  1
  Ba  Ba51  1  0.77777778  0.55555556  1.33205282  1
  Ba  Ba52  1  0.77777778  0.88888889  0.83205282  1
  Ba  Ba53  1  0.77777778  0.88888889  1.33205282  1
  Ti  Ti54  1  0.00000000  0.00000000  0.25364319  1
  Ti  Ti55  1  0.00000000  0.00000000  0.75364319  1
  Ti  Ti56  1  0.00000000  0.33333333  0.25364319  1
  Ti  Ti57  1  0.00000000  0.33333333  0.75364319  1
  Ti  Ti58  1  0.00000000  0.66666667  0.25364319  1
  Ti  Ti59  1  0.00000000  0.66666667  0.75364319  1
  Ti  Ti60  1  0.33333333  0.00000000  0.25364319  1
  Ti  Ti61  1  0.33333333  0.00000000  0.75364319  1
  Ti  Ti62  1  0.33333333  0.33333333  0.25364319  1
  Ti  Ti63  1  0.33333333  0.33333333  0.75364319  1
  Ti  Ti64  1  0.33333333  0.66666667  0.25364319  1
  Ti  Ti65  1  0.33333333  0.66666667  0.75364319  1
  Ti  Ti66  1  0.66666667  0.00000000  0.25364319  1
  Ti  Ti67  1  0.66666667  0.00000000  0.75364319  1
  Ti  Ti68  1  0.66666667  0.33333333  0.25364319  1
  Ti  Ti69  1  0.66666667  0.33333333  0.75364319  1
  Ti  Ti70  1  0.66666667  0.66666667  0.25364319  1
  Ti  Ti71  1  0.66666667  0.66666667  0.75364319  1
  Ti  Ti72  1  0.22222222  0.11111111  0.42030986  1
  Ti  Ti73  1  0.22222222  0.11111111  0.92030986  1
  Ti  Ti74  1  0.22222222  0.44444444  0.42030986  1
  Ti  Ti75  1  0.22222222  0.44444444  0.92030986  1
  Ti  Ti76  1  0.22222222  0.77777778  0.42030986  1
  Ti  Ti77  1  0.22222222  0.77777778  0.92030986  1
  Ti  Ti78  1  0.55555556  0.11111111  0.42030986  1
  Ti  Ti79  1  0.55555556  0.11111111  0.92030986  1
  Ti  Ti80  1  0.55555556  0.44444444  0.42030986  1
  Ti  Ti81  1  0.55555556  0.44444444  0.92030986  1
  Ti  Ti82  1  0.55555556  0.77777778  0.42030986  1
  Ti  Ti83  1  0.55555556  0.77777778  0.92030986  1
  Ti  Ti84  1  0.88888889  0.11111111  0.42030986  1
  Ti  Ti85  1  0.88888889  0.11111111  0.92030986  1
  Ti  Ti86  1  0.88888889  0.44444444  0.42030986  1
  Ti  Ti87  1  0.88888889  0.44444444  0.92030986  1
  Ti  Ti88  1  0.88888889  0.77777778  0.42030986  1
  Ti  Ti89  1  0.88888889  0.77777778  0.92030986  1
  Ti  Ti90  1  0.11111111  0.22222222  0.58697652  1
  Ti  Ti91  1  0.11111111  0.22222222  1.08697652  1
  Ti  Ti92  1  0.11111111  0.55555556  0.58697652  1
  Ti  Ti93  1  0.11111111  0.55555556  1.08697652  1
  Ti  Ti94  1  0.11111111  0.88888889  0.58697652  1
  Ti  Ti95  1  0.11111111  0.88888889  1.08697652  1
  Ti  Ti96  1  0.44444444  0.22222222  0.58697652  1
  Ti  Ti97  1  0.44444444  0.22222222  1.08697652  1
  Ti  Ti98  1  0.44444444  0.55555556  0.58697652  1
  Ti  Ti99  1  0.44444444  0.55555556  1.08697652  1
  Ti  Ti100  1  0.44444444  0.88888889  0.58697652  1
  Ti  Ti101  1  0.44444444  0.88888889  1.08697652  1
  Ti  Ti102  1  0.77777778  0.22222222  0.58697652  1
  Ti  Ti103  1  0.77777778  0.22222222  1.08697652  1
  Ti  Ti104  1  0.77777778  0.55555556  0.58697652  1
  Ti  Ti105  1  0.77777778  0.55555556  1.08697652  1
  Ti  Ti106  1  0.77777778  0.88888889  0.58697652  1
  Ti  Ti107  1  0.77777778  0.88888889  1.08697652  1
  O  O108  1  -0.05510902  -0.11021803  0.32612911  1
  O  O109  1  -0.05510902  -0.11021803  0.82612911  1
  O  O110  1  -0.05510902  0.22311530  0.32612911  1
  O  O111  1  -0.05510902  0.22311530  0.82612911  1
  O  O112  1  -0.05510902  0.55644863  0.32612911  1
  O  O113  1  -0.05510902  0.55644863  0.82612911  1
  O  O114  1  0.27822432  -0.11021803  0.32612911  1
  O  O115  1  0.27822432  -0.11021803  0.82612911  1
  O  O116  1  0.27822432  0.22311530  0.32612911  1
  O  O117  1  0.27822432  0.22311530  0.82612911  1
  O  O118  1  0.27822432  0.55644863  0.32612911  1
  O  O119  1  0.27822432  0.55644863  0.82612911  1
  O  O120  1  0.61155765  -0.11021803  0.32612911  1
  O  O121  1  0.61155765  -0.11021803  0.82612911  1
  O  O122  1  0.61155765  0.22311530  0.32612911  1
  O  O123  1  0.61155765  0.22311530  0.82612911  1
  O  O124  1  0.61155765  0.55644863  0.32612911  1
  O  O125  1  0.61155765  0.55644863  0.82612911  1
  O  O126  1  0.16711321  0.00089308  0.49279577  1
  O  O127  1  0.16711321  0.00089308  0.99279577  1
  O  O128  1  0.16711321  0.33422641  0.49279577  1
  O  O129  1  0.16711321  0.33422641  0.99279577  1
  O  O130  1  0.16711321  0.66755974  0.49279577  1
  O  O131  1  0.16711321  0.66755974  0.99279577  1
  O  O132  1  0.50044654  0.00089308  0.49279577  1
  O  O133  1  0.50044654  0.00089308  0.99279577  1
  O  O134  1  0.50044654  0.33422641  0.49279577  1
  O  O135  1  0.50044654  0.33422641  0.99279577  1
  O  O136  1  0.50044654  0.66755974  0.49279577  1
  O  O137  1  0.50044654  0.66755974  0.99279577  1
  O  O138  1  0.83377987  0.00089308  0.49279577  1
  O  O139  1  0.83377987  0.00089308  0.99279577  1
  O  O140  1  0.83377987  0.33422641  0.49279577  1
  O  O141  1  0.83377987  0.33422641  0.99279577  1
  O  O142  1  0.83377987  0.66755974  0.49279577  1
  O  O143  1  0.83377987  0.66755974  0.99279577  1
  O  O144  1  0.05600209  0.11200419  0.65946244  1
  O  O145  1  0.05600209  0.11200419  1.15946244  1
  O  O146  1  0.05600209  0.44533752  0.65946244  1
  O  O147  1  0.05600209  0.44533752  1.15946244  1
  O  O148  1  0.05600209  0.77867086  0.65946244  1
  O  O149  1  0.05600209  0.77867086  1.15946244  1
  O  O150  1  0.38933543  0.11200419  0.65946244  1
  O  O151  1  0.38933543  0.11200419  1.15946244  1
  O  O152  1  0.38933543  0.44533752  0.65946244  1
  O  O153  1  0.38933543  0.44533752  1.15946244  1
  O  O154  1  0.38933543  0.77867086  0.65946244  1
  O  O155  1  0.38933543  0.77867086  1.15946244  1
  O  O156  1  0.72266876  0.11200419  0.65946244  1
  O  O157  1  0.72266876  0.11200419  1.15946244  1
  O  O158  1  0.72266876  0.44533752  0.65946244  1
  O  O159  1  0.72266876  0.44533752  1.15946244  1
  O  O160  1  0.72266876  0.77867086  0.65946244  1
  O  O161  1  0.72266876  0.77867086  1.15946244  1
  O  O162  1  0.11021803  0.05510902  0.32612911  1
  O  O163  1  0.11021803  0.05510902  0.82612911  1
  O  O164  1  0.11021803  0.38844235  0.32612911  1
  O  O165  1  0.11021803  0.38844235  0.82612911  1
  O  O166  1  0.11021803  0.72177568  0.32612911  1
  O  O167  1  0.11021803  0.72177568  0.82612911  1
  O  O168  1  0.44355137  0.05510902  0.32612911  1
  O  O169  1  0.44355137  0.05510902  0.82612911  1
  O  O170  1  0.44355137  0.38844235  0.32612911  1
  O  O171  1  0.44355137  0.38844235  0.82612911  1
  O  O172  1  0.44355137  0.72177568  0.32612911  1
  O  O173  1  0.44355137  0.72177568  0.82612911  1
  O  O174  1  0.77688470  0.05510902  0.32612911  1
  O  O175  1  0.77688470  0.05510902  0.82612911  1
  O  O176  1  0.77688470  0.38844235  0.32612911  1
  O  O177  1  0.77688470  0.38844235  0.82612911  1
  O  O178  1  0.77688470  0.72177568  0.32612911  1
  O  O179  1  0.77688470  0.72177568  0.82612911  1
  O  O180  1  0.33244026  0.16622013  0.49279577  1
  O  O181  1  0.33244026  0.16622013  0.99279577  1
  O  O182  1  0.33244026  0.49955346  0.49279577  1
  O  O183  1  0.33244026  0.49955346  0.99279577  1
  O  O184  1  0.33244026  0.83288679  0.49279577  1
  O  O185  1  0.33244026  0.83288679  0.99279577  1
  O  O186  1  0.66577359  0.16622013  0.49279577  1
  O  O187  1  0.66577359  0.16622013  0.99279577  1
  O  O188  1  0.66577359  0.49955346  0.49279577  1
  O  O189  1  0.66577359  0.49955346  0.99279577  1
  O  O190  1  0.66577359  0.83288679  0.49279577  1
  O  O191  1  0.66577359  0.83288679  0.99279577  1
  O  O192  1  0.99910692  0.16622013  0.49279577  1
  O  O193  1  0.99910692  0.16622013  0.99279577  1
  O  O194  1  0.99910692  0.49955346  0.49279577  1
  O  O195  1  0.99910692  0.49955346  0.99279577  1
  O  O196  1  0.99910692  0.83288679  0.49279577  1
  O  O197  1  0.99910692  0.83288679  0.99279577  1
  O  O198  1  0.22132914  0.27733124  0.65946244  1
  O  O199  1  0.22132914  0.27733124  1.15946244  1
  O  O200  1  0.22132914  0.61066457  0.65946244  1
  O  O201  1  0.22132914  0.61066457  1.15946244  1
  O  O202  1  0.22132914  0.94399791  0.65946244  1
  O  O203  1  0.22132914  0.94399791  1.15946244  1
  O  O204  1  0.55466248  0.27733124  0.65946244  1
  O  O205  1  0.55466248  0.27733124  1.15946244  1
  O  O206  1  0.55466248  0.61066457  0.65946244  1
  O  O207  1  0.55466248  0.61066457  1.15946244  1
  O  O208  1  0.55466248  0.94399791  0.65946244  1
  O  O209  1  0.55466248  0.94399791  1.15946244  1
  O  O210  1  0.88799581  0.27733124  0.65946244  1
  O  O211  1  0.88799581  0.27733124  1.15946244  1
  O  O212  1  0.88799581  0.61066457  0.65946244  1
  O  O213  1  0.88799581  0.61066457  1.15946244  1
  O  O214  1  0.88799581  0.94399791  0.65946244  1
  O  O215  1  0.88799581  0.94399791  1.15946244  1
  O  O216  1  -0.05510902  0.05510902  0.32612911  1
  O  O217  1  -0.05510902  0.05510902  0.82612911  1
  O  O218  1  -0.05510902  0.38844235  0.32612911  1
  O  O219  1  -0.05510902  0.38844235  0.82612911  1
  O  O220  1  -0.05510902  0.72177568  0.32612911  1
  O  O221  1  -0.05510902  0.72177568  0.82612911  1
  O  O222  1  0.27822432  0.05510902  0.32612911  1
  O  O223  1  0.27822432  0.05510902  0.82612911  1
  O  O224  1  0.27822432  0.38844235  0.32612911  1
  O  O225  1  0.27822432  0.38844235  0.82612911  1
  O  O226  1  0.27822432  0.72177568  0.32612911  1
  O  O227  1  0.27822432  0.72177568  0.82612911  1
  O  O228  1  0.61155765  0.05510902  0.32612911  1
  O  O229  1  0.61155765  0.05510902  0.82612911  1
  O  O230  1  0.61155765  0.38844235  0.32612911  1
  O  O231  1  0.61155765  0.38844235  0.82612911  1
  O  O232  1  0.61155765  0.72177568  0.32612911  1
  O  O233  1  0.61155765  0.72177568  0.82612911  1
  O  O234  1  0.16711321  0.16622013  0.49279577  1
  O  O235  1  0.16711321  0.16622013  0.99279577  1
  O  O236  1  0.16711321  0.49955346  0.49279577  1
  O  O237  1  0.16711321  0.49955346  0.99279577  1
  O  O238  1  0.16711321  0.83288679  0.49279577  1
  O  O239  1  0.16711321  0.83288679  0.99279577  1
  O  O240  1  0.50044654  0.16622013  0.49279577  1
  O  O241  1  0.50044654  0.16622013  0.99279577  1
  O  O242  1  0.50044654  0.49955346  0.49279577  1
  O  O243  1  0.50044654  0.49955346  0.99279577  1
  O  O244  1  0.50044654  0.83288679  0.49279577  1
  O  O245  1  0.50044654  0.83288679  0.99279577  1
  O  O246  1  0.83377987  0.16622013  0.49279577  1
  O  O247  1  0.83377987  0.16622013  0.99279577  1
  O  O248  1  0.83377987  0.49955346  0.49279577  1
  O  O249  1  0.83377987  0.49955346  0.99279577  1
  O  O250  1  0.83377987  0.83288679  0.49279577  1
  O  O251  1  0.83377987  0.83288679  0.99279577  1
  O  O252  1  0.05600209  0.27733124  0.65946244  1
  O  O253  1  0.05600209  0.27733124  1.15946244  1
  O  O254  1  0.05600209  0.61066457  0.65946244  1
  O  O255  1  0.05600209  0.61066457  1.15946244  1
  O  O256  1  0.05600209  0.94399791  0.65946244  1
  O  O257  1  0.05600209  0.94399791  1.15946244  1
  O  O258  1  0.38933543  0.27733124  0.65946244  1
  O  O259  1  0.38933543  0.27733124  1.15946244  1
  O  O260  1  0.38933543  0.61066457  0.65946244  1
  O  O261  1  0.38933543  0.61066457  1.15946244  1
  O  O262  1  0.38933543  0.94399791  0.65946244  1
  O  O263  1  0.38933543  0.94399791  1.15946244  1
  O  O264  1  0.72266876  0.27733124  0.65946244  1
  O  O265  1  0.72266876  0.27733124  1.15946244  1
  O  O266  1  0.72266876  0.61066457  0.65946244  1
  O  O267  1  0.72266876  0.61066457  1.15946244  1
  O  O268  1  0.72266876  0.94399791  0.65946244  1
  O  O269  1  0.72266876  0.94399791  1.15946244  1
