# generated using pymatgen
data_Ba4ScReWO12
_symmetry_space_group_name_H-M   'P 1'
_cell_length_a   11.48842116
_cell_length_b   11.48842116
_cell_length_c   27.82031750
_cell_angle_alpha   90.00000000
_cell_angle_beta   90.00000000
_cell_angle_gamma   120.00000000
_symmetry_Int_Tables_number   1
_chemical_formula_structural   Ba4ScReWO12
_chemical_formula_sum   'Ba48 Sc12 Re12 W12 O144'
_cell_volume   3179.89961572
_cell_formula_units_Z   12
loop_
 _symmetry_equiv_pos_site_id
 _symmetry_equiv_pos_as_xyz
  1  'x, y, z'
loop_
 _atom_site_type_symbol
 _atom_site_label
 _atom_site_symmetry_multiplicity
 _atom_site_fract_x
 _atom_site_fract_y
 _atom_site_fract_z
 _atom_site_occupancy
  Ba  Ba0  1  -0.00000000  -0.00000000  0.29213233  1
  Ba  Ba1  1  0.00000000  0.50000000  0.29213233  1
  Ba  Ba2  1  0.50000000  -0.00000000  0.29213233  1
  Ba  Ba3  1  0.50000000  0.50000000  0.29213233  1
  Ba  Ba4  1  0.33333333  0.16666667  0.62546567  1
  Ba  Ba5  1  0.33333333  0.66666667  0.62546567  1
  Ba  Ba6  1  0.83333333  0.16666667  0.62546567  1
  Ba  Ba7  1  0.83333333  0.66666667  0.62546567  1
  Ba  Ba8  1  0.16666667  0.33333333  0.95879900  1
  Ba  Ba9  1  0.16666667  0.83333333  0.95879900  1
  Ba  Ba10  1  0.66666667  0.33333333  0.95879900  1
  Ba  Ba11  1  0.66666667  0.83333333  0.95879900  1
  Ba  Ba12  1  0.00000000  0.00000000  0.71056968  1
  Ba  Ba13  1  0.00000000  0.50000000  0.71056968  1
  Ba  Ba14  1  0.50000000  0.00000000  0.71056968  1
  Ba  Ba15  1  0.50000000  0.50000000  0.71056968  1
  Ba  Ba16  1  0.33333333  0.16666667  1.04390301  1
  Ba  Ba17  1  0.33333333  0.66666667  1.04390301  1
  Ba  Ba18  1  0.83333333  0.16666667  1.04390301  1
  Ba  Ba19  1  0.83333333  0.66666667  1.04390301  1
  Ba  Ba20  1  0.16666667  0.33333333  1.37723635  1
  Ba  Ba21  1  0.16666667  0.83333333  1.37723635  1
  Ba  Ba22  1  0.66666667  0.33333333  1.37723635  1
  Ba  Ba23  1  0.66666667  0.83333333  1.37723635  1
  Ba  Ba24  1  -0.00000000  -0.00000000  0.13045799  1
  Ba  Ba25  1  0.00000000  0.50000000  0.13045799  1
  Ba  Ba26  1  0.50000000  -0.00000000  0.13045799  1
  Ba  Ba27  1  0.50000000  0.50000000  0.13045799  1
  Ba  Ba28  1  0.33333333  0.16666667  0.46379132  1
  Ba  Ba29  1  0.33333333  0.66666667  0.46379132  1
  Ba  Ba30  1  0.83333333  0.16666667  0.46379132  1
  Ba  Ba31  1  0.83333333  0.66666667  0.46379132  1
  Ba  Ba32  1  0.16666667  0.33333333  0.79712466  1
  Ba  Ba33  1  0.16666667  0.83333333  0.79712466  1
  Ba  Ba34  1  0.66666667  0.33333333  0.79712466  1
  Ba  Ba35  1  0.66666667  0.83333333  0.79712466  1
  Ba  Ba36  1  -0.00000000  0.00000000  0.86571363  1
  Ba  Ba37  1  0.00000000  0.50000000  0.86571363  1
  Ba  Ba38  1  0.50000000  0.00000000  0.86571363  1
  Ba  Ba39  1  0.50000000  0.50000000  0.86571363  1
  Ba  Ba40  1  0.33333333  0.16666667  1.19904696  1
  Ba  Ba41  1  0.33333333  0.66666667  1.19904696  1
  Ba  Ba42  1  0.83333333  0.16666667  1.19904696  1
  Ba  Ba43  1  0.83333333  0.66666667  1.19904696  1
  Ba  Ba44  1  0.16666667  0.33333333  1.53238030  1
  Ba  Ba45  1  0.16666667  0.83333333  1.53238030  1
  Ba  Ba46  1  0.66666667  0.33333333  1.53238030  1
  Ba  Ba47  1  0.66666667  0.83333333  1.53238030  1
  Sc  Sc48  1  -0.00000000  -0.00000000  0.00158200  1
  Sc  Sc49  1  0.00000000  0.50000000  0.00158200  1
  Sc  Sc50  1  0.50000000  -0.00000000  0.00158200  1
  Sc  Sc51  1  0.50000000  0.50000000  0.00158200  1
  Sc  Sc52  1  0.33333333  0.16666667  0.33491534  1
  Sc  Sc53  1  0.33333333  0.66666667  0.33491534  1
  Sc  Sc54  1  0.83333333  0.16666667  0.33491534  1
  Sc  Sc55  1  0.83333333  0.66666667  0.33491534  1
  Sc  Sc56  1  0.16666667  0.33333333  0.66824867  1
  Sc  Sc57  1  0.16666667  0.83333333  0.66824867  1
  Sc  Sc58  1  0.66666667  0.33333333  0.66824867  1
  Sc  Sc59  1  0.66666667  0.83333333  0.66824867  1
  Re  Re60  1  -0.00000000  -0.00000000  0.58008811  1
  Re  Re61  1  -0.00000000  0.50000000  0.58008811  1
  Re  Re62  1  0.50000000  -0.00000000  0.58008811  1
  Re  Re63  1  0.50000000  0.50000000  0.58008811  1
  Re  Re64  1  0.33333333  0.16666667  0.91342144  1
  Re  Re65  1  0.33333333  0.66666667  0.91342144  1
  Re  Re66  1  0.83333333  0.16666667  0.91342144  1
  Re  Re67  1  0.83333333  0.66666667  0.91342144  1
  Re  Re68  1  0.16666667  0.33333333  1.24675478  1
  Re  Re69  1  0.16666667  0.83333333  1.24675478  1
  Re  Re70  1  0.66666667  0.33333333  1.24675478  1
  Re  Re71  1  0.66666667  0.83333333  1.24675478  1
  W  W72  1  -0.00000000  -0.00000000  0.42131349  1
  W  W73  1  -0.00000000  0.50000000  0.42131349  1
  W  W74  1  0.50000000  -0.00000000  0.42131349  1
  W  W75  1  0.50000000  0.50000000  0.42131349  1
  W  W76  1  0.33333333  0.16666667  0.75464683  1
  W  W77  1  0.33333333  0.66666667  0.75464683  1
  W  W78  1  0.83333333  0.16666667  0.75464683  1
  W  W79  1  0.83333333  0.66666667  0.75464683  1
  W  W80  1  0.16666667  0.33333333  1.08798016  1
  W  W81  1  0.16666667  0.83333333  1.08798016  1
  W  W82  1  0.66666667  0.33333333  1.08798016  1
  W  W83  1  0.66666667  0.83333333  1.08798016  1
  O  O84  1  0.08022076  0.16044152  0.45488759  1
  O  O85  1  0.08022076  0.66044152  0.45488759  1
  O  O86  1  0.58022076  0.16044152  0.45488759  1
  O  O87  1  0.58022076  0.66044152  0.45488759  1
  O  O88  1  0.41355409  0.32710819  0.78822093  1
  O  O89  1  0.41355409  0.82710819  0.78822093  1
  O  O90  1  0.91355409  0.32710819  0.78822093  1
  O  O91  1  0.91355409  0.82710819  0.78822093  1
  O  O92  1  0.24688743  0.49377485  1.12155426  1
  O  O93  1  0.24688743  0.99377485  1.12155426  1
  O  O94  1  0.74688743  0.49377485  1.12155426  1
  O  O95  1  0.74688743  0.99377485  1.12155426  1
  O  O96  1  0.08022076  -0.08022076  0.45488759  1
  O  O97  1  0.08022076  0.41977924  0.45488759  1
  O  O98  1  0.58022076  -0.08022076  0.45488759  1
  O  O99  1  0.58022076  0.41977924  0.45488759  1
  O  O100  1  0.41355409  0.08644591  0.78822093  1
  O  O101  1  0.41355409  0.58644591  0.78822093  1
  O  O102  1  0.91355409  0.08644591  0.78822093  1
  O  O103  1  0.91355409  0.58644591  0.78822093  1
  O  O104  1  0.24688743  0.25311257  1.12155426  1
  O  O105  1  0.24688743  0.75311257  1.12155426  1
  O  O106  1  0.74688743  0.25311257  1.12155426  1
  O  O107  1  0.74688743  0.75311257  1.12155426  1
  O  O108  1  -0.16044152  -0.08022076  0.45488759  1
  O  O109  1  -0.16044152  0.41977924  0.45488759  1
  O  O110  1  0.33955848  -0.08022076  0.45488759  1
  O  O111  1  0.33955848  0.41977924  0.45488759  1
  O  O112  1  0.17289181  0.08644591  0.78822093  1
  O  O113  1  0.17289181  0.58644591  0.78822093  1
  O  O114  1  0.67289181  0.08644591  0.78822093  1
  O  O115  1  0.67289181  0.58644591  0.78822093  1
  O  O116  1  0.00622515  0.25311257  1.12155426  1
  O  O117  1  0.00622515  0.75311257  1.12155426  1
  O  O118  1  0.50622515  0.25311257  1.12155426  1
  O  O119  1  0.50622515  0.75311257  1.12155426  1
  O  O120  1  -0.07849417  -0.15698834  0.54585412  1
  O  O121  1  -0.07849417  0.34301166  0.54585412  1
  O  O122  1  0.42150583  -0.15698834  0.54585412  1
  O  O123  1  0.42150583  0.34301166  0.54585412  1
  O  O124  1  0.25483916  0.00967832  0.87918746  1
  O  O125  1  0.25483916  0.50967832  0.87918746  1
  O  O126  1  0.75483916  0.00967832  0.87918746  1
  O  O127  1  0.75483916  0.50967832  0.87918746  1
  O  O128  1  0.08817250  0.17634499  1.21252079  1
  O  O129  1  0.08817250  0.67634499  1.21252079  1
  O  O130  1  0.58817250  0.17634499  1.21252079  1
  O  O131  1  0.58817250  0.67634499  1.21252079  1
  O  O132  1  -0.07849417  0.07849417  0.54585412  1
  O  O133  1  -0.07849417  0.57849417  0.54585412  1
  O  O134  1  0.42150583  0.07849417  0.54585412  1
  O  O135  1  0.42150583  0.57849417  0.54585412  1
  O  O136  1  0.25483916  0.24516084  0.87918746  1
  O  O137  1  0.25483916  0.74516084  0.87918746  1
  O  O138  1  0.75483916  0.24516084  0.87918746  1
  O  O139  1  0.75483916  0.74516084  0.87918746  1
  O  O140  1  0.08817250  0.41182750  1.21252079  1
  O  O141  1  0.08817250  0.91182750  1.21252079  1
  O  O142  1  0.58817250  0.41182750  1.21252079  1
  O  O143  1  0.58817250  0.91182750  1.21252079  1
  O  O144  1  0.15698834  0.07849417  0.54585412  1
  O  O145  1  0.15698834  0.57849417  0.54585412  1
  O  O146  1  0.65698834  0.07849417  0.54585412  1
  O  O147  1  0.65698834  0.57849417  0.54585412  1
  O  O148  1  0.49032168  0.24516084  0.87918746  1
  O  O149  1  0.49032168  0.74516084  0.87918746  1
  O  O150  1  0.99032168  0.24516084  0.87918746  1
  O  O151  1  0.99032168  0.74516084  0.87918746  1
  O  O152  1  0.32365501  0.41182750  1.21252079  1
  O  O153  1  0.32365501  0.91182750  1.21252079  1
  O  O154  1  0.82365501  0.41182750  1.21252079  1
  O  O155  1  0.82365501  0.91182750  1.21252079  1
  O  O156  1  0.07885792  0.15771583  0.62303473  1
  O  O157  1  0.07885792  0.65771583  0.62303473  1
  O  O158  1  0.57885792  0.15771583  0.62303473  1
  O  O159  1  0.57885792  0.65771583  0.62303473  1
  O  O160  1  0.41219125  0.32438250  0.95636807  1
  O  O161  1  0.41219125  0.82438250  0.95636807  1
  O  O162  1  0.91219125  0.32438250  0.95636807  1
  O  O163  1  0.91219125  0.82438250  0.95636807  1
  O  O164  1  0.24552458  0.49104917  1.28970140  1
  O  O165  1  0.24552458  0.99104917  1.28970140  1
  O  O166  1  0.74552458  0.49104917  1.28970140  1
  O  O167  1  0.74552458  0.99104917  1.28970140  1
  O  O168  1  0.07885792  -0.07885792  0.62303473  1
  O  O169  1  0.07885792  0.42114208  0.62303473  1
  O  O170  1  0.57885792  -0.07885792  0.62303473  1
  O  O171  1  0.57885792  0.42114208  0.62303473  1
  O  O172  1  0.41219125  0.08780875  0.95636807  1
  O  O173  1  0.41219125  0.58780875  0.95636807  1
  O  O174  1  0.91219125  0.08780875  0.95636807  1
  O  O175  1  0.91219125  0.58780875  0.95636807  1
  O  O176  1  0.24552458  0.25447542  1.28970140  1
  O  O177  1  0.24552458  0.75447542  1.28970140  1
  O  O178  1  0.74552458  0.25447542  1.28970140  1
  O  O179  1  0.74552458  0.75447542  1.28970140  1
  O  O180  1  -0.15771583  -0.07885792  0.62303473  1
  O  O181  1  -0.15771583  0.42114208  0.62303473  1
  O  O182  1  0.34228417  -0.07885792  0.62303473  1
  O  O183  1  0.34228417  0.42114208  0.62303473  1
  O  O184  1  0.17561750  0.08780875  0.95636807  1
  O  O185  1  0.17561750  0.58780875  0.95636807  1
  O  O186  1  0.67561750  0.08780875  0.95636807  1
  O  O187  1  0.67561750  0.58780875  0.95636807  1
  O  O188  1  0.00895083  0.25447542  1.28970140  1
  O  O189  1  0.00895083  0.75447542  1.28970140  1
  O  O190  1  0.50895083  0.25447542  1.28970140  1
  O  O191  1  0.50895083  0.75447542  1.28970140  1
  O  O192  1  -0.08023448  -0.16046897  0.37560447  1
  O  O193  1  -0.08023448  0.33953103  0.37560447  1
  O  O194  1  0.41976552  -0.16046897  0.37560447  1
  O  O195  1  0.41976552  0.33953103  0.37560447  1
  O  O196  1  0.25309885  0.00619770  0.70893780  1
  O  O197  1  0.25309885  0.50619770  0.70893780  1
  O  O198  1  0.75309885  0.00619770  0.70893780  1
  O  O199  1  0.75309885  0.50619770  0.70893780  1
  O  O200  1  0.08643218  0.17286437  1.04227114  1
  O  O201  1  0.08643218  0.67286437  1.04227114  1
  O  O202  1  0.58643218  0.17286437  1.04227114  1
  O  O203  1  0.58643218  0.67286437  1.04227114  1
  O  O204  1  -0.08023448  0.08023448  0.37560447  1
  O  O205  1  -0.08023448  0.58023448  0.37560447  1
  O  O206  1  0.41976552  0.08023448  0.37560447  1
  O  O207  1  0.41976552  0.58023448  0.37560447  1
  O  O208  1  0.25309885  0.24690115  0.70893780  1
  O  O209  1  0.25309885  0.74690115  0.70893780  1
  O  O210  1  0.75309885  0.24690115  0.70893780  1
  O  O211  1  0.75309885  0.74690115  0.70893780  1
  O  O212  1  0.08643218  0.41356782  1.04227114  1
  O  O213  1  0.08643218  0.91356782  1.04227114  1
  O  O214  1  0.58643218  0.41356782  1.04227114  1
  O  O215  1  0.58643218  0.91356782  1.04227114  1
  O  O216  1  0.16046897  0.08023448  0.37560447  1
  O  O217  1  0.16046897  0.58023448  0.37560447  1
  O  O218  1  0.66046897  0.08023448  0.37560447  1
  O  O219  1  0.66046897  0.58023448  0.37560447  1
  O  O220  1  0.49380230  0.24690115  0.70893780  1
  O  O221  1  0.49380230  0.74690115  0.70893780  1
  O  O222  1  0.99380230  0.24690115  0.70893780  1
  O  O223  1  0.99380230  0.74690115  0.70893780  1
  O  O224  1  0.32713563  0.41356782  1.04227114  1
  O  O225  1  0.32713563  0.91356782  1.04227114  1
  O  O226  1  0.82713563  0.41356782  1.04227114  1
  O  O227  1  0.82713563  0.91356782  1.04227114  1
