# generated using pymatgen
data_Ca2Pt3O8
_symmetry_space_group_name_H-M   'P 1'
_cell_length_a   18.68442845
_cell_length_b   18.68442845
_cell_length_c   15.20373689
_cell_angle_alpha   90.00000000
_cell_angle_beta   90.00000000
_cell_angle_gamma   120.00000000
_symmetry_Int_Tables_number   1
_chemical_formula_structural   Ca2Pt3O8
_chemical_formula_sum   'Ca54 Pt81 O216'
_cell_volume   4596.64126790
_cell_formula_units_Z   27
loop_
 _symmetry_equiv_pos_site_id
 _symmetry_equiv_pos_as_xyz
  1  'x, y, z'
loop_
 _atom_site_type_symbol
 _atom_site_label
 _atom_site_symmetry_multiplicity
 _atom_site_fract_x
 _atom_site_fract_y
 _atom_site_fract_z
 _atom_site_occupancy
  Ca  Ca0  1  -0.00000000  -0.00000000  0.14458955  1
  Ca  Ca1  1  -0.00000000  0.33333333  0.14458955  1
  Ca  Ca2  1  -0.00000000  0.66666667  0.14458955  1
  Ca  Ca3  1  0.33333333  -0.00000000  0.14458955  1
  Ca  Ca4  1  0.33333333  0.33333333  0.14458955  1
  Ca  Ca5  1  0.33333333  0.66666667  0.14458955  1
  Ca  Ca6  1  0.66666667  -0.00000000  0.14458955  1
  Ca  Ca7  1  0.66666667  0.33333333  0.14458955  1
  Ca  Ca8  1  0.66666667  0.66666667  0.14458955  1
  Ca  Ca9  1  0.22222222  0.11111111  0.47792288  1
  Ca  Ca10  1  0.22222222  0.44444444  0.47792288  1
  Ca  Ca11  1  0.22222222  0.77777778  0.47792288  1
  Ca  Ca12  1  0.55555556  0.11111111  0.47792288  1
  Ca  Ca13  1  0.55555556  0.44444444  0.47792288  1
  Ca  Ca14  1  0.55555556  0.77777778  0.47792288  1
  Ca  Ca15  1  0.88888889  0.11111111  0.47792288  1
  Ca  Ca16  1  0.88888889  0.44444444  0.47792288  1
  Ca  Ca17  1  0.88888889  0.77777778  0.47792288  1
  Ca  Ca18  1  0.11111111  0.22222222  0.81125622  1
  Ca  Ca19  1  0.11111111  0.55555556  0.81125622  1
  Ca  Ca20  1  0.11111111  0.88888889  0.81125622  1
  Ca  Ca21  1  0.44444444  0.22222222  0.81125622  1
  Ca  Ca22  1  0.44444444  0.55555556  0.81125622  1
  Ca  Ca23  1  0.44444444  0.88888889  0.81125622  1
  Ca  Ca24  1  0.77777778  0.22222222  0.81125622  1
  Ca  Ca25  1  0.77777778  0.55555556  0.81125622  1
  Ca  Ca26  1  0.77777778  0.88888889  0.81125622  1
  Ca  Ca27  1  0.00000000  0.00000000  0.85541045  1
  Ca  Ca28  1  0.00000000  0.33333333  0.85541045  1
  Ca  Ca29  1  -0.00000000  0.66666667  0.85541045  1
  Ca  Ca30  1  0.33333333  0.00000000  0.85541045  1
  Ca  Ca31  1  0.33333333  0.33333333  0.85541045  1
  Ca  Ca32  1  0.33333333  0.66666667  0.85541045  1
  Ca  Ca33  1  0.66666667  0.00000000  0.85541045  1
  Ca  Ca34  1  0.66666667  0.33333333  0.85541045  1
  Ca  Ca35  1  0.66666667  0.66666667  0.85541045  1
  Ca  Ca36  1  0.22222222  0.11111111  1.18874378  1
  Ca  Ca37  1  0.22222222  0.44444444  1.18874378  1
  Ca  Ca38  1  0.22222222  0.77777778  1.18874378  1
  Ca  Ca39  1  0.55555556  0.11111111  1.18874378  1
  Ca  Ca40  1  0.55555556  0.44444444  1.18874378  1
  Ca  Ca41  1  0.55555556  0.77777778  1.18874378  1
  Ca  Ca42  1  0.88888889  0.11111111  1.18874378  1
  Ca  Ca43  1  0.88888889  0.44444444  1.18874378  1
  Ca  Ca44  1  0.88888889  0.77777778  1.18874378  1
  Ca  Ca45  1  0.11111111  0.22222222  1.52207712  1
  Ca  Ca46  1  0.11111111  0.55555556  1.52207712  1
  Ca  Ca47  1  0.11111111  0.88888889  1.52207712  1
  Ca  Ca48  1  0.44444444  0.22222222  1.52207712  1
  Ca  Ca49  1  0.44444444  0.55555556  1.52207712  1
  Ca  Ca50  1  0.44444444  0.88888889  1.52207712  1
  Ca  Ca51  1  0.77777778  0.22222222  1.52207712  1
  Ca  Ca52  1  0.77777778  0.55555556  1.52207712  1
  Ca  Ca53  1  0.77777778  0.88888889  1.52207712  1
  Pt  Pt54  1  0.05555556  -0.05555556  0.33333333  1
  Pt  Pt55  1  0.05555556  0.27777778  0.33333333  1
  Pt  Pt56  1  0.05555556  0.61111111  0.33333333  1
  Pt  Pt57  1  0.38888889  -0.05555556  0.33333333  1
  Pt  Pt58  1  0.38888889  0.27777778  0.33333333  1
  Pt  Pt59  1  0.38888889  0.61111111  0.33333333  1
  Pt  Pt60  1  0.72222222  -0.05555556  0.33333333  1
  Pt  Pt61  1  0.72222222  0.27777778  0.33333333  1
  Pt  Pt62  1  0.72222222  0.61111111  0.33333333  1
  Pt  Pt63  1  0.27777778  0.05555556  0.66666667  1
  Pt  Pt64  1  0.27777778  0.38888889  0.66666667  1
  Pt  Pt65  1  0.27777778  0.72222222  0.66666667  1
  Pt  Pt66  1  0.61111111  0.05555556  0.66666667  1
  Pt  Pt67  1  0.61111111  0.38888889  0.66666667  1
  Pt  Pt68  1  0.61111111  0.72222222  0.66666667  1
  Pt  Pt69  1  0.94444444  0.05555556  0.66666667  1
  Pt  Pt70  1  0.94444444  0.38888889  0.66666667  1
  Pt  Pt71  1  0.94444444  0.72222222  0.66666667  1
  Pt  Pt72  1  0.16666667  0.16666667  1.00000000  1
  Pt  Pt73  1  0.16666667  0.50000000  1.00000000  1
  Pt  Pt74  1  0.16666667  0.83333333  1.00000000  1
  Pt  Pt75  1  0.50000000  0.16666667  1.00000000  1
  Pt  Pt76  1  0.50000000  0.50000000  1.00000000  1
  Pt  Pt77  1  0.50000000  0.83333333  1.00000000  1
  Pt  Pt78  1  0.83333333  0.16666667  1.00000000  1
  Pt  Pt79  1  0.83333333  0.50000000  1.00000000  1
  Pt  Pt80  1  0.83333333  0.83333333  1.00000000  1
  Pt  Pt81  1  -0.11111111  -0.05555556  0.33333333  1
  Pt  Pt82  1  -0.11111111  0.27777778  0.33333333  1
  Pt  Pt83  1  -0.11111111  0.61111111  0.33333333  1
  Pt  Pt84  1  0.22222222  -0.05555556  0.33333333  1
  Pt  Pt85  1  0.22222222  0.27777778  0.33333333  1
  Pt  Pt86  1  0.22222222  0.61111111  0.33333333  1
  Pt  Pt87  1  0.55555556  -0.05555556  0.33333333  1
  Pt  Pt88  1  0.55555556  0.27777778  0.33333333  1
  Pt  Pt89  1  0.55555556  0.61111111  0.33333333  1
  Pt  Pt90  1  0.11111111  0.05555556  0.66666667  1
  Pt  Pt91  1  0.11111111  0.38888889  0.66666667  1
  Pt  Pt92  1  0.11111111  0.72222222  0.66666667  1
  Pt  Pt93  1  0.44444444  0.05555556  0.66666667  1
  Pt  Pt94  1  0.44444444  0.38888889  0.66666667  1
  Pt  Pt95  1  0.44444444  0.72222222  0.66666667  1
  Pt  Pt96  1  0.77777778  0.05555556  0.66666667  1
  Pt  Pt97  1  0.77777778  0.38888889  0.66666667  1
  Pt  Pt98  1  0.77777778  0.72222222  0.66666667  1
  Pt  Pt99  1  -0.00000000  0.16666667  1.00000000  1
  Pt  Pt100  1  -0.00000000  0.50000000  1.00000000  1
  Pt  Pt101  1  -0.00000000  0.83333333  1.00000000  1
  Pt  Pt102  1  0.33333333  0.16666667  1.00000000  1
  Pt  Pt103  1  0.33333333  0.50000000  1.00000000  1
  Pt  Pt104  1  0.33333333  0.83333333  1.00000000  1
  Pt  Pt105  1  0.66666667  0.16666667  1.00000000  1
  Pt  Pt106  1  0.66666667  0.50000000  1.00000000  1
  Pt  Pt107  1  0.66666667  0.83333333  1.00000000  1
  Pt  Pt108  1  0.05555556  0.11111111  0.33333333  1
  Pt  Pt109  1  0.05555556  0.44444444  0.33333333  1
  Pt  Pt110  1  0.05555556  0.77777778  0.33333333  1
  Pt  Pt111  1  0.38888889  0.11111111  0.33333333  1
  Pt  Pt112  1  0.38888889  0.44444444  0.33333333  1
  Pt  Pt113  1  0.38888889  0.77777778  0.33333333  1
  Pt  Pt114  1  0.72222222  0.11111111  0.33333333  1
  Pt  Pt115  1  0.72222222  0.44444444  0.33333333  1
  Pt  Pt116  1  0.72222222  0.77777778  0.33333333  1
  Pt  Pt117  1  0.27777778  0.22222222  0.66666667  1
  Pt  Pt118  1  0.27777778  0.55555556  0.66666667  1
  Pt  Pt119  1  0.27777778  0.88888889  0.66666667  1
  Pt  Pt120  1  0.61111111  0.22222222  0.66666667  1
  Pt  Pt121  1  0.61111111  0.55555556  0.66666667  1
  Pt  Pt122  1  0.61111111  0.88888889  0.66666667  1
  Pt  Pt123  1  0.94444444  0.22222222  0.66666667  1
  Pt  Pt124  1  0.94444444  0.55555556  0.66666667  1
  Pt  Pt125  1  0.94444444  0.88888889  0.66666667  1
  Pt  Pt126  1  0.16666667  0.33333333  1.00000000  1
  Pt  Pt127  1  0.16666667  0.66666667  1.00000000  1
  Pt  Pt128  1  0.16666667  1.00000000  1.00000000  1
  Pt  Pt129  1  0.50000000  0.33333333  1.00000000  1
  Pt  Pt130  1  0.50000000  0.66666667  1.00000000  1
  Pt  Pt131  1  0.50000000  1.00000000  1.00000000  1
  Pt  Pt132  1  0.83333333  0.33333333  1.00000000  1
  Pt  Pt133  1  0.83333333  0.66666667  1.00000000  1
  Pt  Pt134  1  0.83333333  1.00000000  1.00000000  1
  O  O135  1  -0.00000000  -0.00000000  0.39544117  1
  O  O136  1  -0.00000000  0.33333333  0.39544117  1
  O  O137  1  -0.00000000  0.66666667  0.39544117  1
  O  O138  1  0.33333333  -0.00000000  0.39544117  1
  O  O139  1  0.33333333  0.33333333  0.39544117  1
  O  O140  1  0.33333333  0.66666667  0.39544117  1
  O  O141  1  0.66666667  -0.00000000  0.39544117  1
  O  O142  1  0.66666667  0.33333333  0.39544117  1
  O  O143  1  0.66666667  0.66666667  0.39544117  1
  O  O144  1  0.22222222  0.11111111  0.72877451  1
  O  O145  1  0.22222222  0.44444444  0.72877451  1
  O  O146  1  0.22222222  0.77777778  0.72877451  1
  O  O147  1  0.55555556  0.11111111  0.72877451  1
  O  O148  1  0.55555556  0.44444444  0.72877451  1
  O  O149  1  0.55555556  0.77777778  0.72877451  1
  O  O150  1  0.88888889  0.11111111  0.72877451  1
  O  O151  1  0.88888889  0.44444444  0.72877451  1
  O  O152  1  0.88888889  0.77777778  0.72877451  1
  O  O153  1  0.11111111  0.22222222  1.06210784  1
  O  O154  1  0.11111111  0.55555556  1.06210784  1
  O  O155  1  0.11111111  0.88888889  1.06210784  1
  O  O156  1  0.44444444  0.22222222  1.06210784  1
  O  O157  1  0.44444444  0.55555556  1.06210784  1
  O  O158  1  0.44444444  0.88888889  1.06210784  1
  O  O159  1  0.77777778  0.22222222  1.06210784  1
  O  O160  1  0.77777778  0.55555556  1.06210784  1
  O  O161  1  0.77777778  0.88888889  1.06210784  1
  O  O162  1  0.00000000  0.00000000  0.60455883  1
  O  O163  1  0.00000000  0.33333333  0.60455883  1
  O  O164  1  -0.00000000  0.66666667  0.60455883  1
  O  O165  1  0.33333333  0.00000000  0.60455883  1
  O  O166  1  0.33333333  0.33333333  0.60455883  1
  O  O167  1  0.33333333  0.66666667  0.60455883  1
  O  O168  1  0.66666667  0.00000000  0.60455883  1
  O  O169  1  0.66666667  0.33333333  0.60455883  1
  O  O170  1  0.66666667  0.66666667  0.60455883  1
  O  O171  1  0.22222222  0.11111111  0.93789216  1
  O  O172  1  0.22222222  0.44444444  0.93789216  1
  O  O173  1  0.22222222  0.77777778  0.93789216  1
  O  O174  1  0.55555556  0.11111111  0.93789216  1
  O  O175  1  0.55555556  0.44444444  0.93789216  1
  O  O176  1  0.55555556  0.77777778  0.93789216  1
  O  O177  1  0.88888889  0.11111111  0.93789216  1
  O  O178  1  0.88888889  0.44444444  0.93789216  1
  O  O179  1  0.88888889  0.77777778  0.93789216  1
  O  O180  1  0.11111111  0.22222222  1.27122549  1
  O  O181  1  0.11111111  0.55555556  1.27122549  1
  O  O182  1  0.11111111  0.88888889  1.27122549  1
  O  O183  1  0.44444444  0.22222222  1.27122549  1
  O  O184  1  0.44444444  0.55555556  1.27122549  1
  O  O185  1  0.44444444  0.88888889  1.27122549  1
  O  O186  1  0.77777778  0.22222222  1.27122549  1
  O  O187  1  0.77777778  0.55555556  1.27122549  1
  O  O188  1  0.77777778  0.88888889  1.27122549  1
  O  O189  1  0.04956145  0.09912291  0.73817171  1
  O  O190  1  0.04956145  0.43245624  0.73817171  1
  O  O191  1  0.04956145  0.76578958  0.73817171  1
  O  O192  1  0.38289479  0.09912291  0.73817171  1
  O  O193  1  0.38289479  0.43245624  0.73817171  1
  O  O194  1  0.38289479  0.76578958  0.73817171  1
  O  O195  1  0.71622812  0.09912291  0.73817171  1
  O  O196  1  0.71622812  0.43245624  0.73817171  1
  O  O197  1  0.71622812  0.76578958  0.73817171  1
  O  O198  1  0.27178368  0.21023402  1.07150504  1
  O  O199  1  0.27178368  0.54356735  1.07150504  1
  O  O200  1  0.27178368  0.87690069  1.07150504  1
  O  O201  1  0.60511701  0.21023402  1.07150504  1
  O  O202  1  0.60511701  0.54356735  1.07150504  1
  O  O203  1  0.60511701  0.87690069  1.07150504  1
  O  O204  1  0.93845034  0.21023402  1.07150504  1
  O  O205  1  0.93845034  0.54356735  1.07150504  1
  O  O206  1  0.93845034  0.87690069  1.07150504  1
  O  O207  1  0.16067257  0.32134513  1.40483837  1
  O  O208  1  0.16067257  0.65467846  1.40483837  1
  O  O209  1  0.16067257  0.98801180  1.40483837  1
  O  O210  1  0.49400590  0.32134513  1.40483837  1
  O  O211  1  0.49400590  0.65467846  1.40483837  1
  O  O212  1  0.49400590  0.98801180  1.40483837  1
  O  O213  1  0.82733923  0.32134513  1.40483837  1
  O  O214  1  0.82733923  0.65467846  1.40483837  1
  O  O215  1  0.82733923  0.98801180  1.40483837  1
  O  O216  1  0.04956145  -0.04956145  0.73817171  1
  O  O217  1  0.04956145  0.28377188  0.73817171  1
  O  O218  1  0.04956145  0.61710521  0.73817171  1
  O  O219  1  0.38289479  -0.04956145  0.73817171  1
  O  O220  1  0.38289479  0.28377188  0.73817171  1
  O  O221  1  0.38289479  0.61710521  0.73817171  1
  O  O222  1  0.71622812  -0.04956145  0.73817171  1
  O  O223  1  0.71622812  0.28377188  0.73817171  1
  O  O224  1  0.71622812  0.61710521  0.73817171  1
  O  O225  1  0.27178368  0.06154966  1.07150504  1
  O  O226  1  0.27178368  0.39488299  1.07150504  1
  O  O227  1  0.27178368  0.72821632  1.07150504  1
  O  O228  1  0.60511701  0.06154966  1.07150504  1
  O  O229  1  0.60511701  0.39488299  1.07150504  1
  O  O230  1  0.60511701  0.72821632  1.07150504  1
  O  O231  1  0.93845034  0.06154966  1.07150504  1
  O  O232  1  0.93845034  0.39488299  1.07150504  1
  O  O233  1  0.93845034  0.72821632  1.07150504  1
  O  O234  1  0.16067257  0.17266077  1.40483837  1
  O  O235  1  0.16067257  0.50599410  1.40483837  1
  O  O236  1  0.16067257  0.83932743  1.40483837  1
  O  O237  1  0.49400590  0.17266077  1.40483837  1
  O  O238  1  0.49400590  0.50599410  1.40483837  1
  O  O239  1  0.49400590  0.83932743  1.40483837  1
  O  O240  1  0.82733923  0.17266077  1.40483837  1
  O  O241  1  0.82733923  0.50599410  1.40483837  1
  O  O242  1  0.82733923  0.83932743  1.40483837  1
  O  O243  1  -0.09912291  -0.04956145  0.73817171  1
  O  O244  1  -0.09912291  0.28377188  0.73817171  1
  O  O245  1  -0.09912291  0.61710521  0.73817171  1
  O  O246  1  0.23421042  -0.04956145  0.73817171  1
  O  O247  1  0.23421042  0.28377188  0.73817171  1
  O  O248  1  0.23421042  0.61710521  0.73817171  1
  O  O249  1  0.56754376  -0.04956145  0.73817171  1
  O  O250  1  0.56754376  0.28377188  0.73817171  1
  O  O251  1  0.56754376  0.61710521  0.73817171  1
  O  O252  1  0.12309931  0.06154966  1.07150504  1
  O  O253  1  0.12309931  0.39488299  1.07150504  1
  O  O254  1  0.12309931  0.72821632  1.07150504  1
  O  O255  1  0.45643265  0.06154966  1.07150504  1
  O  O256  1  0.45643265  0.39488299  1.07150504  1
  O  O257  1  0.45643265  0.72821632  1.07150504  1
  O  O258  1  0.78976598  0.06154966  1.07150504  1
  O  O259  1  0.78976598  0.39488299  1.07150504  1
  O  O260  1  0.78976598  0.72821632  1.07150504  1
  O  O261  1  0.01198820  0.17266077  1.40483837  1
  O  O262  1  0.01198820  0.50599410  1.40483837  1
  O  O263  1  0.01198820  0.83932743  1.40483837  1
  O  O264  1  0.34532154  0.17266077  1.40483837  1
  O  O265  1  0.34532154  0.50599410  1.40483837  1
  O  O266  1  0.34532154  0.83932743  1.40483837  1
  O  O267  1  0.67865487  0.17266077  1.40483837  1
  O  O268  1  0.67865487  0.50599410  1.40483837  1
  O  O269  1  0.67865487  0.83932743  1.40483837  1
  O  O270  1  -0.04956145  0.04956145  0.26182829  1
  O  O271  1  -0.04956145  0.38289479  0.26182829  1
  O  O272  1  -0.04956145  0.71622812  0.26182829  1
  O  O273  1  0.28377188  0.04956145  0.26182829  1
  O  O274  1  0.28377188  0.38289479  0.26182829  1
  O  O275  1  0.28377188  0.71622812  0.26182829  1
  O  O276  1  0.61710521  0.04956145  0.26182829  1
  O  O277  1  0.61710521  0.38289479  0.26182829  1
  O  O278  1  0.61710521  0.71622812  0.26182829  1
  O  O279  1  0.17266077  0.16067257  0.59516163  1
  O  O280  1  0.17266077  0.49400590  0.59516163  1
  O  O281  1  0.17266077  0.82733923  0.59516163  1
  O  O282  1  0.50599410  0.16067257  0.59516163  1
  O  O283  1  0.50599410  0.49400590  0.59516163  1
  O  O284  1  0.50599410  0.82733923  0.59516163  1
  O  O285  1  0.83932743  0.16067257  0.59516163  1
  O  O286  1  0.83932743  0.49400590  0.59516163  1
  O  O287  1  0.83932743  0.82733923  0.59516163  1
  O  O288  1  0.06154966  0.27178368  0.92849496  1
  O  O289  1  0.06154966  0.60511701  0.92849496  1
  O  O290  1  0.06154966  0.93845034  0.92849496  1
  O  O291  1  0.39488299  0.27178368  0.92849496  1
  O  O292  1  0.39488299  0.60511701  0.92849496  1
  O  O293  1  0.39488299  0.93845034  0.92849496  1
  O  O294  1  0.72821632  0.27178368  0.92849496  1
  O  O295  1  0.72821632  0.60511701  0.92849496  1
  O  O296  1  0.72821632  0.93845034  0.92849496  1
  O  O297  1  -0.04956145  -0.09912291  0.26182829  1
  O  O298  1  -0.04956145  0.23421042  0.26182829  1
  O  O299  1  -0.04956145  0.56754376  0.26182829  1
  O  O300  1  0.28377188  -0.09912291  0.26182829  1
  O  O301  1  0.28377188  0.23421042  0.26182829  1
  O  O302  1  0.28377188  0.56754376  0.26182829  1
  O  O303  1  0.61710521  -0.09912291  0.26182829  1
  O  O304  1  0.61710521  0.23421042  0.26182829  1
  O  O305  1  0.61710521  0.56754376  0.26182829  1
  O  O306  1  0.17266077  0.01198820  0.59516163  1
  O  O307  1  0.17266077  0.34532154  0.59516163  1
  O  O308  1  0.17266077  0.67865487  0.59516163  1
  O  O309  1  0.50599410  0.01198820  0.59516163  1
  O  O310  1  0.50599410  0.34532154  0.59516163  1
  O  O311  1  0.50599410  0.67865487  0.59516163  1
  O  O312  1  0.83932743  0.01198820  0.59516163  1
  O  O313  1  0.83932743  0.34532154  0.59516163  1
  O  O314  1  0.83932743  0.67865487  0.59516163  1
  O  O315  1  0.06154966  0.12309931  0.92849496  1
  O  O316  1  0.06154966  0.45643265  0.92849496  1
  O  O317  1  0.06154966  0.78976598  0.92849496  1
  O  O318  1  0.39488299  0.12309931  0.92849496  1
  O  O319  1  0.39488299  0.45643265  0.92849496  1
  O  O320  1  0.39488299  0.78976598  0.92849496  1
  O  O321  1  0.72821632  0.12309931  0.92849496  1
  O  O322  1  0.72821632  0.45643265  0.92849496  1
  O  O323  1  0.72821632  0.78976598  0.92849496  1
  O  O324  1  0.09912291  0.04956145  0.26182829  1
  O  O325  1  0.09912291  0.38289479  0.26182829  1
  O  O326  1  0.09912291  0.71622812  0.26182829  1
  O  O327  1  0.43245624  0.04956145  0.26182829  1
  O  O328  1  0.43245624  0.38289479  0.26182829  1
  O  O329  1  0.43245624  0.71622812  0.26182829  1
  O  O330  1  0.76578958  0.04956145  0.26182829  1
  O  O331  1  0.76578958  0.38289479  0.26182829  1
  O  O332  1  0.76578958  0.71622812  0.26182829  1
  O  O333  1  0.32134513  0.16067257  0.59516163  1
  O  O334  1  0.32134513  0.49400590  0.59516163  1
  O  O335  1  0.32134513  0.82733923  0.59516163  1
  O  O336  1  0.65467846  0.16067257  0.59516163  1
  O  O337  1  0.65467846  0.49400590  0.59516163  1
  O  O338  1  0.65467846  0.82733923  0.59516163  1
  O  O339  1  0.98801180  0.16067257  0.59516163  1
  O  O340  1  0.98801180  0.49400590  0.59516163  1
  O  O341  1  0.98801180  0.82733923  0.59516163  1
  O  O342  1  0.21023402  0.27178368  0.92849496  1
  O  O343  1  0.21023402  0.60511701  0.92849496  1
  O  O344  1  0.21023402  0.93845034  0.92849496  1
  O  O345  1  0.54356735  0.27178368  0.92849496  1
  O  O346  1  0.54356735  0.60511701  0.92849496  1
  O  O347  1  0.54356735  0.93845034  0.92849496  1
  O  O348  1  0.87690069  0.27178368  0.92849496  1
  O  O349  1  0.87690069  0.60511701  0.92849496  1
  O  O350  1  0.87690069  0.93845034  0.92849496  1
