# generated using pymatgen
data_LaScO3
_symmetry_space_group_name_H-M   'P 1'
_cell_length_a   17.27147455
_cell_length_b   16.05207149
_cell_length_c   16.89471875
_cell_angle_alpha   90.00000000
_cell_angle_beta   90.00000000
_cell_angle_gamma   90.00000000
_symmetry_Int_Tables_number   1
_chemical_formula_structural   LaScO3
_chemical_formula_sum   'La72 Sc72 O216'
_cell_volume   4683.94156801
_cell_formula_units_Z   72
loop_
 _symmetry_equiv_pos_site_id
 _symmetry_equiv_pos_as_xyz
  1  'x, y, z'
loop_
 _atom_site_type_symbol
 _atom_site_label
 _atom_site_symmetry_multiplicity
 _atom_site_fract_x
 _atom_site_fract_y
 _atom_site_fract_z
 _atom_site_occupancy
  La  La0  1  0.01540914  0.37500000  0.32944227  1
  La  La1  1  0.01540914  0.37500000  0.66277560  1
  La  La2  1  0.01540914  0.37500000  0.99610894  1
  La  La3  1  0.01540914  0.87500000  0.32944227  1
  La  La4  1  0.01540914  0.87500000  0.66277560  1
  La  La5  1  0.01540914  0.87500000  0.99610894  1
  La  La6  1  0.34874247  0.37500000  0.32944227  1
  La  La7  1  0.34874247  0.37500000  0.66277560  1
  La  La8  1  0.34874247  0.37500000  0.99610894  1
  La  La9  1  0.34874247  0.87500000  0.32944227  1
  La  La10  1  0.34874247  0.87500000  0.66277560  1
  La  La11  1  0.34874247  0.87500000  0.99610894  1
  La  La12  1  0.68207581  0.37500000  0.32944227  1
  La  La13  1  0.68207581  0.37500000  0.66277560  1
  La  La14  1  0.68207581  0.37500000  0.99610894  1
  La  La15  1  0.68207581  0.87500000  0.32944227  1
  La  La16  1  0.68207581  0.87500000  0.66277560  1
  La  La17  1  0.68207581  0.87500000  0.99610894  1
  La  La18  1  0.15125753  0.12500000  0.16277560  1
  La  La19  1  0.15125753  0.12500000  0.49610894  1
  La  La20  1  0.15125753  0.12500000  0.82944227  1
  La  La21  1  0.15125753  0.62500000  0.16277560  1
  La  La22  1  0.15125753  0.62500000  0.49610894  1
  La  La23  1  0.15125753  0.62500000  0.82944227  1
  La  La24  1  0.48459086  0.12500000  0.16277560  1
  La  La25  1  0.48459086  0.12500000  0.49610894  1
  La  La26  1  0.48459086  0.12500000  0.82944227  1
  La  La27  1  0.48459086  0.62500000  0.16277560  1
  La  La28  1  0.48459086  0.62500000  0.49610894  1
  La  La29  1  0.48459086  0.62500000  0.82944227  1
  La  La30  1  0.81792419  0.12500000  0.16277560  1
  La  La31  1  0.81792419  0.12500000  0.49610894  1
  La  La32  1  0.81792419  0.12500000  0.82944227  1
  La  La33  1  0.81792419  0.62500000  0.16277560  1
  La  La34  1  0.81792419  0.62500000  0.49610894  1
  La  La35  1  0.81792419  0.62500000  0.82944227  1
  La  La36  1  0.18207581  0.37500000  0.17055773  1
  La  La37  1  0.18207581  0.37500000  0.50389106  1
  La  La38  1  0.18207581  0.37500000  0.83722440  1
  La  La39  1  0.18207581  0.87500000  0.17055773  1
  La  La40  1  0.18207581  0.87500000  0.50389106  1
  La  La41  1  0.18207581  0.87500000  0.83722440  1
  La  La42  1  0.51540914  0.37500000  0.17055773  1
  La  La43  1  0.51540914  0.37500000  0.50389106  1
  La  La44  1  0.51540914  0.37500000  0.83722440  1
  La  La45  1  0.51540914  0.87500000  0.17055773  1
  La  La46  1  0.51540914  0.87500000  0.50389106  1
  La  La47  1  0.51540914  0.87500000  0.83722440  1
  La  La48  1  0.84874247  0.37500000  0.17055773  1
  La  La49  1  0.84874247  0.37500000  0.50389106  1
  La  La50  1  0.84874247  0.37500000  0.83722440  1
  La  La51  1  0.84874247  0.87500000  0.17055773  1
  La  La52  1  0.84874247  0.87500000  0.50389106  1
  La  La53  1  0.84874247  0.87500000  0.83722440  1
  La  La54  1  0.31792419  0.12500000  0.00389106  1
  La  La55  1  0.31792419  0.12500000  0.33722440  1
  La  La56  1  0.31792419  0.12500000  0.67055773  1
  La  La57  1  0.31792419  0.62500000  0.00389106  1
  La  La58  1  0.31792419  0.62500000  0.33722440  1
  La  La59  1  0.31792419  0.62500000  0.67055773  1
  La  La60  1  0.65125753  0.12500000  0.00389106  1
  La  La61  1  0.65125753  0.12500000  0.33722440  1
  La  La62  1  0.65125753  0.12500000  0.67055773  1
  La  La63  1  0.65125753  0.62500000  0.00389106  1
  La  La64  1  0.65125753  0.62500000  0.33722440  1
  La  La65  1  0.65125753  0.62500000  0.67055773  1
  La  La66  1  0.98459086  0.12500000  0.00389106  1
  La  La67  1  0.98459086  0.12500000  0.33722440  1
  La  La68  1  0.98459086  0.12500000  0.67055773  1
  La  La69  1  0.98459086  0.62500000  0.00389106  1
  La  La70  1  0.98459086  0.62500000  0.33722440  1
  La  La71  1  0.98459086  0.62500000  0.67055773  1
  Sc  Sc72  1  0.16666667  0.25000000  0.00000000  1
  Sc  Sc73  1  0.16666667  0.25000000  0.33333333  1
  Sc  Sc74  1  0.16666667  0.25000000  0.66666667  1
  Sc  Sc75  1  0.16666667  0.75000000  0.00000000  1
  Sc  Sc76  1  0.16666667  0.75000000  0.33333333  1
  Sc  Sc77  1  0.16666667  0.75000000  0.66666667  1
  Sc  Sc78  1  0.50000000  0.25000000  0.00000000  1
  Sc  Sc79  1  0.50000000  0.25000000  0.33333333  1
  Sc  Sc80  1  0.50000000  0.25000000  0.66666667  1
  Sc  Sc81  1  0.50000000  0.75000000  0.00000000  1
  Sc  Sc82  1  0.50000000  0.75000000  0.33333333  1
  Sc  Sc83  1  0.50000000  0.75000000  0.66666667  1
  Sc  Sc84  1  0.83333333  0.25000000  0.00000000  1
  Sc  Sc85  1  0.83333333  0.25000000  0.33333333  1
  Sc  Sc86  1  0.83333333  0.25000000  0.66666667  1
  Sc  Sc87  1  0.83333333  0.75000000  0.00000000  1
  Sc  Sc88  1  0.83333333  0.75000000  0.33333333  1
  Sc  Sc89  1  0.83333333  0.75000000  0.66666667  1
  Sc  Sc90  1  0.00000000  0.25000000  0.16666667  1
  Sc  Sc91  1  0.00000000  0.25000000  0.50000000  1
  Sc  Sc92  1  0.00000000  0.25000000  0.83333333  1
  Sc  Sc93  1  0.00000000  0.75000000  0.16666667  1
  Sc  Sc94  1  0.00000000  0.75000000  0.50000000  1
  Sc  Sc95  1  0.00000000  0.75000000  0.83333333  1
  Sc  Sc96  1  0.33333333  0.25000000  0.16666667  1
  Sc  Sc97  1  0.33333333  0.25000000  0.50000000  1
  Sc  Sc98  1  0.33333333  0.25000000  0.83333333  1
  Sc  Sc99  1  0.33333333  0.75000000  0.16666667  1
  Sc  Sc100  1  0.33333333  0.75000000  0.50000000  1
  Sc  Sc101  1  0.33333333  0.75000000  0.83333333  1
  Sc  Sc102  1  0.66666667  0.25000000  0.16666667  1
  Sc  Sc103  1  0.66666667  0.25000000  0.50000000  1
  Sc  Sc104  1  0.66666667  0.25000000  0.83333333  1
  Sc  Sc105  1  0.66666667  0.75000000  0.16666667  1
  Sc  Sc106  1  0.66666667  0.75000000  0.50000000  1
  Sc  Sc107  1  0.66666667  0.75000000  0.83333333  1
  Sc  Sc108  1  0.00000000  0.00000000  0.16666667  1
  Sc  Sc109  1  0.00000000  0.00000000  0.50000000  1
  Sc  Sc110  1  0.00000000  0.00000000  0.83333333  1
  Sc  Sc111  1  0.00000000  0.50000000  0.16666667  1
  Sc  Sc112  1  0.00000000  0.50000000  0.50000000  1
  Sc  Sc113  1  0.00000000  0.50000000  0.83333333  1
  Sc  Sc114  1  0.33333333  0.00000000  0.16666667  1
  Sc  Sc115  1  0.33333333  0.00000000  0.50000000  1
  Sc  Sc116  1  0.33333333  0.00000000  0.83333333  1
  Sc  Sc117  1  0.33333333  0.50000000  0.16666667  1
  Sc  Sc118  1  0.33333333  0.50000000  0.50000000  1
  Sc  Sc119  1  0.33333333  0.50000000  0.83333333  1
  Sc  Sc120  1  0.66666667  0.00000000  0.16666667  1
  Sc  Sc121  1  0.66666667  0.00000000  0.50000000  1
  Sc  Sc122  1  0.66666667  0.00000000  0.83333333  1
  Sc  Sc123  1  0.66666667  0.50000000  0.16666667  1
  Sc  Sc124  1  0.66666667  0.50000000  0.50000000  1
  Sc  Sc125  1  0.66666667  0.50000000  0.83333333  1
  Sc  Sc126  1  0.16666667  0.00000000  0.00000000  1
  Sc  Sc127  1  0.16666667  0.00000000  0.33333333  1
  Sc  Sc128  1  0.16666667  0.00000000  0.66666667  1
  Sc  Sc129  1  0.16666667  0.50000000  0.00000000  1
  Sc  Sc130  1  0.16666667  0.50000000  0.33333333  1
  Sc  Sc131  1  0.16666667  0.50000000  0.66666667  1
  Sc  Sc132  1  0.50000000  0.00000000  0.00000000  1
  Sc  Sc133  1  0.50000000  0.00000000  0.33333333  1
  Sc  Sc134  1  0.50000000  0.00000000  0.66666667  1
  Sc  Sc135  1  0.50000000  0.50000000  0.00000000  1
  Sc  Sc136  1  0.50000000  0.50000000  0.33333333  1
  Sc  Sc137  1  0.50000000  0.50000000  0.66666667  1
  Sc  Sc138  1  0.83333333  0.00000000  0.00000000  1
  Sc  Sc139  1  0.83333333  0.00000000  0.33333333  1
  Sc  Sc140  1  0.83333333  0.00000000  0.66666667  1
  Sc  Sc141  1  0.83333333  0.50000000  0.00000000  1
  Sc  Sc142  1  0.83333333  0.50000000  0.33333333  1
  Sc  Sc143  1  0.83333333  0.50000000  0.66666667  1
  O  O144  1  0.09866264  0.27653692  0.23470209  1
  O  O145  1  0.09866264  0.27653692  0.56803542  1
  O  O146  1  0.09866264  0.27653692  0.90136876  1
  O  O147  1  0.09866264  0.77653692  0.23470209  1
  O  O148  1  0.09866264  0.77653692  0.56803542  1
  O  O149  1  0.09866264  0.77653692  0.90136876  1
  O  O150  1  0.43199597  0.27653692  0.23470209  1
  O  O151  1  0.43199597  0.27653692  0.56803542  1
  O  O152  1  0.43199597  0.27653692  0.90136876  1
  O  O153  1  0.43199597  0.77653692  0.23470209  1
  O  O154  1  0.43199597  0.77653692  0.56803542  1
  O  O155  1  0.43199597  0.77653692  0.90136876  1
  O  O156  1  0.76532930  0.27653692  0.23470209  1
  O  O157  1  0.76532930  0.27653692  0.56803542  1
  O  O158  1  0.76532930  0.27653692  0.90136876  1
  O  O159  1  0.76532930  0.77653692  0.23470209  1
  O  O160  1  0.76532930  0.77653692  0.56803542  1
  O  O161  1  0.76532930  0.77653692  0.90136876  1
  O  O162  1  0.06800403  0.22346308  0.06803542  1
  O  O163  1  0.06800403  0.22346308  0.40136876  1
  O  O164  1  0.06800403  0.22346308  0.73470209  1
  O  O165  1  0.06800403  0.72346308  0.06803542  1
  O  O166  1  0.06800403  0.72346308  0.40136876  1
  O  O167  1  0.06800403  0.72346308  0.73470209  1
  O  O168  1  0.40133736  0.22346308  0.06803542  1
  O  O169  1  0.40133736  0.22346308  0.40136876  1
  O  O170  1  0.40133736  0.22346308  0.73470209  1
  O  O171  1  0.40133736  0.72346308  0.06803542  1
  O  O172  1  0.40133736  0.72346308  0.40136876  1
  O  O173  1  0.40133736  0.72346308  0.73470209  1
  O  O174  1  0.73467070  0.22346308  0.06803542  1
  O  O175  1  0.73467070  0.22346308  0.40136876  1
  O  O176  1  0.73467070  0.22346308  0.73470209  1
  O  O177  1  0.73467070  0.72346308  0.06803542  1
  O  O178  1  0.73467070  0.72346308  0.40136876  1
  O  O179  1  0.73467070  0.72346308  0.73470209  1
  O  O180  1  0.26532930  0.47346308  0.26529791  1
  O  O181  1  0.26532930  0.47346308  0.59863124  1
  O  O182  1  0.26532930  0.47346308  0.93196458  1
  O  O183  1  0.26532930  0.97346308  0.26529791  1
  O  O184  1  0.26532930  0.97346308  0.59863124  1
  O  O185  1  0.26532930  0.97346308  0.93196458  1
  O  O186  1  0.59866264  0.47346308  0.26529791  1
  O  O187  1  0.59866264  0.47346308  0.59863124  1
  O  O188  1  0.59866264  0.47346308  0.93196458  1
  O  O189  1  0.59866264  0.97346308  0.26529791  1
  O  O190  1  0.59866264  0.97346308  0.59863124  1
  O  O191  1  0.59866264  0.97346308  0.93196458  1
  O  O192  1  0.93199597  0.47346308  0.26529791  1
  O  O193  1  0.93199597  0.47346308  0.59863124  1
  O  O194  1  0.93199597  0.47346308  0.93196458  1
  O  O195  1  0.93199597  0.97346308  0.26529791  1
  O  O196  1  0.93199597  0.97346308  0.59863124  1
  O  O197  1  0.93199597  0.97346308  0.93196458  1
  O  O198  1  0.23467070  0.02653692  0.09863124  1
  O  O199  1  0.23467070  0.02653692  0.43196458  1
  O  O200  1  0.23467070  0.02653692  0.76529791  1
  O  O201  1  0.23467070  0.52653692  0.09863124  1
  O  O202  1  0.23467070  0.52653692  0.43196458  1
  O  O203  1  0.23467070  0.52653692  0.76529791  1
  O  O204  1  0.56800403  0.02653692  0.09863124  1
  O  O205  1  0.56800403  0.02653692  0.43196458  1
  O  O206  1  0.56800403  0.02653692  0.76529791  1
  O  O207  1  0.56800403  0.52653692  0.09863124  1
  O  O208  1  0.56800403  0.52653692  0.43196458  1
  O  O209  1  0.56800403  0.52653692  0.76529791  1
  O  O210  1  0.90133736  0.02653692  0.09863124  1
  O  O211  1  0.90133736  0.02653692  0.43196458  1
  O  O212  1  0.90133736  0.02653692  0.76529791  1
  O  O213  1  0.90133736  0.52653692  0.09863124  1
  O  O214  1  0.90133736  0.52653692  0.43196458  1
  O  O215  1  0.90133736  0.52653692  0.76529791  1
  O  O216  1  0.23467070  0.22346308  0.09863124  1
  O  O217  1  0.23467070  0.22346308  0.43196458  1
  O  O218  1  0.23467070  0.22346308  0.76529791  1
  O  O219  1  0.23467070  0.72346308  0.09863124  1
  O  O220  1  0.23467070  0.72346308  0.43196458  1
  O  O221  1  0.23467070  0.72346308  0.76529791  1
  O  O222  1  0.56800403  0.22346308  0.09863124  1
  O  O223  1  0.56800403  0.22346308  0.43196458  1
  O  O224  1  0.56800403  0.22346308  0.76529791  1
  O  O225  1  0.56800403  0.72346308  0.09863124  1
  O  O226  1  0.56800403  0.72346308  0.43196458  1
  O  O227  1  0.56800403  0.72346308  0.76529791  1
  O  O228  1  0.90133736  0.22346308  0.09863124  1
  O  O229  1  0.90133736  0.22346308  0.43196458  1
  O  O230  1  0.90133736  0.22346308  0.76529791  1
  O  O231  1  0.90133736  0.72346308  0.09863124  1
  O  O232  1  0.90133736  0.72346308  0.43196458  1
  O  O233  1  0.90133736  0.72346308  0.76529791  1
  O  O234  1  0.26532930  0.27653692  0.26529791  1
  O  O235  1  0.26532930  0.27653692  0.59863124  1
  O  O236  1  0.26532930  0.27653692  0.93196458  1
  O  O237  1  0.26532930  0.77653692  0.26529791  1
  O  O238  1  0.26532930  0.77653692  0.59863124  1
  O  O239  1  0.26532930  0.77653692  0.93196458  1
  O  O240  1  0.59866264  0.27653692  0.26529791  1
  O  O241  1  0.59866264  0.27653692  0.59863124  1
  O  O242  1  0.59866264  0.27653692  0.93196458  1
  O  O243  1  0.59866264  0.77653692  0.26529791  1
  O  O244  1  0.59866264  0.77653692  0.59863124  1
  O  O245  1  0.59866264  0.77653692  0.93196458  1
  O  O246  1  0.93199597  0.27653692  0.26529791  1
  O  O247  1  0.93199597  0.27653692  0.59863124  1
  O  O248  1  0.93199597  0.27653692  0.93196458  1
  O  O249  1  0.93199597  0.77653692  0.26529791  1
  O  O250  1  0.93199597  0.77653692  0.59863124  1
  O  O251  1  0.93199597  0.77653692  0.93196458  1
  O  O252  1  0.06800403  0.02653692  0.06803542  1
  O  O253  1  0.06800403  0.02653692  0.40136876  1
  O  O254  1  0.06800403  0.02653692  0.73470209  1
  O  O255  1  0.06800403  0.52653692  0.06803542  1
  O  O256  1  0.06800403  0.52653692  0.40136876  1
  O  O257  1  0.06800403  0.52653692  0.73470209  1
  O  O258  1  0.40133736  0.02653692  0.06803542  1
  O  O259  1  0.40133736  0.02653692  0.40136876  1
  O  O260  1  0.40133736  0.02653692  0.73470209  1
  O  O261  1  0.40133736  0.52653692  0.06803542  1
  O  O262  1  0.40133736  0.52653692  0.40136876  1
  O  O263  1  0.40133736  0.52653692  0.73470209  1
  O  O264  1  0.73467070  0.02653692  0.06803542  1
  O  O265  1  0.73467070  0.02653692  0.40136876  1
  O  O266  1  0.73467070  0.02653692  0.73470209  1
  O  O267  1  0.73467070  0.52653692  0.06803542  1
  O  O268  1  0.73467070  0.52653692  0.40136876  1
  O  O269  1  0.73467070  0.52653692  0.73470209  1
  O  O270  1  0.09866264  0.47346308  0.23470209  1
  O  O271  1  0.09866264  0.47346308  0.56803542  1
  O  O272  1  0.09866264  0.47346308  0.90136876  1
  O  O273  1  0.09866264  0.97346308  0.23470209  1
  O  O274  1  0.09866264  0.97346308  0.56803542  1
  O  O275  1  0.09866264  0.97346308  0.90136876  1
  O  O276  1  0.43199597  0.47346308  0.23470209  1
  O  O277  1  0.43199597  0.47346308  0.56803542  1
  O  O278  1  0.43199597  0.47346308  0.90136876  1
  O  O279  1  0.43199597  0.97346308  0.23470209  1
  O  O280  1  0.43199597  0.97346308  0.56803542  1
  O  O281  1  0.43199597  0.97346308  0.90136876  1
  O  O282  1  0.76532930  0.47346308  0.23470209  1
  O  O283  1  0.76532930  0.47346308  0.56803542  1
  O  O284  1  0.76532930  0.47346308  0.90136876  1
  O  O285  1  0.76532930  0.97346308  0.23470209  1
  O  O286  1  0.76532930  0.97346308  0.56803542  1
  O  O287  1  0.76532930  0.97346308  0.90136876  1
  O  O288  1  0.17774931  0.12500000  0.30015552  1
  O  O289  1  0.17774931  0.12500000  0.63348885  1
  O  O290  1  0.17774931  0.12500000  0.96682219  1
  O  O291  1  0.17774931  0.62500000  0.30015552  1
  O  O292  1  0.17774931  0.62500000  0.63348885  1
  O  O293  1  0.17774931  0.62500000  0.96682219  1
  O  O294  1  0.51108264  0.12500000  0.30015552  1
  O  O295  1  0.51108264  0.12500000  0.63348885  1
  O  O296  1  0.51108264  0.12500000  0.96682219  1
  O  O297  1  0.51108264  0.62500000  0.30015552  1
  O  O298  1  0.51108264  0.62500000  0.63348885  1
  O  O299  1  0.51108264  0.62500000  0.96682219  1
  O  O300  1  0.84441598  0.12500000  0.30015552  1
  O  O301  1  0.84441598  0.12500000  0.63348885  1
  O  O302  1  0.84441598  0.12500000  0.96682219  1
  O  O303  1  0.84441598  0.62500000  0.30015552  1
  O  O304  1  0.84441598  0.62500000  0.63348885  1
  O  O305  1  0.84441598  0.62500000  0.96682219  1
  O  O306  1  0.32225069  0.37500000  0.13348885  1
  O  O307  1  0.32225069  0.37500000  0.46682219  1
  O  O308  1  0.32225069  0.37500000  0.80015552  1
  O  O309  1  0.32225069  0.87500000  0.13348885  1
  O  O310  1  0.32225069  0.87500000  0.46682219  1
  O  O311  1  0.32225069  0.87500000  0.80015552  1
  O  O312  1  0.65558402  0.37500000  0.13348885  1
  O  O313  1  0.65558402  0.37500000  0.46682219  1
  O  O314  1  0.65558402  0.37500000  0.80015552  1
  O  O315  1  0.65558402  0.87500000  0.13348885  1
  O  O316  1  0.65558402  0.87500000  0.46682219  1
  O  O317  1  0.65558402  0.87500000  0.80015552  1
  O  O318  1  0.98891736  0.37500000  0.13348885  1
  O  O319  1  0.98891736  0.37500000  0.46682219  1
  O  O320  1  0.98891736  0.37500000  0.80015552  1
  O  O321  1  0.98891736  0.87500000  0.13348885  1
  O  O322  1  0.98891736  0.87500000  0.46682219  1
  O  O323  1  0.98891736  0.87500000  0.80015552  1
  O  O324  1  0.01108264  0.12500000  0.19984448  1
  O  O325  1  0.01108264  0.12500000  0.53317781  1
  O  O326  1  0.01108264  0.12500000  0.86651115  1
  O  O327  1  0.01108264  0.62500000  0.19984448  1
  O  O328  1  0.01108264  0.62500000  0.53317781  1
  O  O329  1  0.01108264  0.62500000  0.86651115  1
  O  O330  1  0.34441598  0.12500000  0.19984448  1
  O  O331  1  0.34441598  0.12500000  0.53317781  1
  O  O332  1  0.34441598  0.12500000  0.86651115  1
  O  O333  1  0.34441598  0.62500000  0.19984448  1
  O  O334  1  0.34441598  0.62500000  0.53317781  1
  O  O335  1  0.34441598  0.62500000  0.86651115  1
  O  O336  1  0.67774931  0.12500000  0.19984448  1
  O  O337  1  0.67774931  0.12500000  0.53317781  1
  O  O338  1  0.67774931  0.12500000  0.86651115  1
  O  O339  1  0.67774931  0.62500000  0.19984448  1
  O  O340  1  0.67774931  0.62500000  0.53317781  1
  O  O341  1  0.67774931  0.62500000  0.86651115  1
  O  O342  1  0.15558402  0.37500000  0.03317781  1
  O  O343  1  0.15558402  0.37500000  0.36651115  1
  O  O344  1  0.15558402  0.37500000  0.69984448  1
  O  O345  1  0.15558402  0.87500000  0.03317781  1
  O  O346  1  0.15558402  0.87500000  0.36651115  1
  O  O347  1  0.15558402  0.87500000  0.69984448  1
  O  O348  1  0.48891736  0.37500000  0.03317781  1
  O  O349  1  0.48891736  0.37500000  0.36651115  1
  O  O350  1  0.48891736  0.37500000  0.69984448  1
  O  O351  1  0.48891736  0.87500000  0.03317781  1
  O  O352  1  0.48891736  0.87500000  0.36651115  1
  O  O353  1  0.48891736  0.87500000  0.69984448  1
  O  O354  1  0.82225069  0.37500000  0.03317781  1
  O  O355  1  0.82225069  0.37500000  0.36651115  1
  O  O356  1  0.82225069  0.37500000  0.69984448  1
  O  O357  1  0.82225069  0.87500000  0.03317781  1
  O  O358  1  0.82225069  0.87500000  0.36651115  1
  O  O359  1  0.82225069  0.87500000  0.69984448  1
