# generated using pymatgen
data_NaSc(SiO3)2
_symmetry_space_group_name_H-M   'P 1'
_cell_length_a   9.86354687
_cell_length_b   9.00426300
_cell_length_c   10.73091311
_cell_angle_alpha   90.00000000
_cell_angle_beta   107.73076499
_cell_angle_gamma   90.00000000
_symmetry_Int_Tables_number   1
_chemical_formula_structural   NaSc(SiO3)2
_chemical_formula_sum   'Na8 Sc8 Si16 O48'
_cell_volume   907.78306599
_cell_formula_units_Z   8
loop_
 _symmetry_equiv_pos_site_id
 _symmetry_equiv_pos_as_xyz
  1  'x, y, z'
loop_
 _atom_site_type_symbol
 _atom_site_label
 _atom_site_symmetry_multiplicity
 _atom_site_fract_x
 _atom_site_fract_y
 _atom_site_fract_z
 _atom_site_occupancy
  Na  Na0  1  0.50000000  -0.20134341  0.12500000  1
  Na  Na1  1  0.50000000  -0.20134341  0.62500000  1
  Na  Na2  1  1.00000000  0.29865659  0.12500000  1
  Na  Na3  1  1.00000000  0.29865659  0.62500000  1
  Na  Na4  1  0.50000000  0.20134341  0.37500000  1
  Na  Na5  1  0.50000000  0.20134341  0.87500000  1
  Na  Na6  1  1.00000000  0.70134341  0.37500000  1
  Na  Na7  1  1.00000000  0.70134341  0.87500000  1
  Sc  Sc8  1  0.50000000  0.39769856  0.12500000  1
  Sc  Sc9  1  0.50000000  0.39769856  0.62500000  1
  Sc  Sc10  1  1.00000000  0.89769856  0.12500000  1
  Sc  Sc11  1  1.00000000  0.89769856  0.62500000  1
  Sc  Sc12  1  0.50000000  -0.39769856  0.37500000  1
  Sc  Sc13  1  0.50000000  -0.39769856  0.87500000  1
  Sc  Sc14  1  1.00000000  0.10230144  0.37500000  1
  Sc  Sc15  1  1.00000000  0.10230144  0.87500000  1
  Si  Si16  1  0.70891542  0.08786106  0.12666387  1
  Si  Si17  1  0.70891542  0.08786106  0.62666387  1
  Si  Si18  1  1.20891542  0.58786106  0.12666387  1
  Si  Si19  1  1.20891542  0.58786106  0.62666387  1
  Si  Si20  1  0.70891542  -0.08786106  0.37666387  1
  Si  Si21  1  0.70891542  -0.08786106  0.87666387  1
  Si  Si22  1  1.20891542  0.41213894  0.37666387  1
  Si  Si23  1  1.20891542  0.41213894  0.87666387  1
  Si  Si24  1  0.29108458  0.08786106  0.12333613  1
  Si  Si25  1  0.29108458  0.08786106  0.62333613  1
  Si  Si26  1  0.79108458  0.58786106  0.12333613  1
  Si  Si27  1  0.79108458  0.58786106  0.62333613  1
  Si  Si28  1  0.29108458  -0.08786106  0.37333613  1
  Si  Si29  1  0.29108458  -0.08786106  0.87333613  1
  Si  Si30  1  0.79108458  0.41213894  0.37333613  1
  Si  Si31  1  0.79108458  0.41213894  0.87333613  1
  O  O32  1  0.64830711  0.00455791  0.23659656  1
  O  O33  1  0.64830711  0.00455791  0.73659656  1
  O  O34  1  1.14830711  0.50455791  0.23659656  1
  O  O35  1  1.14830711  0.50455791  0.73659656  1
  O  O36  1  0.35169289  0.00455791  0.01340344  1
  O  O37  1  0.35169289  0.00455791  0.51340344  1
  O  O38  1  0.85169289  0.50455791  0.01340344  1
  O  O39  1  0.85169289  0.50455791  0.51340344  1
  O  O40  1  0.35169289  -0.00455791  0.26340344  1
  O  O41  1  0.35169289  -0.00455791  0.76340344  1
  O  O42  1  0.85169289  0.49544209  0.26340344  1
  O  O43  1  0.85169289  0.49544209  0.76340344  1
  O  O44  1  0.64830711  -0.00455791  0.48659656  1
  O  O45  1  0.64830711  -0.00455791  0.98659656  1
  O  O46  1  1.14830711  0.49544209  0.48659656  1
  O  O47  1  1.14830711  0.49544209  0.98659656  1
  O  O48  1  0.64019005  0.25100593  0.09616877  1
  O  O49  1  0.64019005  0.25100593  0.59616877  1
  O  O50  1  1.14019005  0.75100593  0.09616877  1
  O  O51  1  1.14019005  0.75100593  0.59616877  1
  O  O52  1  0.35980995  0.25100593  0.15383123  1
  O  O53  1  0.35980995  0.25100593  0.65383123  1
  O  O54  1  0.85980995  0.75100593  0.15383123  1
  O  O55  1  0.85980995  0.75100593  0.65383123  1
  O  O56  1  0.35980995  -0.25100593  0.40383123  1
  O  O57  1  0.35980995  -0.25100593  0.90383123  1
  O  O58  1  0.85980995  0.24899407  0.40383123  1
  O  O59  1  0.85980995  0.24899407  0.90383123  1
  O  O60  1  0.64019005  -0.25100593  0.34616877  1
  O  O61  1  0.64019005  -0.25100593  0.84616877  1
  O  O62  1  1.14019005  0.24899407  0.34616877  1
  O  O63  1  1.14019005  0.24899407  0.84616877  1
  O  O64  1  0.88300036  -0.07994787  0.42685833  1
  O  O65  1  0.88300036  -0.07994787  0.92685833  1
  O  O66  1  1.38300036  0.42005213  0.42685833  1
  O  O67  1  1.38300036  0.42005213  0.92685833  1
  O  O68  1  0.11699964  -0.07994787  0.32314167  1
  O  O69  1  0.11699964  -0.07994787  0.82314167  1
  O  O70  1  0.61699964  0.42005213  0.32314167  1
  O  O71  1  0.61699964  0.42005213  0.82314167  1
  O  O72  1  0.11699964  0.07994787  0.07314167  1
  O  O73  1  0.11699964  0.07994787  0.57314167  1
  O  O74  1  0.61699964  0.57994787  0.07314167  1
  O  O75  1  0.61699964  0.57994787  0.57314167  1
  O  O76  1  0.88300036  0.07994787  0.17685833  1
  O  O77  1  0.88300036  0.07994787  0.67685833  1
  O  O78  1  1.38300036  0.57994787  0.17685833  1
  O  O79  1  1.38300036  0.57994787  0.67685833  1
