# generated using pymatgen
data_SrLiBO3
_symmetry_space_group_name_H-M   'P 1'
_cell_length_a   13.01258274
_cell_length_b   13.31644204
_cell_length_c   15.47425903
_cell_angle_alpha   90.00000000
_cell_angle_beta   123.26435772
_cell_angle_gamma   90.00000000
_symmetry_Int_Tables_number   1
_chemical_formula_structural   SrLiBO3
_chemical_formula_sum   'Sr32 Li32 B32 O96'
_cell_volume   2242.04903074
_cell_formula_units_Z   32
loop_
 _symmetry_equiv_pos_site_id
 _symmetry_equiv_pos_as_xyz
  1  'x, y, z'
loop_
 _atom_site_type_symbol
 _atom_site_label
 _atom_site_symmetry_multiplicity
 _atom_site_fract_x
 _atom_site_fract_y
 _atom_site_fract_z
 _atom_site_occupancy
  Sr  Sr0  1  0.33226307  0.18941518  0.18387155  1
  Sr  Sr1  1  0.33226307  0.18941518  0.68387155  1
  Sr  Sr2  1  0.33226307  0.68941518  0.18387155  1
  Sr  Sr3  1  0.33226307  0.68941518  0.68387155  1
  Sr  Sr4  1  0.83226307  0.18941518  0.18387155  1
  Sr  Sr5  1  0.83226307  0.18941518  0.68387155  1
  Sr  Sr6  1  0.83226307  0.68941518  0.18387155  1
  Sr  Sr7  1  0.83226307  0.68941518  0.68387155  1
  Sr  Sr8  1  0.16773693  0.43941518  0.06612845  1
  Sr  Sr9  1  0.16773693  0.43941518  0.56612845  1
  Sr  Sr10  1  0.16773693  0.93941518  0.06612845  1
  Sr  Sr11  1  0.16773693  0.93941518  0.56612845  1
  Sr  Sr12  1  0.66773693  0.43941518  0.06612845  1
  Sr  Sr13  1  0.66773693  0.43941518  0.56612845  1
  Sr  Sr14  1  0.66773693  0.93941518  0.06612845  1
  Sr  Sr15  1  0.66773693  0.93941518  0.56612845  1
  Sr  Sr16  1  0.16773693  0.31058482  0.31612845  1
  Sr  Sr17  1  0.16773693  0.31058482  0.81612845  1
  Sr  Sr18  1  0.16773693  0.81058482  0.31612845  1
  Sr  Sr19  1  0.16773693  0.81058482  0.81612845  1
  Sr  Sr20  1  0.66773693  0.31058482  0.31612845  1
  Sr  Sr21  1  0.66773693  0.31058482  0.81612845  1
  Sr  Sr22  1  0.66773693  0.81058482  0.31612845  1
  Sr  Sr23  1  0.66773693  0.81058482  0.81612845  1
  Sr  Sr24  1  0.33226307  0.06058482  0.43387155  1
  Sr  Sr25  1  0.33226307  0.06058482  0.93387155  1
  Sr  Sr26  1  0.33226307  0.56058482  0.43387155  1
  Sr  Sr27  1  0.33226307  0.56058482  0.93387155  1
  Sr  Sr28  1  0.83226307  0.06058482  0.43387155  1
  Sr  Sr29  1  0.83226307  0.06058482  0.93387155  1
  Sr  Sr30  1  0.83226307  0.56058482  0.43387155  1
  Sr  Sr31  1  0.83226307  0.56058482  0.93387155  1
  Li  Li32  1  0.04588085  0.04725822  0.34644900  1
  Li  Li33  1  0.04588085  0.04725822  0.84644900  1
  Li  Li34  1  0.04588085  0.54725822  0.34644900  1
  Li  Li35  1  0.04588085  0.54725822  0.84644900  1
  Li  Li36  1  0.54588085  0.04725822  0.34644900  1
  Li  Li37  1  0.54588085  0.04725822  0.84644900  1
  Li  Li38  1  0.54588085  0.54725822  0.34644900  1
  Li  Li39  1  0.54588085  0.54725822  0.84644900  1
  Li  Li40  1  0.45411915  0.29725822  0.40355100  1
  Li  Li41  1  0.45411915  0.29725822  0.90355100  1
  Li  Li42  1  0.45411915  0.79725822  0.40355100  1
  Li  Li43  1  0.45411915  0.79725822  0.90355100  1
  Li  Li44  1  0.95411915  0.29725822  0.40355100  1
  Li  Li45  1  0.95411915  0.29725822  0.90355100  1
  Li  Li46  1  0.95411915  0.79725822  0.40355100  1
  Li  Li47  1  0.95411915  0.79725822  0.90355100  1
  Li  Li48  1  0.45411915  0.45274178  0.15355100  1
  Li  Li49  1  0.45411915  0.45274178  0.65355100  1
  Li  Li50  1  0.45411915  0.95274178  0.15355100  1
  Li  Li51  1  0.45411915  0.95274178  0.65355100  1
  Li  Li52  1  0.95411915  0.45274178  0.15355100  1
  Li  Li53  1  0.95411915  0.45274178  0.65355100  1
  Li  Li54  1  0.95411915  0.95274178  0.15355100  1
  Li  Li55  1  0.95411915  0.95274178  0.65355100  1
  Li  Li56  1  0.04588085  0.20274178  0.09644900  1
  Li  Li57  1  0.04588085  0.20274178  0.59644900  1
  Li  Li58  1  0.04588085  0.70274178  0.09644900  1
  Li  Li59  1  0.04588085  0.70274178  0.59644900  1
  Li  Li60  1  0.54588085  0.20274178  0.09644900  1
  Li  Li61  1  0.54588085  0.20274178  0.59644900  1
  Li  Li62  1  0.54588085  0.70274178  0.09644900  1
  Li  Li63  1  0.54588085  0.70274178  0.59644900  1
  B  B64  1  0.38057704  0.31555218  0.03680160  1
  B  B65  1  0.38057704  0.31555218  0.53680160  1
  B  B66  1  0.38057704  0.81555218  0.03680160  1
  B  B67  1  0.38057704  0.81555218  0.53680160  1
  B  B68  1  0.88057704  0.31555218  0.03680160  1
  B  B69  1  0.88057704  0.31555218  0.53680160  1
  B  B70  1  0.88057704  0.81555218  0.03680160  1
  B  B71  1  0.88057704  0.81555218  0.53680160  1
  B  B72  1  0.11942296  0.06555218  0.21319840  1
  B  B73  1  0.11942296  0.06555218  0.71319840  1
  B  B74  1  0.11942296  0.56555218  0.21319840  1
  B  B75  1  0.11942296  0.56555218  0.71319840  1
  B  B76  1  0.61942296  0.06555218  0.21319840  1
  B  B77  1  0.61942296  0.06555218  0.71319840  1
  B  B78  1  0.61942296  0.56555218  0.21319840  1
  B  B79  1  0.61942296  0.56555218  0.71319840  1
  B  B80  1  0.11942296  0.18444782  0.46319840  1
  B  B81  1  0.11942296  0.18444782  0.96319840  1
  B  B82  1  0.11942296  0.68444782  0.46319840  1
  B  B83  1  0.11942296  0.68444782  0.96319840  1
  B  B84  1  0.61942296  0.18444782  0.46319840  1
  B  B85  1  0.61942296  0.18444782  0.96319840  1
  B  B86  1  0.61942296  0.68444782  0.46319840  1
  B  B87  1  0.61942296  0.68444782  0.96319840  1
  B  B88  1  0.38057704  0.43444782  0.28680160  1
  B  B89  1  0.38057704  0.43444782  0.78680160  1
  B  B90  1  0.38057704  0.93444782  0.28680160  1
  B  B91  1  0.38057704  0.93444782  0.78680160  1
  B  B92  1  0.88057704  0.43444782  0.28680160  1
  B  B93  1  0.88057704  0.43444782  0.78680160  1
  B  B94  1  0.88057704  0.93444782  0.28680160  1
  B  B95  1  0.88057704  0.93444782  0.78680160  1
  O  O96  1  0.03133950  0.19717037  0.35794702  1
  O  O97  1  0.03133950  0.19717037  0.85794702  1
  O  O98  1  0.03133950  0.69717037  0.35794702  1
  O  O99  1  0.03133950  0.69717037  0.85794702  1
  O  O100  1  0.53133950  0.19717037  0.35794702  1
  O  O101  1  0.53133950  0.19717037  0.85794702  1
  O  O102  1  0.53133950  0.69717037  0.35794702  1
  O  O103  1  0.53133950  0.69717037  0.85794702  1
  O  O104  1  0.19478881  0.14901489  0.24707720  1
  O  O105  1  0.19478881  0.14901489  0.74707720  1
  O  O106  1  0.19478881  0.64901489  0.24707720  1
  O  O107  1  0.19478881  0.64901489  0.74707720  1
  O  O108  1  0.69478881  0.14901489  0.24707720  1
  O  O109  1  0.69478881  0.14901489  0.74707720  1
  O  O110  1  0.69478881  0.64901489  0.24707720  1
  O  O111  1  0.69478881  0.64901489  0.74707720  1
  O  O112  1  0.30521119  0.35098511  0.25292280  1
  O  O113  1  0.30521119  0.35098511  0.75292280  1
  O  O114  1  0.30521119  0.85098511  0.25292280  1
  O  O115  1  0.30521119  0.85098511  0.75292280  1
  O  O116  1  0.80521119  0.35098511  0.25292280  1
  O  O117  1  0.80521119  0.35098511  0.75292280  1
  O  O118  1  0.80521119  0.85098511  0.25292280  1
  O  O119  1  0.80521119  0.85098511  0.75292280  1
  O  O120  1  0.19478881  0.10098511  0.49707720  1
  O  O121  1  0.19478881  0.10098511  0.99707720  1
  O  O122  1  0.19478881  0.60098511  0.49707720  1
  O  O123  1  0.19478881  0.60098511  0.99707720  1
  O  O124  1  0.69478881  0.10098511  0.49707720  1
  O  O125  1  0.69478881  0.10098511  0.99707720  1
  O  O126  1  0.69478881  0.60098511  0.49707720  1
  O  O127  1  0.69478881  0.60098511  0.99707720  1
  O  O128  1  0.37152806  0.24398668  0.46788173  1
  O  O129  1  0.37152806  0.24398668  0.96788173  1
  O  O130  1  0.37152806  0.74398668  0.46788173  1
  O  O131  1  0.37152806  0.74398668  0.96788173  1
  O  O132  1  0.87152806  0.24398668  0.46788173  1
  O  O133  1  0.87152806  0.24398668  0.96788173  1
  O  O134  1  0.87152806  0.74398668  0.46788173  1
  O  O135  1  0.87152806  0.74398668  0.96788173  1
  O  O136  1  0.12847194  0.49398668  0.28211827  1
  O  O137  1  0.12847194  0.49398668  0.78211827  1
  O  O138  1  0.12847194  0.99398668  0.28211827  1
  O  O139  1  0.12847194  0.99398668  0.78211827  1
  O  O140  1  0.62847194  0.49398668  0.28211827  1
  O  O141  1  0.62847194  0.49398668  0.78211827  1
  O  O142  1  0.62847194  0.99398668  0.28211827  1
  O  O143  1  0.62847194  0.99398668  0.78211827  1
  O  O144  1  0.12847194  0.25601332  0.03211827  1
  O  O145  1  0.12847194  0.25601332  0.53211827  1
  O  O146  1  0.12847194  0.75601332  0.03211827  1
  O  O147  1  0.12847194  0.75601332  0.53211827  1
  O  O148  1  0.62847194  0.25601332  0.03211827  1
  O  O149  1  0.62847194  0.25601332  0.53211827  1
  O  O150  1  0.62847194  0.75601332  0.03211827  1
  O  O151  1  0.62847194  0.75601332  0.53211827  1
  O  O152  1  0.37152806  0.00601332  0.21788173  1
  O  O153  1  0.37152806  0.00601332  0.71788173  1
  O  O154  1  0.37152806  0.50601332  0.21788173  1
  O  O155  1  0.37152806  0.50601332  0.71788173  1
  O  O156  1  0.87152806  0.00601332  0.21788173  1
  O  O157  1  0.87152806  0.00601332  0.71788173  1
  O  O158  1  0.87152806  0.50601332  0.21788173  1
  O  O159  1  0.87152806  0.50601332  0.71788173  1
  O  O160  1  0.46866050  0.30282963  0.14205298  1
  O  O161  1  0.46866050  0.30282963  0.64205298  1
  O  O162  1  0.46866050  0.80282963  0.14205298  1
  O  O163  1  0.46866050  0.80282963  0.64205298  1
  O  O164  1  0.96866050  0.30282963  0.14205298  1
  O  O165  1  0.96866050  0.30282963  0.64205298  1
  O  O166  1  0.96866050  0.80282963  0.14205298  1
  O  O167  1  0.96866050  0.80282963  0.64205298  1
  O  O168  1  0.03133950  0.05282963  0.10794702  1
  O  O169  1  0.03133950  0.05282963  0.60794702  1
  O  O170  1  0.03133950  0.55282963  0.10794702  1
  O  O171  1  0.03133950  0.55282963  0.60794702  1
  O  O172  1  0.53133950  0.05282963  0.10794702  1
  O  O173  1  0.53133950  0.05282963  0.60794702  1
  O  O174  1  0.53133950  0.55282963  0.10794702  1
  O  O175  1  0.53133950  0.55282963  0.60794702  1
  O  O176  1  0.30521119  0.39901489  0.00292280  1
  O  O177  1  0.30521119  0.39901489  0.50292280  1
  O  O178  1  0.30521119  0.89901489  0.00292280  1
  O  O179  1  0.30521119  0.89901489  0.50292280  1
  O  O180  1  0.80521119  0.39901489  0.00292280  1
  O  O181  1  0.80521119  0.39901489  0.50292280  1
  O  O182  1  0.80521119  0.89901489  0.00292280  1
  O  O183  1  0.80521119  0.89901489  0.50292280  1
  O  O184  1  0.46866050  0.44717037  0.39205298  1
  O  O185  1  0.46866050  0.44717037  0.89205298  1
  O  O186  1  0.46866050  0.94717037  0.39205298  1
  O  O187  1  0.46866050  0.94717037  0.89205298  1
  O  O188  1  0.96866050  0.44717037  0.39205298  1
  O  O189  1  0.96866050  0.44717037  0.89205298  1
  O  O190  1  0.96866050  0.94717037  0.39205298  1
  O  O191  1  0.96866050  0.94717037  0.89205298  1
