# generated using pymatgen
data_TaVO5
_symmetry_space_group_name_H-M   'P 1'
_cell_length_a   11.92927732
_cell_length_b   11.12444179
_cell_length_c   13.98541248
_cell_angle_alpha   90.00000000
_cell_angle_beta   90.00000000
_cell_angle_gamma   90.00000000
_symmetry_Int_Tables_number   1
_chemical_formula_structural   TaVO5
_chemical_formula_sum   'Ta16 V16 O80'
_cell_volume   1855.95585684
_cell_formula_units_Z   16
loop_
 _symmetry_equiv_pos_site_id
 _symmetry_equiv_pos_as_xyz
  1  'x, y, z'
loop_
 _atom_site_type_symbol
 _atom_site_label
 _atom_site_symmetry_multiplicity
 _atom_site_fract_x
 _atom_site_fract_y
 _atom_site_fract_z
 _atom_site_occupancy
  Ta  Ta0  1  0.55888036  0.12500000  0.07884784  1
  Ta  Ta1  1  0.55888036  0.12500000  0.57884784  1
  Ta  Ta2  1  0.55888036  0.62500000  0.07884784  1
  Ta  Ta3  1  0.55888036  0.62500000  0.57884784  1
  Ta  Ta4  1  0.44111964  0.37500000  0.42115216  1
  Ta  Ta5  1  0.44111964  0.37500000  0.92115216  1
  Ta  Ta6  1  0.44111964  0.87500000  0.42115216  1
  Ta  Ta7  1  0.44111964  0.87500000  0.92115216  1
  Ta  Ta8  1  0.94111964  0.37500000  0.32884784  1
  Ta  Ta9  1  0.94111964  0.37500000  0.82884784  1
  Ta  Ta10  1  0.94111964  0.87500000  0.32884784  1
  Ta  Ta11  1  0.94111964  0.87500000  0.82884784  1
  Ta  Ta12  1  0.05888036  0.12500000  0.17115216  1
  Ta  Ta13  1  0.05888036  0.12500000  0.67115216  1
  Ta  Ta14  1  0.05888036  0.62500000  0.17115216  1
  Ta  Ta15  1  0.05888036  0.62500000  0.67115216  1
  V  V16  1  0.84578031  0.12500000  0.48488138  1
  V  V17  1  0.84578031  0.12500000  0.98488138  1
  V  V18  1  0.84578031  0.62500000  0.48488138  1
  V  V19  1  0.84578031  0.62500000  0.98488138  1
  V  V20  1  0.15421969  0.37500000  0.01511862  1
  V  V21  1  0.15421969  0.37500000  0.51511862  1
  V  V22  1  0.15421969  0.87500000  0.01511862  1
  V  V23  1  0.15421969  0.87500000  0.51511862  1
  V  V24  1  0.65421969  0.37500000  0.23488138  1
  V  V25  1  0.65421969  0.37500000  0.73488138  1
  V  V26  1  0.65421969  0.87500000  0.23488138  1
  V  V27  1  0.65421969  0.87500000  0.73488138  1
  V  V28  1  0.34578031  0.12500000  0.26511862  1
  V  V29  1  0.34578031  0.12500000  0.76511862  1
  V  V30  1  0.34578031  0.62500000  0.26511862  1
  V  V31  1  0.34578031  0.62500000  0.76511862  1
  O  O32  1  0.92388219  0.12500000  0.08832253  1
  O  O33  1  0.92388219  0.12500000  0.58832253  1
  O  O34  1  0.92388219  0.62500000  0.08832253  1
  O  O35  1  0.92388219  0.62500000  0.58832253  1
  O  O36  1  0.07611781  0.37500000  0.41167747  1
  O  O37  1  0.07611781  0.37500000  0.91167747  1
  O  O38  1  0.07611781  0.87500000  0.41167747  1
  O  O39  1  0.07611781  0.87500000  0.91167747  1
  O  O40  1  0.57611781  0.37500000  0.33832253  1
  O  O41  1  0.57611781  0.37500000  0.83832253  1
  O  O42  1  0.57611781  0.87500000  0.33832253  1
  O  O43  1  0.57611781  0.87500000  0.83832253  1
  O  O44  1  0.42388219  0.12500000  0.16167747  1
  O  O45  1  0.42388219  0.12500000  0.66167747  1
  O  O46  1  0.42388219  0.62500000  0.16167747  1
  O  O47  1  0.42388219  0.62500000  0.66167747  1
  O  O48  1  0.70475031  0.12500000  0.01411272  1
  O  O49  1  0.70475031  0.12500000  0.51411272  1
  O  O50  1  0.70475031  0.62500000  0.01411272  1
  O  O51  1  0.70475031  0.62500000  0.51411272  1
  O  O52  1  0.29524969  0.37500000  0.48588728  1
  O  O53  1  0.29524969  0.37500000  0.98588728  1
  O  O54  1  0.29524969  0.87500000  0.48588728  1
  O  O55  1  0.29524969  0.87500000  0.98588728  1
  O  O56  1  0.79524969  0.37500000  0.26411272  1
  O  O57  1  0.79524969  0.37500000  0.76411272  1
  O  O58  1  0.79524969  0.87500000  0.26411272  1
  O  O59  1  0.79524969  0.87500000  0.76411272  1
  O  O60  1  0.20475031  0.12500000  0.23588728  1
  O  O61  1  0.20475031  0.12500000  0.73588728  1
  O  O62  1  0.20475031  0.62500000  0.23588728  1
  O  O63  1  0.20475031  0.62500000  0.73588728  1
  O  O64  1  0.00000000  0.00000000  0.25000000  1
  O  O65  1  0.00000000  0.00000000  0.75000000  1
  O  O66  1  0.00000000  0.50000000  0.25000000  1
  O  O67  1  0.00000000  0.50000000  0.75000000  1
  O  O68  1  0.00000000  0.25000000  0.25000000  1
  O  O69  1  0.00000000  0.25000000  0.75000000  1
  O  O70  1  0.00000000  0.75000000  0.25000000  1
  O  O71  1  0.00000000  0.75000000  0.75000000  1
  O  O72  1  0.50000000  0.00000000  0.00000000  1
  O  O73  1  0.50000000  0.00000000  0.50000000  1
  O  O74  1  0.50000000  0.50000000  0.00000000  1
  O  O75  1  0.50000000  0.50000000  0.50000000  1
  O  O76  1  0.50000000  0.25000000  0.00000000  1
  O  O77  1  0.50000000  0.25000000  0.50000000  1
  O  O78  1  0.50000000  0.75000000  0.00000000  1
  O  O79  1  0.50000000  0.75000000  0.50000000  1
  O  O80  1  0.12381352  0.00039029  0.07963586  1
  O  O81  1  0.12381352  0.00039029  0.57963586  1
  O  O82  1  0.12381352  0.50039029  0.07963586  1
  O  O83  1  0.12381352  0.50039029  0.57963586  1
  O  O84  1  0.87618648  0.25039029  0.42036414  1
  O  O85  1  0.87618648  0.25039029  0.92036414  1
  O  O86  1  0.87618648  0.75039029  0.42036414  1
  O  O87  1  0.87618648  0.75039029  0.92036414  1
  O  O88  1  0.37618648  0.49960971  0.32963586  1
  O  O89  1  0.37618648  0.49960971  0.82963586  1
  O  O90  1  0.37618648  0.99960971  0.32963586  1
  O  O91  1  0.37618648  0.99960971  0.82963586  1
  O  O92  1  0.62381352  0.24960971  0.17036414  1
  O  O93  1  0.62381352  0.24960971  0.67036414  1
  O  O94  1  0.62381352  0.74960971  0.17036414  1
  O  O95  1  0.62381352  0.74960971  0.67036414  1
  O  O96  1  0.87618648  0.49960971  0.42036414  1
  O  O97  1  0.87618648  0.49960971  0.92036414  1
  O  O98  1  0.87618648  0.99960971  0.42036414  1
  O  O99  1  0.87618648  0.99960971  0.92036414  1
  O  O100  1  0.12381352  0.24960971  0.07963586  1
  O  O101  1  0.12381352  0.24960971  0.57963586  1
  O  O102  1  0.12381352  0.74960971  0.07963586  1
  O  O103  1  0.12381352  0.74960971  0.57963586  1
  O  O104  1  0.62381352  0.00039029  0.17036414  1
  O  O105  1  0.62381352  0.00039029  0.67036414  1
  O  O106  1  0.62381352  0.50039029  0.17036414  1
  O  O107  1  0.62381352  0.50039029  0.67036414  1
  O  O108  1  0.37618648  0.25039029  0.32963586  1
  O  O109  1  0.37618648  0.25039029  0.82963586  1
  O  O110  1  0.37618648  0.75039029  0.32963586  1
  O  O111  1  0.37618648  0.75039029  0.82963586  1
