# generated using pymatgen
data_As2O3
_symmetry_space_group_name_H-M   'P 1'
_cell_length_a   24.01471060
_cell_length_b   18.20906774
_cell_length_c   21.78906330
_cell_angle_alpha   90.00000000
_cell_angle_beta   124.19525694
_cell_angle_gamma   90.00000000
_symmetry_Int_Tables_number   1
_chemical_formula_structural   As2O3
_chemical_formula_sum   'As192 O288'
_cell_volume   7880.90116228
_cell_formula_units_Z   96
loop_
 _symmetry_equiv_pos_site_id
 _symmetry_equiv_pos_as_xyz
  1  'x, y, z'
loop_
 _atom_site_type_symbol
 _atom_site_label
 _atom_site_symmetry_multiplicity
 _atom_site_fract_x
 _atom_site_fract_y
 _atom_site_fract_z
 _atom_site_occupancy
  As  As0  1  0.14607623  0.20720644  0.06270248  1
  As  As1  1  0.14607623  0.20720644  0.56270248  1
  As  As2  1  0.14607623  0.45720644  0.06270248  1
  As  As3  1  0.14607623  0.45720644  0.56270248  1
  As  As4  1  0.14607623  0.70720644  0.06270248  1
  As  As5  1  0.14607623  0.70720644  0.56270248  1
  As  As6  1  0.14607623  0.95720644  0.06270248  1
  As  As7  1  0.14607623  0.95720644  0.56270248  1
  As  As8  1  0.47940956  0.20720644  0.06270248  1
  As  As9  1  0.47940956  0.20720644  0.56270248  1
  As  As10  1  0.47940956  0.45720644  0.06270248  1
  As  As11  1  0.47940956  0.45720644  0.56270248  1
  As  As12  1  0.47940956  0.70720644  0.06270248  1
  As  As13  1  0.47940956  0.70720644  0.56270248  1
  As  As14  1  0.47940956  0.95720644  0.06270248  1
  As  As15  1  0.47940956  0.95720644  0.56270248  1
  As  As16  1  0.81274290  0.20720644  0.06270248  1
  As  As17  1  0.81274290  0.20720644  0.56270248  1
  As  As18  1  0.81274290  0.45720644  0.06270248  1
  As  As19  1  0.81274290  0.45720644  0.56270248  1
  As  As20  1  0.81274290  0.70720644  0.06270248  1
  As  As21  1  0.81274290  0.70720644  0.56270248  1
  As  As22  1  0.81274290  0.95720644  0.06270248  1
  As  As23  1  0.81274290  0.95720644  0.56270248  1
  As  As24  1  0.18725710  0.08220644  0.18729752  1
  As  As25  1  0.18725710  0.08220644  0.68729752  1
  As  As26  1  0.18725710  0.33220644  0.18729752  1
  As  As27  1  0.18725710  0.33220644  0.68729752  1
  As  As28  1  0.18725710  0.58220644  0.18729752  1
  As  As29  1  0.18725710  0.58220644  0.68729752  1
  As  As30  1  0.18725710  0.83220644  0.18729752  1
  As  As31  1  0.18725710  0.83220644  0.68729752  1
  As  As32  1  0.52059044  0.08220644  0.18729752  1
  As  As33  1  0.52059044  0.08220644  0.68729752  1
  As  As34  1  0.52059044  0.33220644  0.18729752  1
  As  As35  1  0.52059044  0.33220644  0.68729752  1
  As  As36  1  0.52059044  0.58220644  0.18729752  1
  As  As37  1  0.52059044  0.58220644  0.68729752  1
  As  As38  1  0.52059044  0.83220644  0.18729752  1
  As  As39  1  0.52059044  0.83220644  0.68729752  1
  As  As40  1  0.85392377  0.08220644  0.18729752  1
  As  As41  1  0.85392377  0.08220644  0.68729752  1
  As  As42  1  0.85392377  0.33220644  0.18729752  1
  As  As43  1  0.85392377  0.33220644  0.68729752  1
  As  As44  1  0.85392377  0.58220644  0.18729752  1
  As  As45  1  0.85392377  0.58220644  0.68729752  1
  As  As46  1  0.85392377  0.83220644  0.18729752  1
  As  As47  1  0.85392377  0.83220644  0.68729752  1
  As  As48  1  0.18725710  0.04279356  0.43729752  1
  As  As49  1  0.18725710  0.04279356  0.93729752  1
  As  As50  1  0.18725710  0.29279356  0.43729752  1
  As  As51  1  0.18725710  0.29279356  0.93729752  1
  As  As52  1  0.18725710  0.54279356  0.43729752  1
  As  As53  1  0.18725710  0.54279356  0.93729752  1
  As  As54  1  0.18725710  0.79279356  0.43729752  1
  As  As55  1  0.18725710  0.79279356  0.93729752  1
  As  As56  1  0.52059044  0.04279356  0.43729752  1
  As  As57  1  0.52059044  0.04279356  0.93729752  1
  As  As58  1  0.52059044  0.29279356  0.43729752  1
  As  As59  1  0.52059044  0.29279356  0.93729752  1
  As  As60  1  0.52059044  0.54279356  0.43729752  1
  As  As61  1  0.52059044  0.54279356  0.93729752  1
  As  As62  1  0.52059044  0.79279356  0.43729752  1
  As  As63  1  0.52059044  0.79279356  0.93729752  1
  As  As64  1  0.85392377  0.04279356  0.43729752  1
  As  As65  1  0.85392377  0.04279356  0.93729752  1
  As  As66  1  0.85392377  0.29279356  0.43729752  1
  As  As67  1  0.85392377  0.29279356  0.93729752  1
  As  As68  1  0.85392377  0.54279356  0.43729752  1
  As  As69  1  0.85392377  0.54279356  0.93729752  1
  As  As70  1  0.85392377  0.79279356  0.43729752  1
  As  As71  1  0.85392377  0.79279356  0.93729752  1
  As  As72  1  0.14607623  0.16779356  0.31270248  1
  As  As73  1  0.14607623  0.16779356  0.81270248  1
  As  As74  1  0.14607623  0.41779356  0.31270248  1
  As  As75  1  0.14607623  0.41779356  0.81270248  1
  As  As76  1  0.14607623  0.66779356  0.31270248  1
  As  As77  1  0.14607623  0.66779356  0.81270248  1
  As  As78  1  0.14607623  0.91779356  0.31270248  1
  As  As79  1  0.14607623  0.91779356  0.81270248  1
  As  As80  1  0.47940956  0.16779356  0.31270248  1
  As  As81  1  0.47940956  0.16779356  0.81270248  1
  As  As82  1  0.47940956  0.41779356  0.31270248  1
  As  As83  1  0.47940956  0.41779356  0.81270248  1
  As  As84  1  0.47940956  0.66779356  0.31270248  1
  As  As85  1  0.47940956  0.66779356  0.81270248  1
  As  As86  1  0.47940956  0.91779356  0.31270248  1
  As  As87  1  0.47940956  0.91779356  0.81270248  1
  As  As88  1  0.81274290  0.16779356  0.31270248  1
  As  As89  1  0.81274290  0.16779356  0.81270248  1
  As  As90  1  0.81274290  0.41779356  0.31270248  1
  As  As91  1  0.81274290  0.41779356  0.81270248  1
  As  As92  1  0.81274290  0.66779356  0.31270248  1
  As  As93  1  0.81274290  0.66779356  0.81270248  1
  As  As94  1  0.81274290  0.91779356  0.31270248  1
  As  As95  1  0.81274290  0.91779356  0.81270248  1
  As  As96  1  0.02855131  0.08921900  0.09955661  1
  As  As97  1  0.02855131  0.08921900  0.59955661  1
  As  As98  1  0.02855131  0.33921900  0.09955661  1
  As  As99  1  0.02855131  0.33921900  0.59955661  1
  As  As100  1  0.02855131  0.58921900  0.09955661  1
  As  As101  1  0.02855131  0.58921900  0.59955661  1
  As  As102  1  0.02855131  0.83921900  0.09955661  1
  As  As103  1  0.02855131  0.83921900  0.59955661  1
  As  As104  1  0.36188464  0.08921900  0.09955661  1
  As  As105  1  0.36188464  0.08921900  0.59955661  1
  As  As106  1  0.36188464  0.33921900  0.09955661  1
  As  As107  1  0.36188464  0.33921900  0.59955661  1
  As  As108  1  0.36188464  0.58921900  0.09955661  1
  As  As109  1  0.36188464  0.58921900  0.59955661  1
  As  As110  1  0.36188464  0.83921900  0.09955661  1
  As  As111  1  0.36188464  0.83921900  0.59955661  1
  As  As112  1  0.69521798  0.08921900  0.09955661  1
  As  As113  1  0.69521798  0.08921900  0.59955661  1
  As  As114  1  0.69521798  0.33921900  0.09955661  1
  As  As115  1  0.69521798  0.33921900  0.59955661  1
  As  As116  1  0.69521798  0.58921900  0.09955661  1
  As  As117  1  0.69521798  0.58921900  0.59955661  1
  As  As118  1  0.69521798  0.83921900  0.09955661  1
  As  As119  1  0.69521798  0.83921900  0.59955661  1
  As  As120  1  0.30478202  0.21421900  0.15044339  1
  As  As121  1  0.30478202  0.21421900  0.65044339  1
  As  As122  1  0.30478202  0.46421900  0.15044339  1
  As  As123  1  0.30478202  0.46421900  0.65044339  1
  As  As124  1  0.30478202  0.71421900  0.15044339  1
  As  As125  1  0.30478202  0.71421900  0.65044339  1
  As  As126  1  0.30478202  0.96421900  0.15044339  1
  As  As127  1  0.30478202  0.96421900  0.65044339  1
  As  As128  1  0.63811536  0.21421900  0.15044339  1
  As  As129  1  0.63811536  0.21421900  0.65044339  1
  As  As130  1  0.63811536  0.46421900  0.15044339  1
  As  As131  1  0.63811536  0.46421900  0.65044339  1
  As  As132  1  0.63811536  0.71421900  0.15044339  1
  As  As133  1  0.63811536  0.71421900  0.65044339  1
  As  As134  1  0.63811536  0.96421900  0.15044339  1
  As  As135  1  0.63811536  0.96421900  0.65044339  1
  As  As136  1  0.97144869  0.21421900  0.15044339  1
  As  As137  1  0.97144869  0.21421900  0.65044339  1
  As  As138  1  0.97144869  0.46421900  0.15044339  1
  As  As139  1  0.97144869  0.46421900  0.65044339  1
  As  As140  1  0.97144869  0.71421900  0.15044339  1
  As  As141  1  0.97144869  0.71421900  0.65044339  1
  As  As142  1  0.97144869  0.96421900  0.15044339  1
  As  As143  1  0.97144869  0.96421900  0.65044339  1
  As  As144  1  0.30478202  0.16078100  0.40044339  1
  As  As145  1  0.30478202  0.16078100  0.90044339  1
  As  As146  1  0.30478202  0.41078100  0.40044339  1
  As  As147  1  0.30478202  0.41078100  0.90044339  1
  As  As148  1  0.30478202  0.66078100  0.40044339  1
  As  As149  1  0.30478202  0.66078100  0.90044339  1
  As  As150  1  0.30478202  0.91078100  0.40044339  1
  As  As151  1  0.30478202  0.91078100  0.90044339  1
  As  As152  1  0.63811536  0.16078100  0.40044339  1
  As  As153  1  0.63811536  0.16078100  0.90044339  1
  As  As154  1  0.63811536  0.41078100  0.40044339  1
  As  As155  1  0.63811536  0.41078100  0.90044339  1
  As  As156  1  0.63811536  0.66078100  0.40044339  1
  As  As157  1  0.63811536  0.66078100  0.90044339  1
  As  As158  1  0.63811536  0.91078100  0.40044339  1
  As  As159  1  0.63811536  0.91078100  0.90044339  1
  As  As160  1  0.97144869  0.16078100  0.40044339  1
  As  As161  1  0.97144869  0.16078100  0.90044339  1
  As  As162  1  0.97144869  0.41078100  0.40044339  1
  As  As163  1  0.97144869  0.41078100  0.90044339  1
  As  As164  1  0.97144869  0.66078100  0.40044339  1
  As  As165  1  0.97144869  0.66078100  0.90044339  1
  As  As166  1  0.97144869  0.91078100  0.40044339  1
  As  As167  1  0.97144869  0.91078100  0.90044339  1
  As  As168  1  0.02855131  0.03578100  0.34955661  1
  As  As169  1  0.02855131  0.03578100  0.84955661  1
  As  As170  1  0.02855131  0.28578100  0.34955661  1
  As  As171  1  0.02855131  0.28578100  0.84955661  1
  As  As172  1  0.02855131  0.53578100  0.34955661  1
  As  As173  1  0.02855131  0.53578100  0.84955661  1
  As  As174  1  0.02855131  0.78578100  0.34955661  1
  As  As175  1  0.02855131  0.78578100  0.84955661  1
  As  As176  1  0.36188464  0.03578100  0.34955661  1
  As  As177  1  0.36188464  0.03578100  0.84955661  1
  As  As178  1  0.36188464  0.28578100  0.34955661  1
  As  As179  1  0.36188464  0.28578100  0.84955661  1
  As  As180  1  0.36188464  0.53578100  0.34955661  1
  As  As181  1  0.36188464  0.53578100  0.84955661  1
  As  As182  1  0.36188464  0.78578100  0.34955661  1
  As  As183  1  0.36188464  0.78578100  0.84955661  1
  As  As184  1  0.69521798  0.03578100  0.34955661  1
  As  As185  1  0.69521798  0.03578100  0.84955661  1
  As  As186  1  0.69521798  0.28578100  0.34955661  1
  As  As187  1  0.69521798  0.28578100  0.84955661  1
  As  As188  1  0.69521798  0.53578100  0.34955661  1
  As  As189  1  0.69521798  0.53578100  0.84955661  1
  As  As190  1  0.69521798  0.78578100  0.34955661  1
  As  As191  1  0.69521798  0.78578100  0.84955661  1
  O  O192  1  0.22135543  0.22044518  0.06333144  1
  O  O193  1  0.22135543  0.22044518  0.56333144  1
  O  O194  1  0.22135543  0.47044518  0.06333144  1
  O  O195  1  0.22135543  0.47044518  0.56333144  1
  O  O196  1  0.22135543  0.72044518  0.06333144  1
  O  O197  1  0.22135543  0.72044518  0.56333144  1
  O  O198  1  0.22135543  0.97044518  0.06333144  1
  O  O199  1  0.22135543  0.97044518  0.56333144  1
  O  O200  1  0.55468876  0.22044518  0.06333144  1
  O  O201  1  0.55468876  0.22044518  0.56333144  1
  O  O202  1  0.55468876  0.47044518  0.06333144  1
  O  O203  1  0.55468876  0.47044518  0.56333144  1
  O  O204  1  0.55468876  0.72044518  0.06333144  1
  O  O205  1  0.55468876  0.72044518  0.56333144  1
  O  O206  1  0.55468876  0.97044518  0.06333144  1
  O  O207  1  0.55468876  0.97044518  0.56333144  1
  O  O208  1  0.88802209  0.22044518  0.06333144  1
  O  O209  1  0.88802209  0.22044518  0.56333144  1
  O  O210  1  0.88802209  0.47044518  0.06333144  1
  O  O211  1  0.88802209  0.47044518  0.56333144  1
  O  O212  1  0.88802209  0.72044518  0.06333144  1
  O  O213  1  0.88802209  0.72044518  0.56333144  1
  O  O214  1  0.88802209  0.97044518  0.06333144  1
  O  O215  1  0.88802209  0.97044518  0.56333144  1
  O  O216  1  0.11197791  0.09544518  0.18666856  1
  O  O217  1  0.11197791  0.09544518  0.68666856  1
  O  O218  1  0.11197791  0.34544518  0.18666856  1
  O  O219  1  0.11197791  0.34544518  0.68666856  1
  O  O220  1  0.11197791  0.59544518  0.18666856  1
  O  O221  1  0.11197791  0.59544518  0.68666856  1
  O  O222  1  0.11197791  0.84544518  0.18666856  1
  O  O223  1  0.11197791  0.84544518  0.68666856  1
  O  O224  1  0.44531124  0.09544518  0.18666856  1
  O  O225  1  0.44531124  0.09544518  0.68666856  1
  O  O226  1  0.44531124  0.34544518  0.18666856  1
  O  O227  1  0.44531124  0.34544518  0.68666856  1
  O  O228  1  0.44531124  0.59544518  0.18666856  1
  O  O229  1  0.44531124  0.59544518  0.68666856  1
  O  O230  1  0.44531124  0.84544518  0.18666856  1
  O  O231  1  0.44531124  0.84544518  0.68666856  1
  O  O232  1  0.77864457  0.09544518  0.18666856  1
  O  O233  1  0.77864457  0.09544518  0.68666856  1
  O  O234  1  0.77864457  0.34544518  0.18666856  1
  O  O235  1  0.77864457  0.34544518  0.68666856  1
  O  O236  1  0.77864457  0.59544518  0.18666856  1
  O  O237  1  0.77864457  0.59544518  0.68666856  1
  O  O238  1  0.77864457  0.84544518  0.18666856  1
  O  O239  1  0.77864457  0.84544518  0.68666856  1
  O  O240  1  0.11197791  0.02955482  0.43666856  1
  O  O241  1  0.11197791  0.02955482  0.93666856  1
  O  O242  1  0.11197791  0.27955482  0.43666856  1
  O  O243  1  0.11197791  0.27955482  0.93666856  1
  O  O244  1  0.11197791  0.52955482  0.43666856  1
  O  O245  1  0.11197791  0.52955482  0.93666856  1
  O  O246  1  0.11197791  0.77955482  0.43666856  1
  O  O247  1  0.11197791  0.77955482  0.93666856  1
  O  O248  1  0.44531124  0.02955482  0.43666856  1
  O  O249  1  0.44531124  0.02955482  0.93666856  1
  O  O250  1  0.44531124  0.27955482  0.43666856  1
  O  O251  1  0.44531124  0.27955482  0.93666856  1
  O  O252  1  0.44531124  0.52955482  0.43666856  1
  O  O253  1  0.44531124  0.52955482  0.93666856  1
  O  O254  1  0.44531124  0.77955482  0.43666856  1
  O  O255  1  0.44531124  0.77955482  0.93666856  1
  O  O256  1  0.77864457  0.02955482  0.43666856  1
  O  O257  1  0.77864457  0.02955482  0.93666856  1
  O  O258  1  0.77864457  0.27955482  0.43666856  1
  O  O259  1  0.77864457  0.27955482  0.93666856  1
  O  O260  1  0.77864457  0.52955482  0.43666856  1
  O  O261  1  0.77864457  0.52955482  0.93666856  1
  O  O262  1  0.77864457  0.77955482  0.43666856  1
  O  O263  1  0.77864457  0.77955482  0.93666856  1
  O  O264  1  0.22135543  0.15455482  0.31333144  1
  O  O265  1  0.22135543  0.15455482  0.81333144  1
  O  O266  1  0.22135543  0.40455482  0.31333144  1
  O  O267  1  0.22135543  0.40455482  0.81333144  1
  O  O268  1  0.22135543  0.65455482  0.31333144  1
  O  O269  1  0.22135543  0.65455482  0.81333144  1
  O  O270  1  0.22135543  0.90455482  0.31333144  1
  O  O271  1  0.22135543  0.90455482  0.81333144  1
  O  O272  1  0.55468876  0.15455482  0.31333144  1
  O  O273  1  0.55468876  0.15455482  0.81333144  1
  O  O274  1  0.55468876  0.40455482  0.31333144  1
  O  O275  1  0.55468876  0.40455482  0.81333144  1
  O  O276  1  0.55468876  0.65455482  0.31333144  1
  O  O277  1  0.55468876  0.65455482  0.81333144  1
  O  O278  1  0.55468876  0.90455482  0.31333144  1
  O  O279  1  0.55468876  0.90455482  0.81333144  1
  O  O280  1  0.88802209  0.15455482  0.31333144  1
  O  O281  1  0.88802209  0.15455482  0.81333144  1
  O  O282  1  0.88802209  0.40455482  0.31333144  1
  O  O283  1  0.88802209  0.40455482  0.81333144  1
  O  O284  1  0.88802209  0.65455482  0.31333144  1
  O  O285  1  0.88802209  0.65455482  0.81333144  1
  O  O286  1  0.88802209  0.90455482  0.31333144  1
  O  O287  1  0.88802209  0.90455482  0.81333144  1
  O  O288  1  0.19553150  0.17255838  0.15914549  1
  O  O289  1  0.19553150  0.17255838  0.65914549  1
  O  O290  1  0.19553150  0.42255838  0.15914549  1
  O  O291  1  0.19553150  0.42255838  0.65914549  1
  O  O292  1  0.19553150  0.67255838  0.15914549  1
  O  O293  1  0.19553150  0.67255838  0.65914549  1
  O  O294  1  0.19553150  0.92255838  0.15914549  1
  O  O295  1  0.19553150  0.92255838  0.65914549  1
  O  O296  1  0.52886483  0.17255838  0.15914549  1
  O  O297  1  0.52886483  0.17255838  0.65914549  1
  O  O298  1  0.52886483  0.42255838  0.15914549  1
  O  O299  1  0.52886483  0.42255838  0.65914549  1
  O  O300  1  0.52886483  0.67255838  0.15914549  1
  O  O301  1  0.52886483  0.67255838  0.65914549  1
  O  O302  1  0.52886483  0.92255838  0.15914549  1
  O  O303  1  0.52886483  0.92255838  0.65914549  1
  O  O304  1  0.86219816  0.17255838  0.15914549  1
  O  O305  1  0.86219816  0.17255838  0.65914549  1
  O  O306  1  0.86219816  0.42255838  0.15914549  1
  O  O307  1  0.86219816  0.42255838  0.65914549  1
  O  O308  1  0.86219816  0.67255838  0.15914549  1
  O  O309  1  0.86219816  0.67255838  0.65914549  1
  O  O310  1  0.86219816  0.92255838  0.15914549  1
  O  O311  1  0.86219816  0.92255838  0.65914549  1
  O  O312  1  0.13780184  0.04755838  0.09085451  1
  O  O313  1  0.13780184  0.04755838  0.59085451  1
  O  O314  1  0.13780184  0.29755838  0.09085451  1
  O  O315  1  0.13780184  0.29755838  0.59085451  1
  O  O316  1  0.13780184  0.54755838  0.09085451  1
  O  O317  1  0.13780184  0.54755838  0.59085451  1
  O  O318  1  0.13780184  0.79755838  0.09085451  1
  O  O319  1  0.13780184  0.79755838  0.59085451  1
  O  O320  1  0.47113517  0.04755838  0.09085451  1
  O  O321  1  0.47113517  0.04755838  0.59085451  1
  O  O322  1  0.47113517  0.29755838  0.09085451  1
  O  O323  1  0.47113517  0.29755838  0.59085451  1
  O  O324  1  0.47113517  0.54755838  0.09085451  1
  O  O325  1  0.47113517  0.54755838  0.59085451  1
  O  O326  1  0.47113517  0.79755838  0.09085451  1
  O  O327  1  0.47113517  0.79755838  0.59085451  1
  O  O328  1  0.80446850  0.04755838  0.09085451  1
  O  O329  1  0.80446850  0.04755838  0.59085451  1
  O  O330  1  0.80446850  0.29755838  0.09085451  1
  O  O331  1  0.80446850  0.29755838  0.59085451  1
  O  O332  1  0.80446850  0.54755838  0.09085451  1
  O  O333  1  0.80446850  0.54755838  0.59085451  1
  O  O334  1  0.80446850  0.79755838  0.09085451  1
  O  O335  1  0.80446850  0.79755838  0.59085451  1
  O  O336  1  0.13780184  0.07744162  0.34085451  1
  O  O337  1  0.13780184  0.07744162  0.84085451  1
  O  O338  1  0.13780184  0.32744162  0.34085451  1
  O  O339  1  0.13780184  0.32744162  0.84085451  1
  O  O340  1  0.13780184  0.57744162  0.34085451  1
  O  O341  1  0.13780184  0.57744162  0.84085451  1
  O  O342  1  0.13780184  0.82744162  0.34085451  1
  O  O343  1  0.13780184  0.82744162  0.84085451  1
  O  O344  1  0.47113517  0.07744162  0.34085451  1
  O  O345  1  0.47113517  0.07744162  0.84085451  1
  O  O346  1  0.47113517  0.32744162  0.34085451  1
  O  O347  1  0.47113517  0.32744162  0.84085451  1
  O  O348  1  0.47113517  0.57744162  0.34085451  1
  O  O349  1  0.47113517  0.57744162  0.84085451  1
  O  O350  1  0.47113517  0.82744162  0.34085451  1
  O  O351  1  0.47113517  0.82744162  0.84085451  1
  O  O352  1  0.80446850  0.07744162  0.34085451  1
  O  O353  1  0.80446850  0.07744162  0.84085451  1
  O  O354  1  0.80446850  0.32744162  0.34085451  1
  O  O355  1  0.80446850  0.32744162  0.84085451  1
  O  O356  1  0.80446850  0.57744162  0.34085451  1
  O  O357  1  0.80446850  0.57744162  0.84085451  1
  O  O358  1  0.80446850  0.82744162  0.34085451  1
  O  O359  1  0.80446850  0.82744162  0.84085451  1
  O  O360  1  0.19553150  0.20244162  0.40914549  1
  O  O361  1  0.19553150  0.20244162  0.90914549  1
  O  O362  1  0.19553150  0.45244162  0.40914549  1
  O  O363  1  0.19553150  0.45244162  0.90914549  1
  O  O364  1  0.19553150  0.70244162  0.40914549  1
  O  O365  1  0.19553150  0.70244162  0.90914549  1
  O  O366  1  0.19553150  0.95244162  0.40914549  1
  O  O367  1  0.19553150  0.95244162  0.90914549  1
  O  O368  1  0.52886483  0.20244162  0.40914549  1
  O  O369  1  0.52886483  0.20244162  0.90914549  1
  O  O370  1  0.52886483  0.45244162  0.40914549  1
  O  O371  1  0.52886483  0.45244162  0.90914549  1
  O  O372  1  0.52886483  0.70244162  0.40914549  1
  O  O373  1  0.52886483  0.70244162  0.90914549  1
  O  O374  1  0.52886483  0.95244162  0.40914549  1
  O  O375  1  0.52886483  0.95244162  0.90914549  1
  O  O376  1  0.86219816  0.20244162  0.40914549  1
  O  O377  1  0.86219816  0.20244162  0.90914549  1
  O  O378  1  0.86219816  0.45244162  0.40914549  1
  O  O379  1  0.86219816  0.45244162  0.90914549  1
  O  O380  1  0.86219816  0.70244162  0.40914549  1
  O  O381  1  0.86219816  0.70244162  0.90914549  1
  O  O382  1  0.86219816  0.95244162  0.40914549  1
  O  O383  1  0.86219816  0.95244162  0.90914549  1
  O  O384  1  0.01363464  0.13239125  0.35608052  1
  O  O385  1  0.01363464  0.13239125  0.85608052  1
  O  O386  1  0.01363464  0.38239125  0.35608052  1
  O  O387  1  0.01363464  0.38239125  0.85608052  1
  O  O388  1  0.01363464  0.63239125  0.35608052  1
  O  O389  1  0.01363464  0.63239125  0.85608052  1
  O  O390  1  0.01363464  0.88239125  0.35608052  1
  O  O391  1  0.01363464  0.88239125  0.85608052  1
  O  O392  1  0.34696798  0.13239125  0.35608052  1
  O  O393  1  0.34696798  0.13239125  0.85608052  1
  O  O394  1  0.34696798  0.38239125  0.35608052  1
  O  O395  1  0.34696798  0.38239125  0.85608052  1
  O  O396  1  0.34696798  0.63239125  0.35608052  1
  O  O397  1  0.34696798  0.63239125  0.85608052  1
  O  O398  1  0.34696798  0.88239125  0.35608052  1
  O  O399  1  0.34696798  0.88239125  0.85608052  1
  O  O400  1  0.68030131  0.13239125  0.35608052  1
  O  O401  1  0.68030131  0.13239125  0.85608052  1
  O  O402  1  0.68030131  0.38239125  0.35608052  1
  O  O403  1  0.68030131  0.38239125  0.85608052  1
  O  O404  1  0.68030131  0.63239125  0.35608052  1
  O  O405  1  0.68030131  0.63239125  0.85608052  1
  O  O406  1  0.68030131  0.88239125  0.35608052  1
  O  O407  1  0.68030131  0.88239125  0.85608052  1
  O  O408  1  0.31969869  0.00739125  0.39391948  1
  O  O409  1  0.31969869  0.00739125  0.89391948  1
  O  O410  1  0.31969869  0.25739125  0.39391948  1
  O  O411  1  0.31969869  0.25739125  0.89391948  1
  O  O412  1  0.31969869  0.50739125  0.39391948  1
  O  O413  1  0.31969869  0.50739125  0.89391948  1
  O  O414  1  0.31969869  0.75739125  0.39391948  1
  O  O415  1  0.31969869  0.75739125  0.89391948  1
  O  O416  1  0.65303202  0.00739125  0.39391948  1
  O  O417  1  0.65303202  0.00739125  0.89391948  1
  O  O418  1  0.65303202  0.25739125  0.39391948  1
  O  O419  1  0.65303202  0.25739125  0.89391948  1
  O  O420  1  0.65303202  0.50739125  0.39391948  1
  O  O421  1  0.65303202  0.50739125  0.89391948  1
  O  O422  1  0.65303202  0.75739125  0.39391948  1
  O  O423  1  0.65303202  0.75739125  0.89391948  1
  O  O424  1  0.98636536  0.00739125  0.39391948  1
  O  O425  1  0.98636536  0.00739125  0.89391948  1
  O  O426  1  0.98636536  0.25739125  0.39391948  1
  O  O427  1  0.98636536  0.25739125  0.89391948  1
  O  O428  1  0.98636536  0.50739125  0.39391948  1
  O  O429  1  0.98636536  0.50739125  0.89391948  1
  O  O430  1  0.98636536  0.75739125  0.39391948  1
  O  O431  1  0.98636536  0.75739125  0.89391948  1
  O  O432  1  0.31969869  0.11760875  0.14391948  1
  O  O433  1  0.31969869  0.11760875  0.64391948  1
  O  O434  1  0.31969869  0.36760875  0.14391948  1
  O  O435  1  0.31969869  0.36760875  0.64391948  1
  O  O436  1  0.31969869  0.61760875  0.14391948  1
  O  O437  1  0.31969869  0.61760875  0.64391948  1
  O  O438  1  0.31969869  0.86760875  0.14391948  1
  O  O439  1  0.31969869  0.86760875  0.64391948  1
  O  O440  1  0.65303202  0.11760875  0.14391948  1
  O  O441  1  0.65303202  0.11760875  0.64391948  1
  O  O442  1  0.65303202  0.36760875  0.14391948  1
  O  O443  1  0.65303202  0.36760875  0.64391948  1
  O  O444  1  0.65303202  0.61760875  0.14391948  1
  O  O445  1  0.65303202  0.61760875  0.64391948  1
  O  O446  1  0.65303202  0.86760875  0.14391948  1
  O  O447  1  0.65303202  0.86760875  0.64391948  1
  O  O448  1  0.98636536  0.11760875  0.14391948  1
  O  O449  1  0.98636536  0.11760875  0.64391948  1
  O  O450  1  0.98636536  0.36760875  0.14391948  1
  O  O451  1  0.98636536  0.36760875  0.64391948  1
  O  O452  1  0.98636536  0.61760875  0.14391948  1
  O  O453  1  0.98636536  0.61760875  0.64391948  1
  O  O454  1  0.98636536  0.86760875  0.14391948  1
  O  O455  1  0.98636536  0.86760875  0.64391948  1
  O  O456  1  0.01363464  0.24260875  0.10608052  1
  O  O457  1  0.01363464  0.24260875  0.60608052  1
  O  O458  1  0.01363464  0.49260875  0.10608052  1
  O  O459  1  0.01363464  0.49260875  0.60608052  1
  O  O460  1  0.01363464  0.74260875  0.10608052  1
  O  O461  1  0.01363464  0.74260875  0.60608052  1
  O  O462  1  0.01363464  0.99260875  0.10608052  1
  O  O463  1  0.01363464  0.99260875  0.60608052  1
  O  O464  1  0.34696798  0.24260875  0.10608052  1
  O  O465  1  0.34696798  0.24260875  0.60608052  1
  O  O466  1  0.34696798  0.49260875  0.10608052  1
  O  O467  1  0.34696798  0.49260875  0.60608052  1
  O  O468  1  0.34696798  0.74260875  0.10608052  1
  O  O469  1  0.34696798  0.74260875  0.60608052  1
  O  O470  1  0.34696798  0.99260875  0.10608052  1
  O  O471  1  0.34696798  0.99260875  0.60608052  1
  O  O472  1  0.68030131  0.24260875  0.10608052  1
  O  O473  1  0.68030131  0.24260875  0.60608052  1
  O  O474  1  0.68030131  0.49260875  0.10608052  1
  O  O475  1  0.68030131  0.49260875  0.60608052  1
  O  O476  1  0.68030131  0.74260875  0.10608052  1
  O  O477  1  0.68030131  0.74260875  0.60608052  1
  O  O478  1  0.68030131  0.99260875  0.10608052  1
  O  O479  1  0.68030131  0.99260875  0.60608052  1
