# generated using pymatgen
data_TlV2AgO6
_symmetry_space_group_name_H-M   'P 1'
_cell_length_a   10.62936970
_cell_length_b   10.06119497
_cell_length_c   11.76189715
_cell_angle_alpha   90.00000000
_cell_angle_beta   104.91818672
_cell_angle_gamma   90.00000000
_symmetry_Int_Tables_number   1
_chemical_formula_structural   TlV2AgO6
_chemical_formula_sum   'Tl8 V16 Ag8 O48'
_cell_volume   1215.46910083
_cell_formula_units_Z   8
loop_
 _symmetry_equiv_pos_site_id
 _symmetry_equiv_pos_as_xyz
  1  'x, y, z'
loop_
 _atom_site_type_symbol
 _atom_site_label
 _atom_site_symmetry_multiplicity
 _atom_site_fract_x
 _atom_site_fract_y
 _atom_site_fract_z
 _atom_site_occupancy
  Tl  Tl0  1  0.50000000  -0.21650778  0.12500000  1
  Tl  Tl1  1  0.50000000  -0.21650778  0.62500000  1
  Tl  Tl2  1  1.00000000  0.28349222  0.12500000  1
  Tl  Tl3  1  1.00000000  0.28349222  0.62500000  1
  Tl  Tl4  1  0.50000000  0.21650778  0.37500000  1
  Tl  Tl5  1  0.50000000  0.21650778  0.87500000  1
  Tl  Tl6  1  1.00000000  0.71650778  0.37500000  1
  Tl  Tl7  1  1.00000000  0.71650778  0.87500000  1
  V  V8  1  0.28838881  -0.08210845  0.35864365  1
  V  V9  1  0.28838881  -0.08210845  0.85864365  1
  V  V10  1  0.78838881  0.41789155  0.35864365  1
  V  V11  1  0.78838881  0.41789155  0.85864365  1
  V  V12  1  0.71161119  -0.08210845  0.39135635  1
  V  V13  1  0.71161119  -0.08210845  0.89135635  1
  V  V14  1  1.21161119  0.41789155  0.39135635  1
  V  V15  1  1.21161119  0.41789155  0.89135635  1
  V  V16  1  0.71161119  0.08210845  0.14135635  1
  V  V17  1  0.71161119  0.08210845  0.64135635  1
  V  V18  1  1.21161119  0.58210845  0.14135635  1
  V  V19  1  1.21161119  0.58210845  0.64135635  1
  V  V20  1  0.28838881  0.08210845  0.10864365  1
  V  V21  1  0.28838881  0.08210845  0.60864365  1
  V  V22  1  0.78838881  0.58210845  0.10864365  1
  V  V23  1  0.78838881  0.58210845  0.60864365  1
  Ag  Ag24  1  0.50000000  0.39519104  0.12500000  1
  Ag  Ag25  1  0.50000000  0.39519104  0.62500000  1
  Ag  Ag26  1  1.00000000  0.89519104  0.12500000  1
  Ag  Ag27  1  1.00000000  0.89519104  0.62500000  1
  Ag  Ag28  1  0.50000000  -0.39519104  0.37500000  1
  Ag  Ag29  1  0.50000000  -0.39519104  0.87500000  1
  Ag  Ag30  1  1.00000000  0.10480896  0.37500000  1
  Ag  Ag31  1  1.00000000  0.10480896  0.87500000  1
  O  O32  1  0.34694588  0.01227178  0.49130849  1
  O  O33  1  0.34694588  0.01227178  0.99130849  1
  O  O34  1  0.84694588  0.51227178  0.49130849  1
  O  O35  1  0.84694588  0.51227178  0.99130849  1
  O  O36  1  0.65305412  0.01227178  0.25869151  1
  O  O37  1  0.65305412  0.01227178  0.75869151  1
  O  O38  1  1.15305412  0.51227178  0.25869151  1
  O  O39  1  1.15305412  0.51227178  0.75869151  1
  O  O40  1  0.65305412  -0.01227178  0.00869151  1
  O  O41  1  0.65305412  -0.01227178  0.50869151  1
  O  O42  1  1.15305412  0.48772822  0.00869151  1
  O  O43  1  1.15305412  0.48772822  0.50869151  1
  O  O44  1  0.34694588  -0.01227178  0.24130849  1
  O  O45  1  0.34694588  -0.01227178  0.74130849  1
  O  O46  1  0.84694588  0.48772822  0.24130849  1
  O  O47  1  0.84694588  0.48772822  0.74130849  1
  O  O48  1  0.65969193  -0.23803124  0.36268278  1
  O  O49  1  0.65969193  -0.23803124  0.86268278  1
  O  O50  1  1.15969193  0.26196876  0.36268278  1
  O  O51  1  1.15969193  0.26196876  0.86268278  1
  O  O52  1  0.34030807  -0.23803124  0.38731722  1
  O  O53  1  0.34030807  -0.23803124  0.88731722  1
  O  O54  1  0.84030807  0.26196876  0.38731722  1
  O  O55  1  0.84030807  0.26196876  0.88731722  1
  O  O56  1  0.34030807  0.23803124  0.13731722  1
  O  O57  1  0.34030807  0.23803124  0.63731722  1
  O  O58  1  0.84030807  0.73803124  0.13731722  1
  O  O59  1  0.84030807  0.73803124  0.63731722  1
  O  O60  1  0.65969193  0.23803124  0.11268278  1
  O  O61  1  0.65969193  0.23803124  0.61268278  1
  O  O62  1  1.15969193  0.73803124  0.11268278  1
  O  O63  1  1.15969193  0.73803124  0.61268278  1
  O  O64  1  0.87570939  0.07556116  0.17840671  1
  O  O65  1  0.87570939  0.07556116  0.67840671  1
  O  O66  1  1.37570939  0.57556116  0.17840671  1
  O  O67  1  1.37570939  0.57556116  0.67840671  1
  O  O68  1  0.12429061  0.07556116  0.07159329  1
  O  O69  1  0.12429061  0.07556116  0.57159329  1
  O  O70  1  0.62429061  0.57556116  0.07159329  1
  O  O71  1  0.62429061  0.57556116  0.57159329  1
  O  O72  1  0.12429061  -0.07556116  0.32159329  1
  O  O73  1  0.12429061  -0.07556116  0.82159329  1
  O  O74  1  0.62429061  0.42443884  0.32159329  1
  O  O75  1  0.62429061  0.42443884  0.82159329  1
  O  O76  1  0.87570939  -0.07556116  0.42840671  1
  O  O77  1  0.87570939  -0.07556116  0.92840671  1
  O  O78  1  1.37570939  0.42443884  0.42840671  1
  O  O79  1  1.37570939  0.42443884  0.92840671  1
