# generated using pymatgen
data_MgTi2O5
_symmetry_space_group_name_H-M   'P 1'
_cell_length_a   11.25972275
_cell_length_b   9.73930165
_cell_length_c   9.98789864
_cell_angle_alpha   90.00000000
_cell_angle_beta   90.00000000
_cell_angle_gamma   90.00000000
_symmetry_Int_Tables_number   1
_chemical_formula_structural   MgTi2O5
_chemical_formula_sum   'Mg12 Ti24 O60'
_cell_volume   1095.29130572
_cell_formula_units_Z   12
loop_
 _symmetry_equiv_pos_site_id
 _symmetry_equiv_pos_as_xyz
  1  'x, y, z'
loop_
 _atom_site_type_symbol
 _atom_site_label
 _atom_site_symmetry_multiplicity
 _atom_site_fract_x
 _atom_site_fract_y
 _atom_site_fract_z
 _atom_site_occupancy
  Mg  Mg0  1  0.16666667  -0.30194747  0.75000000  1
  Mg  Mg1  1  0.50000000  -0.30194747  0.75000000  1
  Mg  Mg2  1  0.83333333  -0.30194747  0.75000000  1
  Mg  Mg3  1  0.33333333  0.19805253  0.75000000  1
  Mg  Mg4  1  0.66666667  0.19805253  0.75000000  1
  Mg  Mg5  1  1.00000000  0.19805253  0.75000000  1
  Mg  Mg6  1  0.16666667  0.30194747  0.25000000  1
  Mg  Mg7  1  0.50000000  0.30194747  0.25000000  1
  Mg  Mg8  1  0.83333333  0.30194747  0.25000000  1
  Mg  Mg9  1  0.33333333  0.80194747  0.25000000  1
  Mg  Mg10  1  0.66666667  0.80194747  0.25000000  1
  Mg  Mg11  1  1.00000000  0.80194747  0.25000000  1
  Ti  Ti12  1  0.16666667  0.36588068  0.56563368  1
  Ti  Ti13  1  0.50000000  0.36588068  0.56563368  1
  Ti  Ti14  1  0.83333333  0.36588068  0.56563368  1
  Ti  Ti15  1  0.33333333  0.86588068  0.56563368  1
  Ti  Ti16  1  0.66666667  0.86588068  0.56563368  1
  Ti  Ti17  1  1.00000000  0.86588068  0.56563368  1
  Ti  Ti18  1  0.16666667  -0.36588068  0.43436632  1
  Ti  Ti19  1  0.50000000  -0.36588068  0.43436632  1
  Ti  Ti20  1  0.83333333  -0.36588068  0.43436632  1
  Ti  Ti21  1  0.33333333  0.13411932  0.43436632  1
  Ti  Ti22  1  0.66666667  0.13411932  0.43436632  1
  Ti  Ti23  1  1.00000000  0.13411932  0.43436632  1
  Ti  Ti24  1  0.16666667  0.36588068  0.93436632  1
  Ti  Ti25  1  0.50000000  0.36588068  0.93436632  1
  Ti  Ti26  1  0.83333333  0.36588068  0.93436632  1
  Ti  Ti27  1  0.33333333  0.86588068  0.93436632  1
  Ti  Ti28  1  0.66666667  0.86588068  0.93436632  1
  Ti  Ti29  1  1.00000000  0.86588068  0.93436632  1
  Ti  Ti30  1  0.16666667  -0.36588068  0.06563368  1
  Ti  Ti31  1  0.50000000  -0.36588068  0.06563368  1
  Ti  Ti32  1  0.83333333  -0.36588068  0.06563368  1
  Ti  Ti33  1  0.33333333  0.13411932  0.06563368  1
  Ti  Ti34  1  0.66666667  0.13411932  0.06563368  1
  Ti  Ti35  1  1.00000000  0.13411932  0.06563368  1
  O  O36  1  0.16666667  -0.18746839  0.56188886  1
  O  O37  1  0.50000000  -0.18746839  0.56188886  1
  O  O38  1  0.83333333  -0.18746839  0.56188886  1
  O  O39  1  0.33333333  0.31253161  0.56188886  1
  O  O40  1  0.66666667  0.31253161  0.56188886  1
  O  O41  1  1.00000000  0.31253161  0.56188886  1
  O  O42  1  0.16666667  0.18746839  0.43811114  1
  O  O43  1  0.50000000  0.18746839  0.43811114  1
  O  O44  1  0.83333333  0.18746839  0.43811114  1
  O  O45  1  0.33333333  0.68746839  0.43811114  1
  O  O46  1  0.66666667  0.68746839  0.43811114  1
  O  O47  1  1.00000000  0.68746839  0.43811114  1
  O  O48  1  0.16666667  0.18746839  0.06188886  1
  O  O49  1  0.50000000  0.18746839  0.06188886  1
  O  O50  1  0.83333333  0.18746839  0.06188886  1
  O  O51  1  0.33333333  0.68746839  0.06188886  1
  O  O52  1  0.66666667  0.68746839  0.06188886  1
  O  O53  1  1.00000000  0.68746839  0.06188886  1
  O  O54  1  0.16666667  -0.18746839  0.93811114  1
  O  O55  1  0.50000000  -0.18746839  0.93811114  1
  O  O56  1  0.83333333  -0.18746839  0.93811114  1
  O  O57  1  0.33333333  0.31253161  0.93811114  1
  O  O58  1  0.66666667  0.31253161  0.93811114  1
  O  O59  1  1.00000000  0.31253161  0.93811114  1
  O  O60  1  0.16666667  -0.45262950  0.61382395  1
  O  O61  1  0.50000000  -0.45262950  0.61382395  1
  O  O62  1  0.83333333  -0.45262950  0.61382395  1
  O  O63  1  0.33333333  0.04737050  0.61382395  1
  O  O64  1  0.66666667  0.04737050  0.61382395  1
  O  O65  1  1.00000000  0.04737050  0.61382395  1
  O  O66  1  0.16666667  0.45262950  0.38617605  1
  O  O67  1  0.50000000  0.45262950  0.38617605  1
  O  O68  1  0.83333333  0.45262950  0.38617605  1
  O  O69  1  0.33333333  0.95262950  0.38617605  1
  O  O70  1  0.66666667  0.95262950  0.38617605  1
  O  O71  1  1.00000000  0.95262950  0.38617605  1
  O  O72  1  0.16666667  0.28366243  0.75000000  1
  O  O73  1  0.50000000  0.28366243  0.75000000  1
  O  O74  1  0.83333333  0.28366243  0.75000000  1
  O  O75  1  0.33333333  0.78366243  0.75000000  1
  O  O76  1  0.66666667  0.78366243  0.75000000  1
  O  O77  1  1.00000000  0.78366243  0.75000000  1
  O  O78  1  0.16666667  -0.28366243  0.25000000  1
  O  O79  1  0.50000000  -0.28366243  0.25000000  1
  O  O80  1  0.83333333  -0.28366243  0.25000000  1
  O  O81  1  0.33333333  0.21633757  0.25000000  1
  O  O82  1  0.66666667  0.21633757  0.25000000  1
  O  O83  1  1.00000000  0.21633757  0.25000000  1
  O  O84  1  0.16666667  -0.45262950  0.88617605  1
  O  O85  1  0.50000000  -0.45262950  0.88617605  1
  O  O86  1  0.83333333  -0.45262950  0.88617605  1
  O  O87  1  0.33333333  0.04737050  0.88617605  1
  O  O88  1  0.66666667  0.04737050  0.88617605  1
  O  O89  1  1.00000000  0.04737050  0.88617605  1
  O  O90  1  0.16666667  0.45262950  0.11382395  1
  O  O91  1  0.50000000  0.45262950  0.11382395  1
  O  O92  1  0.83333333  0.45262950  0.11382395  1
  O  O93  1  0.33333333  0.95262950  0.11382395  1
  O  O94  1  0.66666667  0.95262950  0.11382395  1
  O  O95  1  1.00000000  0.95262950  0.11382395  1
