# generated using pymatgen
data_Rb3GaO3
_symmetry_space_group_name_H-M   'P 1'
_cell_length_a   14.73235739
_cell_length_b   11.43141984
_cell_length_c   13.52315510
_cell_angle_alpha   90.00000000
_cell_angle_beta   103.49835942
_cell_angle_gamma   90.00000000
_symmetry_Int_Tables_number   1
_chemical_formula_structural   Rb3GaO3
_chemical_formula_sum   'Rb48 Ga16 O48'
_cell_volume   2214.54725260
_cell_formula_units_Z   16
loop_
 _symmetry_equiv_pos_site_id
 _symmetry_equiv_pos_as_xyz
  1  'x, y, z'
loop_
 _atom_site_type_symbol
 _atom_site_label
 _atom_site_symmetry_multiplicity
 _atom_site_fract_x
 _atom_site_fract_y
 _atom_site_fract_z
 _atom_site_occupancy
  Rb  Rb0  1  0.18607095  0.00000000  0.32677853  1
  Rb  Rb1  1  0.18607095  0.00000000  0.82677853  1
  Rb  Rb2  1  0.68607095  0.00000000  0.32677853  1
  Rb  Rb3  1  0.68607095  0.00000000  0.82677853  1
  Rb  Rb4  1  0.43607095  0.50000000  0.32677853  1
  Rb  Rb5  1  0.43607095  0.50000000  0.82677853  1
  Rb  Rb6  1  0.93607095  0.50000000  0.32677853  1
  Rb  Rb7  1  0.93607095  0.50000000  0.82677853  1
  Rb  Rb8  1  0.31392905  -0.00000000  0.17322147  1
  Rb  Rb9  1  0.31392905  -0.00000000  0.67322147  1
  Rb  Rb10  1  0.81392905  -0.00000000  0.17322147  1
  Rb  Rb11  1  0.81392905  -0.00000000  0.67322147  1
  Rb  Rb12  1  0.56392905  0.50000000  0.17322147  1
  Rb  Rb13  1  0.56392905  0.50000000  0.67322147  1
  Rb  Rb14  1  1.06392905  0.50000000  0.17322147  1
  Rb  Rb15  1  1.06392905  0.50000000  0.67322147  1
  Rb  Rb16  1  0.25000000  -0.30595962  0.25000000  1
  Rb  Rb17  1  0.25000000  -0.30595962  0.75000000  1
  Rb  Rb18  1  0.75000000  -0.30595962  0.25000000  1
  Rb  Rb19  1  0.75000000  -0.30595962  0.75000000  1
  Rb  Rb20  1  0.50000000  0.19404038  0.25000000  1
  Rb  Rb21  1  0.50000000  0.19404038  0.75000000  1
  Rb  Rb22  1  1.00000000  0.19404038  0.25000000  1
  Rb  Rb23  1  1.00000000  0.19404038  0.75000000  1
  Rb  Rb24  1  0.25000000  0.30595962  0.25000000  1
  Rb  Rb25  1  0.25000000  0.30595962  0.75000000  1
  Rb  Rb26  1  0.75000000  0.30595962  0.25000000  1
  Rb  Rb27  1  0.75000000  0.30595962  0.75000000  1
  Rb  Rb28  1  0.50000000  0.80595962  0.25000000  1
  Rb  Rb29  1  0.50000000  0.80595962  0.75000000  1
  Rb  Rb30  1  1.00000000  0.80595962  0.25000000  1
  Rb  Rb31  1  1.00000000  0.80595962  0.75000000  1
  Rb  Rb32  1  0.25000000  -0.23944494  0.00000000  1
  Rb  Rb33  1  0.25000000  -0.23944494  0.50000000  1
  Rb  Rb34  1  0.75000000  -0.23944494  0.00000000  1
  Rb  Rb35  1  0.75000000  -0.23944494  0.50000000  1
  Rb  Rb36  1  0.50000000  0.26055506  0.00000000  1
  Rb  Rb37  1  0.50000000  0.26055506  0.50000000  1
  Rb  Rb38  1  1.00000000  0.26055506  0.00000000  1
  Rb  Rb39  1  1.00000000  0.26055506  0.50000000  1
  Rb  Rb40  1  0.25000000  0.23944494  0.00000000  1
  Rb  Rb41  1  0.25000000  0.23944494  0.50000000  1
  Rb  Rb42  1  0.75000000  0.23944494  0.00000000  1
  Rb  Rb43  1  0.75000000  0.23944494  0.50000000  1
  Rb  Rb44  1  0.50000000  0.73944494  0.00000000  1
  Rb  Rb45  1  0.50000000  0.73944494  0.50000000  1
  Rb  Rb46  1  1.00000000  0.73944494  0.00000000  1
  Rb  Rb47  1  1.00000000  0.73944494  0.50000000  1
  Ga  Ga48  1  0.41710679  0.00000000  0.42557204  1
  Ga  Ga49  1  0.41710679  0.00000000  0.92557204  1
  Ga  Ga50  1  0.91710679  0.00000000  0.42557204  1
  Ga  Ga51  1  0.91710679  0.00000000  0.92557204  1
  Ga  Ga52  1  0.66710679  0.50000000  0.42557204  1
  Ga  Ga53  1  0.66710679  0.50000000  0.92557204  1
  Ga  Ga54  1  1.16710679  0.50000000  0.42557204  1
  Ga  Ga55  1  1.16710679  0.50000000  0.92557204  1
  Ga  Ga56  1  0.08289321  -0.00000000  0.07442796  1
  Ga  Ga57  1  0.08289321  -0.00000000  0.57442796  1
  Ga  Ga58  1  0.58289321  -0.00000000  0.07442796  1
  Ga  Ga59  1  0.58289321  -0.00000000  0.57442796  1
  Ga  Ga60  1  0.33289321  0.50000000  0.07442796  1
  Ga  Ga61  1  0.33289321  0.50000000  0.57442796  1
  Ga  Ga62  1  0.83289321  0.50000000  0.07442796  1
  Ga  Ga63  1  0.83289321  0.50000000  0.57442796  1
  O  O64  1  0.45119325  -0.00000000  0.07295097  1
  O  O65  1  0.45119325  -0.00000000  0.57295097  1
  O  O66  1  0.95119325  -0.00000000  0.07295097  1
  O  O67  1  0.95119325  -0.00000000  0.57295097  1
  O  O68  1  0.70119325  0.50000000  0.07295097  1
  O  O69  1  0.70119325  0.50000000  0.57295097  1
  O  O70  1  1.20119325  0.50000000  0.07295097  1
  O  O71  1  1.20119325  0.50000000  0.57295097  1
  O  O72  1  0.04880675  -0.00000000  0.42704903  1
  O  O73  1  0.04880675  -0.00000000  0.92704903  1
  O  O74  1  0.54880675  -0.00000000  0.42704903  1
  O  O75  1  0.54880675  -0.00000000  0.92704903  1
  O  O76  1  0.29880675  0.50000000  0.42704903  1
  O  O77  1  0.29880675  0.50000000  0.92704903  1
  O  O78  1  0.79880675  0.50000000  0.42704903  1
  O  O79  1  0.79880675  0.50000000  0.92704903  1
  O  O80  1  0.35704610  0.13293948  0.36663961  1
  O  O81  1  0.35704610  0.13293948  0.86663961  1
  O  O82  1  0.85704610  0.13293948  0.36663961  1
  O  O83  1  0.85704610  0.13293948  0.86663961  1
  O  O84  1  0.60704610  0.63293948  0.36663961  1
  O  O85  1  0.60704610  0.63293948  0.86663961  1
  O  O86  1  1.10704610  0.63293948  0.36663961  1
  O  O87  1  1.10704610  0.63293948  0.86663961  1
  O  O88  1  0.14295390  0.13293948  0.13336039  1
  O  O89  1  0.14295390  0.13293948  0.63336039  1
  O  O90  1  0.64295390  0.13293948  0.13336039  1
  O  O91  1  0.64295390  0.13293948  0.63336039  1
  O  O92  1  0.39295390  0.63293948  0.13336039  1
  O  O93  1  0.39295390  0.63293948  0.63336039  1
  O  O94  1  0.89295390  0.63293948  0.13336039  1
  O  O95  1  0.89295390  0.63293948  0.63336039  1
  O  O96  1  0.14295390  -0.13293948  0.13336039  1
  O  O97  1  0.14295390  -0.13293948  0.63336039  1
  O  O98  1  0.64295390  -0.13293948  0.13336039  1
  O  O99  1  0.64295390  -0.13293948  0.63336039  1
  O  O100  1  0.39295390  0.36706052  0.13336039  1
  O  O101  1  0.39295390  0.36706052  0.63336039  1
  O  O102  1  0.89295390  0.36706052  0.13336039  1
  O  O103  1  0.89295390  0.36706052  0.63336039  1
  O  O104  1  0.35704610  -0.13293948  0.36663961  1
  O  O105  1  0.35704610  -0.13293948  0.86663961  1
  O  O106  1  0.85704610  -0.13293948  0.36663961  1
  O  O107  1  0.85704610  -0.13293948  0.86663961  1
  O  O108  1  0.60704610  0.36706052  0.36663961  1
  O  O109  1  0.60704610  0.36706052  0.86663961  1
  O  O110  1  1.10704610  0.36706052  0.36663961  1
  O  O111  1  1.10704610  0.36706052  0.86663961  1
