# generated using pymatgen
data_NaLa(MoO4)2
_symmetry_space_group_name_H-M   'P 1'
_cell_length_a   10.64153007
_cell_length_b   10.64153007
_cell_length_c   11.52517657
_cell_angle_alpha   90.00000000
_cell_angle_beta   90.00000000
_cell_angle_gamma   90.00000000
_symmetry_Int_Tables_number   1
_chemical_formula_structural   NaLa(MoO4)2
_chemical_formula_sum   'Na8 La8 Mo16 O64'
_cell_volume   1305.13591499
_cell_formula_units_Z   8
loop_
 _symmetry_equiv_pos_site_id
 _symmetry_equiv_pos_as_xyz
  1  'x, y, z'
loop_
 _atom_site_type_symbol
 _atom_site_label
 _atom_site_symmetry_multiplicity
 _atom_site_fract_x
 _atom_site_fract_y
 _atom_site_fract_z
 _atom_site_occupancy
  Na  Na0  1  0.25000000  0.50000000  0.25000000  1
  Na  Na1  1  0.75000000  0.50000000  0.25000000  1
  Na  Na2  1  0.25000000  0.00000000  0.25000000  1
  Na  Na3  1  0.75000000  0.00000000  0.25000000  1
  Na  Na4  1  0.50000000  0.25000000  0.75000000  1
  Na  Na5  1  1.00000000  0.25000000  0.75000000  1
  Na  Na6  1  0.50000000  -0.25000000  0.75000000  1
  Na  Na7  1  1.00000000  -0.25000000  0.75000000  1
  La  La8  1  0.00000000  0.50000000  0.50000000  1
  La  La9  1  0.50000000  0.50000000  0.50000000  1
  La  La10  1  0.00000000  0.00000000  0.50000000  1
  La  La11  1  0.50000000  0.00000000  0.50000000  1
  La  La12  1  0.25000000  0.25000000  1.00000000  1
  La  La13  1  0.75000000  0.25000000  1.00000000  1
  La  La14  1  0.25000000  -0.25000000  1.00000000  1
  La  La15  1  0.75000000  -0.25000000  1.00000000  1
  Mo  Mo16  1  0.00000000  0.25000000  0.25000000  1
  Mo  Mo17  1  0.50000000  0.25000000  0.25000000  1
  Mo  Mo18  1  0.00000000  -0.25000000  0.25000000  1
  Mo  Mo19  1  0.50000000  -0.25000000  0.25000000  1
  Mo  Mo20  1  0.25000000  0.00000000  0.75000000  1
  Mo  Mo21  1  0.75000000  0.00000000  0.75000000  1
  Mo  Mo22  1  0.25000000  -0.50000000  0.75000000  1
  Mo  Mo23  1  0.75000000  -0.50000000  0.75000000  1
  Mo  Mo24  1  0.00000000  0.50000000  0.00000000  1
  Mo  Mo25  1  0.50000000  0.50000000  0.00000000  1
  Mo  Mo26  1  0.00000000  0.00000000  0.00000000  1
  Mo  Mo27  1  0.50000000  0.00000000  0.00000000  1
  Mo  Mo28  1  0.25000000  0.25000000  0.50000000  1
  Mo  Mo29  1  0.75000000  0.25000000  0.50000000  1
  Mo  Mo30  1  0.25000000  -0.25000000  0.50000000  1
  Mo  Mo31  1  0.75000000  -0.25000000  0.50000000  1
  O  O32  1  -0.07339926  0.36875824  0.33743050  1
  O  O33  1  0.42660074  0.36875824  0.33743050  1
  O  O34  1  -0.07339926  -0.13124176  0.33743050  1
  O  O35  1  0.42660074  -0.13124176  0.33743050  1
  O  O36  1  0.17660074  0.11875824  0.83743050  1
  O  O37  1  0.67660074  0.11875824  0.83743050  1
  O  O38  1  0.17660074  -0.38124176  0.83743050  1
  O  O39  1  0.67660074  -0.38124176  0.83743050  1
  O  O40  1  0.32339926  0.38124176  -0.16256950  1
  O  O41  1  0.82339926  0.38124176  -0.16256950  1
  O  O42  1  0.32339926  -0.11875824  -0.16256950  1
  O  O43  1  0.82339926  -0.11875824  -0.16256950  1
  O  O44  1  0.57339926  0.13124176  0.33743050  1
  O  O45  1  1.07339926  0.13124176  0.33743050  1
  O  O46  1  0.57339926  -0.36875824  0.33743050  1
  O  O47  1  1.07339926  -0.36875824  0.33743050  1
  O  O48  1  0.17465356  0.37077361  0.41609452  1
  O  O49  1  0.67465356  0.37077361  0.41609452  1
  O  O50  1  0.17465356  -0.12922639  0.41609452  1
  O  O51  1  0.67465356  -0.12922639  0.41609452  1
  O  O52  1  0.42465356  0.12077361  0.91609452  1
  O  O53  1  0.92465356  0.12077361  0.91609452  1
  O  O54  1  0.42465356  -0.37922639  0.91609452  1
  O  O55  1  0.92465356  -0.37922639  0.91609452  1
  O  O56  1  0.07534644  0.37922639  -0.08390548  1
  O  O57  1  0.57534644  0.37922639  -0.08390548  1
  O  O58  1  0.07534644  -0.12077361  -0.08390548  1
  O  O59  1  0.57534644  -0.12077361  -0.08390548  1
  O  O60  1  0.32534644  0.12922639  0.41609452  1
  O  O61  1  0.82534644  0.12922639  0.41609452  1
  O  O62  1  0.32534644  -0.37077361  0.41609452  1
  O  O63  1  0.82534644  -0.37077361  0.41609452  1
  O  O64  1  0.11875824  0.32339926  0.16256950  1
  O  O65  1  0.61875824  0.32339926  0.16256950  1
  O  O66  1  0.11875824  -0.17660074  0.16256950  1
  O  O67  1  0.61875824  -0.17660074  0.16256950  1
  O  O68  1  0.36875824  0.07339926  0.66256950  1
  O  O69  1  0.86875824  0.07339926  0.66256950  1
  O  O70  1  0.36875824  -0.42660074  0.66256950  1
  O  O71  1  0.86875824  -0.42660074  0.66256950  1
  O  O72  1  0.13124176  0.42660074  0.66256950  1
  O  O73  1  0.63124176  0.42660074  0.66256950  1
  O  O74  1  0.13124176  -0.07339926  0.66256950  1
  O  O75  1  0.63124176  -0.07339926  0.66256950  1
  O  O76  1  0.38124176  0.17660074  1.16256950  1
  O  O77  1  0.88124176  0.17660074  1.16256950  1
  O  O78  1  0.38124176  -0.32339926  1.16256950  1
  O  O79  1  0.88124176  -0.32339926  1.16256950  1
  O  O80  1  -0.12922639  0.32534644  0.58390548  1
  O  O81  1  0.37077361  0.32534644  0.58390548  1
  O  O82  1  -0.12922639  -0.17465356  0.58390548  1
  O  O83  1  0.37077361  -0.17465356  0.58390548  1
  O  O84  1  0.12077361  0.07534644  1.08390548  1
  O  O85  1  0.62077361  0.07534644  1.08390548  1
  O  O86  1  0.12077361  -0.42465356  1.08390548  1
  O  O87  1  0.62077361  -0.42465356  1.08390548  1
  O  O88  1  0.37922639  0.42465356  0.08390548  1
  O  O89  1  0.87922639  0.42465356  0.08390548  1
  O  O90  1  0.37922639  -0.07534644  0.08390548  1
  O  O91  1  0.87922639  -0.07534644  0.08390548  1
  O  O92  1  0.62922639  0.17465356  0.58390548  1
  O  O93  1  1.12922639  0.17465356  0.58390548  1
  O  O94  1  0.62922639  -0.32534644  0.58390548  1
  O  O95  1  1.12922639  -0.32534644  0.58390548  1
