# generated using pymatgen
data_GaBPbO4
_symmetry_space_group_name_H-M   'P 1'
_cell_length_a   13.74635125
_cell_length_b   17.70969709
_cell_length_c   16.74912010
_cell_angle_alpha   90.00000000
_cell_angle_beta   90.00000000
_cell_angle_gamma   90.00000000
_symmetry_Int_Tables_number   1
_chemical_formula_structural   GaBPbO4
_chemical_formula_sum   'Ga48 B48 Pb48 O192'
_cell_volume   4077.46805130
_cell_formula_units_Z   48
loop_
 _symmetry_equiv_pos_site_id
 _symmetry_equiv_pos_as_xyz
  1  'x, y, z'
loop_
 _atom_site_type_symbol
 _atom_site_label
 _atom_site_symmetry_multiplicity
 _atom_site_fract_x
 _atom_site_fract_y
 _atom_site_fract_z
 _atom_site_occupancy
  Ga  Ga0  1  0.00000000  0.00000000  0.00000000  1
  Ga  Ga1  1  0.00000000  0.00000000  0.50000000  1
  Ga  Ga2  1  0.00000000  0.33333333  0.00000000  1
  Ga  Ga3  1  0.00000000  0.33333333  0.50000000  1
  Ga  Ga4  1  0.00000000  0.66666667  0.00000000  1
  Ga  Ga5  1  0.00000000  0.66666667  0.50000000  1
  Ga  Ga6  1  0.50000000  0.00000000  0.00000000  1
  Ga  Ga7  1  0.50000000  0.00000000  0.50000000  1
  Ga  Ga8  1  0.50000000  0.33333333  0.00000000  1
  Ga  Ga9  1  0.50000000  0.33333333  0.50000000  1
  Ga  Ga10  1  0.50000000  0.66666667  0.00000000  1
  Ga  Ga11  1  0.50000000  0.66666667  0.50000000  1
  Ga  Ga12  1  0.00000000  0.16666667  0.00000000  1
  Ga  Ga13  1  0.00000000  0.16666667  0.50000000  1
  Ga  Ga14  1  0.00000000  0.50000000  0.00000000  1
  Ga  Ga15  1  0.00000000  0.50000000  0.50000000  1
  Ga  Ga16  1  0.00000000  0.83333333  0.00000000  1
  Ga  Ga17  1  0.00000000  0.83333333  0.50000000  1
  Ga  Ga18  1  0.50000000  0.16666667  0.00000000  1
  Ga  Ga19  1  0.50000000  0.16666667  0.50000000  1
  Ga  Ga20  1  0.50000000  0.50000000  0.00000000  1
  Ga  Ga21  1  0.50000000  0.50000000  0.50000000  1
  Ga  Ga22  1  0.50000000  0.83333333  0.00000000  1
  Ga  Ga23  1  0.50000000  0.83333333  0.50000000  1
  Ga  Ga24  1  0.25000000  0.16666667  0.25000000  1
  Ga  Ga25  1  0.25000000  0.16666667  0.75000000  1
  Ga  Ga26  1  0.25000000  0.50000000  0.25000000  1
  Ga  Ga27  1  0.25000000  0.50000000  0.75000000  1
  Ga  Ga28  1  0.25000000  0.83333333  0.25000000  1
  Ga  Ga29  1  0.25000000  0.83333333  0.75000000  1
  Ga  Ga30  1  0.75000000  0.16666667  0.25000000  1
  Ga  Ga31  1  0.75000000  0.16666667  0.75000000  1
  Ga  Ga32  1  0.75000000  0.50000000  0.25000000  1
  Ga  Ga33  1  0.75000000  0.50000000  0.75000000  1
  Ga  Ga34  1  0.75000000  0.83333333  0.25000000  1
  Ga  Ga35  1  0.75000000  0.83333333  0.75000000  1
  Ga  Ga36  1  0.25000000  0.00000000  0.25000000  1
  Ga  Ga37  1  0.25000000  0.00000000  0.75000000  1
  Ga  Ga38  1  0.25000000  0.33333333  0.25000000  1
  Ga  Ga39  1  0.25000000  0.33333333  0.75000000  1
  Ga  Ga40  1  0.25000000  0.66666667  0.25000000  1
  Ga  Ga41  1  0.25000000  0.66666667  0.75000000  1
  Ga  Ga42  1  0.75000000  0.00000000  0.25000000  1
  Ga  Ga43  1  0.75000000  0.00000000  0.75000000  1
  Ga  Ga44  1  0.75000000  0.33333333  0.25000000  1
  Ga  Ga45  1  0.75000000  0.33333333  0.75000000  1
  Ga  Ga46  1  0.75000000  0.66666667  0.25000000  1
  Ga  Ga47  1  0.75000000  0.66666667  0.75000000  1
  B  B48  1  0.11089212  0.25000000  0.13213590  1
  B  B49  1  0.11089212  0.25000000  0.63213590  1
  B  B50  1  0.11089212  0.58333333  0.13213590  1
  B  B51  1  0.11089212  0.58333333  0.63213590  1
  B  B52  1  0.11089212  0.91666667  0.13213590  1
  B  B53  1  0.11089212  0.91666667  0.63213590  1
  B  B54  1  0.61089212  0.25000000  0.13213590  1
  B  B55  1  0.61089212  0.25000000  0.63213590  1
  B  B56  1  0.61089212  0.58333333  0.13213590  1
  B  B57  1  0.61089212  0.58333333  0.63213590  1
  B  B58  1  0.61089212  0.91666667  0.13213590  1
  B  B59  1  0.61089212  0.91666667  0.63213590  1
  B  B60  1  0.38910788  0.08333333  0.36786410  1
  B  B61  1  0.38910788  0.08333333  0.86786410  1
  B  B62  1  0.38910788  0.41666667  0.36786410  1
  B  B63  1  0.38910788  0.41666667  0.86786410  1
  B  B64  1  0.38910788  0.75000000  0.36786410  1
  B  B65  1  0.38910788  0.75000000  0.86786410  1
  B  B66  1  0.88910788  0.08333333  0.36786410  1
  B  B67  1  0.88910788  0.08333333  0.86786410  1
  B  B68  1  0.88910788  0.41666667  0.36786410  1
  B  B69  1  0.88910788  0.41666667  0.86786410  1
  B  B70  1  0.88910788  0.75000000  0.36786410  1
  B  B71  1  0.88910788  0.75000000  0.86786410  1
  B  B72  1  0.36089212  0.25000000  0.11786410  1
  B  B73  1  0.36089212  0.25000000  0.61786410  1
  B  B74  1  0.36089212  0.58333333  0.11786410  1
  B  B75  1  0.36089212  0.58333333  0.61786410  1
  B  B76  1  0.36089212  0.91666667  0.11786410  1
  B  B77  1  0.36089212  0.91666667  0.61786410  1
  B  B78  1  0.86089212  0.25000000  0.11786410  1
  B  B79  1  0.86089212  0.25000000  0.61786410  1
  B  B80  1  0.86089212  0.58333333  0.11786410  1
  B  B81  1  0.86089212  0.58333333  0.61786410  1
  B  B82  1  0.86089212  0.91666667  0.11786410  1
  B  B83  1  0.86089212  0.91666667  0.61786410  1
  B  B84  1  0.13910788  0.08333333  0.38213590  1
  B  B85  1  0.13910788  0.08333333  0.88213590  1
  B  B86  1  0.13910788  0.41666667  0.38213590  1
  B  B87  1  0.13910788  0.41666667  0.88213590  1
  B  B88  1  0.13910788  0.75000000  0.38213590  1
  B  B89  1  0.13910788  0.75000000  0.88213590  1
  B  B90  1  0.63910788  0.08333333  0.38213590  1
  B  B91  1  0.63910788  0.08333333  0.88213590  1
  B  B92  1  0.63910788  0.41666667  0.38213590  1
  B  B93  1  0.63910788  0.41666667  0.88213590  1
  B  B94  1  0.63910788  0.75000000  0.38213590  1
  B  B95  1  0.63910788  0.75000000  0.88213590  1
  Pb  Pb96  1  0.47442367  0.25000000  0.32197316  1
  Pb  Pb97  1  0.47442367  0.25000000  0.82197316  1
  Pb  Pb98  1  0.47442367  0.58333333  0.32197316  1
  Pb  Pb99  1  0.47442367  0.58333333  0.82197316  1
  Pb  Pb100  1  0.47442367  0.91666667  0.32197316  1
  Pb  Pb101  1  0.47442367  0.91666667  0.82197316  1
  Pb  Pb102  1  0.97442367  0.25000000  0.32197316  1
  Pb  Pb103  1  0.97442367  0.25000000  0.82197316  1
  Pb  Pb104  1  0.97442367  0.58333333  0.32197316  1
  Pb  Pb105  1  0.97442367  0.58333333  0.82197316  1
  Pb  Pb106  1  0.97442367  0.91666667  0.32197316  1
  Pb  Pb107  1  0.97442367  0.91666667  0.82197316  1
  Pb  Pb108  1  0.02557633  0.08333333  0.17802684  1
  Pb  Pb109  1  0.02557633  0.08333333  0.67802684  1
  Pb  Pb110  1  0.02557633  0.41666667  0.17802684  1
  Pb  Pb111  1  0.02557633  0.41666667  0.67802684  1
  Pb  Pb112  1  0.02557633  0.75000000  0.17802684  1
  Pb  Pb113  1  0.02557633  0.75000000  0.67802684  1
  Pb  Pb114  1  0.52557633  0.08333333  0.17802684  1
  Pb  Pb115  1  0.52557633  0.08333333  0.67802684  1
  Pb  Pb116  1  0.52557633  0.41666667  0.17802684  1
  Pb  Pb117  1  0.52557633  0.41666667  0.67802684  1
  Pb  Pb118  1  0.52557633  0.75000000  0.17802684  1
  Pb  Pb119  1  0.52557633  0.75000000  0.67802684  1
  Pb  Pb120  1  0.22442367  0.25000000  0.42802684  1
  Pb  Pb121  1  0.22442367  0.25000000  0.92802684  1
  Pb  Pb122  1  0.22442367  0.58333333  0.42802684  1
  Pb  Pb123  1  0.22442367  0.58333333  0.92802684  1
  Pb  Pb124  1  0.22442367  0.91666667  0.42802684  1
  Pb  Pb125  1  0.22442367  0.91666667  0.92802684  1
  Pb  Pb126  1  0.72442367  0.25000000  0.42802684  1
  Pb  Pb127  1  0.72442367  0.25000000  0.92802684  1
  Pb  Pb128  1  0.72442367  0.58333333  0.42802684  1
  Pb  Pb129  1  0.72442367  0.58333333  0.92802684  1
  Pb  Pb130  1  0.72442367  0.91666667  0.42802684  1
  Pb  Pb131  1  0.72442367  0.91666667  0.92802684  1
  Pb  Pb132  1  0.27557633  0.08333333  0.07197316  1
  Pb  Pb133  1  0.27557633  0.08333333  0.57197316  1
  Pb  Pb134  1  0.27557633  0.41666667  0.07197316  1
  Pb  Pb135  1  0.27557633  0.41666667  0.57197316  1
  Pb  Pb136  1  0.27557633  0.75000000  0.07197316  1
  Pb  Pb137  1  0.27557633  0.75000000  0.57197316  1
  Pb  Pb138  1  0.77557633  0.08333333  0.07197316  1
  Pb  Pb139  1  0.77557633  0.08333333  0.57197316  1
  Pb  Pb140  1  0.77557633  0.41666667  0.07197316  1
  Pb  Pb141  1  0.77557633  0.41666667  0.57197316  1
  Pb  Pb142  1  0.77557633  0.75000000  0.07197316  1
  Pb  Pb143  1  0.77557633  0.75000000  0.57197316  1
  O  O144  1  0.09133575  0.08333333  0.45497386  1
  O  O145  1  0.09133575  0.08333333  0.95497386  1
  O  O146  1  0.09133575  0.41666667  0.45497386  1
  O  O147  1  0.09133575  0.41666667  0.95497386  1
  O  O148  1  0.09133575  0.75000000  0.45497386  1
  O  O149  1  0.09133575  0.75000000  0.95497386  1
  O  O150  1  0.59133575  0.08333333  0.45497386  1
  O  O151  1  0.59133575  0.08333333  0.95497386  1
  O  O152  1  0.59133575  0.41666667  0.45497386  1
  O  O153  1  0.59133575  0.41666667  0.95497386  1
  O  O154  1  0.59133575  0.75000000  0.45497386  1
  O  O155  1  0.59133575  0.75000000  0.95497386  1
  O  O156  1  0.40866425  0.25000000  0.04502614  1
  O  O157  1  0.40866425  0.25000000  0.54502614  1
  O  O158  1  0.40866425  0.58333333  0.04502614  1
  O  O159  1  0.40866425  0.58333333  0.54502614  1
  O  O160  1  0.40866425  0.91666667  0.04502614  1
  O  O161  1  0.40866425  0.91666667  0.54502614  1
  O  O162  1  0.90866425  0.25000000  0.04502614  1
  O  O163  1  0.90866425  0.25000000  0.54502614  1
  O  O164  1  0.90866425  0.58333333  0.04502614  1
  O  O165  1  0.90866425  0.58333333  0.54502614  1
  O  O166  1  0.90866425  0.91666667  0.04502614  1
  O  O167  1  0.90866425  0.91666667  0.54502614  1
  O  O168  1  0.34133575  0.08333333  0.29502614  1
  O  O169  1  0.34133575  0.08333333  0.79502614  1
  O  O170  1  0.34133575  0.41666667  0.29502614  1
  O  O171  1  0.34133575  0.41666667  0.79502614  1
  O  O172  1  0.34133575  0.75000000  0.29502614  1
  O  O173  1  0.34133575  0.75000000  0.79502614  1
  O  O174  1  0.84133575  0.08333333  0.29502614  1
  O  O175  1  0.84133575  0.08333333  0.79502614  1
  O  O176  1  0.84133575  0.41666667  0.29502614  1
  O  O177  1  0.84133575  0.41666667  0.79502614  1
  O  O178  1  0.84133575  0.75000000  0.29502614  1
  O  O179  1  0.84133575  0.75000000  0.79502614  1
  O  O180  1  0.15866425  0.25000000  0.20497386  1
  O  O181  1  0.15866425  0.25000000  0.70497386  1
  O  O182  1  0.15866425  0.58333333  0.20497386  1
  O  O183  1  0.15866425  0.58333333  0.70497386  1
  O  O184  1  0.15866425  0.91666667  0.20497386  1
  O  O185  1  0.15866425  0.91666667  0.70497386  1
  O  O186  1  0.65866425  0.25000000  0.20497386  1
  O  O187  1  0.65866425  0.25000000  0.70497386  1
  O  O188  1  0.65866425  0.58333333  0.20497386  1
  O  O189  1  0.65866425  0.58333333  0.70497386  1
  O  O190  1  0.65866425  0.91666667  0.20497386  1
  O  O191  1  0.65866425  0.91666667  0.70497386  1
  O  O192  1  0.44671289  0.08333333  0.05566463  1
  O  O193  1  0.44671289  0.08333333  0.55566463  1
  O  O194  1  0.44671289  0.41666667  0.05566463  1
  O  O195  1  0.44671289  0.41666667  0.55566463  1
  O  O196  1  0.44671289  0.75000000  0.05566463  1
  O  O197  1  0.44671289  0.75000000  0.55566463  1
  O  O198  1  0.94671289  0.08333333  0.05566463  1
  O  O199  1  0.94671289  0.08333333  0.55566463  1
  O  O200  1  0.94671289  0.41666667  0.05566463  1
  O  O201  1  0.94671289  0.41666667  0.55566463  1
  O  O202  1  0.94671289  0.75000000  0.05566463  1
  O  O203  1  0.94671289  0.75000000  0.55566463  1
  O  O204  1  0.05328711  0.25000000  0.44433537  1
  O  O205  1  0.05328711  0.25000000  0.94433537  1
  O  O206  1  0.05328711  0.58333333  0.44433537  1
  O  O207  1  0.05328711  0.58333333  0.94433537  1
  O  O208  1  0.05328711  0.91666667  0.44433537  1
  O  O209  1  0.05328711  0.91666667  0.94433537  1
  O  O210  1  0.55328711  0.25000000  0.44433537  1
  O  O211  1  0.55328711  0.25000000  0.94433537  1
  O  O212  1  0.55328711  0.58333333  0.44433537  1
  O  O213  1  0.55328711  0.58333333  0.94433537  1
  O  O214  1  0.55328711  0.91666667  0.44433537  1
  O  O215  1  0.55328711  0.91666667  0.94433537  1
  O  O216  1  0.19671289  0.08333333  0.19433537  1
  O  O217  1  0.19671289  0.08333333  0.69433537  1
  O  O218  1  0.19671289  0.41666667  0.19433537  1
  O  O219  1  0.19671289  0.41666667  0.69433537  1
  O  O220  1  0.19671289  0.75000000  0.19433537  1
  O  O221  1  0.19671289  0.75000000  0.69433537  1
  O  O222  1  0.69671289  0.08333333  0.19433537  1
  O  O223  1  0.69671289  0.08333333  0.69433537  1
  O  O224  1  0.69671289  0.41666667  0.19433537  1
  O  O225  1  0.69671289  0.41666667  0.69433537  1
  O  O226  1  0.69671289  0.75000000  0.19433537  1
  O  O227  1  0.69671289  0.75000000  0.69433537  1
  O  O228  1  0.30328711  0.25000000  0.30566463  1
  O  O229  1  0.30328711  0.25000000  0.80566463  1
  O  O230  1  0.30328711  0.58333333  0.30566463  1
  O  O231  1  0.30328711  0.58333333  0.80566463  1
  O  O232  1  0.30328711  0.91666667  0.30566463  1
  O  O233  1  0.30328711  0.91666667  0.80566463  1
  O  O234  1  0.80328711  0.25000000  0.30566463  1
  O  O235  1  0.80328711  0.25000000  0.80566463  1
  O  O236  1  0.80328711  0.58333333  0.30566463  1
  O  O237  1  0.80328711  0.58333333  0.80566463  1
  O  O238  1  0.80328711  0.91666667  0.30566463  1
  O  O239  1  0.80328711  0.91666667  0.80566463  1
  O  O240  1  0.41370547  0.01530147  0.40361486  1
  O  O241  1  0.41370547  0.01530147  0.90361486  1
  O  O242  1  0.41370547  0.34863481  0.40361486  1
  O  O243  1  0.41370547  0.34863481  0.90361486  1
  O  O244  1  0.41370547  0.68196814  0.40361486  1
  O  O245  1  0.41370547  0.68196814  0.90361486  1
  O  O246  1  0.91370547  0.01530147  0.40361486  1
  O  O247  1  0.91370547  0.01530147  0.90361486  1
  O  O248  1  0.91370547  0.34863481  0.40361486  1
  O  O249  1  0.91370547  0.34863481  0.90361486  1
  O  O250  1  0.91370547  0.68196814  0.40361486  1
  O  O251  1  0.91370547  0.68196814  0.90361486  1
  O  O252  1  0.08629453  0.18196814  0.09638514  1
  O  O253  1  0.08629453  0.18196814  0.59638514  1
  O  O254  1  0.08629453  0.51530147  0.09638514  1
  O  O255  1  0.08629453  0.51530147  0.59638514  1
  O  O256  1  0.08629453  0.84863481  0.09638514  1
  O  O257  1  0.08629453  0.84863481  0.59638514  1
  O  O258  1  0.58629453  0.18196814  0.09638514  1
  O  O259  1  0.58629453  0.18196814  0.59638514  1
  O  O260  1  0.58629453  0.51530147  0.09638514  1
  O  O261  1  0.58629453  0.51530147  0.59638514  1
  O  O262  1  0.58629453  0.84863481  0.09638514  1
  O  O263  1  0.58629453  0.84863481  0.59638514  1
  O  O264  1  0.16370547  0.15136519  0.34638514  1
  O  O265  1  0.16370547  0.15136519  0.84638514  1
  O  O266  1  0.16370547  0.48469853  0.34638514  1
  O  O267  1  0.16370547  0.48469853  0.84638514  1
  O  O268  1  0.16370547  0.81803186  0.34638514  1
  O  O269  1  0.16370547  0.81803186  0.84638514  1
  O  O270  1  0.66370547  0.15136519  0.34638514  1
  O  O271  1  0.66370547  0.15136519  0.84638514  1
  O  O272  1  0.66370547  0.48469853  0.34638514  1
  O  O273  1  0.66370547  0.48469853  0.84638514  1
  O  O274  1  0.66370547  0.81803186  0.34638514  1
  O  O275  1  0.66370547  0.81803186  0.84638514  1
  O  O276  1  0.33629453  0.31803186  0.15361486  1
  O  O277  1  0.33629453  0.31803186  0.65361486  1
  O  O278  1  0.33629453  0.65136519  0.15361486  1
  O  O279  1  0.33629453  0.65136519  0.65361486  1
  O  O280  1  0.33629453  0.98469853  0.15361486  1
  O  O281  1  0.33629453  0.98469853  0.65361486  1
  O  O282  1  0.83629453  0.31803186  0.15361486  1
  O  O283  1  0.83629453  0.31803186  0.65361486  1
  O  O284  1  0.83629453  0.65136519  0.15361486  1
  O  O285  1  0.83629453  0.65136519  0.65361486  1
  O  O286  1  0.83629453  0.98469853  0.15361486  1
  O  O287  1  0.83629453  0.98469853  0.65361486  1
  O  O288  1  0.08629453  0.31803186  0.09638514  1
  O  O289  1  0.08629453  0.31803186  0.59638514  1
  O  O290  1  0.08629453  0.65136519  0.09638514  1
  O  O291  1  0.08629453  0.65136519  0.59638514  1
  O  O292  1  0.08629453  0.98469853  0.09638514  1
  O  O293  1  0.08629453  0.98469853  0.59638514  1
  O  O294  1  0.58629453  0.31803186  0.09638514  1
  O  O295  1  0.58629453  0.31803186  0.59638514  1
  O  O296  1  0.58629453  0.65136519  0.09638514  1
  O  O297  1  0.58629453  0.65136519  0.59638514  1
  O  O298  1  0.58629453  0.98469853  0.09638514  1
  O  O299  1  0.58629453  0.98469853  0.59638514  1
  O  O300  1  0.41370547  0.15136519  0.40361486  1
  O  O301  1  0.41370547  0.15136519  0.90361486  1
  O  O302  1  0.41370547  0.48469853  0.40361486  1
  O  O303  1  0.41370547  0.48469853  0.90361486  1
  O  O304  1  0.41370547  0.81803186  0.40361486  1
  O  O305  1  0.41370547  0.81803186  0.90361486  1
  O  O306  1  0.91370547  0.15136519  0.40361486  1
  O  O307  1  0.91370547  0.15136519  0.90361486  1
  O  O308  1  0.91370547  0.48469853  0.40361486  1
  O  O309  1  0.91370547  0.48469853  0.90361486  1
  O  O310  1  0.91370547  0.81803186  0.40361486  1
  O  O311  1  0.91370547  0.81803186  0.90361486  1
  O  O312  1  0.33629453  0.18196814  0.15361486  1
  O  O313  1  0.33629453  0.18196814  0.65361486  1
  O  O314  1  0.33629453  0.51530147  0.15361486  1
  O  O315  1  0.33629453  0.51530147  0.65361486  1
  O  O316  1  0.33629453  0.84863481  0.15361486  1
  O  O317  1  0.33629453  0.84863481  0.65361486  1
  O  O318  1  0.83629453  0.18196814  0.15361486  1
  O  O319  1  0.83629453  0.18196814  0.65361486  1
  O  O320  1  0.83629453  0.51530147  0.15361486  1
  O  O321  1  0.83629453  0.51530147  0.65361486  1
  O  O322  1  0.83629453  0.84863481  0.15361486  1
  O  O323  1  0.83629453  0.84863481  0.65361486  1
  O  O324  1  0.16370547  0.01530147  0.34638514  1
  O  O325  1  0.16370547  0.01530147  0.84638514  1
  O  O326  1  0.16370547  0.34863481  0.34638514  1
  O  O327  1  0.16370547  0.34863481  0.84638514  1
  O  O328  1  0.16370547  0.68196814  0.34638514  1
  O  O329  1  0.16370547  0.68196814  0.84638514  1
  O  O330  1  0.66370547  0.01530147  0.34638514  1
  O  O331  1  0.66370547  0.01530147  0.84638514  1
  O  O332  1  0.66370547  0.34863481  0.34638514  1
  O  O333  1  0.66370547  0.34863481  0.84638514  1
  O  O334  1  0.66370547  0.68196814  0.34638514  1
  O  O335  1  0.66370547  0.68196814  0.84638514  1
