# generated using pymatgen
data_K2W2O7
_symmetry_space_group_name_H-M   'P 1'
_cell_length_a   11.64161611
_cell_length_b   13.79219386
_cell_length_c   12.08455515
_cell_angle_alpha   90.00000000
_cell_angle_beta   90.37498372
_cell_angle_gamma   90.00000000
_symmetry_Int_Tables_number   1
_chemical_formula_structural   K2W2O7
_chemical_formula_sum   'K24 W24 O84'
_cell_volume   1940.29602418
_cell_formula_units_Z   12
loop_
 _symmetry_equiv_pos_site_id
 _symmetry_equiv_pos_as_xyz
  1  'x, y, z'
loop_
 _atom_site_type_symbol
 _atom_site_label
 _atom_site_symmetry_multiplicity
 _atom_site_fract_x
 _atom_site_fract_y
 _atom_site_fract_z
 _atom_site_occupancy
  K  K0  1  0.00339320  0.83215182  0.41625732  1
  K  K1  1  0.00339320  0.83215182  0.91625732  1
  K  K2  1  0.33672653  0.83215182  0.41625732  1
  K  K3  1  0.33672653  0.83215182  0.91625732  1
  K  K4  1  0.67005987  0.83215182  0.41625732  1
  K  K5  1  0.67005987  0.83215182  0.91625732  1
  K  K6  1  0.32994013  0.33215182  0.33374268  1
  K  K7  1  0.32994013  0.33215182  0.83374268  1
  K  K8  1  0.66327347  0.33215182  0.33374268  1
  K  K9  1  0.66327347  0.33215182  0.83374268  1
  K  K10  1  0.99660680  0.33215182  0.33374268  1
  K  K11  1  0.99660680  0.33215182  0.83374268  1
  K  K12  1  0.32994013  0.16784818  0.08374268  1
  K  K13  1  0.32994013  0.16784818  0.58374268  1
  K  K14  1  0.66327347  0.16784818  0.08374268  1
  K  K15  1  0.66327347  0.16784818  0.58374268  1
  K  K16  1  0.99660680  0.16784818  0.08374268  1
  K  K17  1  0.99660680  0.16784818  0.58374268  1
  K  K18  1  0.00339320  0.66784818  0.16625732  1
  K  K19  1  0.00339320  0.66784818  0.66625732  1
  K  K20  1  0.33672653  0.66784818  0.16625732  1
  K  K21  1  0.33672653  0.66784818  0.66625732  1
  K  K22  1  0.67005987  0.66784818  0.16625732  1
  K  K23  1  0.67005987  0.66784818  0.66625732  1
  W  W24  1  0.15264036  0.43475864  0.10782695  1
  W  W25  1  0.15264036  0.43475864  0.60782695  1
  W  W26  1  0.48597369  0.43475864  0.10782695  1
  W  W27  1  0.48597369  0.43475864  0.60782695  1
  W  W28  1  0.81930703  0.43475864  0.10782695  1
  W  W29  1  0.81930703  0.43475864  0.60782695  1
  W  W30  1  0.18069297  0.93475864  0.14217305  1
  W  W31  1  0.18069297  0.93475864  0.64217305  1
  W  W32  1  0.51402631  0.93475864  0.14217305  1
  W  W33  1  0.51402631  0.93475864  0.64217305  1
  W  W34  1  0.84735964  0.93475864  0.14217305  1
  W  W35  1  0.84735964  0.93475864  0.64217305  1
  W  W36  1  0.18069297  0.56524136  0.39217305  1
  W  W37  1  0.18069297  0.56524136  0.89217305  1
  W  W38  1  0.51402631  0.56524136  0.39217305  1
  W  W39  1  0.51402631  0.56524136  0.89217305  1
  W  W40  1  0.84735964  0.56524136  0.39217305  1
  W  W41  1  0.84735964  0.56524136  0.89217305  1
  W  W42  1  0.15264036  0.06524136  0.35782695  1
  W  W43  1  0.15264036  0.06524136  0.85782695  1
  W  W44  1  0.48597369  0.06524136  0.35782695  1
  W  W45  1  0.48597369  0.06524136  0.85782695  1
  W  W46  1  0.81930703  0.06524136  0.35782695  1
  W  W47  1  0.81930703  0.06524136  0.85782695  1
  O  O48  1  0.16587749  0.18721941  0.40422548  1
  O  O49  1  0.16587749  0.18721941  0.90422548  1
  O  O50  1  0.49921082  0.18721941  0.40422548  1
  O  O51  1  0.49921082  0.18721941  0.90422548  1
  O  O52  1  0.83254415  0.18721941  0.40422548  1
  O  O53  1  0.83254415  0.18721941  0.90422548  1
  O  O54  1  0.16745585  0.68721941  0.34577452  1
  O  O55  1  0.16745585  0.68721941  0.84577452  1
  O  O56  1  0.50078918  0.68721941  0.34577452  1
  O  O57  1  0.50078918  0.68721941  0.84577452  1
  O  O58  1  0.83412251  0.68721941  0.34577452  1
  O  O59  1  0.83412251  0.68721941  0.84577452  1
  O  O60  1  0.16745585  0.81278059  0.09577452  1
  O  O61  1  0.16745585  0.81278059  0.59577452  1
  O  O62  1  0.50078918  0.81278059  0.09577452  1
  O  O63  1  0.50078918  0.81278059  0.59577452  1
  O  O64  1  0.83412251  0.81278059  0.09577452  1
  O  O65  1  0.83412251  0.81278059  0.59577452  1
  O  O66  1  0.16587749  0.31278059  0.15422548  1
  O  O67  1  0.16587749  0.31278059  0.65422548  1
  O  O68  1  0.49921082  0.31278059  0.15422548  1
  O  O69  1  0.49921082  0.31278059  0.65422548  1
  O  O70  1  0.83254415  0.31278059  0.15422548  1
  O  O71  1  0.83254415  0.31278059  0.65422548  1
  O  O72  1  0.16810428  0.91885566  0.29523181  1
  O  O73  1  0.16810428  0.91885566  0.79523181  1
  O  O74  1  0.50143761  0.91885566  0.29523181  1
  O  O75  1  0.50143761  0.91885566  0.79523181  1
  O  O76  1  0.83477094  0.91885566  0.29523181  1
  O  O77  1  0.83477094  0.91885566  0.79523181  1
  O  O78  1  0.16522906  0.41885566  0.45476819  1
  O  O79  1  0.16522906  0.41885566  0.95476819  1
  O  O80  1  0.49856239  0.41885566  0.45476819  1
  O  O81  1  0.49856239  0.41885566  0.95476819  1
  O  O82  1  0.83189572  0.41885566  0.45476819  1
  O  O83  1  0.83189572  0.41885566  0.95476819  1
  O  O84  1  0.16522906  0.08114434  0.20476819  1
  O  O85  1  0.16522906  0.08114434  0.70476819  1
  O  O86  1  0.49856239  0.08114434  0.20476819  1
  O  O87  1  0.49856239  0.08114434  0.70476819  1
  O  O88  1  0.83189572  0.08114434  0.20476819  1
  O  O89  1  0.83189572  0.08114434  0.70476819  1
  O  O90  1  0.16810428  0.58114434  0.04523181  1
  O  O91  1  0.16810428  0.58114434  0.54523181  1
  O  O92  1  0.50143761  0.58114434  0.04523181  1
  O  O93  1  0.50143761  0.58114434  0.54523181  1
  O  O94  1  0.83477094  0.58114434  0.04523181  1
  O  O95  1  0.83477094  0.58114434  0.54523181  1
  O  O96  1  0.16666667  0.50000000  0.25000000  1
  O  O97  1  0.16666667  0.50000000  0.75000000  1
  O  O98  1  0.50000000  0.50000000  0.25000000  1
  O  O99  1  0.50000000  0.50000000  0.75000000  1
  O  O100  1  0.83333333  0.50000000  0.25000000  1
  O  O101  1  0.83333333  0.50000000  0.75000000  1
  O  O102  1  0.16666667  0.00000000  0.00000000  1
  O  O103  1  0.16666667  0.00000000  0.50000000  1
  O  O104  1  0.50000000  0.00000000  0.00000000  1
  O  O105  1  0.50000000  0.00000000  0.50000000  1
  O  O106  1  0.83333333  0.00000000  0.00000000  1
  O  O107  1  0.83333333  0.00000000  0.50000000  1
  O  O108  1  0.32942938  0.44530632  0.11158930  1
  O  O109  1  0.32942938  0.44530632  0.61158930  1
  O  O110  1  0.66276272  0.44530632  0.11158930  1
  O  O111  1  0.66276272  0.44530632  0.61158930  1
  O  O112  1  0.99609605  0.44530632  0.11158930  1
  O  O113  1  0.99609605  0.44530632  0.61158930  1
  O  O114  1  0.32942938  0.05469368  0.36158930  1
  O  O115  1  0.32942938  0.05469368  0.86158930  1
  O  O116  1  0.66276272  0.05469368  0.36158930  1
  O  O117  1  0.66276272  0.05469368  0.86158930  1
  O  O118  1  0.99609605  0.05469368  0.36158930  1
  O  O119  1  0.99609605  0.05469368  0.86158930  1
  O  O120  1  0.00390395  0.55469368  0.38841070  1
  O  O121  1  0.00390395  0.55469368  0.88841070  1
  O  O122  1  0.33723728  0.55469368  0.38841070  1
  O  O123  1  0.33723728  0.55469368  0.88841070  1
  O  O124  1  0.67057062  0.55469368  0.38841070  1
  O  O125  1  0.67057062  0.55469368  0.88841070  1
  O  O126  1  0.00390395  0.94530632  0.13841070  1
  O  O127  1  0.00390395  0.94530632  0.63841070  1
  O  O128  1  0.33723728  0.94530632  0.13841070  1
  O  O129  1  0.33723728  0.94530632  0.63841070  1
  O  O130  1  0.67057062  0.94530632  0.13841070  1
  O  O131  1  0.67057062  0.94530632  0.63841070  1
