# generated using pymatgen
data_K2Zn(SiO3)2
_symmetry_space_group_name_H-M   'P 1'
_cell_length_a   12.67181162
_cell_length_b   9.48273418
_cell_length_c   10.43854440
_cell_angle_alpha   90.00000000
_cell_angle_beta   90.00000000
_cell_angle_gamma   90.00000000
_symmetry_Int_Tables_number   1
_chemical_formula_structural   K2Zn(SiO3)2
_chemical_formula_sum   'K16 Zn8 Si16 O48'
_cell_volume   1254.33120752
_cell_formula_units_Z   8
loop_
 _symmetry_equiv_pos_site_id
 _symmetry_equiv_pos_as_xyz
  1  'x, y, z'
loop_
 _atom_site_type_symbol
 _atom_site_label
 _atom_site_symmetry_multiplicity
 _atom_site_fract_x
 _atom_site_fract_y
 _atom_site_fract_z
 _atom_site_occupancy
  K  K0  1  0.30402841  0.32561193  0.57601230  1
  K  K1  1  0.80402841  0.32561193  0.57601230  1
  K  K2  1  0.55402841  0.82561193  0.57601230  1
  K  K3  1  1.05402841  0.82561193  0.57601230  1
  K  K4  1  0.19597159  0.32561193  0.92398770  1
  K  K5  1  0.69597159  0.32561193  0.92398770  1
  K  K6  1  0.44597159  0.82561193  0.92398770  1
  K  K7  1  0.94597159  0.82561193  0.92398770  1
  K  K8  1  0.19597159  -0.32561193  0.07601230  1
  K  K9  1  0.69597159  -0.32561193  0.07601230  1
  K  K10  1  0.44597159  0.17438807  0.07601230  1
  K  K11  1  0.94597159  0.17438807  0.07601230  1
  K  K12  1  0.30402841  -0.32561193  0.42398770  1
  K  K13  1  0.80402841  -0.32561193  0.42398770  1
  K  K14  1  0.55402841  0.17438807  0.42398770  1
  K  K15  1  1.05402841  0.17438807  0.42398770  1
  Zn  Zn16  1  0.25000000  0.30702856  0.25000000  1
  Zn  Zn17  1  0.75000000  0.30702856  0.25000000  1
  Zn  Zn18  1  0.50000000  0.80702856  0.25000000  1
  Zn  Zn19  1  1.00000000  0.80702856  0.25000000  1
  Zn  Zn20  1  0.25000000  -0.30702856  0.75000000  1
  Zn  Zn21  1  0.75000000  -0.30702856  0.75000000  1
  Zn  Zn22  1  0.50000000  0.19297144  0.75000000  1
  Zn  Zn23  1  1.00000000  0.19297144  0.75000000  1
  Si  Si24  1  0.17316874  -0.01752462  0.86209048  1
  Si  Si25  1  0.67316874  -0.01752462  0.86209048  1
  Si  Si26  1  0.42316874  0.48247538  0.86209048  1
  Si  Si27  1  0.92316874  0.48247538  0.86209048  1
  Si  Si28  1  0.17316874  0.01752462  0.13790952  1
  Si  Si29  1  0.67316874  0.01752462  0.13790952  1
  Si  Si30  1  0.42316874  0.51752462  0.13790952  1
  Si  Si31  1  0.92316874  0.51752462  0.13790952  1
  Si  Si32  1  0.32683126  -0.01752462  0.63790952  1
  Si  Si33  1  0.82683126  -0.01752462  0.63790952  1
  Si  Si34  1  0.57683126  0.48247538  0.63790952  1
  Si  Si35  1  1.07683126  0.48247538  0.63790952  1
  Si  Si36  1  0.32683126  0.01752462  0.36209048  1
  Si  Si37  1  0.82683126  0.01752462  0.36209048  1
  Si  Si38  1  0.57683126  0.51752462  0.36209048  1
  Si  Si39  1  1.07683126  0.51752462  0.36209048  1
  O  O40  1  0.25000000  -0.05085662  0.25000000  1
  O  O41  1  0.75000000  -0.05085662  0.25000000  1
  O  O42  1  0.50000000  0.44914338  0.25000000  1
  O  O43  1  1.00000000  0.44914338  0.25000000  1
  O  O44  1  0.34864697  0.18281941  0.33399439  1
  O  O45  1  0.84864697  0.18281941  0.33399439  1
  O  O46  1  0.59864697  0.68281941  0.33399439  1
  O  O47  1  1.09864697  0.68281941  0.33399439  1
  O  O48  1  0.25890832  -0.00000000  0.50000000  1
  O  O49  1  0.75890832  -0.00000000  0.50000000  1
  O  O50  1  0.50890832  0.50000000  0.50000000  1
  O  O51  1  1.00890832  0.50000000  0.50000000  1
  O  O52  1  0.34864697  -0.18281941  0.66600561  1
  O  O53  1  0.84864697  -0.18281941  0.66600561  1
  O  O54  1  0.59864697  0.31718059  0.66600561  1
  O  O55  1  1.09864697  0.31718059  0.66600561  1
  O  O56  1  0.15135303  -0.18281941  0.83399439  1
  O  O57  1  0.65135303  -0.18281941  0.83399439  1
  O  O58  1  0.40135303  0.31718059  0.83399439  1
  O  O59  1  0.90135303  0.31718059  0.83399439  1
  O  O60  1  0.06794022  0.07853441  0.87386713  1
  O  O61  1  0.56794022  0.07853441  0.87386713  1
  O  O62  1  0.31794022  0.57853441  0.87386713  1
  O  O63  1  0.81794022  0.57853441  0.87386713  1
  O  O64  1  0.43205978  -0.07853441  0.37386713  1
  O  O65  1  0.93205978  -0.07853441  0.37386713  1
  O  O66  1  0.68205978  0.42146559  0.37386713  1
  O  O67  1  1.18205978  0.42146559  0.37386713  1
  O  O68  1  0.25000000  0.05085662  0.75000000  1
  O  O69  1  0.75000000  0.05085662  0.75000000  1
  O  O70  1  0.50000000  0.55085662  0.75000000  1
  O  O71  1  1.00000000  0.55085662  0.75000000  1
  O  O72  1  0.15135303  0.18281941  0.16600561  1
  O  O73  1  0.65135303  0.18281941  0.16600561  1
  O  O74  1  0.40135303  0.68281941  0.16600561  1
  O  O75  1  0.90135303  0.68281941  0.16600561  1
  O  O76  1  0.06794022  -0.07853441  0.12613287  1
  O  O77  1  0.56794022  -0.07853441  0.12613287  1
  O  O78  1  0.31794022  0.42146559  0.12613287  1
  O  O79  1  0.81794022  0.42146559  0.12613287  1
  O  O80  1  0.43205978  0.07853441  0.62613287  1
  O  O81  1  0.93205978  0.07853441  0.62613287  1
  O  O82  1  0.68205978  0.57853441  0.62613287  1
  O  O83  1  1.18205978  0.57853441  0.62613287  1
  O  O84  1  0.24109168  0.00000000  0.00000000  1
  O  O85  1  0.74109168  0.00000000  0.00000000  1
  O  O86  1  0.49109168  0.50000000  0.00000000  1
  O  O87  1  0.99109168  0.50000000  0.00000000  1
