# generated using pymatgen
data_Li2TiO3
_symmetry_space_group_name_H-M   'P 1'
_cell_length_a   10.09388661
_cell_length_b   8.75680460
_cell_length_c   9.70161391
_cell_angle_alpha   90.00000000
_cell_angle_beta   100.16535840
_cell_angle_gamma   90.00000000
_symmetry_Int_Tables_number   1
_chemical_formula_structural   Li2TiO3
_chemical_formula_sum   'Li32 Ti16 O48'
_cell_volume   844.06648060
_cell_formula_units_Z   16
loop_
 _symmetry_equiv_pos_site_id
 _symmetry_equiv_pos_as_xyz
  1  'x, y, z'
loop_
 _atom_site_type_symbol
 _atom_site_label
 _atom_site_symmetry_multiplicity
 _atom_site_fract_x
 _atom_site_fract_y
 _atom_site_fract_z
 _atom_site_occupancy
  Li  Li0  1  0.37969941  -0.08010525  0.50030807  1
  Li  Li1  1  0.87969941  -0.08010525  0.50030807  1
  Li  Li2  1  0.62969941  0.41989475  0.50030807  1
  Li  Li3  1  1.12969941  0.41989475  0.50030807  1
  Li  Li4  1  0.12030059  -0.08010525  0.99969193  1
  Li  Li5  1  0.62030059  -0.08010525  0.99969193  1
  Li  Li6  1  0.37030059  0.41989475  0.99969193  1
  Li  Li7  1  0.87030059  0.41989475  0.99969193  1
  Li  Li8  1  0.12030059  0.08010525  0.49969193  1
  Li  Li9  1  0.62030059  0.08010525  0.49969193  1
  Li  Li10  1  0.37030059  0.58010525  0.49969193  1
  Li  Li11  1  0.87030059  0.58010525  0.49969193  1
  Li  Li12  1  0.37969941  0.08010525  0.00030807  1
  Li  Li13  1  0.87969941  0.08010525  0.00030807  1
  Li  Li14  1  0.62969941  0.58010525  0.00030807  1
  Li  Li15  1  1.12969941  0.58010525  0.00030807  1
  Li  Li16  1  0.12500000  0.25000000  0.00000000  1
  Li  Li17  1  0.62500000  0.25000000  0.00000000  1
  Li  Li18  1  0.37500000  0.75000000  0.00000000  1
  Li  Li19  1  0.87500000  0.75000000  0.00000000  1
  Li  Li20  1  0.12500000  -0.25000000  0.50000000  1
  Li  Li21  1  0.62500000  -0.25000000  0.50000000  1
  Li  Li22  1  0.37500000  0.25000000  0.50000000  1
  Li  Li23  1  0.87500000  0.25000000  0.50000000  1
  Li  Li24  1  0.25000000  0.41577596  0.25000000  1
  Li  Li25  1  0.75000000  0.41577596  0.25000000  1
  Li  Li26  1  0.50000000  0.91577596  0.25000000  1
  Li  Li27  1  1.00000000  0.91577596  0.25000000  1
  Li  Li28  1  0.25000000  -0.41577596  0.75000000  1
  Li  Li29  1  0.75000000  -0.41577596  0.75000000  1
  Li  Li30  1  0.50000000  0.08422404  0.75000000  1
  Li  Li31  1  1.00000000  0.08422404  0.75000000  1
  Ti  Ti32  1  0.25000000  0.08271190  0.25000000  1
  Ti  Ti33  1  0.75000000  0.08271190  0.25000000  1
  Ti  Ti34  1  0.50000000  0.58271190  0.25000000  1
  Ti  Ti35  1  1.00000000  0.58271190  0.25000000  1
  Ti  Ti36  1  0.25000000  0.24975968  0.75000000  1
  Ti  Ti37  1  0.75000000  0.24975968  0.75000000  1
  Ti  Ti38  1  0.50000000  0.74975968  0.75000000  1
  Ti  Ti39  1  1.00000000  0.74975968  0.75000000  1
  Ti  Ti40  1  0.25000000  -0.24975968  0.25000000  1
  Ti  Ti41  1  0.75000000  -0.24975968  0.25000000  1
  Ti  Ti42  1  0.50000000  0.25024032  0.25000000  1
  Ti  Ti43  1  1.00000000  0.25024032  0.25000000  1
  Ti  Ti44  1  0.25000000  -0.08271190  0.75000000  1
  Ti  Ti45  1  0.75000000  -0.08271190  0.75000000  1
  Ti  Ti46  1  0.50000000  0.41728810  0.75000000  1
  Ti  Ti47  1  1.00000000  0.41728810  0.75000000  1
  O  O48  1  0.43106766  -0.09326959  0.86654931  1
  O  O49  1  0.93106766  -0.09326959  0.86654931  1
  O  O50  1  0.68106766  0.40673041  0.86654931  1
  O  O51  1  1.18106766  0.40673041  0.86654931  1
  O  O52  1  0.18049311  0.23813494  0.36456991  1
  O  O53  1  0.68049311  0.23813494  0.36456991  1
  O  O54  1  0.43049311  0.73813494  0.36456991  1
  O  O55  1  0.93049311  0.73813494  0.36456991  1
  O  O56  1  0.06893234  -0.09326959  0.63345069  1
  O  O57  1  0.56893234  -0.09326959  0.63345069  1
  O  O58  1  0.31893234  0.40673041  0.63345069  1
  O  O59  1  0.81893234  0.40673041  0.63345069  1
  O  O60  1  0.06893234  0.09326959  0.13345069  1
  O  O61  1  0.56893234  0.09326959  0.13345069  1
  O  O62  1  0.31893234  0.59326959  0.13345069  1
  O  O63  1  0.81893234  0.59326959  0.13345069  1
  O  O64  1  0.19638082  -0.08401577  0.36448964  1
  O  O65  1  0.69638082  -0.08401577  0.36448964  1
  O  O66  1  0.44638082  0.41598423  0.36448964  1
  O  O67  1  0.94638082  0.41598423  0.36448964  1
  O  O68  1  0.31950689  0.23813494  0.13543009  1
  O  O69  1  0.81950689  0.23813494  0.13543009  1
  O  O70  1  0.56950689  0.73813494  0.13543009  1
  O  O71  1  1.06950689  0.73813494  0.13543009  1
  O  O72  1  0.31950689  -0.23813494  0.63543009  1
  O  O73  1  0.81950689  -0.23813494  0.63543009  1
  O  O74  1  0.56950689  0.26186506  0.63543009  1
  O  O75  1  1.06950689  0.26186506  0.63543009  1
  O  O76  1  0.18049311  -0.23813494  0.86456991  1
  O  O77  1  0.68049311  -0.23813494  0.86456991  1
  O  O78  1  0.43049311  0.26186506  0.86456991  1
  O  O79  1  0.93049311  0.26186506  0.86456991  1
  O  O80  1  0.19638082  0.08401577  0.86448964  1
  O  O81  1  0.69638082  0.08401577  0.86448964  1
  O  O82  1  0.44638082  0.58401577  0.86448964  1
  O  O83  1  0.94638082  0.58401577  0.86448964  1
  O  O84  1  0.30361918  -0.08401577  0.13551036  1
  O  O85  1  0.80361918  -0.08401577  0.13551036  1
  O  O86  1  0.55361918  0.41598423  0.13551036  1
  O  O87  1  1.05361918  0.41598423  0.13551036  1
  O  O88  1  0.30361918  0.08401577  0.63551036  1
  O  O89  1  0.80361918  0.08401577  0.63551036  1
  O  O90  1  0.55361918  0.58401577  0.63551036  1
  O  O91  1  1.05361918  0.58401577  0.63551036  1
  O  O92  1  0.43106766  0.09326959  0.36654931  1
  O  O93  1  0.93106766  0.09326959  0.36654931  1
  O  O94  1  0.68106766  0.59326959  0.36654931  1
  O  O95  1  1.18106766  0.59326959  0.36654931  1
