# generated using pymatgen
data_InBO3
_symmetry_space_group_name_H-M   'P 1'
_cell_length_a   14.64539224
_cell_length_b   14.64539224
_cell_length_c   15.55149839
_cell_angle_alpha   90.00000000
_cell_angle_beta   90.00000000
_cell_angle_gamma   120.00000000
_symmetry_Int_Tables_number   1
_chemical_formula_structural   InBO3
_chemical_formula_sum   'In54 B54 O162'
_cell_volume   2888.71626595
_cell_formula_units_Z   54
loop_
 _symmetry_equiv_pos_site_id
 _symmetry_equiv_pos_as_xyz
  1  'x, y, z'
loop_
 _atom_site_type_symbol
 _atom_site_label
 _atom_site_symmetry_multiplicity
 _atom_site_fract_x
 _atom_site_fract_y
 _atom_site_fract_z
 _atom_site_occupancy
  In  In0  1  0.00000000  0.00000000  0.50000000  1
  In  In1  1  -0.00000000  0.33333333  0.50000000  1
  In  In2  1  -0.00000000  0.66666667  0.50000000  1
  In  In3  1  0.33333333  0.00000000  0.50000000  1
  In  In4  1  0.33333333  0.33333333  0.50000000  1
  In  In5  1  0.33333333  0.66666667  0.50000000  1
  In  In6  1  0.66666667  0.00000000  0.50000000  1
  In  In7  1  0.66666667  0.33333333  0.50000000  1
  In  In8  1  0.66666667  0.66666667  0.50000000  1
  In  In9  1  0.22222222  0.11111111  0.83333333  1
  In  In10  1  0.22222222  0.44444444  0.83333333  1
  In  In11  1  0.22222222  0.77777778  0.83333333  1
  In  In12  1  0.55555556  0.11111111  0.83333333  1
  In  In13  1  0.55555556  0.44444444  0.83333333  1
  In  In14  1  0.55555556  0.77777778  0.83333333  1
  In  In15  1  0.88888889  0.11111111  0.83333333  1
  In  In16  1  0.88888889  0.44444444  0.83333333  1
  In  In17  1  0.88888889  0.77777778  0.83333333  1
  In  In18  1  0.11111111  0.22222222  1.16666667  1
  In  In19  1  0.11111111  0.55555556  1.16666667  1
  In  In20  1  0.11111111  0.88888889  1.16666667  1
  In  In21  1  0.44444444  0.22222222  1.16666667  1
  In  In22  1  0.44444444  0.55555556  1.16666667  1
  In  In23  1  0.44444444  0.88888889  1.16666667  1
  In  In24  1  0.77777778  0.22222222  1.16666667  1
  In  In25  1  0.77777778  0.55555556  1.16666667  1
  In  In26  1  0.77777778  0.88888889  1.16666667  1
  In  In27  1  -0.00000000  -0.00000000  0.00000000  1
  In  In28  1  -0.00000000  0.33333333  0.00000000  1
  In  In29  1  -0.00000000  0.66666667  0.00000000  1
  In  In30  1  0.33333333  -0.00000000  0.00000000  1
  In  In31  1  0.33333333  0.33333333  0.00000000  1
  In  In32  1  0.33333333  0.66666667  0.00000000  1
  In  In33  1  0.66666667  -0.00000000  0.00000000  1
  In  In34  1  0.66666667  0.33333333  0.00000000  1
  In  In35  1  0.66666667  0.66666667  0.00000000  1
  In  In36  1  0.22222222  0.11111111  0.33333333  1
  In  In37  1  0.22222222  0.44444444  0.33333333  1
  In  In38  1  0.22222222  0.77777778  0.33333333  1
  In  In39  1  0.55555556  0.11111111  0.33333333  1
  In  In40  1  0.55555556  0.44444444  0.33333333  1
  In  In41  1  0.55555556  0.77777778  0.33333333  1
  In  In42  1  0.88888889  0.11111111  0.33333333  1
  In  In43  1  0.88888889  0.44444444  0.33333333  1
  In  In44  1  0.88888889  0.77777778  0.33333333  1
  In  In45  1  0.11111111  0.22222222  0.66666667  1
  In  In46  1  0.11111111  0.55555556  0.66666667  1
  In  In47  1  0.11111111  0.88888889  0.66666667  1
  In  In48  1  0.44444444  0.22222222  0.66666667  1
  In  In49  1  0.44444444  0.55555556  0.66666667  1
  In  In50  1  0.44444444  0.88888889  0.66666667  1
  In  In51  1  0.77777778  0.22222222  0.66666667  1
  In  In52  1  0.77777778  0.55555556  0.66666667  1
  In  In53  1  0.77777778  0.88888889  0.66666667  1
  B  B54  1  -0.00000000  -0.00000000  0.25000000  1
  B  B55  1  -0.00000000  0.33333333  0.25000000  1
  B  B56  1  -0.00000000  0.66666667  0.25000000  1
  B  B57  1  0.33333333  -0.00000000  0.25000000  1
  B  B58  1  0.33333333  0.33333333  0.25000000  1
  B  B59  1  0.33333333  0.66666667  0.25000000  1
  B  B60  1  0.66666667  -0.00000000  0.25000000  1
  B  B61  1  0.66666667  0.33333333  0.25000000  1
  B  B62  1  0.66666667  0.66666667  0.25000000  1
  B  B63  1  0.22222222  0.11111111  0.58333333  1
  B  B64  1  0.22222222  0.44444444  0.58333333  1
  B  B65  1  0.22222222  0.77777778  0.58333333  1
  B  B66  1  0.55555556  0.11111111  0.58333333  1
  B  B67  1  0.55555556  0.44444444  0.58333333  1
  B  B68  1  0.55555556  0.77777778  0.58333333  1
  B  B69  1  0.88888889  0.11111111  0.58333333  1
  B  B70  1  0.88888889  0.44444444  0.58333333  1
  B  B71  1  0.88888889  0.77777778  0.58333333  1
  B  B72  1  0.11111111  0.22222222  0.91666667  1
  B  B73  1  0.11111111  0.55555556  0.91666667  1
  B  B74  1  0.11111111  0.88888889  0.91666667  1
  B  B75  1  0.44444444  0.22222222  0.91666667  1
  B  B76  1  0.44444444  0.55555556  0.91666667  1
  B  B77  1  0.44444444  0.88888889  0.91666667  1
  B  B78  1  0.77777778  0.22222222  0.91666667  1
  B  B79  1  0.77777778  0.55555556  0.91666667  1
  B  B80  1  0.77777778  0.88888889  0.91666667  1
  B  B81  1  0.00000000  0.00000000  0.75000000  1
  B  B82  1  -0.00000000  0.33333333  0.75000000  1
  B  B83  1  -0.00000000  0.66666667  0.75000000  1
  B  B84  1  0.33333333  0.00000000  0.75000000  1
  B  B85  1  0.33333333  0.33333333  0.75000000  1
  B  B86  1  0.33333333  0.66666667  0.75000000  1
  B  B87  1  0.66666667  0.00000000  0.75000000  1
  B  B88  1  0.66666667  0.33333333  0.75000000  1
  B  B89  1  0.66666667  0.66666667  0.75000000  1
  B  B90  1  0.22222222  0.11111111  1.08333333  1
  B  B91  1  0.22222222  0.44444444  1.08333333  1
  B  B92  1  0.22222222  0.77777778  1.08333333  1
  B  B93  1  0.55555556  0.11111111  1.08333333  1
  B  B94  1  0.55555556  0.44444444  1.08333333  1
  B  B95  1  0.55555556  0.77777778  1.08333333  1
  B  B96  1  0.88888889  0.11111111  1.08333333  1
  B  B97  1  0.88888889  0.44444444  1.08333333  1
  B  B98  1  0.88888889  0.77777778  1.08333333  1
  B  B99  1  0.11111111  0.22222222  1.41666667  1
  B  B100  1  0.11111111  0.55555556  1.41666667  1
  B  B101  1  0.11111111  0.88888889  1.41666667  1
  B  B102  1  0.44444444  0.22222222  1.41666667  1
  B  B103  1  0.44444444  0.55555556  1.41666667  1
  B  B104  1  0.44444444  0.88888889  1.41666667  1
  B  B105  1  0.77777778  0.22222222  1.41666667  1
  B  B106  1  0.77777778  0.55555556  1.41666667  1
  B  B107  1  0.77777778  0.88888889  1.41666667  1
  O  O108  1  0.11111111  -0.01674934  0.41666667  1
  O  O109  1  0.11111111  0.31658399  0.41666667  1
  O  O110  1  0.11111111  0.64991732  0.41666667  1
  O  O111  1  0.44444444  -0.01674934  0.41666667  1
  O  O112  1  0.44444444  0.31658399  0.41666667  1
  O  O113  1  0.44444444  0.64991732  0.41666667  1
  O  O114  1  0.77777778  -0.01674934  0.41666667  1
  O  O115  1  0.77777778  0.31658399  0.41666667  1
  O  O116  1  0.77777778  0.64991732  0.41666667  1
  O  O117  1  0.33333333  0.09436177  0.75000000  1
  O  O118  1  0.33333333  0.42769510  0.75000000  1
  O  O119  1  0.33333333  0.76102843  0.75000000  1
  O  O120  1  0.66666667  0.09436177  0.75000000  1
  O  O121  1  0.66666667  0.42769510  0.75000000  1
  O  O122  1  0.66666667  0.76102843  0.75000000  1
  O  O123  1  1.00000000  0.09436177  0.75000000  1
  O  O124  1  1.00000000  0.42769510  0.75000000  1
  O  O125  1  1.00000000  0.76102843  0.75000000  1
  O  O126  1  0.22222222  0.20547288  1.08333333  1
  O  O127  1  0.22222222  0.53880621  1.08333333  1
  O  O128  1  0.22222222  0.87213955  1.08333333  1
  O  O129  1  0.55555556  0.20547288  1.08333333  1
  O  O130  1  0.55555556  0.53880621  1.08333333  1
  O  O131  1  0.55555556  0.87213955  1.08333333  1
  O  O132  1  0.88888889  0.20547288  1.08333333  1
  O  O133  1  0.88888889  0.53880621  1.08333333  1
  O  O134  1  0.88888889  0.87213955  1.08333333  1
  O  O135  1  0.01674934  0.12786045  0.41666667  1
  O  O136  1  0.01674934  0.46119379  0.41666667  1
  O  O137  1  0.01674934  0.79452712  0.41666667  1
  O  O138  1  0.35008268  0.12786045  0.41666667  1
  O  O139  1  0.35008268  0.46119379  0.41666667  1
  O  O140  1  0.35008268  0.79452712  0.41666667  1
  O  O141  1  0.68341601  0.12786045  0.41666667  1
  O  O142  1  0.68341601  0.46119379  0.41666667  1
  O  O143  1  0.68341601  0.79452712  0.41666667  1
  O  O144  1  0.23897157  0.23897157  0.75000000  1
  O  O145  1  0.23897157  0.57230490  0.75000000  1
  O  O146  1  0.23897157  0.90563823  0.75000000  1
  O  O147  1  0.57230490  0.23897157  0.75000000  1
  O  O148  1  0.57230490  0.57230490  0.75000000  1
  O  O149  1  0.57230490  0.90563823  0.75000000  1
  O  O150  1  0.90563823  0.23897157  0.75000000  1
  O  O151  1  0.90563823  0.57230490  0.75000000  1
  O  O152  1  0.90563823  0.90563823  0.75000000  1
  O  O153  1  0.12786045  0.35008268  1.08333333  1
  O  O154  1  0.12786045  0.68341601  1.08333333  1
  O  O155  1  0.12786045  1.01674934  1.08333333  1
  O  O156  1  0.46119379  0.35008268  1.08333333  1
  O  O157  1  0.46119379  0.68341601  1.08333333  1
  O  O158  1  0.46119379  1.01674934  1.08333333  1
  O  O159  1  0.79452712  0.35008268  1.08333333  1
  O  O160  1  0.79452712  0.68341601  1.08333333  1
  O  O161  1  0.79452712  1.01674934  1.08333333  1
  O  O162  1  -0.12786045  -0.11111111  0.41666667  1
  O  O163  1  -0.12786045  0.22222222  0.41666667  1
  O  O164  1  -0.12786045  0.55555556  0.41666667  1
  O  O165  1  0.20547288  -0.11111111  0.41666667  1
  O  O166  1  0.20547288  0.22222222  0.41666667  1
  O  O167  1  0.20547288  0.55555556  0.41666667  1
  O  O168  1  0.53880621  -0.11111111  0.41666667  1
  O  O169  1  0.53880621  0.22222222  0.41666667  1
  O  O170  1  0.53880621  0.55555556  0.41666667  1
  O  O171  1  0.09436177  0.00000000  0.75000000  1
  O  O172  1  0.09436177  0.33333333  0.75000000  1
  O  O173  1  0.09436177  0.66666667  0.75000000  1
  O  O174  1  0.42769510  0.00000000  0.75000000  1
  O  O175  1  0.42769510  0.33333333  0.75000000  1
  O  O176  1  0.42769510  0.66666667  0.75000000  1
  O  O177  1  0.76102843  0.00000000  0.75000000  1
  O  O178  1  0.76102843  0.33333333  0.75000000  1
  O  O179  1  0.76102843  0.66666667  0.75000000  1
  O  O180  1  -0.01674934  0.11111111  1.08333333  1
  O  O181  1  -0.01674934  0.44444444  1.08333333  1
  O  O182  1  -0.01674934  0.77777778  1.08333333  1
  O  O183  1  0.31658399  0.11111111  1.08333333  1
  O  O184  1  0.31658399  0.44444444  1.08333333  1
  O  O185  1  0.31658399  0.77777778  1.08333333  1
  O  O186  1  0.64991732  0.11111111  1.08333333  1
  O  O187  1  0.64991732  0.44444444  1.08333333  1
  O  O188  1  0.64991732  0.77777778  1.08333333  1
  O  O189  1  -0.11111111  0.01674934  0.58333333  1
  O  O190  1  -0.11111111  0.35008268  0.58333333  1
  O  O191  1  -0.11111111  0.68341601  0.58333333  1
  O  O192  1  0.22222222  0.01674934  0.58333333  1
  O  O193  1  0.22222222  0.35008268  0.58333333  1
  O  O194  1  0.22222222  0.68341601  0.58333333  1
  O  O195  1  0.55555556  0.01674934  0.58333333  1
  O  O196  1  0.55555556  0.35008268  0.58333333  1
  O  O197  1  0.55555556  0.68341601  0.58333333  1
  O  O198  1  0.11111111  0.12786045  0.91666667  1
  O  O199  1  0.11111111  0.46119379  0.91666667  1
  O  O200  1  0.11111111  0.79452712  0.91666667  1
  O  O201  1  0.44444444  0.12786045  0.91666667  1
  O  O202  1  0.44444444  0.46119379  0.91666667  1
  O  O203  1  0.44444444  0.79452712  0.91666667  1
  O  O204  1  0.77777778  0.12786045  0.91666667  1
  O  O205  1  0.77777778  0.46119379  0.91666667  1
  O  O206  1  0.77777778  0.79452712  0.91666667  1
  O  O207  1  -0.00000000  0.23897157  1.25000000  1
  O  O208  1  0.00000000  0.57230490  1.25000000  1
  O  O209  1  -0.00000000  0.90563823  1.25000000  1
  O  O210  1  0.33333333  0.23897157  1.25000000  1
  O  O211  1  0.33333333  0.57230490  1.25000000  1
  O  O212  1  0.33333333  0.90563823  1.25000000  1
  O  O213  1  0.66666667  0.23897157  1.25000000  1
  O  O214  1  0.66666667  0.57230490  1.25000000  1
  O  O215  1  0.66666667  0.90563823  1.25000000  1
  O  O216  1  -0.01674934  -0.12786045  0.58333333  1
  O  O217  1  -0.01674934  0.20547288  0.58333333  1
  O  O218  1  -0.01674934  0.53880621  0.58333333  1
  O  O219  1  0.31658399  -0.12786045  0.58333333  1
  O  O220  1  0.31658399  0.20547288  0.58333333  1
  O  O221  1  0.31658399  0.53880621  0.58333333  1
  O  O222  1  0.64991732  -0.12786045  0.58333333  1
  O  O223  1  0.64991732  0.20547288  0.58333333  1
  O  O224  1  0.64991732  0.53880621  0.58333333  1
  O  O225  1  0.20547288  -0.01674934  0.91666667  1
  O  O226  1  0.20547288  0.31658399  0.91666667  1
  O  O227  1  0.20547288  0.64991732  0.91666667  1
  O  O228  1  0.53880621  -0.01674934  0.91666667  1
  O  O229  1  0.53880621  0.31658399  0.91666667  1
  O  O230  1  0.53880621  0.64991732  0.91666667  1
  O  O231  1  0.87213955  -0.01674934  0.91666667  1
  O  O232  1  0.87213955  0.31658399  0.91666667  1
  O  O233  1  0.87213955  0.64991732  0.91666667  1
  O  O234  1  0.09436177  0.09436177  1.25000000  1
  O  O235  1  0.09436177  0.42769510  1.25000000  1
  O  O236  1  0.09436177  0.76102843  1.25000000  1
  O  O237  1  0.42769510  0.09436177  1.25000000  1
  O  O238  1  0.42769510  0.42769510  1.25000000  1
  O  O239  1  0.42769510  0.76102843  1.25000000  1
  O  O240  1  0.76102843  0.09436177  1.25000000  1
  O  O241  1  0.76102843  0.42769510  1.25000000  1
  O  O242  1  0.76102843  0.76102843  1.25000000  1
  O  O243  1  0.12786045  0.11111111  0.58333333  1
  O  O244  1  0.12786045  0.44444444  0.58333333  1
  O  O245  1  0.12786045  0.77777778  0.58333333  1
  O  O246  1  0.46119379  0.11111111  0.58333333  1
  O  O247  1  0.46119379  0.44444444  0.58333333  1
  O  O248  1  0.46119379  0.77777778  0.58333333  1
  O  O249  1  0.79452712  0.11111111  0.58333333  1
  O  O250  1  0.79452712  0.44444444  0.58333333  1
  O  O251  1  0.79452712  0.77777778  0.58333333  1
  O  O252  1  0.35008268  0.22222222  0.91666667  1
  O  O253  1  0.35008268  0.55555556  0.91666667  1
  O  O254  1  0.35008268  0.88888889  0.91666667  1
  O  O255  1  0.68341601  0.22222222  0.91666667  1
  O  O256  1  0.68341601  0.55555556  0.91666667  1
  O  O257  1  0.68341601  0.88888889  0.91666667  1
  O  O258  1  1.01674934  0.22222222  0.91666667  1
  O  O259  1  1.01674934  0.55555556  0.91666667  1
  O  O260  1  1.01674934  0.88888889  0.91666667  1
  O  O261  1  0.23897157  0.33333333  1.25000000  1
  O  O262  1  0.23897157  0.66666667  1.25000000  1
  O  O263  1  0.23897157  1.00000000  1.25000000  1
  O  O264  1  0.57230490  0.33333333  1.25000000  1
  O  O265  1  0.57230490  0.66666667  1.25000000  1
  O  O266  1  0.57230490  1.00000000  1.25000000  1
  O  O267  1  0.90563823  0.33333333  1.25000000  1
  O  O268  1  0.90563823  0.66666667  1.25000000  1
  O  O269  1  0.90563823  1.00000000  1.25000000  1
