# generated using pymatgen
data_Cs3AuO
_symmetry_space_group_name_H-M   'P 1'
_cell_length_a   23.15724784
_cell_length_b   23.15724784
_cell_length_c   20.95356275
_cell_angle_alpha   90.00000000
_cell_angle_beta   90.00000000
_cell_angle_gamma   120.00000000
_symmetry_Int_Tables_number   1
_chemical_formula_structural   Cs3AuO
_chemical_formula_sum   'Cs162 Au54 O54'
_cell_volume   9731.11031859
_cell_formula_units_Z   54
loop_
 _symmetry_equiv_pos_site_id
 _symmetry_equiv_pos_as_xyz
  1  'x, y, z'
loop_
 _atom_site_type_symbol
 _atom_site_label
 _atom_site_symmetry_multiplicity
 _atom_site_fract_x
 _atom_site_fract_y
 _atom_site_fract_z
 _atom_site_occupancy
  Cs  Cs0  1  0.10728879  0.05364440  0.25000000  1
  Cs  Cs1  1  0.10728879  0.05364440  0.58333333  1
  Cs  Cs2  1  0.10728879  0.05364440  0.91666667  1
  Cs  Cs3  1  0.10728879  0.38697773  0.25000000  1
  Cs  Cs4  1  0.10728879  0.38697773  0.58333333  1
  Cs  Cs5  1  0.10728879  0.38697773  0.91666667  1
  Cs  Cs6  1  0.10728879  0.72031106  0.25000000  1
  Cs  Cs7  1  0.10728879  0.72031106  0.58333333  1
  Cs  Cs8  1  0.10728879  0.72031106  0.91666667  1
  Cs  Cs9  1  0.44062213  0.05364440  0.25000000  1
  Cs  Cs10  1  0.44062213  0.05364440  0.58333333  1
  Cs  Cs11  1  0.44062213  0.05364440  0.91666667  1
  Cs  Cs12  1  0.44062213  0.38697773  0.25000000  1
  Cs  Cs13  1  0.44062213  0.38697773  0.58333333  1
  Cs  Cs14  1  0.44062213  0.38697773  0.91666667  1
  Cs  Cs15  1  0.44062213  0.72031106  0.25000000  1
  Cs  Cs16  1  0.44062213  0.72031106  0.58333333  1
  Cs  Cs17  1  0.44062213  0.72031106  0.91666667  1
  Cs  Cs18  1  0.77395546  0.05364440  0.25000000  1
  Cs  Cs19  1  0.77395546  0.05364440  0.58333333  1
  Cs  Cs20  1  0.77395546  0.05364440  0.91666667  1
  Cs  Cs21  1  0.77395546  0.38697773  0.25000000  1
  Cs  Cs22  1  0.77395546  0.38697773  0.58333333  1
  Cs  Cs23  1  0.77395546  0.38697773  0.91666667  1
  Cs  Cs24  1  0.77395546  0.72031106  0.25000000  1
  Cs  Cs25  1  0.77395546  0.72031106  0.58333333  1
  Cs  Cs26  1  0.77395546  0.72031106  0.91666667  1
  Cs  Cs27  1  0.05364440  0.10728879  0.08333333  1
  Cs  Cs28  1  0.05364440  0.10728879  0.41666667  1
  Cs  Cs29  1  0.05364440  0.10728879  0.75000000  1
  Cs  Cs30  1  0.05364440  0.44062213  0.08333333  1
  Cs  Cs31  1  0.05364440  0.44062213  0.41666667  1
  Cs  Cs32  1  0.05364440  0.44062213  0.75000000  1
  Cs  Cs33  1  0.05364440  0.77395546  0.08333333  1
  Cs  Cs34  1  0.05364440  0.77395546  0.41666667  1
  Cs  Cs35  1  0.05364440  0.77395546  0.75000000  1
  Cs  Cs36  1  0.38697773  0.10728879  0.08333333  1
  Cs  Cs37  1  0.38697773  0.10728879  0.41666667  1
  Cs  Cs38  1  0.38697773  0.10728879  0.75000000  1
  Cs  Cs39  1  0.38697773  0.44062213  0.08333333  1
  Cs  Cs40  1  0.38697773  0.44062213  0.41666667  1
  Cs  Cs41  1  0.38697773  0.44062213  0.75000000  1
  Cs  Cs42  1  0.38697773  0.77395546  0.08333333  1
  Cs  Cs43  1  0.38697773  0.77395546  0.41666667  1
  Cs  Cs44  1  0.38697773  0.77395546  0.75000000  1
  Cs  Cs45  1  0.72031106  0.10728879  0.08333333  1
  Cs  Cs46  1  0.72031106  0.10728879  0.41666667  1
  Cs  Cs47  1  0.72031106  0.10728879  0.75000000  1
  Cs  Cs48  1  0.72031106  0.44062213  0.08333333  1
  Cs  Cs49  1  0.72031106  0.44062213  0.41666667  1
  Cs  Cs50  1  0.72031106  0.44062213  0.75000000  1
  Cs  Cs51  1  0.72031106  0.77395546  0.08333333  1
  Cs  Cs52  1  0.72031106  0.77395546  0.41666667  1
  Cs  Cs53  1  0.72031106  0.77395546  0.75000000  1
  Cs  Cs54  1  0.05364440  0.27968894  0.08333333  1
  Cs  Cs55  1  0.05364440  0.27968894  0.41666667  1
  Cs  Cs56  1  0.05364440  0.27968894  0.75000000  1
  Cs  Cs57  1  0.05364440  0.61302227  0.08333333  1
  Cs  Cs58  1  0.05364440  0.61302227  0.41666667  1
  Cs  Cs59  1  0.05364440  0.61302227  0.75000000  1
  Cs  Cs60  1  0.05364440  0.94635560  0.08333333  1
  Cs  Cs61  1  0.05364440  0.94635560  0.41666667  1
  Cs  Cs62  1  0.05364440  0.94635560  0.75000000  1
  Cs  Cs63  1  0.38697773  0.27968894  0.08333333  1
  Cs  Cs64  1  0.38697773  0.27968894  0.41666667  1
  Cs  Cs65  1  0.38697773  0.27968894  0.75000000  1
  Cs  Cs66  1  0.38697773  0.61302227  0.08333333  1
  Cs  Cs67  1  0.38697773  0.61302227  0.41666667  1
  Cs  Cs68  1  0.38697773  0.61302227  0.75000000  1
  Cs  Cs69  1  0.38697773  0.94635560  0.08333333  1
  Cs  Cs70  1  0.38697773  0.94635560  0.41666667  1
  Cs  Cs71  1  0.38697773  0.94635560  0.75000000  1
  Cs  Cs72  1  0.72031106  0.27968894  0.08333333  1
  Cs  Cs73  1  0.72031106  0.27968894  0.41666667  1
  Cs  Cs74  1  0.72031106  0.27968894  0.75000000  1
  Cs  Cs75  1  0.72031106  0.61302227  0.08333333  1
  Cs  Cs76  1  0.72031106  0.61302227  0.41666667  1
  Cs  Cs77  1  0.72031106  0.61302227  0.75000000  1
  Cs  Cs78  1  0.72031106  0.94635560  0.08333333  1
  Cs  Cs79  1  0.72031106  0.94635560  0.41666667  1
  Cs  Cs80  1  0.72031106  0.94635560  0.75000000  1
  Cs  Cs81  1  0.27968894  0.05364440  0.25000000  1
  Cs  Cs82  1  0.27968894  0.05364440  0.58333333  1
  Cs  Cs83  1  0.27968894  0.05364440  0.91666667  1
  Cs  Cs84  1  0.27968894  0.38697773  0.25000000  1
  Cs  Cs85  1  0.27968894  0.38697773  0.58333333  1
  Cs  Cs86  1  0.27968894  0.38697773  0.91666667  1
  Cs  Cs87  1  0.27968894  0.72031106  0.25000000  1
  Cs  Cs88  1  0.27968894  0.72031106  0.58333333  1
  Cs  Cs89  1  0.27968894  0.72031106  0.91666667  1
  Cs  Cs90  1  0.61302227  0.05364440  0.25000000  1
  Cs  Cs91  1  0.61302227  0.05364440  0.58333333  1
  Cs  Cs92  1  0.61302227  0.05364440  0.91666667  1
  Cs  Cs93  1  0.61302227  0.38697773  0.25000000  1
  Cs  Cs94  1  0.61302227  0.38697773  0.58333333  1
  Cs  Cs95  1  0.61302227  0.38697773  0.91666667  1
  Cs  Cs96  1  0.61302227  0.72031106  0.25000000  1
  Cs  Cs97  1  0.61302227  0.72031106  0.58333333  1
  Cs  Cs98  1  0.61302227  0.72031106  0.91666667  1
  Cs  Cs99  1  0.94635560  0.05364440  0.25000000  1
  Cs  Cs100  1  0.94635560  0.05364440  0.58333333  1
  Cs  Cs101  1  0.94635560  0.05364440  0.91666667  1
  Cs  Cs102  1  0.94635560  0.38697773  0.25000000  1
  Cs  Cs103  1  0.94635560  0.38697773  0.58333333  1
  Cs  Cs104  1  0.94635560  0.38697773  0.91666667  1
  Cs  Cs105  1  0.94635560  0.72031106  0.25000000  1
  Cs  Cs106  1  0.94635560  0.72031106  0.58333333  1
  Cs  Cs107  1  0.94635560  0.72031106  0.91666667  1
  Cs  Cs108  1  0.27968894  0.22604454  0.25000000  1
  Cs  Cs109  1  0.27968894  0.22604454  0.58333333  1
  Cs  Cs110  1  0.27968894  0.22604454  0.91666667  1
  Cs  Cs111  1  0.27968894  0.55937787  0.25000000  1
  Cs  Cs112  1  0.27968894  0.55937787  0.58333333  1
  Cs  Cs113  1  0.27968894  0.55937787  0.91666667  1
  Cs  Cs114  1  0.27968894  0.89271121  0.25000000  1
  Cs  Cs115  1  0.27968894  0.89271121  0.58333333  1
  Cs  Cs116  1  0.27968894  0.89271121  0.91666667  1
  Cs  Cs117  1  0.61302227  0.22604454  0.25000000  1
  Cs  Cs118  1  0.61302227  0.22604454  0.58333333  1
  Cs  Cs119  1  0.61302227  0.22604454  0.91666667  1
  Cs  Cs120  1  0.61302227  0.55937787  0.25000000  1
  Cs  Cs121  1  0.61302227  0.55937787  0.58333333  1
  Cs  Cs122  1  0.61302227  0.55937787  0.91666667  1
  Cs  Cs123  1  0.61302227  0.89271121  0.25000000  1
  Cs  Cs124  1  0.61302227  0.89271121  0.58333333  1
  Cs  Cs125  1  0.61302227  0.89271121  0.91666667  1
  Cs  Cs126  1  0.94635560  0.22604454  0.25000000  1
  Cs  Cs127  1  0.94635560  0.22604454  0.58333333  1
  Cs  Cs128  1  0.94635560  0.22604454  0.91666667  1
  Cs  Cs129  1  0.94635560  0.55937787  0.25000000  1
  Cs  Cs130  1  0.94635560  0.55937787  0.58333333  1
  Cs  Cs131  1  0.94635560  0.55937787  0.91666667  1
  Cs  Cs132  1  0.94635560  0.89271121  0.25000000  1
  Cs  Cs133  1  0.94635560  0.89271121  0.58333333  1
  Cs  Cs134  1  0.94635560  0.89271121  0.91666667  1
  Cs  Cs135  1  0.22604454  0.27968894  0.08333333  1
  Cs  Cs136  1  0.22604454  0.27968894  0.41666667  1
  Cs  Cs137  1  0.22604454  0.27968894  0.75000000  1
  Cs  Cs138  1  0.22604454  0.61302227  0.08333333  1
  Cs  Cs139  1  0.22604454  0.61302227  0.41666667  1
  Cs  Cs140  1  0.22604454  0.61302227  0.75000000  1
  Cs  Cs141  1  0.22604454  0.94635560  0.08333333  1
  Cs  Cs142  1  0.22604454  0.94635560  0.41666667  1
  Cs  Cs143  1  0.22604454  0.94635560  0.75000000  1
  Cs  Cs144  1  0.55937787  0.27968894  0.08333333  1
  Cs  Cs145  1  0.55937787  0.27968894  0.41666667  1
  Cs  Cs146  1  0.55937787  0.27968894  0.75000000  1
  Cs  Cs147  1  0.55937787  0.61302227  0.08333333  1
  Cs  Cs148  1  0.55937787  0.61302227  0.41666667  1
  Cs  Cs149  1  0.55937787  0.61302227  0.75000000  1
  Cs  Cs150  1  0.55937787  0.94635560  0.08333333  1
  Cs  Cs151  1  0.55937787  0.94635560  0.41666667  1
  Cs  Cs152  1  0.55937787  0.94635560  0.75000000  1
  Cs  Cs153  1  0.89271121  0.27968894  0.08333333  1
  Cs  Cs154  1  0.89271121  0.27968894  0.41666667  1
  Cs  Cs155  1  0.89271121  0.27968894  0.75000000  1
  Cs  Cs156  1  0.89271121  0.61302227  0.08333333  1
  Cs  Cs157  1  0.89271121  0.61302227  0.41666667  1
  Cs  Cs158  1  0.89271121  0.61302227  0.75000000  1
  Cs  Cs159  1  0.89271121  0.94635560  0.08333333  1
  Cs  Cs160  1  0.89271121  0.94635560  0.41666667  1
  Cs  Cs161  1  0.89271121  0.94635560  0.75000000  1
  Au  Au162  1  0.11111111  0.22222222  0.25000000  1
  Au  Au163  1  0.11111111  0.22222222  0.58333333  1
  Au  Au164  1  0.11111111  0.22222222  0.91666667  1
  Au  Au165  1  0.11111111  0.55555556  0.25000000  1
  Au  Au166  1  0.11111111  0.55555556  0.58333333  1
  Au  Au167  1  0.11111111  0.55555556  0.91666667  1
  Au  Au168  1  0.11111111  0.88888889  0.25000000  1
  Au  Au169  1  0.11111111  0.88888889  0.58333333  1
  Au  Au170  1  0.11111111  0.88888889  0.91666667  1
  Au  Au171  1  0.44444444  0.22222222  0.25000000  1
  Au  Au172  1  0.44444444  0.22222222  0.58333333  1
  Au  Au173  1  0.44444444  0.22222222  0.91666667  1
  Au  Au174  1  0.44444444  0.55555556  0.25000000  1
  Au  Au175  1  0.44444444  0.55555556  0.58333333  1
  Au  Au176  1  0.44444444  0.55555556  0.91666667  1
  Au  Au177  1  0.44444444  0.88888889  0.25000000  1
  Au  Au178  1  0.44444444  0.88888889  0.58333333  1
  Au  Au179  1  0.44444444  0.88888889  0.91666667  1
  Au  Au180  1  0.77777778  0.22222222  0.25000000  1
  Au  Au181  1  0.77777778  0.22222222  0.58333333  1
  Au  Au182  1  0.77777778  0.22222222  0.91666667  1
  Au  Au183  1  0.77777778  0.55555556  0.25000000  1
  Au  Au184  1  0.77777778  0.55555556  0.58333333  1
  Au  Au185  1  0.77777778  0.55555556  0.91666667  1
  Au  Au186  1  0.77777778  0.88888889  0.25000000  1
  Au  Au187  1  0.77777778  0.88888889  0.58333333  1
  Au  Au188  1  0.77777778  0.88888889  0.91666667  1
  Au  Au189  1  0.22222222  0.11111111  0.08333333  1
  Au  Au190  1  0.22222222  0.11111111  0.41666667  1
  Au  Au191  1  0.22222222  0.11111111  0.75000000  1
  Au  Au192  1  0.22222222  0.44444444  0.08333333  1
  Au  Au193  1  0.22222222  0.44444444  0.41666667  1
  Au  Au194  1  0.22222222  0.44444444  0.75000000  1
  Au  Au195  1  0.22222222  0.77777778  0.08333333  1
  Au  Au196  1  0.22222222  0.77777778  0.41666667  1
  Au  Au197  1  0.22222222  0.77777778  0.75000000  1
  Au  Au198  1  0.55555556  0.11111111  0.08333333  1
  Au  Au199  1  0.55555556  0.11111111  0.41666667  1
  Au  Au200  1  0.55555556  0.11111111  0.75000000  1
  Au  Au201  1  0.55555556  0.44444444  0.08333333  1
  Au  Au202  1  0.55555556  0.44444444  0.41666667  1
  Au  Au203  1  0.55555556  0.44444444  0.75000000  1
  Au  Au204  1  0.55555556  0.77777778  0.08333333  1
  Au  Au205  1  0.55555556  0.77777778  0.41666667  1
  Au  Au206  1  0.55555556  0.77777778  0.75000000  1
  Au  Au207  1  0.88888889  0.11111111  0.08333333  1
  Au  Au208  1  0.88888889  0.11111111  0.41666667  1
  Au  Au209  1  0.88888889  0.11111111  0.75000000  1
  Au  Au210  1  0.88888889  0.44444444  0.08333333  1
  Au  Au211  1  0.88888889  0.44444444  0.41666667  1
  Au  Au212  1  0.88888889  0.44444444  0.75000000  1
  Au  Au213  1  0.88888889  0.77777778  0.08333333  1
  Au  Au214  1  0.88888889  0.77777778  0.41666667  1
  Au  Au215  1  0.88888889  0.77777778  0.75000000  1
  O  O216  1  0.00000000  0.00000000  0.16666667  1
  O  O217  1  0.00000000  0.00000000  0.50000000  1
  O  O218  1  0.00000000  0.00000000  0.83333333  1
  O  O219  1  0.00000000  0.33333333  0.16666667  1
  O  O220  1  0.00000000  0.33333333  0.50000000  1
  O  O221  1  0.00000000  0.33333333  0.83333333  1
  O  O222  1  0.00000000  0.66666667  0.16666667  1
  O  O223  1  0.00000000  0.66666667  0.50000000  1
  O  O224  1  0.00000000  0.66666667  0.83333333  1
  O  O225  1  0.33333333  0.00000000  0.16666667  1
  O  O226  1  0.33333333  0.00000000  0.50000000  1
  O  O227  1  0.33333333  0.00000000  0.83333333  1
  O  O228  1  0.33333333  0.33333333  0.16666667  1
  O  O229  1  0.33333333  0.33333333  0.50000000  1
  O  O230  1  0.33333333  0.33333333  0.83333333  1
  O  O231  1  0.33333333  0.66666667  0.16666667  1
  O  O232  1  0.33333333  0.66666667  0.50000000  1
  O  O233  1  0.33333333  0.66666667  0.83333333  1
  O  O234  1  0.66666667  0.00000000  0.16666667  1
  O  O235  1  0.66666667  0.00000000  0.50000000  1
  O  O236  1  0.66666667  0.00000000  0.83333333  1
  O  O237  1  0.66666667  0.33333333  0.16666667  1
  O  O238  1  0.66666667  0.33333333  0.50000000  1
  O  O239  1  0.66666667  0.33333333  0.83333333  1
  O  O240  1  0.66666667  0.66666667  0.16666667  1
  O  O241  1  0.66666667  0.66666667  0.50000000  1
  O  O242  1  0.66666667  0.66666667  0.83333333  1
  O  O243  1  0.00000000  0.00000000  0.00000000  1
  O  O244  1  0.00000000  0.00000000  0.33333333  1
  O  O245  1  0.00000000  0.00000000  0.66666667  1
  O  O246  1  0.00000000  0.33333333  0.00000000  1
  O  O247  1  0.00000000  0.33333333  0.33333333  1
  O  O248  1  0.00000000  0.33333333  0.66666667  1
  O  O249  1  0.00000000  0.66666667  0.00000000  1
  O  O250  1  0.00000000  0.66666667  0.33333333  1
  O  O251  1  0.00000000  0.66666667  0.66666667  1
  O  O252  1  0.33333333  0.00000000  0.00000000  1
  O  O253  1  0.33333333  0.00000000  0.33333333  1
  O  O254  1  0.33333333  0.00000000  0.66666667  1
  O  O255  1  0.33333333  0.33333333  0.00000000  1
  O  O256  1  0.33333333  0.33333333  0.33333333  1
  O  O257  1  0.33333333  0.33333333  0.66666667  1
  O  O258  1  0.33333333  0.66666667  0.00000000  1
  O  O259  1  0.33333333  0.66666667  0.33333333  1
  O  O260  1  0.33333333  0.66666667  0.66666667  1
  O  O261  1  0.66666667  0.00000000  0.00000000  1
  O  O262  1  0.66666667  0.00000000  0.33333333  1
  O  O263  1  0.66666667  0.00000000  0.66666667  1
  O  O264  1  0.66666667  0.33333333  0.00000000  1
  O  O265  1  0.66666667  0.33333333  0.33333333  1
  O  O266  1  0.66666667  0.33333333  0.66666667  1
  O  O267  1  0.66666667  0.66666667  0.00000000  1
  O  O268  1  0.66666667  0.66666667  0.33333333  1
  O  O269  1  0.66666667  0.66666667  0.66666667  1
