# generated using pymatgen
data_NaIn(GeO3)2
_symmetry_space_group_name_H-M   'P 1'
_cell_length_a   10.35024122
_cell_length_b   9.15211907
_cell_length_c   11.27486817
_cell_angle_alpha   90.00000000
_cell_angle_beta   106.72904501
_cell_angle_gamma   90.00000000
_symmetry_Int_Tables_number   1
_chemical_formula_structural   NaIn(GeO3)2
_chemical_formula_sum   'Na8 In8 Ge16 O48'
_cell_volume   1022.82780897
_cell_formula_units_Z   8
loop_
 _symmetry_equiv_pos_site_id
 _symmetry_equiv_pos_as_xyz
  1  'x, y, z'
loop_
 _atom_site_type_symbol
 _atom_site_label
 _atom_site_symmetry_multiplicity
 _atom_site_fract_x
 _atom_site_fract_y
 _atom_site_fract_z
 _atom_site_occupancy
  Na  Na0  1  0.50000000  -0.19574400  0.37500000  1
  Na  Na1  1  0.50000000  -0.19574400  0.87500000  1
  Na  Na2  1  1.00000000  0.30425600  0.37500000  1
  Na  Na3  1  1.00000000  0.30425600  0.87500000  1
  Na  Na4  1  0.50000000  0.19574400  0.12500000  1
  Na  Na5  1  0.50000000  0.19574400  0.62500000  1
  Na  Na6  1  1.00000000  0.69574400  0.12500000  1
  Na  Na7  1  1.00000000  0.69574400  0.62500000  1
  In  In8  1  0.50000000  0.39911960  0.37500000  1
  In  In9  1  0.50000000  0.39911960  0.87500000  1
  In  In10  1  1.00000000  0.89911960  0.37500000  1
  In  In11  1  1.00000000  0.89911960  0.87500000  1
  In  In12  1  0.50000000  -0.39911960  0.12500000  1
  In  In13  1  0.50000000  -0.39911960  0.62500000  1
  In  In14  1  1.00000000  0.10088040  0.12500000  1
  In  In15  1  1.00000000  0.10088040  0.62500000  1
  Ge  Ge16  1  0.29069434  0.09147600  0.37329671  1
  Ge  Ge17  1  0.29069434  0.09147600  0.87329671  1
  Ge  Ge18  1  0.79069434  0.59147600  0.37329671  1
  Ge  Ge19  1  0.79069434  0.59147600  0.87329671  1
  Ge  Ge20  1  0.70930566  0.09147600  0.37670329  1
  Ge  Ge21  1  0.70930566  0.09147600  0.87670329  1
  Ge  Ge22  1  1.20930566  0.59147600  0.37670329  1
  Ge  Ge23  1  1.20930566  0.59147600  0.87670329  1
  Ge  Ge24  1  0.70930566  -0.09147600  0.12670329  1
  Ge  Ge25  1  0.70930566  -0.09147600  0.62670329  1
  Ge  Ge26  1  1.20930566  0.40852400  0.12670329  1
  Ge  Ge27  1  1.20930566  0.40852400  0.62670329  1
  Ge  Ge28  1  0.29069434  -0.09147600  0.12329671  1
  Ge  Ge29  1  0.29069434  -0.09147600  0.62329671  1
  Ge  Ge30  1  0.79069434  0.40852400  0.12329671  1
  Ge  Ge31  1  0.79069434  0.40852400  0.62329671  1
  O  O32  1  0.35736308  0.26338248  0.42498072  1
  O  O33  1  0.35736308  0.26338248  0.92498072  1
  O  O34  1  0.85736308  0.76338248  0.42498072  1
  O  O35  1  0.85736308  0.76338248  0.92498072  1
  O  O36  1  0.64263692  0.26338248  0.32501928  1
  O  O37  1  0.64263692  0.26338248  0.82501928  1
  O  O38  1  1.14263692  0.76338248  0.32501928  1
  O  O39  1  1.14263692  0.76338248  0.82501928  1
  O  O40  1  0.64263692  -0.26338248  0.07501928  1
  O  O41  1  0.64263692  -0.26338248  0.57501928  1
  O  O42  1  1.14263692  0.23661752  0.07501928  1
  O  O43  1  1.14263692  0.23661752  0.57501928  1
  O  O44  1  0.35736308  -0.26338248  0.17498072  1
  O  O45  1  0.35736308  -0.26338248  0.67498072  1
  O  O46  1  0.85736308  0.23661752  0.17498072  1
  O  O47  1  0.85736308  0.23661752  0.67498072  1
  O  O48  1  0.11083495  0.08566386  0.32221927  1
  O  O49  1  0.11083495  0.08566386  0.82221927  1
  O  O50  1  0.61083495  0.58566386  0.32221927  1
  O  O51  1  0.61083495  0.58566386  0.82221927  1
  O  O52  1  0.88916505  0.08566386  0.42778073  1
  O  O53  1  0.88916505  0.08566386  0.92778073  1
  O  O54  1  1.38916505  0.58566386  0.42778073  1
  O  O55  1  1.38916505  0.58566386  0.92778073  1
  O  O56  1  0.88916505  -0.08566386  0.17778073  1
  O  O57  1  0.88916505  -0.08566386  0.67778073  1
  O  O58  1  1.38916505  0.41433614  0.17778073  1
  O  O59  1  1.38916505  0.41433614  0.67778073  1
  O  O60  1  0.11083495  -0.08566386  0.07221927  1
  O  O61  1  0.11083495  -0.08566386  0.57221927  1
  O  O62  1  0.61083495  0.41433614  0.07221927  1
  O  O63  1  0.61083495  0.41433614  0.57221927  1
  O  O64  1  0.36169611  0.02873784  0.25377076  1
  O  O65  1  0.36169611  0.02873784  0.75377076  1
  O  O66  1  0.86169611  0.52873784  0.25377076  1
  O  O67  1  0.86169611  0.52873784  0.75377076  1
  O  O68  1  0.63830389  0.02873784  0.49622924  1
  O  O69  1  0.63830389  0.02873784  0.99622924  1
  O  O70  1  1.13830389  0.52873784  0.49622924  1
  O  O71  1  1.13830389  0.52873784  0.99622924  1
  O  O72  1  0.63830389  -0.02873784  0.24622924  1
  O  O73  1  0.63830389  -0.02873784  0.74622924  1
  O  O74  1  1.13830389  0.47126216  0.24622924  1
  O  O75  1  1.13830389  0.47126216  0.74622924  1
  O  O76  1  0.36169611  -0.02873784  0.00377076  1
  O  O77  1  0.36169611  -0.02873784  0.50377076  1
  O  O78  1  0.86169611  0.47126216  0.00377076  1
  O  O79  1  0.86169611  0.47126216  0.50377076  1
