# generated using pymatgen
data_As2Pb3O8
_symmetry_space_group_name_H-M   'P 1'
_cell_length_a   22.25701992
_cell_length_b   18.71263902
_cell_length_c   18.61709659
_cell_angle_alpha   90.00000000
_cell_angle_beta   114.49673995
_cell_angle_gamma   90.00000000
_symmetry_Int_Tables_number   1
_chemical_formula_structural   As2Pb3O8
_chemical_formula_sum   'As72 Pb108 O288'
_cell_volume   7055.83108493
_cell_formula_units_Z   36
loop_
 _symmetry_equiv_pos_site_id
 _symmetry_equiv_pos_as_xyz
  1  'x, y, z'
loop_
 _atom_site_type_symbol
 _atom_site_label
 _atom_site_symmetry_multiplicity
 _atom_site_fract_x
 _atom_site_fract_y
 _atom_site_fract_z
 _atom_site_occupancy
  As  As0  1  0.06800487  0.00590795  0.20135072  1
  As  As1  1  0.06800487  0.00590795  0.70135072  1
  As  As2  1  0.06800487  0.33924128  0.20135072  1
  As  As3  1  0.06800487  0.33924128  0.70135072  1
  As  As4  1  0.06800487  0.67257462  0.20135072  1
  As  As5  1  0.06800487  0.67257462  0.70135072  1
  As  As6  1  0.40133820  0.00590795  0.20135072  1
  As  As7  1  0.40133820  0.00590795  0.70135072  1
  As  As8  1  0.40133820  0.33924128  0.20135072  1
  As  As9  1  0.40133820  0.33924128  0.70135072  1
  As  As10  1  0.40133820  0.67257462  0.20135072  1
  As  As11  1  0.40133820  0.67257462  0.70135072  1
  As  As12  1  0.73467153  0.00590795  0.20135072  1
  As  As13  1  0.73467153  0.00590795  0.70135072  1
  As  As14  1  0.73467153  0.33924128  0.20135072  1
  As  As15  1  0.73467153  0.33924128  0.70135072  1
  As  As16  1  0.73467153  0.67257462  0.20135072  1
  As  As17  1  0.73467153  0.67257462  0.70135072  1
  As  As18  1  0.26532847  0.17257462  0.04864928  1
  As  As19  1  0.26532847  0.17257462  0.54864928  1
  As  As20  1  0.26532847  0.50590795  0.04864928  1
  As  As21  1  0.26532847  0.50590795  0.54864928  1
  As  As22  1  0.26532847  0.83924128  0.04864928  1
  As  As23  1  0.26532847  0.83924128  0.54864928  1
  As  As24  1  0.59866180  0.17257462  0.04864928  1
  As  As25  1  0.59866180  0.17257462  0.54864928  1
  As  As26  1  0.59866180  0.50590795  0.04864928  1
  As  As27  1  0.59866180  0.50590795  0.54864928  1
  As  As28  1  0.59866180  0.83924128  0.04864928  1
  As  As29  1  0.59866180  0.83924128  0.54864928  1
  As  As30  1  0.93199513  0.17257462  0.04864928  1
  As  As31  1  0.93199513  0.17257462  0.54864928  1
  As  As32  1  0.93199513  0.50590795  0.04864928  1
  As  As33  1  0.93199513  0.50590795  0.54864928  1
  As  As34  1  0.93199513  0.83924128  0.04864928  1
  As  As35  1  0.93199513  0.83924128  0.54864928  1
  As  As36  1  0.26532847  0.32742538  0.29864928  1
  As  As37  1  0.26532847  0.32742538  0.79864928  1
  As  As38  1  0.26532847  0.66075872  0.29864928  1
  As  As39  1  0.26532847  0.66075872  0.79864928  1
  As  As40  1  0.26532847  0.99409205  0.29864928  1
  As  As41  1  0.26532847  0.99409205  0.79864928  1
  As  As42  1  0.59866180  0.32742538  0.29864928  1
  As  As43  1  0.59866180  0.32742538  0.79864928  1
  As  As44  1  0.59866180  0.66075872  0.29864928  1
  As  As45  1  0.59866180  0.66075872  0.79864928  1
  As  As46  1  0.59866180  0.99409205  0.29864928  1
  As  As47  1  0.59866180  0.99409205  0.79864928  1
  As  As48  1  0.93199513  0.32742538  0.29864928  1
  As  As49  1  0.93199513  0.32742538  0.79864928  1
  As  As50  1  0.93199513  0.66075872  0.29864928  1
  As  As51  1  0.93199513  0.66075872  0.79864928  1
  As  As52  1  0.93199513  0.99409205  0.29864928  1
  As  As53  1  0.93199513  0.99409205  0.79864928  1
  As  As54  1  0.06800487  0.16075872  0.45135072  1
  As  As55  1  0.06800487  0.16075872  0.95135072  1
  As  As56  1  0.06800487  0.49409205  0.45135072  1
  As  As57  1  0.06800487  0.49409205  0.95135072  1
  As  As58  1  0.06800487  0.82742538  0.45135072  1
  As  As59  1  0.06800487  0.82742538  0.95135072  1
  As  As60  1  0.40133820  0.16075872  0.45135072  1
  As  As61  1  0.40133820  0.16075872  0.95135072  1
  As  As62  1  0.40133820  0.49409205  0.45135072  1
  As  As63  1  0.40133820  0.49409205  0.95135072  1
  As  As64  1  0.40133820  0.82742538  0.45135072  1
  As  As65  1  0.40133820  0.82742538  0.95135072  1
  As  As66  1  0.73467153  0.16075872  0.45135072  1
  As  As67  1  0.73467153  0.16075872  0.95135072  1
  As  As68  1  0.73467153  0.49409205  0.45135072  1
  As  As69  1  0.73467153  0.49409205  0.95135072  1
  As  As70  1  0.73467153  0.82742538  0.45135072  1
  As  As71  1  0.73467153  0.82742538  0.95135072  1
  Pb  Pb72  1  0.00000000  0.00000000  0.00000000  1
  Pb  Pb73  1  -0.00000000  0.00000000  0.50000000  1
  Pb  Pb74  1  0.00000000  0.33333333  0.00000000  1
  Pb  Pb75  1  -0.00000000  0.33333333  0.50000000  1
  Pb  Pb76  1  0.00000000  0.66666667  0.00000000  1
  Pb  Pb77  1  -0.00000000  0.66666667  0.50000000  1
  Pb  Pb78  1  0.33333333  0.00000000  0.00000000  1
  Pb  Pb79  1  0.33333333  0.00000000  0.50000000  1
  Pb  Pb80  1  0.33333333  0.33333333  0.00000000  1
  Pb  Pb81  1  0.33333333  0.33333333  0.50000000  1
  Pb  Pb82  1  0.33333333  0.66666667  0.00000000  1
  Pb  Pb83  1  0.33333333  0.66666667  0.50000000  1
  Pb  Pb84  1  0.66666667  0.00000000  0.00000000  1
  Pb  Pb85  1  0.66666667  0.00000000  0.50000000  1
  Pb  Pb86  1  0.66666667  0.33333333  0.00000000  1
  Pb  Pb87  1  0.66666667  0.33333333  0.50000000  1
  Pb  Pb88  1  0.66666667  0.66666667  0.00000000  1
  Pb  Pb89  1  0.66666667  0.66666667  0.50000000  1
  Pb  Pb90  1  -0.00000000  0.16666667  0.25000000  1
  Pb  Pb91  1  -0.00000000  0.16666667  0.75000000  1
  Pb  Pb92  1  -0.00000000  0.50000000  0.25000000  1
  Pb  Pb93  1  -0.00000000  0.50000000  0.75000000  1
  Pb  Pb94  1  -0.00000000  0.83333333  0.25000000  1
  Pb  Pb95  1  -0.00000000  0.83333333  0.75000000  1
  Pb  Pb96  1  0.33333333  0.16666667  0.25000000  1
  Pb  Pb97  1  0.33333333  0.16666667  0.75000000  1
  Pb  Pb98  1  0.33333333  0.50000000  0.25000000  1
  Pb  Pb99  1  0.33333333  0.50000000  0.75000000  1
  Pb  Pb100  1  0.33333333  0.83333333  0.25000000  1
  Pb  Pb101  1  0.33333333  0.83333333  0.75000000  1
  Pb  Pb102  1  0.66666667  0.16666667  0.25000000  1
  Pb  Pb103  1  0.66666667  0.16666667  0.75000000  1
  Pb  Pb104  1  0.66666667  0.50000000  0.25000000  1
  Pb  Pb105  1  0.66666667  0.50000000  0.75000000  1
  Pb  Pb106  1  0.66666667  0.83333333  0.25000000  1
  Pb  Pb107  1  0.66666667  0.83333333  0.75000000  1
  Pb  Pb108  1  0.12835777  0.30282632  0.39547315  1
  Pb  Pb109  1  0.12835777  0.30282632  0.89547315  1
  Pb  Pb110  1  0.12835777  0.63615965  0.39547315  1
  Pb  Pb111  1  0.12835777  0.63615965  0.89547315  1
  Pb  Pb112  1  0.12835777  0.96949299  0.39547315  1
  Pb  Pb113  1  0.12835777  0.96949299  0.89547315  1
  Pb  Pb114  1  0.46169110  0.30282632  0.39547315  1
  Pb  Pb115  1  0.46169110  0.30282632  0.89547315  1
  Pb  Pb116  1  0.46169110  0.63615965  0.39547315  1
  Pb  Pb117  1  0.46169110  0.63615965  0.89547315  1
  Pb  Pb118  1  0.46169110  0.96949299  0.39547315  1
  Pb  Pb119  1  0.46169110  0.96949299  0.89547315  1
  Pb  Pb120  1  0.79502444  0.30282632  0.39547315  1
  Pb  Pb121  1  0.79502444  0.30282632  0.89547315  1
  Pb  Pb122  1  0.79502444  0.63615965  0.39547315  1
  Pb  Pb123  1  0.79502444  0.63615965  0.89547315  1
  Pb  Pb124  1  0.79502444  0.96949299  0.39547315  1
  Pb  Pb125  1  0.79502444  0.96949299  0.89547315  1
  Pb  Pb126  1  0.20497556  0.13615965  0.35452685  1
  Pb  Pb127  1  0.20497556  0.13615965  0.85452685  1
  Pb  Pb128  1  0.20497556  0.46949299  0.35452685  1
  Pb  Pb129  1  0.20497556  0.46949299  0.85452685  1
  Pb  Pb130  1  0.20497556  0.80282632  0.35452685  1
  Pb  Pb131  1  0.20497556  0.80282632  0.85452685  1
  Pb  Pb132  1  0.53830890  0.13615965  0.35452685  1
  Pb  Pb133  1  0.53830890  0.13615965  0.85452685  1
  Pb  Pb134  1  0.53830890  0.46949299  0.35452685  1
  Pb  Pb135  1  0.53830890  0.46949299  0.85452685  1
  Pb  Pb136  1  0.53830890  0.80282632  0.35452685  1
  Pb  Pb137  1  0.53830890  0.80282632  0.85452685  1
  Pb  Pb138  1  0.87164223  0.13615965  0.35452685  1
  Pb  Pb139  1  0.87164223  0.13615965  0.85452685  1
  Pb  Pb140  1  0.87164223  0.46949299  0.35452685  1
  Pb  Pb141  1  0.87164223  0.46949299  0.85452685  1
  Pb  Pb142  1  0.87164223  0.80282632  0.35452685  1
  Pb  Pb143  1  0.87164223  0.80282632  0.85452685  1
  Pb  Pb144  1  0.20497556  0.03050701  0.10452685  1
  Pb  Pb145  1  0.20497556  0.03050701  0.60452685  1
  Pb  Pb146  1  0.20497556  0.36384035  0.10452685  1
  Pb  Pb147  1  0.20497556  0.36384035  0.60452685  1
  Pb  Pb148  1  0.20497556  0.69717368  0.10452685  1
  Pb  Pb149  1  0.20497556  0.69717368  0.60452685  1
  Pb  Pb150  1  0.53830890  0.03050701  0.10452685  1
  Pb  Pb151  1  0.53830890  0.03050701  0.60452685  1
  Pb  Pb152  1  0.53830890  0.36384035  0.10452685  1
  Pb  Pb153  1  0.53830890  0.36384035  0.60452685  1
  Pb  Pb154  1  0.53830890  0.69717368  0.10452685  1
  Pb  Pb155  1  0.53830890  0.69717368  0.60452685  1
  Pb  Pb156  1  0.87164223  0.03050701  0.10452685  1
  Pb  Pb157  1  0.87164223  0.03050701  0.60452685  1
  Pb  Pb158  1  0.87164223  0.36384035  0.10452685  1
  Pb  Pb159  1  0.87164223  0.36384035  0.60452685  1
  Pb  Pb160  1  0.87164223  0.69717368  0.10452685  1
  Pb  Pb161  1  0.87164223  0.69717368  0.60452685  1
  Pb  Pb162  1  0.12835777  0.19717368  0.14547315  1
  Pb  Pb163  1  0.12835777  0.19717368  0.64547315  1
  Pb  Pb164  1  0.12835777  0.53050701  0.14547315  1
  Pb  Pb165  1  0.12835777  0.53050701  0.64547315  1
  Pb  Pb166  1  0.12835777  0.86384035  0.14547315  1
  Pb  Pb167  1  0.12835777  0.86384035  0.64547315  1
  Pb  Pb168  1  0.46169110  0.19717368  0.14547315  1
  Pb  Pb169  1  0.46169110  0.19717368  0.64547315  1
  Pb  Pb170  1  0.46169110  0.53050701  0.14547315  1
  Pb  Pb171  1  0.46169110  0.53050701  0.64547315  1
  Pb  Pb172  1  0.46169110  0.86384035  0.14547315  1
  Pb  Pb173  1  0.46169110  0.86384035  0.64547315  1
  Pb  Pb174  1  0.79502444  0.19717368  0.14547315  1
  Pb  Pb175  1  0.79502444  0.19717368  0.64547315  1
  Pb  Pb176  1  0.79502444  0.53050701  0.14547315  1
  Pb  Pb177  1  0.79502444  0.53050701  0.64547315  1
  Pb  Pb178  1  0.79502444  0.86384035  0.14547315  1
  Pb  Pb179  1  0.79502444  0.86384035  0.64547315  1
  O  O180  1  0.09343529  0.07915498  0.26119792  1
  O  O181  1  0.09343529  0.07915498  0.76119792  1
  O  O182  1  0.09343529  0.41248832  0.26119792  1
  O  O183  1  0.09343529  0.41248832  0.76119792  1
  O  O184  1  0.09343529  0.74582165  0.26119792  1
  O  O185  1  0.09343529  0.74582165  0.76119792  1
  O  O186  1  0.42676862  0.07915498  0.26119792  1
  O  O187  1  0.42676862  0.07915498  0.76119792  1
  O  O188  1  0.42676862  0.41248832  0.26119792  1
  O  O189  1  0.42676862  0.41248832  0.76119792  1
  O  O190  1  0.42676862  0.74582165  0.26119792  1
  O  O191  1  0.42676862  0.74582165  0.76119792  1
  O  O192  1  0.76010196  0.07915498  0.26119792  1
  O  O193  1  0.76010196  0.07915498  0.76119792  1
  O  O194  1  0.76010196  0.41248832  0.26119792  1
  O  O195  1  0.76010196  0.41248832  0.76119792  1
  O  O196  1  0.76010196  0.74582165  0.26119792  1
  O  O197  1  0.76010196  0.74582165  0.76119792  1
  O  O198  1  0.23989804  0.24582165  0.48880208  1
  O  O199  1  0.23989804  0.24582165  0.98880208  1
  O  O200  1  0.23989804  0.57915498  0.48880208  1
  O  O201  1  0.23989804  0.57915498  0.98880208  1
  O  O202  1  0.23989804  0.91248832  0.48880208  1
  O  O203  1  0.23989804  0.91248832  0.98880208  1
  O  O204  1  0.57323138  0.24582165  0.48880208  1
  O  O205  1  0.57323138  0.24582165  0.98880208  1
  O  O206  1  0.57323138  0.57915498  0.48880208  1
  O  O207  1  0.57323138  0.57915498  0.98880208  1
  O  O208  1  0.57323138  0.91248832  0.48880208  1
  O  O209  1  0.57323138  0.91248832  0.98880208  1
  O  O210  1  0.90656471  0.24582165  0.48880208  1
  O  O211  1  0.90656471  0.24582165  0.98880208  1
  O  O212  1  0.90656471  0.57915498  0.48880208  1
  O  O213  1  0.90656471  0.57915498  0.98880208  1
  O  O214  1  0.90656471  0.91248832  0.48880208  1
  O  O215  1  0.90656471  0.91248832  0.98880208  1
  O  O216  1  0.23989804  0.25417835  0.23880208  1
  O  O217  1  0.23989804  0.25417835  0.73880208  1
  O  O218  1  0.23989804  0.58751168  0.23880208  1
  O  O219  1  0.23989804  0.58751168  0.73880208  1
  O  O220  1  0.23989804  0.92084502  0.23880208  1
  O  O221  1  0.23989804  0.92084502  0.73880208  1
  O  O222  1  0.57323138  0.25417835  0.23880208  1
  O  O223  1  0.57323138  0.25417835  0.73880208  1
  O  O224  1  0.57323138  0.58751168  0.23880208  1
  O  O225  1  0.57323138  0.58751168  0.73880208  1
  O  O226  1  0.57323138  0.92084502  0.23880208  1
  O  O227  1  0.57323138  0.92084502  0.73880208  1
  O  O228  1  0.90656471  0.25417835  0.23880208  1
  O  O229  1  0.90656471  0.25417835  0.73880208  1
  O  O230  1  0.90656471  0.58751168  0.23880208  1
  O  O231  1  0.90656471  0.58751168  0.73880208  1
  O  O232  1  0.90656471  0.92084502  0.23880208  1
  O  O233  1  0.90656471  0.92084502  0.73880208  1
  O  O234  1  0.09343529  0.08751168  0.01119792  1
  O  O235  1  0.09343529  0.08751168  0.51119792  1
  O  O236  1  0.09343529  0.42084502  0.01119792  1
  O  O237  1  0.09343529  0.42084502  0.51119792  1
  O  O238  1  0.09343529  0.75417835  0.01119792  1
  O  O239  1  0.09343529  0.75417835  0.51119792  1
  O  O240  1  0.42676862  0.08751168  0.01119792  1
  O  O241  1  0.42676862  0.08751168  0.51119792  1
  O  O242  1  0.42676862  0.42084502  0.01119792  1
  O  O243  1  0.42676862  0.42084502  0.51119792  1
  O  O244  1  0.42676862  0.75417835  0.01119792  1
  O  O245  1  0.42676862  0.75417835  0.51119792  1
  O  O246  1  0.76010196  0.08751168  0.01119792  1
  O  O247  1  0.76010196  0.08751168  0.51119792  1
  O  O248  1  0.76010196  0.42084502  0.01119792  1
  O  O249  1  0.76010196  0.42084502  0.51119792  1
  O  O250  1  0.76010196  0.75417835  0.01119792  1
  O  O251  1  0.76010196  0.75417835  0.51119792  1
  O  O252  1  0.08616977  0.23557331  0.01178940  1
  O  O253  1  0.08616977  0.23557331  0.51178940  1
  O  O254  1  0.08616977  0.56890664  0.01178940  1
  O  O255  1  0.08616977  0.56890664  0.51178940  1
  O  O256  1  0.08616977  0.90223998  0.01178940  1
  O  O257  1  0.08616977  0.90223998  0.51178940  1
  O  O258  1  0.41950310  0.23557331  0.01178940  1
  O  O259  1  0.41950310  0.23557331  0.51178940  1
  O  O260  1  0.41950310  0.56890664  0.01178940  1
  O  O261  1  0.41950310  0.56890664  0.51178940  1
  O  O262  1  0.41950310  0.90223998  0.01178940  1
  O  O263  1  0.41950310  0.90223998  0.51178940  1
  O  O264  1  0.75283643  0.23557331  0.01178940  1
  O  O265  1  0.75283643  0.23557331  0.51178940  1
  O  O266  1  0.75283643  0.56890664  0.01178940  1
  O  O267  1  0.75283643  0.56890664  0.51178940  1
  O  O268  1  0.75283643  0.90223998  0.01178940  1
  O  O269  1  0.75283643  0.90223998  0.51178940  1
  O  O270  1  0.24716357  0.06890664  0.23821060  1
  O  O271  1  0.24716357  0.06890664  0.73821060  1
  O  O272  1  0.24716357  0.40223998  0.23821060  1
  O  O273  1  0.24716357  0.40223998  0.73821060  1
  O  O274  1  0.24716357  0.73557331  0.23821060  1
  O  O275  1  0.24716357  0.73557331  0.73821060  1
  O  O276  1  0.58049690  0.06890664  0.23821060  1
  O  O277  1  0.58049690  0.06890664  0.73821060  1
  O  O278  1  0.58049690  0.40223998  0.23821060  1
  O  O279  1  0.58049690  0.40223998  0.73821060  1
  O  O280  1  0.58049690  0.73557331  0.23821060  1
  O  O281  1  0.58049690  0.73557331  0.73821060  1
  O  O282  1  0.91383023  0.06890664  0.23821060  1
  O  O283  1  0.91383023  0.06890664  0.73821060  1
  O  O284  1  0.91383023  0.40223998  0.23821060  1
  O  O285  1  0.91383023  0.40223998  0.73821060  1
  O  O286  1  0.91383023  0.73557331  0.23821060  1
  O  O287  1  0.91383023  0.73557331  0.73821060  1
  O  O288  1  0.24716357  0.09776002  0.48821060  1
  O  O289  1  0.24716357  0.09776002  0.98821060  1
  O  O290  1  0.24716357  0.43109336  0.48821060  1
  O  O291  1  0.24716357  0.43109336  0.98821060  1
  O  O292  1  0.24716357  0.76442669  0.48821060  1
  O  O293  1  0.24716357  0.76442669  0.98821060  1
  O  O294  1  0.58049690  0.09776002  0.48821060  1
  O  O295  1  0.58049690  0.09776002  0.98821060  1
  O  O296  1  0.58049690  0.43109336  0.48821060  1
  O  O297  1  0.58049690  0.43109336  0.98821060  1
  O  O298  1  0.58049690  0.76442669  0.48821060  1
  O  O299  1  0.58049690  0.76442669  0.98821060  1
  O  O300  1  0.91383023  0.09776002  0.48821060  1
  O  O301  1  0.91383023  0.09776002  0.98821060  1
  O  O302  1  0.91383023  0.43109336  0.48821060  1
  O  O303  1  0.91383023  0.43109336  0.98821060  1
  O  O304  1  0.91383023  0.76442669  0.48821060  1
  O  O305  1  0.91383023  0.76442669  0.98821060  1
  O  O306  1  0.08616977  0.26442669  0.26178940  1
  O  O307  1  0.08616977  0.26442669  0.76178940  1
  O  O308  1  0.08616977  0.59776002  0.26178940  1
  O  O309  1  0.08616977  0.59776002  0.76178940  1
  O  O310  1  0.08616977  0.93109336  0.26178940  1
  O  O311  1  0.08616977  0.93109336  0.76178940  1
  O  O312  1  0.41950310  0.26442669  0.26178940  1
  O  O313  1  0.41950310  0.26442669  0.76178940  1
  O  O314  1  0.41950310  0.59776002  0.26178940  1
  O  O315  1  0.41950310  0.59776002  0.76178940  1
  O  O316  1  0.41950310  0.93109336  0.26178940  1
  O  O317  1  0.41950310  0.93109336  0.76178940  1
  O  O318  1  0.75283643  0.26442669  0.26178940  1
  O  O319  1  0.75283643  0.26442669  0.76178940  1
  O  O320  1  0.75283643  0.59776002  0.26178940  1
  O  O321  1  0.75283643  0.59776002  0.76178940  1
  O  O322  1  0.75283643  0.93109336  0.26178940  1
  O  O323  1  0.75283643  0.93109336  0.76178940  1
  O  O324  1  0.22465380  0.00921449  0.35906261  1
  O  O325  1  0.22465380  0.00921449  0.85906261  1
  O  O326  1  0.22465380  0.34254783  0.35906261  1
  O  O327  1  0.22465380  0.34254783  0.85906261  1
  O  O328  1  0.22465380  0.67588116  0.35906261  1
  O  O329  1  0.22465380  0.67588116  0.85906261  1
  O  O330  1  0.55798713  0.00921449  0.35906261  1
  O  O331  1  0.55798713  0.00921449  0.85906261  1
  O  O332  1  0.55798713  0.34254783  0.35906261  1
  O  O333  1  0.55798713  0.34254783  0.85906261  1
  O  O334  1  0.55798713  0.67588116  0.35906261  1
  O  O335  1  0.55798713  0.67588116  0.85906261  1
  O  O336  1  0.89132047  0.00921449  0.35906261  1
  O  O337  1  0.89132047  0.00921449  0.85906261  1
  O  O338  1  0.89132047  0.34254783  0.35906261  1
  O  O339  1  0.89132047  0.34254783  0.85906261  1
  O  O340  1  0.89132047  0.67588116  0.35906261  1
  O  O341  1  0.89132047  0.67588116  0.85906261  1
  O  O342  1  0.10867953  0.17588116  0.39093739  1
  O  O343  1  0.10867953  0.17588116  0.89093739  1
  O  O344  1  0.10867953  0.50921449  0.39093739  1
  O  O345  1  0.10867953  0.50921449  0.89093739  1
  O  O346  1  0.10867953  0.84254783  0.39093739  1
  O  O347  1  0.10867953  0.84254783  0.89093739  1
  O  O348  1  0.44201287  0.17588116  0.39093739  1
  O  O349  1  0.44201287  0.17588116  0.89093739  1
  O  O350  1  0.44201287  0.50921449  0.39093739  1
  O  O351  1  0.44201287  0.50921449  0.89093739  1
  O  O352  1  0.44201287  0.84254783  0.39093739  1
  O  O353  1  0.44201287  0.84254783  0.89093739  1
  O  O354  1  0.77534620  0.17588116  0.39093739  1
  O  O355  1  0.77534620  0.17588116  0.89093739  1
  O  O356  1  0.77534620  0.50921449  0.39093739  1
  O  O357  1  0.77534620  0.50921449  0.89093739  1
  O  O358  1  0.77534620  0.84254783  0.39093739  1
  O  O359  1  0.77534620  0.84254783  0.89093739  1
  O  O360  1  0.10867953  0.32411884  0.14093739  1
  O  O361  1  0.10867953  0.32411884  0.64093739  1
  O  O362  1  0.10867953  0.65745217  0.14093739  1
  O  O363  1  0.10867953  0.65745217  0.64093739  1
  O  O364  1  0.10867953  0.99078551  0.14093739  1
  O  O365  1  0.10867953  0.99078551  0.64093739  1
  O  O366  1  0.44201287  0.32411884  0.14093739  1
  O  O367  1  0.44201287  0.32411884  0.64093739  1
  O  O368  1  0.44201287  0.65745217  0.14093739  1
  O  O369  1  0.44201287  0.65745217  0.64093739  1
  O  O370  1  0.44201287  0.99078551  0.14093739  1
  O  O371  1  0.44201287  0.99078551  0.64093739  1
  O  O372  1  0.77534620  0.32411884  0.14093739  1
  O  O373  1  0.77534620  0.32411884  0.64093739  1
  O  O374  1  0.77534620  0.65745217  0.14093739  1
  O  O375  1  0.77534620  0.65745217  0.64093739  1
  O  O376  1  0.77534620  0.99078551  0.14093739  1
  O  O377  1  0.77534620  0.99078551  0.64093739  1
  O  O378  1  0.22465380  0.15745217  0.10906261  1
  O  O379  1  0.22465380  0.15745217  0.60906261  1
  O  O380  1  0.22465380  0.49078551  0.10906261  1
  O  O381  1  0.22465380  0.49078551  0.60906261  1
  O  O382  1  0.22465380  0.82411884  0.10906261  1
  O  O383  1  0.22465380  0.82411884  0.60906261  1
  O  O384  1  0.55798713  0.15745217  0.10906261  1
  O  O385  1  0.55798713  0.15745217  0.60906261  1
  O  O386  1  0.55798713  0.49078551  0.10906261  1
  O  O387  1  0.55798713  0.49078551  0.60906261  1
  O  O388  1  0.55798713  0.82411884  0.10906261  1
  O  O389  1  0.55798713  0.82411884  0.60906261  1
  O  O390  1  0.89132047  0.15745217  0.10906261  1
  O  O391  1  0.89132047  0.15745217  0.60906261  1
  O  O392  1  0.89132047  0.49078551  0.10906261  1
  O  O393  1  0.89132047  0.49078551  0.60906261  1
  O  O394  1  0.89132047  0.82411884  0.10906261  1
  O  O395  1  0.89132047  0.82411884  0.60906261  1
  O  O396  1  0.32046698  0.01203552  0.13718644  1
  O  O397  1  0.32046698  0.01203552  0.63718644  1
  O  O398  1  0.32046698  0.34536885  0.13718644  1
  O  O399  1  0.32046698  0.34536885  0.63718644  1
  O  O400  1  0.32046698  0.67870218  0.13718644  1
  O  O401  1  0.32046698  0.67870218  0.63718644  1
  O  O402  1  0.65380031  0.01203552  0.13718644  1
  O  O403  1  0.65380031  0.01203552  0.63718644  1
  O  O404  1  0.65380031  0.34536885  0.13718644  1
  O  O405  1  0.65380031  0.34536885  0.63718644  1
  O  O406  1  0.65380031  0.67870218  0.13718644  1
  O  O407  1  0.65380031  0.67870218  0.63718644  1
  O  O408  1  0.98713364  0.01203552  0.13718644  1
  O  O409  1  0.98713364  0.01203552  0.63718644  1
  O  O410  1  0.98713364  0.34536885  0.13718644  1
  O  O411  1  0.98713364  0.34536885  0.63718644  1
  O  O412  1  0.98713364  0.67870218  0.13718644  1
  O  O413  1  0.98713364  0.67870218  0.63718644  1
  O  O414  1  0.01286636  0.17870218  0.11281356  1
  O  O415  1  0.01286636  0.17870218  0.61281356  1
  O  O416  1  0.01286636  0.51203552  0.11281356  1
  O  O417  1  0.01286636  0.51203552  0.61281356  1
  O  O418  1  0.01286636  0.84536885  0.11281356  1
  O  O419  1  0.01286636  0.84536885  0.61281356  1
  O  O420  1  0.34619969  0.17870218  0.11281356  1
  O  O421  1  0.34619969  0.17870218  0.61281356  1
  O  O422  1  0.34619969  0.51203552  0.11281356  1
  O  O423  1  0.34619969  0.51203552  0.61281356  1
  O  O424  1  0.34619969  0.84536885  0.11281356  1
  O  O425  1  0.34619969  0.84536885  0.61281356  1
  O  O426  1  0.67953302  0.17870218  0.11281356  1
  O  O427  1  0.67953302  0.17870218  0.61281356  1
  O  O428  1  0.67953302  0.51203552  0.11281356  1
  O  O429  1  0.67953302  0.51203552  0.61281356  1
  O  O430  1  0.67953302  0.84536885  0.11281356  1
  O  O431  1  0.67953302  0.84536885  0.61281356  1
  O  O432  1  0.01286636  0.32129782  0.36281356  1
  O  O433  1  0.01286636  0.32129782  0.86281356  1
  O  O434  1  0.01286636  0.65463115  0.36281356  1
  O  O435  1  0.01286636  0.65463115  0.86281356  1
  O  O436  1  0.01286636  0.98796448  0.36281356  1
  O  O437  1  0.01286636  0.98796448  0.86281356  1
  O  O438  1  0.34619969  0.32129782  0.36281356  1
  O  O439  1  0.34619969  0.32129782  0.86281356  1
  O  O440  1  0.34619969  0.65463115  0.36281356  1
  O  O441  1  0.34619969  0.65463115  0.86281356  1
  O  O442  1  0.34619969  0.98796448  0.36281356  1
  O  O443  1  0.34619969  0.98796448  0.86281356  1
  O  O444  1  0.67953302  0.32129782  0.36281356  1
  O  O445  1  0.67953302  0.32129782  0.86281356  1
  O  O446  1  0.67953302  0.65463115  0.36281356  1
  O  O447  1  0.67953302  0.65463115  0.86281356  1
  O  O448  1  0.67953302  0.98796448  0.36281356  1
  O  O449  1  0.67953302  0.98796448  0.86281356  1
  O  O450  1  0.32046698  0.15463115  0.38718644  1
  O  O451  1  0.32046698  0.15463115  0.88718644  1
  O  O452  1  0.32046698  0.48796448  0.38718644  1
  O  O453  1  0.32046698  0.48796448  0.88718644  1
  O  O454  1  0.32046698  0.82129782  0.38718644  1
  O  O455  1  0.32046698  0.82129782  0.88718644  1
  O  O456  1  0.65380031  0.15463115  0.38718644  1
  O  O457  1  0.65380031  0.15463115  0.88718644  1
  O  O458  1  0.65380031  0.48796448  0.38718644  1
  O  O459  1  0.65380031  0.48796448  0.88718644  1
  O  O460  1  0.65380031  0.82129782  0.38718644  1
  O  O461  1  0.65380031  0.82129782  0.88718644  1
  O  O462  1  0.98713364  0.15463115  0.38718644  1
  O  O463  1  0.98713364  0.15463115  0.88718644  1
  O  O464  1  0.98713364  0.48796448  0.38718644  1
  O  O465  1  0.98713364  0.48796448  0.88718644  1
  O  O466  1  0.98713364  0.82129782  0.38718644  1
  O  O467  1  0.98713364  0.82129782  0.88718644  1
