# generated using pymatgen
data_SrZnO2
_symmetry_space_group_name_H-M   'P 1'
_cell_length_a   11.47595951
_cell_length_b   9.91172841
_cell_length_c   11.24527122
_cell_angle_alpha   90.00000000
_cell_angle_beta   90.00000000
_cell_angle_gamma   90.00000000
_symmetry_Int_Tables_number   1
_chemical_formula_structural   SrZnO2
_chemical_formula_sum   'Sr24 Zn24 O48'
_cell_volume   1279.11129832
_cell_formula_units_Z   24
loop_
 _symmetry_equiv_pos_site_id
 _symmetry_equiv_pos_as_xyz
  1  'x, y, z'
loop_
 _atom_site_type_symbol
 _atom_site_label
 _atom_site_symmetry_multiplicity
 _atom_site_fract_x
 _atom_site_fract_y
 _atom_site_fract_z
 _atom_site_occupancy
  Sr  Sr0  1  0.14649254  0.08333333  0.37131870  1
  Sr  Sr1  1  0.14649254  0.41666667  0.37131870  1
  Sr  Sr2  1  0.14649254  0.75000000  0.37131870  1
  Sr  Sr3  1  0.64649254  0.08333333  0.37131870  1
  Sr  Sr4  1  0.64649254  0.41666667  0.37131870  1
  Sr  Sr5  1  0.64649254  0.75000000  0.37131870  1
  Sr  Sr6  1  0.35350746  0.25000000  0.62868130  1
  Sr  Sr7  1  0.35350746  0.58333333  0.62868130  1
  Sr  Sr8  1  0.35350746  0.91666667  0.62868130  1
  Sr  Sr9  1  0.85350746  0.25000000  0.62868130  1
  Sr  Sr10  1  0.85350746  0.58333333  0.62868130  1
  Sr  Sr11  1  0.85350746  0.91666667  0.62868130  1
  Sr  Sr12  1  0.39649254  0.08333333  0.12868130  1
  Sr  Sr13  1  0.39649254  0.41666667  0.12868130  1
  Sr  Sr14  1  0.39649254  0.75000000  0.12868130  1
  Sr  Sr15  1  0.89649254  0.08333333  0.12868130  1
  Sr  Sr16  1  0.89649254  0.41666667  0.12868130  1
  Sr  Sr17  1  0.89649254  0.75000000  0.12868130  1
  Sr  Sr18  1  0.10350746  0.25000000  0.87131870  1
  Sr  Sr19  1  0.10350746  0.58333333  0.87131870  1
  Sr  Sr20  1  0.10350746  0.91666667  0.87131870  1
  Sr  Sr21  1  0.60350746  0.25000000  0.87131870  1
  Sr  Sr22  1  0.60350746  0.58333333  0.87131870  1
  Sr  Sr23  1  0.60350746  0.91666667  0.87131870  1
  Zn  Zn24  1  0.38995201  0.25000000  0.36524040  1
  Zn  Zn25  1  0.38995201  0.58333333  0.36524040  1
  Zn  Zn26  1  0.38995201  0.91666667  0.36524040  1
  Zn  Zn27  1  0.88995201  0.25000000  0.36524040  1
  Zn  Zn28  1  0.88995201  0.58333333  0.36524040  1
  Zn  Zn29  1  0.88995201  0.91666667  0.36524040  1
  Zn  Zn30  1  0.13995201  0.25000000  0.13475960  1
  Zn  Zn31  1  0.13995201  0.58333333  0.13475960  1
  Zn  Zn32  1  0.13995201  0.91666667  0.13475960  1
  Zn  Zn33  1  0.63995201  0.25000000  0.13475960  1
  Zn  Zn34  1  0.63995201  0.58333333  0.13475960  1
  Zn  Zn35  1  0.63995201  0.91666667  0.13475960  1
  Zn  Zn36  1  0.11004799  0.08333333  0.63475960  1
  Zn  Zn37  1  0.11004799  0.41666667  0.63475960  1
  Zn  Zn38  1  0.11004799  0.75000000  0.63475960  1
  Zn  Zn39  1  0.61004799  0.08333333  0.63475960  1
  Zn  Zn40  1  0.61004799  0.41666667  0.63475960  1
  Zn  Zn41  1  0.61004799  0.75000000  0.63475960  1
  Zn  Zn42  1  0.36004799  0.08333333  0.86524040  1
  Zn  Zn43  1  0.36004799  0.41666667  0.86524040  1
  Zn  Zn44  1  0.36004799  0.75000000  0.86524040  1
  Zn  Zn45  1  0.86004799  0.08333333  0.86524040  1
  Zn  Zn46  1  0.86004799  0.41666667  0.86524040  1
  Zn  Zn47  1  0.86004799  0.75000000  0.86524040  1
  O  O48  1  0.11969488  0.08333333  0.04490841  1
  O  O49  1  0.11969488  0.41666667  0.04490841  1
  O  O50  1  0.11969488  0.75000000  0.04490841  1
  O  O51  1  0.61969488  0.08333333  0.04490841  1
  O  O52  1  0.61969488  0.41666667  0.04490841  1
  O  O53  1  0.61969488  0.75000000  0.04490841  1
  O  O54  1  0.38030512  0.25000000  0.95509159  1
  O  O55  1  0.38030512  0.58333333  0.95509159  1
  O  O56  1  0.38030512  0.91666667  0.95509159  1
  O  O57  1  0.88030512  0.25000000  0.95509159  1
  O  O58  1  0.88030512  0.58333333  0.95509159  1
  O  O59  1  0.88030512  0.91666667  0.95509159  1
  O  O60  1  0.36969488  0.08333333  0.45509159  1
  O  O61  1  0.36969488  0.41666667  0.45509159  1
  O  O62  1  0.36969488  0.75000000  0.45509159  1
  O  O63  1  0.86969488  0.08333333  0.45509159  1
  O  O64  1  0.86969488  0.41666667  0.45509159  1
  O  O65  1  0.86969488  0.75000000  0.45509159  1
  O  O66  1  0.13030512  0.25000000  0.54490841  1
  O  O67  1  0.13030512  0.58333333  0.54490841  1
  O  O68  1  0.13030512  0.91666667  0.54490841  1
  O  O69  1  0.63030512  0.25000000  0.54490841  1
  O  O70  1  0.63030512  0.58333333  0.54490841  1
  O  O71  1  0.63030512  0.91666667  0.54490841  1
  O  O72  1  0.23179012  0.08333333  0.75704802  1
  O  O73  1  0.23179012  0.41666667  0.75704802  1
  O  O74  1  0.23179012  0.75000000  0.75704802  1
  O  O75  1  0.73179012  0.08333333  0.75704802  1
  O  O76  1  0.73179012  0.41666667  0.75704802  1
  O  O77  1  0.73179012  0.75000000  0.75704802  1
  O  O78  1  0.01820988  0.25000000  0.25704802  1
  O  O79  1  0.01820988  0.58333333  0.25704802  1
  O  O80  1  0.01820988  0.91666667  0.25704802  1
  O  O81  1  0.51820988  0.25000000  0.25704802  1
  O  O82  1  0.51820988  0.58333333  0.25704802  1
  O  O83  1  0.51820988  0.91666667  0.25704802  1
  O  O84  1  0.48179012  0.08333333  0.74295198  1
  O  O85  1  0.48179012  0.41666667  0.74295198  1
  O  O86  1  0.48179012  0.75000000  0.74295198  1
  O  O87  1  0.98179012  0.08333333  0.74295198  1
  O  O88  1  0.98179012  0.41666667  0.74295198  1
  O  O89  1  0.98179012  0.75000000  0.74295198  1
  O  O90  1  0.26820988  0.25000000  0.24295198  1
  O  O91  1  0.26820988  0.58333333  0.24295198  1
  O  O92  1  0.26820988  0.91666667  0.24295198  1
  O  O93  1  0.76820988  0.25000000  0.24295198  1
  O  O94  1  0.76820988  0.58333333  0.24295198  1
  O  O95  1  0.76820988  0.91666667  0.24295198  1
