# generated using pymatgen
data_Ba4Nb2WO12
_symmetry_space_group_name_H-M   'P 1'
_cell_length_a   11.56065818
_cell_length_b   17.34098728
_cell_length_c   28.09511540
_cell_angle_alpha   90.00000000
_cell_angle_beta   90.00000000
_cell_angle_gamma   120.00000000
_symmetry_Int_Tables_number   1
_chemical_formula_structural   Ba4Nb2WO12
_chemical_formula_sum   'Ba72 Nb36 W18 O216'
_cell_volume   4877.73084523
_cell_formula_units_Z   18
loop_
 _symmetry_equiv_pos_site_id
 _symmetry_equiv_pos_as_xyz
  1  'x, y, z'
loop_
 _atom_site_type_symbol
 _atom_site_label
 _atom_site_symmetry_multiplicity
 _atom_site_fract_x
 _atom_site_fract_y
 _atom_site_fract_z
 _atom_site_occupancy
  Ba  Ba0  1  -0.00000000  -0.00000000  0.29000690  1
  Ba  Ba1  1  -0.00000000  0.33333333  0.29000690  1
  Ba  Ba2  1  -0.00000000  0.66666667  0.29000690  1
  Ba  Ba3  1  0.50000000  -0.00000000  0.29000690  1
  Ba  Ba4  1  0.50000000  0.33333333  0.29000690  1
  Ba  Ba5  1  0.50000000  0.66666667  0.29000690  1
  Ba  Ba6  1  0.33333333  0.11111111  0.62334023  1
  Ba  Ba7  1  0.33333333  0.44444444  0.62334023  1
  Ba  Ba8  1  0.33333333  0.77777778  0.62334023  1
  Ba  Ba9  1  0.83333333  0.11111111  0.62334023  1
  Ba  Ba10  1  0.83333333  0.44444444  0.62334023  1
  Ba  Ba11  1  0.83333333  0.77777778  0.62334023  1
  Ba  Ba12  1  0.16666667  0.22222222  0.95667357  1
  Ba  Ba13  1  0.16666667  0.55555556  0.95667357  1
  Ba  Ba14  1  0.16666667  0.88888889  0.95667357  1
  Ba  Ba15  1  0.66666667  0.22222222  0.95667357  1
  Ba  Ba16  1  0.66666667  0.55555556  0.95667357  1
  Ba  Ba17  1  0.66666667  0.88888889  0.95667357  1
  Ba  Ba18  1  0.00000000  -0.00000000  0.71146025  1
  Ba  Ba19  1  -0.00000000  0.33333333  0.71146025  1
  Ba  Ba20  1  -0.00000000  0.66666667  0.71146025  1
  Ba  Ba21  1  0.50000000  -0.00000000  0.71146025  1
  Ba  Ba22  1  0.50000000  0.33333333  0.71146025  1
  Ba  Ba23  1  0.50000000  0.66666667  0.71146025  1
  Ba  Ba24  1  0.33333333  0.11111111  1.04479358  1
  Ba  Ba25  1  0.33333333  0.44444444  1.04479358  1
  Ba  Ba26  1  0.33333333  0.77777778  1.04479358  1
  Ba  Ba27  1  0.83333333  0.11111111  1.04479358  1
  Ba  Ba28  1  0.83333333  0.44444444  1.04479358  1
  Ba  Ba29  1  0.83333333  0.77777778  1.04479358  1
  Ba  Ba30  1  0.16666667  0.22222222  1.37812691  1
  Ba  Ba31  1  0.16666667  0.55555556  1.37812691  1
  Ba  Ba32  1  0.16666667  0.88888889  1.37812691  1
  Ba  Ba33  1  0.66666667  0.22222222  1.37812691  1
  Ba  Ba34  1  0.66666667  0.55555556  1.37812691  1
  Ba  Ba35  1  0.66666667  0.88888889  1.37812691  1
  Ba  Ba36  1  -0.00000000  -0.00000000  0.13454470  1
  Ba  Ba37  1  -0.00000000  0.33333333  0.13454470  1
  Ba  Ba38  1  -0.00000000  0.66666667  0.13454470  1
  Ba  Ba39  1  0.50000000  -0.00000000  0.13454470  1
  Ba  Ba40  1  0.50000000  0.33333333  0.13454470  1
  Ba  Ba41  1  0.50000000  0.66666667  0.13454470  1
  Ba  Ba42  1  0.33333333  0.11111111  0.46787804  1
  Ba  Ba43  1  0.33333333  0.44444444  0.46787804  1
  Ba  Ba44  1  0.33333333  0.77777778  0.46787804  1
  Ba  Ba45  1  0.83333333  0.11111111  0.46787804  1
  Ba  Ba46  1  0.83333333  0.44444444  0.46787804  1
  Ba  Ba47  1  0.83333333  0.77777778  0.46787804  1
  Ba  Ba48  1  0.16666667  0.22222222  0.80121137  1
  Ba  Ba49  1  0.16666667  0.55555556  0.80121137  1
  Ba  Ba50  1  0.16666667  0.88888889  0.80121137  1
  Ba  Ba51  1  0.66666667  0.22222222  0.80121137  1
  Ba  Ba52  1  0.66666667  0.55555556  0.80121137  1
  Ba  Ba53  1  0.66666667  0.88888889  0.80121137  1
  Ba  Ba54  1  0.00000000  0.00000000  0.86461141  1
  Ba  Ba55  1  -0.00000000  0.33333333  0.86461141  1
  Ba  Ba56  1  -0.00000000  0.66666667  0.86461141  1
  Ba  Ba57  1  0.50000000  0.00000000  0.86461141  1
  Ba  Ba58  1  0.50000000  0.33333333  0.86461141  1
  Ba  Ba59  1  0.50000000  0.66666667  0.86461141  1
  Ba  Ba60  1  0.33333333  0.11111111  1.19794474  1
  Ba  Ba61  1  0.33333333  0.44444444  1.19794474  1
  Ba  Ba62  1  0.33333333  0.77777778  1.19794474  1
  Ba  Ba63  1  0.83333333  0.11111111  1.19794474  1
  Ba  Ba64  1  0.83333333  0.44444444  1.19794474  1
  Ba  Ba65  1  0.83333333  0.77777778  1.19794474  1
  Ba  Ba66  1  0.16666667  0.22222222  1.53127808  1
  Ba  Ba67  1  0.16666667  0.55555556  1.53127808  1
  Ba  Ba68  1  0.16666667  0.88888889  1.53127808  1
  Ba  Ba69  1  0.66666667  0.22222222  1.53127808  1
  Ba  Ba70  1  0.66666667  0.55555556  1.53127808  1
  Ba  Ba71  1  0.66666667  0.88888889  1.53127808  1
  Nb  Nb72  1  -0.00000000  -0.00000000  0.00067237  1
  Nb  Nb73  1  -0.00000000  0.33333333  0.00067237  1
  Nb  Nb74  1  -0.00000000  0.66666667  0.00067237  1
  Nb  Nb75  1  0.50000000  -0.00000000  0.00067237  1
  Nb  Nb76  1  0.50000000  0.33333333  0.00067237  1
  Nb  Nb77  1  0.50000000  0.66666667  0.00067237  1
  Nb  Nb78  1  0.33333333  0.11111111  0.33400570  1
  Nb  Nb79  1  0.33333333  0.44444444  0.33400570  1
  Nb  Nb80  1  0.33333333  0.77777778  0.33400570  1
  Nb  Nb81  1  0.83333333  0.11111111  0.33400570  1
  Nb  Nb82  1  0.83333333  0.44444444  0.33400570  1
  Nb  Nb83  1  0.83333333  0.77777778  0.33400570  1
  Nb  Nb84  1  0.16666667  0.22222222  0.66733903  1
  Nb  Nb85  1  0.16666667  0.55555556  0.66733903  1
  Nb  Nb86  1  0.16666667  0.88888889  0.66733903  1
  Nb  Nb87  1  0.66666667  0.22222222  0.66733903  1
  Nb  Nb88  1  0.66666667  0.55555556  0.66733903  1
  Nb  Nb89  1  0.66666667  0.88888889  0.66733903  1
  Nb  Nb90  1  0.00000000  0.00000000  0.42406656  1
  Nb  Nb91  1  -0.00000000  0.33333333  0.42406656  1
  Nb  Nb92  1  -0.00000000  0.66666667  0.42406656  1
  Nb  Nb93  1  0.50000000  0.00000000  0.42406656  1
  Nb  Nb94  1  0.50000000  0.33333333  0.42406656  1
  Nb  Nb95  1  0.50000000  0.66666667  0.42406656  1
  Nb  Nb96  1  0.33333333  0.11111111  0.75739989  1
  Nb  Nb97  1  0.33333333  0.44444444  0.75739989  1
  Nb  Nb98  1  0.33333333  0.77777778  0.75739989  1
  Nb  Nb99  1  0.83333333  0.11111111  0.75739989  1
  Nb  Nb100  1  0.83333333  0.44444444  0.75739989  1
  Nb  Nb101  1  0.83333333  0.77777778  0.75739989  1
  Nb  Nb102  1  0.16666667  0.22222222  1.09073322  1
  Nb  Nb103  1  0.16666667  0.55555556  1.09073322  1
  Nb  Nb104  1  0.16666667  0.88888889  1.09073322  1
  Nb  Nb105  1  0.66666667  0.22222222  1.09073322  1
  Nb  Nb106  1  0.66666667  0.55555556  1.09073322  1
  Nb  Nb107  1  0.66666667  0.88888889  1.09073322  1
  W  W108  1  -0.00000000  -0.00000000  0.57874788  1
  W  W109  1  -0.00000000  0.33333333  0.57874788  1
  W  W110  1  -0.00000000  0.66666667  0.57874788  1
  W  W111  1  0.50000000  -0.00000000  0.57874788  1
  W  W112  1  0.50000000  0.33333333  0.57874788  1
  W  W113  1  0.50000000  0.66666667  0.57874788  1
  W  W114  1  0.33333333  0.11111111  0.91208122  1
  W  W115  1  0.33333333  0.44444444  0.91208122  1
  W  W116  1  0.33333333  0.77777778  0.91208122  1
  W  W117  1  0.83333333  0.11111111  0.91208122  1
  W  W118  1  0.83333333  0.44444444  0.91208122  1
  W  W119  1  0.83333333  0.77777778  0.91208122  1
  W  W120  1  0.16666667  0.22222222  1.24541455  1
  W  W121  1  0.16666667  0.55555556  1.24541455  1
  W  W122  1  0.16666667  0.88888889  1.24541455  1
  W  W123  1  0.66666667  0.22222222  1.24541455  1
  W  W124  1  0.66666667  0.55555556  1.24541455  1
  W  W125  1  0.66666667  0.88888889  1.24541455  1
  O  O126  1  0.08183040  0.10910720  0.62481887  1
  O  O127  1  0.08183040  0.44244053  0.62481887  1
  O  O128  1  0.08183040  0.77577386  0.62481887  1
  O  O129  1  0.58183040  0.10910720  0.62481887  1
  O  O130  1  0.58183040  0.44244053  0.62481887  1
  O  O131  1  0.58183040  0.77577386  0.62481887  1
  O  O132  1  0.41516373  0.22021831  0.95815220  1
  O  O133  1  0.41516373  0.55355164  0.95815220  1
  O  O134  1  0.41516373  0.88688497  0.95815220  1
  O  O135  1  0.91516373  0.22021831  0.95815220  1
  O  O136  1  0.91516373  0.55355164  0.95815220  1
  O  O137  1  0.91516373  0.88688497  0.95815220  1
  O  O138  1  0.24849706  0.33132942  1.29148554  1
  O  O139  1  0.24849706  0.66466275  1.29148554  1
  O  O140  1  0.24849706  0.99799608  1.29148554  1
  O  O141  1  0.74849706  0.33132942  1.29148554  1
  O  O142  1  0.74849706  0.66466275  1.29148554  1
  O  O143  1  0.74849706  0.99799608  1.29148554  1
  O  O144  1  0.08183040  -0.05455360  0.62481887  1
  O  O145  1  0.08183040  0.27877974  0.62481887  1
  O  O146  1  0.08183040  0.61211307  0.62481887  1
  O  O147  1  0.58183040  -0.05455360  0.62481887  1
  O  O148  1  0.58183040  0.27877974  0.62481887  1
  O  O149  1  0.58183040  0.61211307  0.62481887  1
  O  O150  1  0.41516373  0.05655751  0.95815220  1
  O  O151  1  0.41516373  0.38989085  0.95815220  1
  O  O152  1  0.41516373  0.72322418  0.95815220  1
  O  O153  1  0.91516373  0.05655751  0.95815220  1
  O  O154  1  0.91516373  0.38989085  0.95815220  1
  O  O155  1  0.91516373  0.72322418  0.95815220  1
  O  O156  1  0.24849706  0.16766862  1.29148554  1
  O  O157  1  0.24849706  0.50100196  1.29148554  1
  O  O158  1  0.24849706  0.83433529  1.29148554  1
  O  O159  1  0.74849706  0.16766862  1.29148554  1
  O  O160  1  0.74849706  0.50100196  1.29148554  1
  O  O161  1  0.74849706  0.83433529  1.29148554  1
  O  O162  1  -0.16366079  -0.05455360  0.62481887  1
  O  O163  1  -0.16366079  0.27877974  0.62481887  1
  O  O164  1  -0.16366079  0.61211307  0.62481887  1
  O  O165  1  0.33633921  -0.05455360  0.62481887  1
  O  O166  1  0.33633921  0.27877974  0.62481887  1
  O  O167  1  0.33633921  0.61211307  0.62481887  1
  O  O168  1  0.16967254  0.05655751  0.95815220  1
  O  O169  1  0.16967254  0.38989085  0.95815220  1
  O  O170  1  0.16967254  0.72322418  0.95815220  1
  O  O171  1  0.66967254  0.05655751  0.95815220  1
  O  O172  1  0.66967254  0.38989085  0.95815220  1
  O  O173  1  0.66967254  0.72322418  0.95815220  1
  O  O174  1  0.00300587  0.16766862  1.29148554  1
  O  O175  1  0.00300587  0.50100196  1.29148554  1
  O  O176  1  0.00300587  0.83433529  1.29148554  1
  O  O177  1  0.50300587  0.16766862  1.29148554  1
  O  O178  1  0.50300587  0.50100196  1.29148554  1
  O  O179  1  0.50300587  0.83433529  1.29148554  1
  O  O180  1  -0.08440809  -0.11254412  0.37230526  1
  O  O181  1  -0.08440809  0.22078921  0.37230526  1
  O  O182  1  -0.08440809  0.55412254  0.37230526  1
  O  O183  1  0.41559191  -0.11254412  0.37230526  1
  O  O184  1  0.41559191  0.22078921  0.37230526  1
  O  O185  1  0.41559191  0.55412254  0.37230526  1
  O  O186  1  0.24892524  -0.00143301  0.70563859  1
  O  O187  1  0.24892524  0.33190032  0.70563859  1
  O  O188  1  0.24892524  0.66523365  0.70563859  1
  O  O189  1  0.74892524  -0.00143301  0.70563859  1
  O  O190  1  0.74892524  0.33190032  0.70563859  1
  O  O191  1  0.74892524  0.66523365  0.70563859  1
  O  O192  1  0.08225857  0.10967810  1.03897192  1
  O  O193  1  0.08225857  0.44301143  1.03897192  1
  O  O194  1  0.08225857  0.77634477  1.03897192  1
  O  O195  1  0.58225857  0.10967810  1.03897192  1
  O  O196  1  0.58225857  0.44301143  1.03897192  1
  O  O197  1  0.58225857  0.77634477  1.03897192  1
  O  O198  1  -0.08440809  0.05627206  0.37230526  1
  O  O199  1  -0.08440809  0.38960540  0.37230526  1
  O  O200  1  -0.08440809  0.72293873  0.37230526  1
  O  O201  1  0.41559191  0.05627206  0.37230526  1
  O  O202  1  0.41559191  0.38960540  0.37230526  1
  O  O203  1  0.41559191  0.72293873  0.37230526  1
  O  O204  1  0.24892524  0.16738317  0.70563859  1
  O  O205  1  0.24892524  0.50071651  0.70563859  1
  O  O206  1  0.24892524  0.83404984  0.70563859  1
  O  O207  1  0.74892524  0.16738317  0.70563859  1
  O  O208  1  0.74892524  0.50071651  0.70563859  1
  O  O209  1  0.74892524  0.83404984  0.70563859  1
  O  O210  1  0.08225857  0.27849428  1.03897192  1
  O  O211  1  0.08225857  0.61182762  1.03897192  1
  O  O212  1  0.08225857  0.94516095  1.03897192  1
  O  O213  1  0.58225857  0.27849428  1.03897192  1
  O  O214  1  0.58225857  0.61182762  1.03897192  1
  O  O215  1  0.58225857  0.94516095  1.03897192  1
  O  O216  1  0.16881619  0.05627206  0.37230526  1
  O  O217  1  0.16881619  0.38960540  0.37230526  1
  O  O218  1  0.16881619  0.72293873  0.37230526  1
  O  O219  1  0.66881619  0.05627206  0.37230526  1
  O  O220  1  0.66881619  0.38960540  0.37230526  1
  O  O221  1  0.66881619  0.72293873  0.37230526  1
  O  O222  1  0.50214952  0.16738317  0.70563859  1
  O  O223  1  0.50214952  0.50071651  0.70563859  1
  O  O224  1  0.50214952  0.83404984  0.70563859  1
  O  O225  1  1.00214952  0.16738317  0.70563859  1
  O  O226  1  1.00214952  0.50071651  0.70563859  1
  O  O227  1  1.00214952  0.83404984  0.70563859  1
  O  O228  1  0.33548285  0.27849428  1.03897192  1
  O  O229  1  0.33548285  0.61182762  1.03897192  1
  O  O230  1  0.33548285  0.94516095  1.03897192  1
  O  O231  1  0.83548285  0.27849428  1.03897192  1
  O  O232  1  0.83548285  0.61182762  1.03897192  1
  O  O233  1  0.83548285  0.94516095  1.03897192  1
  O  O234  1  0.08290547  0.11054063  0.45460105  1
  O  O235  1  0.08290547  0.44387396  0.45460105  1
  O  O236  1  0.08290547  0.77720730  0.45460105  1
  O  O237  1  0.58290547  0.11054063  0.45460105  1
  O  O238  1  0.58290547  0.44387396  0.45460105  1
  O  O239  1  0.58290547  0.77720730  0.45460105  1
  O  O240  1  0.41623880  0.22165174  0.78793438  1
  O  O241  1  0.41623880  0.55498507  0.78793438  1
  O  O242  1  0.41623880  0.88831841  0.78793438  1
  O  O243  1  0.91623880  0.22165174  0.78793438  1
  O  O244  1  0.91623880  0.55498507  0.78793438  1
  O  O245  1  0.91623880  0.88831841  0.78793438  1
  O  O246  1  0.24957214  0.33276285  1.12126771  1
  O  O247  1  0.24957214  0.66609618  1.12126771  1
  O  O248  1  0.24957214  0.99942952  1.12126771  1
  O  O249  1  0.74957214  0.33276285  1.12126771  1
  O  O250  1  0.74957214  0.66609618  1.12126771  1
  O  O251  1  0.74957214  0.99942952  1.12126771  1
  O  O252  1  0.08290547  -0.05527031  0.45460105  1
  O  O253  1  0.08290547  0.27806302  0.45460105  1
  O  O254  1  0.08290547  0.61139635  0.45460105  1
  O  O255  1  0.58290547  -0.05527031  0.45460105  1
  O  O256  1  0.58290547  0.27806302  0.45460105  1
  O  O257  1  0.58290547  0.61139635  0.45460105  1
  O  O258  1  0.41623880  0.05584080  0.78793438  1
  O  O259  1  0.41623880  0.38917413  0.78793438  1
  O  O260  1  0.41623880  0.72250746  0.78793438  1
  O  O261  1  0.91623880  0.05584080  0.78793438  1
  O  O262  1  0.91623880  0.38917413  0.78793438  1
  O  O263  1  0.91623880  0.72250746  0.78793438  1
  O  O264  1  0.24957214  0.16695191  1.12126771  1
  O  O265  1  0.24957214  0.50028524  1.12126771  1
  O  O266  1  0.24957214  0.83361857  1.12126771  1
  O  O267  1  0.74957214  0.16695191  1.12126771  1
  O  O268  1  0.74957214  0.50028524  1.12126771  1
  O  O269  1  0.74957214  0.83361857  1.12126771  1
  O  O270  1  -0.16581094  -0.05527031  0.45460105  1
  O  O271  1  -0.16581094  0.27806302  0.45460105  1
  O  O272  1  -0.16581094  0.61139635  0.45460105  1
  O  O273  1  0.33418906  -0.05527031  0.45460105  1
  O  O274  1  0.33418906  0.27806302  0.45460105  1
  O  O275  1  0.33418906  0.61139635  0.45460105  1
  O  O276  1  0.16752239  0.05584080  0.78793438  1
  O  O277  1  0.16752239  0.38917413  0.78793438  1
  O  O278  1  0.16752239  0.72250746  0.78793438  1
  O  O279  1  0.66752239  0.05584080  0.78793438  1
  O  O280  1  0.66752239  0.38917413  0.78793438  1
  O  O281  1  0.66752239  0.72250746  0.78793438  1
  O  O282  1  0.00085572  0.16695191  1.12126771  1
  O  O283  1  0.00085572  0.50028524  1.12126771  1
  O  O284  1  0.00085572  0.83361857  1.12126771  1
  O  O285  1  0.50085572  0.16695191  1.12126771  1
  O  O286  1  0.50085572  0.50028524  1.12126771  1
  O  O287  1  0.50085572  0.83361857  1.12126771  1
  O  O288  1  -0.07965679  -0.10620905  0.54690547  1
  O  O289  1  -0.07965679  0.22712428  0.54690547  1
  O  O290  1  -0.07965679  0.56045761  0.54690547  1
  O  O291  1  0.42034321  -0.10620905  0.54690547  1
  O  O292  1  0.42034321  0.22712428  0.54690547  1
  O  O293  1  0.42034321  0.56045761  0.54690547  1
  O  O294  1  0.25367654  0.00490206  0.88023880  1
  O  O295  1  0.25367654  0.33823539  0.88023880  1
  O  O296  1  0.25367654  0.67156872  0.88023880  1
  O  O297  1  0.75367654  0.00490206  0.88023880  1
  O  O298  1  0.75367654  0.33823539  0.88023880  1
  O  O299  1  0.75367654  0.67156872  0.88023880  1
  O  O300  1  0.08700988  0.11601317  1.21357214  1
  O  O301  1  0.08700988  0.44934650  1.21357214  1
  O  O302  1  0.08700988  0.78267983  1.21357214  1
  O  O303  1  0.58700988  0.11601317  1.21357214  1
  O  O304  1  0.58700988  0.44934650  1.21357214  1
  O  O305  1  0.58700988  0.78267983  1.21357214  1
  O  O306  1  -0.07965679  0.05310453  0.54690547  1
  O  O307  1  -0.07965679  0.38643786  0.54690547  1
  O  O308  1  -0.07965679  0.71977119  0.54690547  1
  O  O309  1  0.42034321  0.05310453  0.54690547  1
  O  O310  1  0.42034321  0.38643786  0.54690547  1
  O  O311  1  0.42034321  0.71977119  0.54690547  1
  O  O312  1  0.25367654  0.16421564  0.88023880  1
  O  O313  1  0.25367654  0.49754897  0.88023880  1
  O  O314  1  0.25367654  0.83088231  0.88023880  1
  O  O315  1  0.75367654  0.16421564  0.88023880  1
  O  O316  1  0.75367654  0.49754897  0.88023880  1
  O  O317  1  0.75367654  0.83088231  0.88023880  1
  O  O318  1  0.08700988  0.27532675  1.21357214  1
  O  O319  1  0.08700988  0.60866008  1.21357214  1
  O  O320  1  0.08700988  0.94199342  1.21357214  1
  O  O321  1  0.58700988  0.27532675  1.21357214  1
  O  O322  1  0.58700988  0.60866008  1.21357214  1
  O  O323  1  0.58700988  0.94199342  1.21357214  1
  O  O324  1  0.15931358  0.05310453  0.54690547  1
  O  O325  1  0.15931358  0.38643786  0.54690547  1
  O  O326  1  0.15931358  0.71977119  0.54690547  1
  O  O327  1  0.65931358  0.05310453  0.54690547  1
  O  O328  1  0.65931358  0.38643786  0.54690547  1
  O  O329  1  0.65931358  0.71977119  0.54690547  1
  O  O330  1  0.49264692  0.16421564  0.88023880  1
  O  O331  1  0.49264692  0.49754897  0.88023880  1
  O  O332  1  0.49264692  0.83088231  0.88023880  1
  O  O333  1  0.99264692  0.16421564  0.88023880  1
  O  O334  1  0.99264692  0.49754897  0.88023880  1
  O  O335  1  0.99264692  0.83088231  0.88023880  1
  O  O336  1  0.32598025  0.27532675  1.21357214  1
  O  O337  1  0.32598025  0.60866008  1.21357214  1
  O  O338  1  0.32598025  0.94199342  1.21357214  1
  O  O339  1  0.82598025  0.27532675  1.21357214  1
  O  O340  1  0.82598025  0.60866008  1.21357214  1
  O  O341  1  0.82598025  0.94199342  1.21357214  1
