# generated using pymatgen
data_Cd2GeO4
_symmetry_space_group_name_H-M   'P 1'
_cell_length_a   11.22646646
_cell_length_b   13.19481503
_cell_length_c   10.49437080
_cell_angle_alpha   90.00000000
_cell_angle_beta   90.00000000
_cell_angle_gamma   90.00000000
_symmetry_Int_Tables_number   1
_chemical_formula_structural   Cd2GeO4
_chemical_formula_sum   'Cd32 Ge16 O64'
_cell_volume   1554.54319888
_cell_formula_units_Z   16
loop_
 _symmetry_equiv_pos_site_id
 _symmetry_equiv_pos_as_xyz
  1  'x, y, z'
loop_
 _atom_site_type_symbol
 _atom_site_label
 _atom_site_symmetry_multiplicity
 _atom_site_fract_x
 _atom_site_fract_y
 _atom_site_fract_z
 _atom_site_occupancy
  Cd  Cd0  1  0.22027223  0.37500000  0.24472114  1
  Cd  Cd1  1  0.22027223  0.37500000  0.74472114  1
  Cd  Cd2  1  0.22027223  0.87500000  0.24472114  1
  Cd  Cd3  1  0.22027223  0.87500000  0.74472114  1
  Cd  Cd4  1  0.27972777  0.12500000  0.49472114  1
  Cd  Cd5  1  0.27972777  0.12500000  0.99472114  1
  Cd  Cd6  1  0.27972777  0.62500000  0.49472114  1
  Cd  Cd7  1  0.27972777  0.62500000  0.99472114  1
  Cd  Cd8  1  0.77972777  0.12500000  0.25527886  1
  Cd  Cd9  1  0.77972777  0.12500000  0.75527886  1
  Cd  Cd10  1  0.77972777  0.62500000  0.25527886  1
  Cd  Cd11  1  0.77972777  0.62500000  0.75527886  1
  Cd  Cd12  1  0.72027223  0.37500000  0.00527886  1
  Cd  Cd13  1  0.72027223  0.37500000  0.50527886  1
  Cd  Cd14  1  0.72027223  0.87500000  0.00527886  1
  Cd  Cd15  1  0.72027223  0.87500000  0.50527886  1
  Cd  Cd16  1  0.50000000  0.25000000  0.25000000  1
  Cd  Cd17  1  0.50000000  0.25000000  0.75000000  1
  Cd  Cd18  1  0.50000000  0.75000000  0.25000000  1
  Cd  Cd19  1  0.50000000  0.75000000  0.75000000  1
  Cd  Cd20  1  0.00000000  0.25000000  0.00000000  1
  Cd  Cd21  1  0.00000000  0.25000000  0.50000000  1
  Cd  Cd22  1  0.00000000  0.75000000  0.00000000  1
  Cd  Cd23  1  0.00000000  0.75000000  0.50000000  1
  Cd  Cd24  1  0.50000000  0.00000000  0.25000000  1
  Cd  Cd25  1  0.50000000  0.00000000  0.75000000  1
  Cd  Cd26  1  0.50000000  0.50000000  0.25000000  1
  Cd  Cd27  1  0.50000000  0.50000000  0.75000000  1
  Cd  Cd28  1  0.00000000  0.00000000  0.00000000  1
  Cd  Cd29  1  0.00000000  0.00000000  0.50000000  1
  Cd  Cd30  1  0.00000000  0.50000000  0.00000000  1
  Cd  Cd31  1  0.00000000  0.50000000  0.50000000  1
  Ge  Ge32  1  0.40193893  0.37500000  0.46685899  1
  Ge  Ge33  1  0.40193893  0.37500000  0.96685899  1
  Ge  Ge34  1  0.40193893  0.87500000  0.46685899  1
  Ge  Ge35  1  0.40193893  0.87500000  0.96685899  1
  Ge  Ge36  1  0.09806107  0.12500000  0.21685899  1
  Ge  Ge37  1  0.09806107  0.12500000  0.71685899  1
  Ge  Ge38  1  0.09806107  0.62500000  0.21685899  1
  Ge  Ge39  1  0.09806107  0.62500000  0.71685899  1
  Ge  Ge40  1  0.59806107  0.12500000  0.03314101  1
  Ge  Ge41  1  0.59806107  0.12500000  0.53314101  1
  Ge  Ge42  1  0.59806107  0.62500000  0.03314101  1
  Ge  Ge43  1  0.59806107  0.62500000  0.53314101  1
  Ge  Ge44  1  0.90193893  0.37500000  0.28314101  1
  Ge  Ge45  1  0.90193893  0.37500000  0.78314101  1
  Ge  Ge46  1  0.90193893  0.87500000  0.28314101  1
  Ge  Ge47  1  0.90193893  0.87500000  0.78314101  1
  O  O48  1  0.66544301  0.23201486  0.11200699  1
  O  O49  1  0.66544301  0.23201486  0.61200699  1
  O  O50  1  0.66544301  0.73201486  0.11200699  1
  O  O51  1  0.66544301  0.73201486  0.61200699  1
  O  O52  1  0.83455699  0.26798514  0.36200699  1
  O  O53  1  0.83455699  0.26798514  0.86200699  1
  O  O54  1  0.83455699  0.76798514  0.36200699  1
  O  O55  1  0.83455699  0.76798514  0.86200699  1
  O  O56  1  0.33455699  0.48201486  0.38799301  1
  O  O57  1  0.33455699  0.48201486  0.88799301  1
  O  O58  1  0.33455699  0.98201486  0.38799301  1
  O  O59  1  0.33455699  0.98201486  0.88799301  1
  O  O60  1  0.16544301  0.01798514  0.13799301  1
  O  O61  1  0.16544301  0.01798514  0.63799301  1
  O  O62  1  0.16544301  0.51798514  0.13799301  1
  O  O63  1  0.16544301  0.51798514  0.63799301  1
  O  O64  1  0.33455699  0.26798514  0.38799301  1
  O  O65  1  0.33455699  0.26798514  0.88799301  1
  O  O66  1  0.33455699  0.76798514  0.38799301  1
  O  O67  1  0.33455699  0.76798514  0.88799301  1
  O  O68  1  0.16544301  0.23201486  0.13799301  1
  O  O69  1  0.16544301  0.23201486  0.63799301  1
  O  O70  1  0.16544301  0.73201486  0.13799301  1
  O  O71  1  0.16544301  0.73201486  0.63799301  1
  O  O72  1  0.66544301  0.01798514  0.11200699  1
  O  O73  1  0.66544301  0.01798514  0.61200699  1
  O  O74  1  0.66544301  0.51798514  0.11200699  1
  O  O75  1  0.66544301  0.51798514  0.61200699  1
  O  O76  1  0.83455699  0.48201486  0.36200699  1
  O  O77  1  0.83455699  0.48201486  0.86200699  1
  O  O78  1  0.83455699  0.98201486  0.36200699  1
  O  O79  1  0.83455699  0.98201486  0.86200699  1
  O  O80  1  0.54914100  0.37500000  0.39392919  1
  O  O81  1  0.54914100  0.37500000  0.89392919  1
  O  O82  1  0.54914100  0.87500000  0.39392919  1
  O  O83  1  0.54914100  0.87500000  0.89392919  1
  O  O84  1  0.95085900  0.12500000  0.14392919  1
  O  O85  1  0.95085900  0.12500000  0.64392919  1
  O  O86  1  0.95085900  0.62500000  0.14392919  1
  O  O87  1  0.95085900  0.62500000  0.64392919  1
  O  O88  1  0.45085900  0.12500000  0.10607081  1
  O  O89  1  0.45085900  0.12500000  0.60607081  1
  O  O90  1  0.45085900  0.62500000  0.10607081  1
  O  O91  1  0.45085900  0.62500000  0.60607081  1
  O  O92  1  0.04914100  0.37500000  0.35607081  1
  O  O93  1  0.04914100  0.37500000  0.85607081  1
  O  O94  1  0.04914100  0.87500000  0.35607081  1
  O  O95  1  0.04914100  0.87500000  0.85607081  1
  O  O96  1  0.90303860  0.37500000  0.11400271  1
  O  O97  1  0.90303860  0.37500000  0.61400271  1
  O  O98  1  0.90303860  0.87500000  0.11400271  1
  O  O99  1  0.90303860  0.87500000  0.61400271  1
  O  O100  1  0.59696140  0.12500000  0.36400271  1
  O  O101  1  0.59696140  0.12500000  0.86400271  1
  O  O102  1  0.59696140  0.62500000  0.36400271  1
  O  O103  1  0.59696140  0.62500000  0.86400271  1
  O  O104  1  0.09696140  0.12500000  0.38599729  1
  O  O105  1  0.09696140  0.12500000  0.88599729  1
  O  O106  1  0.09696140  0.62500000  0.38599729  1
  O  O107  1  0.09696140  0.62500000  0.88599729  1
  O  O108  1  0.40303860  0.37500000  0.13599729  1
  O  O109  1  0.40303860  0.37500000  0.63599729  1
  O  O110  1  0.40303860  0.87500000  0.13599729  1
  O  O111  1  0.40303860  0.87500000  0.63599729  1
