# generated using pymatgen
data_CsAuO2
_symmetry_space_group_name_H-M   'P 1'
_cell_length_a   10.30987633
_cell_length_b   12.37387309
_cell_length_c   12.11380879
_cell_angle_alpha   90.00000000
_cell_angle_beta   90.00000000
_cell_angle_gamma   90.00000000
_symmetry_Int_Tables_number   1
_chemical_formula_structural   CsAuO2
_chemical_formula_sum   'Cs16 Au16 O32'
_cell_volume   1545.39615621
_cell_formula_units_Z   16
loop_
 _symmetry_equiv_pos_site_id
 _symmetry_equiv_pos_as_xyz
  1  'x, y, z'
loop_
 _atom_site_type_symbol
 _atom_site_label
 _atom_site_symmetry_multiplicity
 _atom_site_fract_x
 _atom_site_fract_y
 _atom_site_fract_z
 _atom_site_occupancy
  Cs  Cs0  1  0.25000000  0.19246242  0.12500000  1
  Cs  Cs1  1  0.25000000  0.19246242  0.62500000  1
  Cs  Cs2  1  0.75000000  0.19246242  0.12500000  1
  Cs  Cs3  1  0.75000000  0.19246242  0.62500000  1
  Cs  Cs4  1  0.50000000  0.69246242  0.12500000  1
  Cs  Cs5  1  0.50000000  0.69246242  0.62500000  1
  Cs  Cs6  1  1.00000000  0.69246242  0.12500000  1
  Cs  Cs7  1  1.00000000  0.69246242  0.62500000  1
  Cs  Cs8  1  0.25000000  -0.19246242  0.37500000  1
  Cs  Cs9  1  0.25000000  -0.19246242  0.87500000  1
  Cs  Cs10  1  0.75000000  -0.19246242  0.37500000  1
  Cs  Cs11  1  0.75000000  -0.19246242  0.87500000  1
  Cs  Cs12  1  0.50000000  0.30753758  0.37500000  1
  Cs  Cs13  1  0.50000000  0.30753758  0.87500000  1
  Cs  Cs14  1  1.00000000  0.30753758  0.37500000  1
  Cs  Cs15  1  1.00000000  0.30753758  0.87500000  1
  Au  Au16  1  0.25000000  -0.49773017  0.37500000  1
  Au  Au17  1  0.25000000  -0.49773017  0.87500000  1
  Au  Au18  1  0.75000000  -0.49773017  0.37500000  1
  Au  Au19  1  0.75000000  -0.49773017  0.87500000  1
  Au  Au20  1  0.50000000  0.00226983  0.37500000  1
  Au  Au21  1  0.50000000  0.00226983  0.87500000  1
  Au  Au22  1  1.00000000  0.00226983  0.37500000  1
  Au  Au23  1  1.00000000  0.00226983  0.87500000  1
  Au  Au24  1  0.25000000  0.49773017  0.12500000  1
  Au  Au25  1  0.25000000  0.49773017  0.62500000  1
  Au  Au26  1  0.75000000  0.49773017  0.12500000  1
  Au  Au27  1  0.75000000  0.49773017  0.62500000  1
  Au  Au28  1  0.50000000  0.99773017  0.12500000  1
  Au  Au29  1  0.50000000  0.99773017  0.62500000  1
  Au  Au30  1  1.00000000  0.99773017  0.12500000  1
  Au  Au31  1  1.00000000  0.99773017  0.62500000  1
  O  O32  1  0.25000000  0.39365428  0.49785227  1
  O  O33  1  0.25000000  0.39365428  0.99785227  1
  O  O34  1  0.75000000  0.39365428  0.49785227  1
  O  O35  1  0.75000000  0.39365428  0.99785227  1
  O  O36  1  0.50000000  0.89365428  0.49785227  1
  O  O37  1  0.50000000  0.89365428  0.99785227  1
  O  O38  1  1.00000000  0.89365428  0.49785227  1
  O  O39  1  1.00000000  0.89365428  0.99785227  1
  O  O40  1  0.25000000  -0.39365428  0.24785227  1
  O  O41  1  0.25000000  -0.39365428  0.74785227  1
  O  O42  1  0.75000000  -0.39365428  0.24785227  1
  O  O43  1  0.75000000  -0.39365428  0.74785227  1
  O  O44  1  0.50000000  0.10634572  0.24785227  1
  O  O45  1  0.50000000  0.10634572  0.74785227  1
  O  O46  1  1.00000000  0.10634572  0.24785227  1
  O  O47  1  1.00000000  0.10634572  0.74785227  1
  O  O48  1  0.25000000  0.39365428  0.25214773  1
  O  O49  1  0.25000000  0.39365428  0.75214773  1
  O  O50  1  0.75000000  0.39365428  0.25214773  1
  O  O51  1  0.75000000  0.39365428  0.75214773  1
  O  O52  1  0.50000000  0.89365428  0.25214773  1
  O  O53  1  0.50000000  0.89365428  0.75214773  1
  O  O54  1  1.00000000  0.89365428  0.25214773  1
  O  O55  1  1.00000000  0.89365428  0.75214773  1
  O  O56  1  0.25000000  -0.39365428  0.00214773  1
  O  O57  1  0.25000000  -0.39365428  0.50214773  1
  O  O58  1  0.75000000  -0.39365428  0.00214773  1
  O  O59  1  0.75000000  -0.39365428  0.50214773  1
  O  O60  1  0.50000000  0.10634572  0.00214773  1
  O  O61  1  0.50000000  0.10634572  0.50214773  1
  O  O62  1  1.00000000  0.10634572  0.00214773  1
  O  O63  1  1.00000000  0.10634572  0.50214773  1
