# generated using pymatgen
data_Rb4SnO4
_symmetry_space_group_name_H-M   'P 1'
_cell_length_a   20.28260894
_cell_length_b   20.34275393
_cell_length_c   20.19025182
_cell_angle_alpha   71.58598083
_cell_angle_beta   79.31653846
_cell_angle_gamma   66.67072221
_symmetry_Int_Tables_number   1
_chemical_formula_structural   Rb4SnO4
_chemical_formula_sum   'Rb144 Sn36 O144'
_cell_volume   7240.44434040
_cell_formula_units_Z   36
loop_
 _symmetry_equiv_pos_site_id
 _symmetry_equiv_pos_as_xyz
  1  'x, y, z'
loop_
 _atom_site_type_symbol
 _atom_site_label
 _atom_site_symmetry_multiplicity
 _atom_site_fract_x
 _atom_site_fract_y
 _atom_site_fract_z
 _atom_site_occupancy
  Rb  Rb0  1  0.24793577  0.19661845  0.08215753  1
  Rb  Rb1  1  0.24793577  0.19661845  0.58215753  1
  Rb  Rb2  1  0.24793577  0.52995178  0.08215753  1
  Rb  Rb3  1  0.24793577  0.52995178  0.58215753  1
  Rb  Rb4  1  0.24793577  0.86328512  0.08215753  1
  Rb  Rb5  1  0.24793577  0.86328512  0.58215753  1
  Rb  Rb6  1  0.58126910  0.19661845  0.08215753  1
  Rb  Rb7  1  0.58126910  0.19661845  0.58215753  1
  Rb  Rb8  1  0.58126910  0.52995178  0.08215753  1
  Rb  Rb9  1  0.58126910  0.52995178  0.58215753  1
  Rb  Rb10  1  0.58126910  0.86328512  0.08215753  1
  Rb  Rb11  1  0.58126910  0.86328512  0.58215753  1
  Rb  Rb12  1  0.91460244  0.19661845  0.08215753  1
  Rb  Rb13  1  0.91460244  0.19661845  0.58215753  1
  Rb  Rb14  1  0.91460244  0.52995178  0.08215753  1
  Rb  Rb15  1  0.91460244  0.52995178  0.58215753  1
  Rb  Rb16  1  0.91460244  0.86328512  0.08215753  1
  Rb  Rb17  1  0.91460244  0.86328512  0.58215753  1
  Rb  Rb18  1  0.08539756  0.13671488  0.41784247  1
  Rb  Rb19  1  0.08539756  0.13671488  0.91784247  1
  Rb  Rb20  1  0.08539756  0.47004822  0.41784247  1
  Rb  Rb21  1  0.08539756  0.47004822  0.91784247  1
  Rb  Rb22  1  0.08539756  0.80338155  0.41784247  1
  Rb  Rb23  1  0.08539756  0.80338155  0.91784247  1
  Rb  Rb24  1  0.41873090  0.13671488  0.41784247  1
  Rb  Rb25  1  0.41873090  0.13671488  0.91784247  1
  Rb  Rb26  1  0.41873090  0.47004822  0.41784247  1
  Rb  Rb27  1  0.41873090  0.47004822  0.91784247  1
  Rb  Rb28  1  0.41873090  0.80338155  0.41784247  1
  Rb  Rb29  1  0.41873090  0.80338155  0.91784247  1
  Rb  Rb30  1  0.75206423  0.13671488  0.41784247  1
  Rb  Rb31  1  0.75206423  0.13671488  0.91784247  1
  Rb  Rb32  1  0.75206423  0.47004822  0.41784247  1
  Rb  Rb33  1  0.75206423  0.47004822  0.91784247  1
  Rb  Rb34  1  0.75206423  0.80338155  0.41784247  1
  Rb  Rb35  1  0.75206423  0.80338155  0.91784247  1
  Rb  Rb36  1  0.25354433  0.07865536  0.48579658  1
  Rb  Rb37  1  0.25354433  0.07865536  0.98579658  1
  Rb  Rb38  1  0.25354433  0.41198869  0.48579658  1
  Rb  Rb39  1  0.25354433  0.41198869  0.98579658  1
  Rb  Rb40  1  0.25354433  0.74532203  0.48579658  1
  Rb  Rb41  1  0.25354433  0.74532203  0.98579658  1
  Rb  Rb42  1  0.58687767  0.07865536  0.48579658  1
  Rb  Rb43  1  0.58687767  0.07865536  0.98579658  1
  Rb  Rb44  1  0.58687767  0.41198869  0.48579658  1
  Rb  Rb45  1  0.58687767  0.41198869  0.98579658  1
  Rb  Rb46  1  0.58687767  0.74532203  0.48579658  1
  Rb  Rb47  1  0.58687767  0.74532203  0.98579658  1
  Rb  Rb48  1  0.92021100  0.07865536  0.48579658  1
  Rb  Rb49  1  0.92021100  0.07865536  0.98579658  1
  Rb  Rb50  1  0.92021100  0.41198869  0.48579658  1
  Rb  Rb51  1  0.92021100  0.41198869  0.98579658  1
  Rb  Rb52  1  0.92021100  0.74532203  0.48579658  1
  Rb  Rb53  1  0.92021100  0.74532203  0.98579658  1
  Rb  Rb54  1  0.07978900  0.25467797  0.01420342  1
  Rb  Rb55  1  0.07978900  0.25467797  0.51420342  1
  Rb  Rb56  1  0.07978900  0.58801131  0.01420342  1
  Rb  Rb57  1  0.07978900  0.58801131  0.51420342  1
  Rb  Rb58  1  0.07978900  0.92134464  0.01420342  1
  Rb  Rb59  1  0.07978900  0.92134464  0.51420342  1
  Rb  Rb60  1  0.41312233  0.25467797  0.01420342  1
  Rb  Rb61  1  0.41312233  0.25467797  0.51420342  1
  Rb  Rb62  1  0.41312233  0.58801131  0.01420342  1
  Rb  Rb63  1  0.41312233  0.58801131  0.51420342  1
  Rb  Rb64  1  0.41312233  0.92134464  0.01420342  1
  Rb  Rb65  1  0.41312233  0.92134464  0.51420342  1
  Rb  Rb66  1  0.74645567  0.25467797  0.01420342  1
  Rb  Rb67  1  0.74645567  0.25467797  0.51420342  1
  Rb  Rb68  1  0.74645567  0.58801131  0.01420342  1
  Rb  Rb69  1  0.74645567  0.58801131  0.51420342  1
  Rb  Rb70  1  0.74645567  0.92134464  0.01420342  1
  Rb  Rb71  1  0.74645567  0.92134464  0.51420342  1
  Rb  Rb72  1  0.09211114  0.16946965  0.22071111  1
  Rb  Rb73  1  0.09211114  0.16946965  0.72071111  1
  Rb  Rb74  1  0.09211114  0.50280299  0.22071111  1
  Rb  Rb75  1  0.09211114  0.50280299  0.72071111  1
  Rb  Rb76  1  0.09211114  0.83613632  0.22071111  1
  Rb  Rb77  1  0.09211114  0.83613632  0.72071111  1
  Rb  Rb78  1  0.42544448  0.16946965  0.22071111  1
  Rb  Rb79  1  0.42544448  0.16946965  0.72071111  1
  Rb  Rb80  1  0.42544448  0.50280299  0.22071111  1
  Rb  Rb81  1  0.42544448  0.50280299  0.72071111  1
  Rb  Rb82  1  0.42544448  0.83613632  0.22071111  1
  Rb  Rb83  1  0.42544448  0.83613632  0.72071111  1
  Rb  Rb84  1  0.75877781  0.16946965  0.22071111  1
  Rb  Rb85  1  0.75877781  0.16946965  0.72071111  1
  Rb  Rb86  1  0.75877781  0.50280299  0.22071111  1
  Rb  Rb87  1  0.75877781  0.50280299  0.72071111  1
  Rb  Rb88  1  0.75877781  0.83613632  0.22071111  1
  Rb  Rb89  1  0.75877781  0.83613632  0.72071111  1
  Rb  Rb90  1  0.24122219  0.16386368  0.27928889  1
  Rb  Rb91  1  0.24122219  0.16386368  0.77928889  1
  Rb  Rb92  1  0.24122219  0.49719701  0.27928889  1
  Rb  Rb93  1  0.24122219  0.49719701  0.77928889  1
  Rb  Rb94  1  0.24122219  0.83053035  0.27928889  1
  Rb  Rb95  1  0.24122219  0.83053035  0.77928889  1
  Rb  Rb96  1  0.57455552  0.16386368  0.27928889  1
  Rb  Rb97  1  0.57455552  0.16386368  0.77928889  1
  Rb  Rb98  1  0.57455552  0.49719701  0.27928889  1
  Rb  Rb99  1  0.57455552  0.49719701  0.77928889  1
  Rb  Rb100  1  0.57455552  0.83053035  0.27928889  1
  Rb  Rb101  1  0.57455552  0.83053035  0.77928889  1
  Rb  Rb102  1  0.90788886  0.16386368  0.27928889  1
  Rb  Rb103  1  0.90788886  0.16386368  0.77928889  1
  Rb  Rb104  1  0.90788886  0.49719701  0.27928889  1
  Rb  Rb105  1  0.90788886  0.49719701  0.77928889  1
  Rb  Rb106  1  0.90788886  0.83053035  0.27928889  1
  Rb  Rb107  1  0.90788886  0.83053035  0.77928889  1
  Rb  Rb108  1  0.26075802  0.01221524  0.19045014  1
  Rb  Rb109  1  0.26075802  0.01221524  0.69045014  1
  Rb  Rb110  1  0.26075802  0.34554857  0.19045014  1
  Rb  Rb111  1  0.26075802  0.34554857  0.69045014  1
  Rb  Rb112  1  0.26075802  0.67888191  0.19045014  1
  Rb  Rb113  1  0.26075802  0.67888191  0.69045014  1
  Rb  Rb114  1  0.59409136  0.01221524  0.19045014  1
  Rb  Rb115  1  0.59409136  0.01221524  0.69045014  1
  Rb  Rb116  1  0.59409136  0.34554857  0.19045014  1
  Rb  Rb117  1  0.59409136  0.34554857  0.69045014  1
  Rb  Rb118  1  0.59409136  0.67888191  0.19045014  1
  Rb  Rb119  1  0.59409136  0.67888191  0.69045014  1
  Rb  Rb120  1  0.92742469  0.01221524  0.19045014  1
  Rb  Rb121  1  0.92742469  0.01221524  0.69045014  1
  Rb  Rb122  1  0.92742469  0.34554857  0.19045014  1
  Rb  Rb123  1  0.92742469  0.34554857  0.69045014  1
  Rb  Rb124  1  0.92742469  0.67888191  0.19045014  1
  Rb  Rb125  1  0.92742469  0.67888191  0.69045014  1
  Rb  Rb126  1  0.07257531  0.32111809  0.30954986  1
  Rb  Rb127  1  0.07257531  0.32111809  0.80954986  1
  Rb  Rb128  1  0.07257531  0.65445143  0.30954986  1
  Rb  Rb129  1  0.07257531  0.65445143  0.80954986  1
  Rb  Rb130  1  0.07257531  0.98778476  0.30954986  1
  Rb  Rb131  1  0.07257531  0.98778476  0.80954986  1
  Rb  Rb132  1  0.40590864  0.32111809  0.30954986  1
  Rb  Rb133  1  0.40590864  0.32111809  0.80954986  1
  Rb  Rb134  1  0.40590864  0.65445143  0.30954986  1
  Rb  Rb135  1  0.40590864  0.65445143  0.80954986  1
  Rb  Rb136  1  0.40590864  0.98778476  0.30954986  1
  Rb  Rb137  1  0.40590864  0.98778476  0.80954986  1
  Rb  Rb138  1  0.73924198  0.32111809  0.30954986  1
  Rb  Rb139  1  0.73924198  0.32111809  0.80954986  1
  Rb  Rb140  1  0.73924198  0.65445143  0.30954986  1
  Rb  Rb141  1  0.73924198  0.65445143  0.80954986  1
  Rb  Rb142  1  0.73924198  0.98778476  0.30954986  1
  Rb  Rb143  1  0.73924198  0.98778476  0.80954986  1
  Sn  Sn144  1  0.24168579  0.28109992  0.37627399  1
  Sn  Sn145  1  0.24168579  0.28109992  0.87627399  1
  Sn  Sn146  1  0.24168579  0.61443326  0.37627399  1
  Sn  Sn147  1  0.24168579  0.61443326  0.87627399  1
  Sn  Sn148  1  0.24168579  0.94776659  0.37627399  1
  Sn  Sn149  1  0.24168579  0.94776659  0.87627399  1
  Sn  Sn150  1  0.57501912  0.28109992  0.37627399  1
  Sn  Sn151  1  0.57501912  0.28109992  0.87627399  1
  Sn  Sn152  1  0.57501912  0.61443326  0.37627399  1
  Sn  Sn153  1  0.57501912  0.61443326  0.87627399  1
  Sn  Sn154  1  0.57501912  0.94776659  0.37627399  1
  Sn  Sn155  1  0.57501912  0.94776659  0.87627399  1
  Sn  Sn156  1  0.90835246  0.28109992  0.37627399  1
  Sn  Sn157  1  0.90835246  0.28109992  0.87627399  1
  Sn  Sn158  1  0.90835246  0.61443326  0.37627399  1
  Sn  Sn159  1  0.90835246  0.61443326  0.87627399  1
  Sn  Sn160  1  0.90835246  0.94776659  0.37627399  1
  Sn  Sn161  1  0.90835246  0.94776659  0.87627399  1
  Sn  Sn162  1  0.09164754  0.05223341  0.12372601  1
  Sn  Sn163  1  0.09164754  0.05223341  0.62372601  1
  Sn  Sn164  1  0.09164754  0.38556674  0.12372601  1
  Sn  Sn165  1  0.09164754  0.38556674  0.62372601  1
  Sn  Sn166  1  0.09164754  0.71890008  0.12372601  1
  Sn  Sn167  1  0.09164754  0.71890008  0.62372601  1
  Sn  Sn168  1  0.42498088  0.05223341  0.12372601  1
  Sn  Sn169  1  0.42498088  0.05223341  0.62372601  1
  Sn  Sn170  1  0.42498088  0.38556674  0.12372601  1
  Sn  Sn171  1  0.42498088  0.38556674  0.62372601  1
  Sn  Sn172  1  0.42498088  0.71890008  0.12372601  1
  Sn  Sn173  1  0.42498088  0.71890008  0.62372601  1
  Sn  Sn174  1  0.75831421  0.05223341  0.12372601  1
  Sn  Sn175  1  0.75831421  0.05223341  0.62372601  1
  Sn  Sn176  1  0.75831421  0.38556674  0.12372601  1
  Sn  Sn177  1  0.75831421  0.38556674  0.62372601  1
  Sn  Sn178  1  0.75831421  0.71890008  0.12372601  1
  Sn  Sn179  1  0.75831421  0.71890008  0.62372601  1
  O  O180  1  0.29079058  0.27914716  0.45347000  1
  O  O181  1  0.29079058  0.27914716  0.95347000  1
  O  O182  1  0.29079058  0.61248050  0.45347000  1
  O  O183  1  0.29079058  0.61248050  0.95347000  1
  O  O184  1  0.29079058  0.94581383  0.45347000  1
  O  O185  1  0.29079058  0.94581383  0.95347000  1
  O  O186  1  0.62412391  0.27914716  0.45347000  1
  O  O187  1  0.62412391  0.27914716  0.95347000  1
  O  O188  1  0.62412391  0.61248050  0.45347000  1
  O  O189  1  0.62412391  0.61248050  0.95347000  1
  O  O190  1  0.62412391  0.94581383  0.45347000  1
  O  O191  1  0.62412391  0.94581383  0.95347000  1
  O  O192  1  0.95745724  0.27914716  0.45347000  1
  O  O193  1  0.95745724  0.27914716  0.95347000  1
  O  O194  1  0.95745724  0.61248050  0.45347000  1
  O  O195  1  0.95745724  0.61248050  0.95347000  1
  O  O196  1  0.95745724  0.94581383  0.45347000  1
  O  O197  1  0.95745724  0.94581383  0.95347000  1
  O  O198  1  0.04254276  0.05418617  0.04653000  1
  O  O199  1  0.04254276  0.05418617  0.54653000  1
  O  O200  1  0.04254276  0.38751950  0.04653000  1
  O  O201  1  0.04254276  0.38751950  0.54653000  1
  O  O202  1  0.04254276  0.72085284  0.04653000  1
  O  O203  1  0.04254276  0.72085284  0.54653000  1
  O  O204  1  0.37587609  0.05418617  0.04653000  1
  O  O205  1  0.37587609  0.05418617  0.54653000  1
  O  O206  1  0.37587609  0.38751950  0.04653000  1
  O  O207  1  0.37587609  0.38751950  0.54653000  1
  O  O208  1  0.37587609  0.72085284  0.04653000  1
  O  O209  1  0.37587609  0.72085284  0.54653000  1
  O  O210  1  0.70920942  0.05418617  0.04653000  1
  O  O211  1  0.70920942  0.05418617  0.54653000  1
  O  O212  1  0.70920942  0.38751950  0.04653000  1
  O  O213  1  0.70920942  0.38751950  0.54653000  1
  O  O214  1  0.70920942  0.72085284  0.04653000  1
  O  O215  1  0.70920942  0.72085284  0.54653000  1
  O  O216  1  0.01220395  0.09995300  0.18779071  1
  O  O217  1  0.01220395  0.09995300  0.68779071  1
  O  O218  1  0.01220395  0.43328634  0.18779071  1
  O  O219  1  0.01220395  0.43328634  0.68779071  1
  O  O220  1  0.01220395  0.76661967  0.18779071  1
  O  O221  1  0.01220395  0.76661967  0.68779071  1
  O  O222  1  0.34553728  0.09995300  0.18779071  1
  O  O223  1  0.34553728  0.09995300  0.68779071  1
  O  O224  1  0.34553728  0.43328634  0.18779071  1
  O  O225  1  0.34553728  0.43328634  0.68779071  1
  O  O226  1  0.34553728  0.76661967  0.18779071  1
  O  O227  1  0.34553728  0.76661967  0.68779071  1
  O  O228  1  0.67887061  0.09995300  0.18779071  1
  O  O229  1  0.67887061  0.09995300  0.68779071  1
  O  O230  1  0.67887061  0.43328634  0.18779071  1
  O  O231  1  0.67887061  0.43328634  0.68779071  1
  O  O232  1  0.67887061  0.76661967  0.18779071  1
  O  O233  1  0.67887061  0.76661967  0.68779071  1
  O  O234  1  0.32112939  0.23338033  0.31220929  1
  O  O235  1  0.32112939  0.23338033  0.81220929  1
  O  O236  1  0.32112939  0.56671366  0.31220929  1
  O  O237  1  0.32112939  0.56671366  0.81220929  1
  O  O238  1  0.32112939  0.90004700  0.31220929  1
  O  O239  1  0.32112939  0.90004700  0.81220929  1
  O  O240  1  0.65446272  0.23338033  0.31220929  1
  O  O241  1  0.65446272  0.23338033  0.81220929  1
  O  O242  1  0.65446272  0.56671366  0.31220929  1
  O  O243  1  0.65446272  0.56671366  0.81220929  1
  O  O244  1  0.65446272  0.90004700  0.31220929  1
  O  O245  1  0.65446272  0.90004700  0.81220929  1
  O  O246  1  0.98779605  0.23338033  0.31220929  1
  O  O247  1  0.98779605  0.23338033  0.81220929  1
  O  O248  1  0.98779605  0.56671366  0.31220929  1
  O  O249  1  0.98779605  0.56671366  0.81220929  1
  O  O250  1  0.98779605  0.90004700  0.31220929  1
  O  O251  1  0.98779605  0.90004700  0.81220929  1
  O  O252  1  0.15391559  0.11310506  0.09463533  1
  O  O253  1  0.15391559  0.11310506  0.59463533  1
  O  O254  1  0.15391559  0.44643840  0.09463533  1
  O  O255  1  0.15391559  0.44643840  0.59463533  1
  O  O256  1  0.15391559  0.77977173  0.09463533  1
  O  O257  1  0.15391559  0.77977173  0.59463533  1
  O  O258  1  0.48724892  0.11310506  0.09463533  1
  O  O259  1  0.48724892  0.11310506  0.59463533  1
  O  O260  1  0.48724892  0.44643840  0.09463533  1
  O  O261  1  0.48724892  0.44643840  0.59463533  1
  O  O262  1  0.48724892  0.77977173  0.09463533  1
  O  O263  1  0.48724892  0.77977173  0.59463533  1
  O  O264  1  0.82058226  0.11310506  0.09463533  1
  O  O265  1  0.82058226  0.11310506  0.59463533  1
  O  O266  1  0.82058226  0.44643840  0.09463533  1
  O  O267  1  0.82058226  0.44643840  0.59463533  1
  O  O268  1  0.82058226  0.77977173  0.09463533  1
  O  O269  1  0.82058226  0.77977173  0.59463533  1
  O  O270  1  0.17941774  0.22022827  0.40536467  1
  O  O271  1  0.17941774  0.22022827  0.90536467  1
  O  O272  1  0.17941774  0.55356160  0.40536467  1
  O  O273  1  0.17941774  0.55356160  0.90536467  1
  O  O274  1  0.17941774  0.88689494  0.40536467  1
  O  O275  1  0.17941774  0.88689494  0.90536467  1
  O  O276  1  0.51275108  0.22022827  0.40536467  1
  O  O277  1  0.51275108  0.22022827  0.90536467  1
  O  O278  1  0.51275108  0.55356160  0.40536467  1
  O  O279  1  0.51275108  0.55356160  0.90536467  1
  O  O280  1  0.51275108  0.88689494  0.40536467  1
  O  O281  1  0.51275108  0.88689494  0.90536467  1
  O  O282  1  0.84608441  0.22022827  0.40536467  1
  O  O283  1  0.84608441  0.22022827  0.90536467  1
  O  O284  1  0.84608441  0.55356160  0.40536467  1
  O  O285  1  0.84608441  0.55356160  0.90536467  1
  O  O286  1  0.84608441  0.88689494  0.40536467  1
  O  O287  1  0.84608441  0.88689494  0.90536467  1
  O  O288  1  0.15114275  0.28351578  0.17591311  1
  O  O289  1  0.15114275  0.28351578  0.67591311  1
  O  O290  1  0.15114275  0.61684911  0.17591311  1
  O  O291  1  0.15114275  0.61684911  0.67591311  1
  O  O292  1  0.15114275  0.95018245  0.17591311  1
  O  O293  1  0.15114275  0.95018245  0.67591311  1
  O  O294  1  0.48447608  0.28351578  0.17591311  1
  O  O295  1  0.48447608  0.28351578  0.67591311  1
  O  O296  1  0.48447608  0.61684911  0.17591311  1
  O  O297  1  0.48447608  0.61684911  0.67591311  1
  O  O298  1  0.48447608  0.95018245  0.17591311  1
  O  O299  1  0.48447608  0.95018245  0.67591311  1
  O  O300  1  0.81780942  0.28351578  0.17591311  1
  O  O301  1  0.81780942  0.28351578  0.67591311  1
  O  O302  1  0.81780942  0.61684911  0.17591311  1
  O  O303  1  0.81780942  0.61684911  0.67591311  1
  O  O304  1  0.81780942  0.95018245  0.17591311  1
  O  O305  1  0.81780942  0.95018245  0.67591311  1
  O  O306  1  0.18219058  0.04981755  0.32408689  1
  O  O307  1  0.18219058  0.04981755  0.82408689  1
  O  O308  1  0.18219058  0.38315089  0.32408689  1
  O  O309  1  0.18219058  0.38315089  0.82408689  1
  O  O310  1  0.18219058  0.71648422  0.32408689  1
  O  O311  1  0.18219058  0.71648422  0.82408689  1
  O  O312  1  0.51552392  0.04981755  0.32408689  1
  O  O313  1  0.51552392  0.04981755  0.82408689  1
  O  O314  1  0.51552392  0.38315089  0.32408689  1
  O  O315  1  0.51552392  0.38315089  0.82408689  1
  O  O316  1  0.51552392  0.71648422  0.32408689  1
  O  O317  1  0.51552392  0.71648422  0.82408689  1
  O  O318  1  0.84885725  0.04981755  0.32408689  1
  O  O319  1  0.84885725  0.04981755  0.82408689  1
  O  O320  1  0.84885725  0.38315089  0.32408689  1
  O  O321  1  0.84885725  0.38315089  0.82408689  1
  O  O322  1  0.84885725  0.71648422  0.32408689  1
  O  O323  1  0.84885725  0.71648422  0.82408689  1
