# generated using pymatgen
data_LiScSiO4
_symmetry_space_group_name_H-M   'P 1'
_cell_length_a   10.40011801
_cell_length_b   11.87938664
_cell_length_c   9.61338685
_cell_angle_alpha   90.00000000
_cell_angle_beta   90.00000000
_cell_angle_gamma   90.00000000
_symmetry_Int_Tables_number   1
_chemical_formula_structural   LiScSiO4
_chemical_formula_sum   'Li16 Sc16 Si16 O64'
_cell_volume   1187.70532518
_cell_formula_units_Z   16
loop_
 _symmetry_equiv_pos_site_id
 _symmetry_equiv_pos_as_xyz
  1  'x, y, z'
loop_
 _atom_site_type_symbol
 _atom_site_label
 _atom_site_symmetry_multiplicity
 _atom_site_fract_x
 _atom_site_fract_y
 _atom_site_fract_z
 _atom_site_occupancy
  Li  Li0  1  0.00000000  0.00000000  0.00000000  1
  Li  Li1  1  0.00000000  0.00000000  0.50000000  1
  Li  Li2  1  0.00000000  0.50000000  0.00000000  1
  Li  Li3  1  0.00000000  0.50000000  0.50000000  1
  Li  Li4  1  0.50000000  0.00000000  0.25000000  1
  Li  Li5  1  0.50000000  0.00000000  0.75000000  1
  Li  Li6  1  0.50000000  0.50000000  0.25000000  1
  Li  Li7  1  0.50000000  0.50000000  0.75000000  1
  Li  Li8  1  0.00000000  0.25000000  0.00000000  1
  Li  Li9  1  0.00000000  0.25000000  0.50000000  1
  Li  Li10  1  0.00000000  0.75000000  0.00000000  1
  Li  Li11  1  0.00000000  0.75000000  0.50000000  1
  Li  Li12  1  0.50000000  0.25000000  0.25000000  1
  Li  Li13  1  0.50000000  0.25000000  0.75000000  1
  Li  Li14  1  0.50000000  0.75000000  0.25000000  1
  Li  Li15  1  0.50000000  0.75000000  0.75000000  1
  Sc  Sc16  1  0.77360724  0.12500000  0.25127470  1
  Sc  Sc17  1  0.77360724  0.12500000  0.75127470  1
  Sc  Sc18  1  0.77360724  0.62500000  0.25127470  1
  Sc  Sc19  1  0.77360724  0.62500000  0.75127470  1
  Sc  Sc20  1  0.27360724  0.12500000  0.49872530  1
  Sc  Sc21  1  0.27360724  0.12500000  0.99872530  1
  Sc  Sc22  1  0.27360724  0.62500000  0.49872530  1
  Sc  Sc23  1  0.27360724  0.62500000  0.99872530  1
  Sc  Sc24  1  0.22639276  0.37500000  0.24872530  1
  Sc  Sc25  1  0.22639276  0.37500000  0.74872530  1
  Sc  Sc26  1  0.22639276  0.87500000  0.24872530  1
  Sc  Sc27  1  0.22639276  0.87500000  0.74872530  1
  Sc  Sc28  1  0.72639276  0.37500000  0.00127470  1
  Sc  Sc29  1  0.72639276  0.37500000  0.50127470  1
  Sc  Sc30  1  0.72639276  0.87500000  0.00127470  1
  Sc  Sc31  1  0.72639276  0.87500000  0.50127470  1
  Si  Si32  1  0.90868879  0.37500000  0.28178392  1
  Si  Si33  1  0.90868879  0.37500000  0.78178392  1
  Si  Si34  1  0.90868879  0.87500000  0.28178392  1
  Si  Si35  1  0.90868879  0.87500000  0.78178392  1
  Si  Si36  1  0.09131121  0.12500000  0.21821608  1
  Si  Si37  1  0.09131121  0.12500000  0.71821608  1
  Si  Si38  1  0.09131121  0.62500000  0.21821608  1
  Si  Si39  1  0.09131121  0.62500000  0.71821608  1
  Si  Si40  1  0.40868879  0.37500000  0.46821608  1
  Si  Si41  1  0.40868879  0.37500000  0.96821608  1
  Si  Si42  1  0.40868879  0.87500000  0.46821608  1
  Si  Si43  1  0.40868879  0.87500000  0.96821608  1
  Si  Si44  1  0.59131121  0.12500000  0.03178392  1
  Si  Si45  1  0.59131121  0.12500000  0.53178392  1
  Si  Si46  1  0.59131121  0.62500000  0.03178392  1
  Si  Si47  1  0.59131121  0.62500000  0.53178392  1
  O  O48  1  0.33030160  0.26899940  0.39260165  1
  O  O49  1  0.33030160  0.26899940  0.89260165  1
  O  O50  1  0.33030160  0.76899940  0.39260165  1
  O  O51  1  0.33030160  0.76899940  0.89260165  1
  O  O52  1  0.66969840  0.23100060  0.10739835  1
  O  O53  1  0.66969840  0.23100060  0.60739835  1
  O  O54  1  0.66969840  0.73100060  0.10739835  1
  O  O55  1  0.66969840  0.73100060  0.60739835  1
  O  O56  1  0.83030160  0.26899940  0.35739835  1
  O  O57  1  0.83030160  0.26899940  0.85739835  1
  O  O58  1  0.83030160  0.76899940  0.35739835  1
  O  O59  1  0.83030160  0.76899940  0.85739835  1
  O  O60  1  0.33030160  0.48100060  0.39260165  1
  O  O61  1  0.33030160  0.48100060  0.89260165  1
  O  O62  1  0.33030160  0.98100060  0.39260165  1
  O  O63  1  0.33030160  0.98100060  0.89260165  1
  O  O64  1  0.16969840  0.01899940  0.14260165  1
  O  O65  1  0.16969840  0.01899940  0.64260165  1
  O  O66  1  0.16969840  0.51899940  0.14260165  1
  O  O67  1  0.16969840  0.51899940  0.64260165  1
  O  O68  1  0.09960228  0.12500000  0.38605853  1
  O  O69  1  0.09960228  0.12500000  0.88605853  1
  O  O70  1  0.09960228  0.62500000  0.38605853  1
  O  O71  1  0.09960228  0.62500000  0.88605853  1
  O  O72  1  0.16969840  0.23100060  0.14260165  1
  O  O73  1  0.16969840  0.23100060  0.64260165  1
  O  O74  1  0.16969840  0.73100060  0.14260165  1
  O  O75  1  0.16969840  0.73100060  0.64260165  1
  O  O76  1  0.66969840  0.01899940  0.10739835  1
  O  O77  1  0.66969840  0.01899940  0.60739835  1
  O  O78  1  0.66969840  0.51899940  0.10739835  1
  O  O79  1  0.66969840  0.51899940  0.60739835  1
  O  O80  1  0.90039772  0.37500000  0.11394147  1
  O  O81  1  0.90039772  0.37500000  0.61394147  1
  O  O82  1  0.90039772  0.87500000  0.11394147  1
  O  O83  1  0.90039772  0.87500000  0.61394147  1
  O  O84  1  0.59960228  0.12500000  0.36394147  1
  O  O85  1  0.59960228  0.12500000  0.86394147  1
  O  O86  1  0.59960228  0.62500000  0.36394147  1
  O  O87  1  0.59960228  0.62500000  0.86394147  1
  O  O88  1  0.55285233  0.37500000  0.40157961  1
  O  O89  1  0.55285233  0.37500000  0.90157961  1
  O  O90  1  0.55285233  0.87500000  0.40157961  1
  O  O91  1  0.55285233  0.87500000  0.90157961  1
  O  O92  1  0.40039772  0.37500000  0.13605853  1
  O  O93  1  0.40039772  0.37500000  0.63605853  1
  O  O94  1  0.40039772  0.87500000  0.13605853  1
  O  O95  1  0.40039772  0.87500000  0.63605853  1
  O  O96  1  0.05285233  0.37500000  0.34842039  1
  O  O97  1  0.05285233  0.37500000  0.84842039  1
  O  O98  1  0.05285233  0.87500000  0.34842039  1
  O  O99  1  0.05285233  0.87500000  0.84842039  1
  O  O100  1  0.94714767  0.12500000  0.15157961  1
  O  O101  1  0.94714767  0.12500000  0.65157961  1
  O  O102  1  0.94714767  0.62500000  0.15157961  1
  O  O103  1  0.94714767  0.62500000  0.65157961  1
  O  O104  1  0.44714767  0.12500000  0.09842039  1
  O  O105  1  0.44714767  0.12500000  0.59842039  1
  O  O106  1  0.44714767  0.62500000  0.09842039  1
  O  O107  1  0.44714767  0.62500000  0.59842039  1
  O  O108  1  0.83030160  0.48100060  0.35739835  1
  O  O109  1  0.83030160  0.48100060  0.85739835  1
  O  O110  1  0.83030160  0.98100060  0.35739835  1
  O  O111  1  0.83030160  0.98100060  0.85739835  1
