# generated using pymatgen
data_MgTa2O6
_symmetry_space_group_name_H-M   'P 1'
_cell_length_a   9.45788742
_cell_length_b   9.45788742
_cell_length_c   9.17513125
_cell_angle_alpha   90.00000000
_cell_angle_beta   90.00000000
_cell_angle_gamma   90.00000000
_symmetry_Int_Tables_number   1
_chemical_formula_structural   MgTa2O6
_chemical_formula_sum   'Mg8 Ta16 O48'
_cell_volume   820.73048599
_cell_formula_units_Z   8
loop_
 _symmetry_equiv_pos_site_id
 _symmetry_equiv_pos_as_xyz
  1  'x, y, z'
loop_
 _atom_site_type_symbol
 _atom_site_label
 _atom_site_symmetry_multiplicity
 _atom_site_fract_x
 _atom_site_fract_y
 _atom_site_fract_z
 _atom_site_occupancy
  Mg  Mg0  1  0.00000000  0.50000000  0.00000000  1
  Mg  Mg1  1  0.50000000  0.50000000  0.00000000  1
  Mg  Mg2  1  0.00000000  0.00000000  0.00000000  1
  Mg  Mg3  1  0.50000000  0.00000000  0.00000000  1
  Mg  Mg4  1  0.25000000  0.25000000  0.50000000  1
  Mg  Mg5  1  0.75000000  0.25000000  0.50000000  1
  Mg  Mg6  1  0.25000000  -0.25000000  0.50000000  1
  Mg  Mg7  1  0.75000000  -0.25000000  0.50000000  1
  Ta  Ta8  1  0.25000000  0.25000000  0.83223521  1
  Ta  Ta9  1  0.75000000  0.25000000  0.83223521  1
  Ta  Ta10  1  0.25000000  -0.25000000  0.83223521  1
  Ta  Ta11  1  0.75000000  -0.25000000  0.83223521  1
  Ta  Ta12  1  0.00000000  0.50000000  0.33223521  1
  Ta  Ta13  1  0.50000000  0.50000000  0.33223521  1
  Ta  Ta14  1  0.00000000  0.00000000  0.33223521  1
  Ta  Ta15  1  0.50000000  0.00000000  0.33223521  1
  Ta  Ta16  1  0.25000000  0.25000000  0.16776479  1
  Ta  Ta17  1  0.75000000  0.25000000  0.16776479  1
  Ta  Ta18  1  0.25000000  -0.25000000  0.16776479  1
  Ta  Ta19  1  0.75000000  -0.25000000  0.16776479  1
  Ta  Ta20  1  0.00000000  0.50000000  0.66776479  1
  Ta  Ta21  1  0.50000000  0.50000000  0.66776479  1
  Ta  Ta22  1  0.00000000  0.00000000  0.66776479  1
  Ta  Ta23  1  0.50000000  0.00000000  0.66776479  1
  O  O24  1  0.35119752  0.14880248  0.67549258  1
  O  O25  1  0.85119752  0.14880248  0.67549258  1
  O  O26  1  0.35119752  -0.35119752  0.67549258  1
  O  O27  1  0.85119752  -0.35119752  0.67549258  1
  O  O28  1  0.14880248  0.35119752  0.67549258  1
  O  O29  1  0.64880248  0.35119752  0.67549258  1
  O  O30  1  0.14880248  -0.14880248  0.67549258  1
  O  O31  1  0.64880248  -0.14880248  0.67549258  1
  O  O32  1  0.35119752  0.14880248  0.32450742  1
  O  O33  1  0.85119752  0.14880248  0.32450742  1
  O  O34  1  0.35119752  -0.35119752  0.32450742  1
  O  O35  1  0.85119752  -0.35119752  0.32450742  1
  O  O36  1  0.39880248  0.39880248  0.17549258  1
  O  O37  1  0.89880248  0.39880248  0.17549258  1
  O  O38  1  0.39880248  -0.10119752  0.17549258  1
  O  O39  1  0.89880248  -0.10119752  0.17549258  1
  O  O40  1  0.10119752  0.10119752  0.17549258  1
  O  O41  1  0.60119752  0.10119752  0.17549258  1
  O  O42  1  0.10119752  -0.39880248  0.17549258  1
  O  O43  1  0.60119752  -0.39880248  0.17549258  1
  O  O44  1  0.10119752  0.10119752  0.82450742  1
  O  O45  1  0.60119752  0.10119752  0.82450742  1
  O  O46  1  0.10119752  -0.39880248  0.82450742  1
  O  O47  1  0.60119752  -0.39880248  0.82450742  1
  O  O48  1  0.15493149  0.34506851  0.00000000  1
  O  O49  1  0.65493149  0.34506851  0.00000000  1
  O  O50  1  0.15493149  -0.15493149  0.00000000  1
  O  O51  1  0.65493149  -0.15493149  0.00000000  1
  O  O52  1  0.40493149  0.40493149  0.50000000  1
  O  O53  1  0.90493149  0.40493149  0.50000000  1
  O  O54  1  0.40493149  -0.09506851  0.50000000  1
  O  O55  1  0.90493149  -0.09506851  0.50000000  1
  O  O56  1  0.09506851  0.09506851  0.50000000  1
  O  O57  1  0.59506851  0.09506851  0.50000000  1
  O  O58  1  0.09506851  -0.40493149  0.50000000  1
  O  O59  1  0.59506851  -0.40493149  0.50000000  1
  O  O60  1  0.34506851  0.15493149  0.00000000  1
  O  O61  1  0.84506851  0.15493149  0.00000000  1
  O  O62  1  0.34506851  -0.34506851  0.00000000  1
  O  O63  1  0.84506851  -0.34506851  0.00000000  1
  O  O64  1  0.14880248  0.35119752  0.32450742  1
  O  O65  1  0.64880248  0.35119752  0.32450742  1
  O  O66  1  0.14880248  -0.14880248  0.32450742  1
  O  O67  1  0.64880248  -0.14880248  0.32450742  1
  O  O68  1  0.39880248  0.39880248  0.82450742  1
  O  O69  1  0.89880248  0.39880248  0.82450742  1
  O  O70  1  0.39880248  -0.10119752  0.82450742  1
  O  O71  1  0.89880248  -0.10119752  0.82450742  1
