# generated using pymatgen
data_NaCuO2
_symmetry_space_group_name_H-M   'P 1'
_cell_length_a   10.74916710
_cell_length_b   10.70122418
_cell_length_c   10.56813916
_cell_angle_alpha   90.00000000
_cell_angle_beta   90.00000000
_cell_angle_gamma   90.00000000
_symmetry_Int_Tables_number   1
_chemical_formula_structural   NaCuO2
_chemical_formula_sum   'Na24 Cu24 O48'
_cell_volume   1215.64508878
_cell_formula_units_Z   24
loop_
 _symmetry_equiv_pos_site_id
 _symmetry_equiv_pos_as_xyz
  1  'x, y, z'
loop_
 _atom_site_type_symbol
 _atom_site_label
 _atom_site_symmetry_multiplicity
 _atom_site_fract_x
 _atom_site_fract_y
 _atom_site_fract_z
 _atom_site_occupancy
  Na  Na0  1  0.16666667  -0.21073209  0.12500000  1
  Na  Na1  1  0.16666667  -0.21073209  0.62500000  1
  Na  Na2  1  0.50000000  -0.21073209  0.12500000  1
  Na  Na3  1  0.50000000  -0.21073209  0.62500000  1
  Na  Na4  1  0.83333333  -0.21073209  0.12500000  1
  Na  Na5  1  0.83333333  -0.21073209  0.62500000  1
  Na  Na6  1  0.33333333  0.28926791  0.12500000  1
  Na  Na7  1  0.33333333  0.28926791  0.62500000  1
  Na  Na8  1  0.66666667  0.28926791  0.12500000  1
  Na  Na9  1  0.66666667  0.28926791  0.62500000  1
  Na  Na10  1  1.00000000  0.28926791  0.12500000  1
  Na  Na11  1  1.00000000  0.28926791  0.62500000  1
  Na  Na12  1  0.16666667  0.21073209  0.37500000  1
  Na  Na13  1  0.16666667  0.21073209  0.87500000  1
  Na  Na14  1  0.50000000  0.21073209  0.37500000  1
  Na  Na15  1  0.50000000  0.21073209  0.87500000  1
  Na  Na16  1  0.83333333  0.21073209  0.37500000  1
  Na  Na17  1  0.83333333  0.21073209  0.87500000  1
  Na  Na18  1  0.33333333  0.71073209  0.37500000  1
  Na  Na19  1  0.33333333  0.71073209  0.87500000  1
  Na  Na20  1  0.66666667  0.71073209  0.37500000  1
  Na  Na21  1  0.66666667  0.71073209  0.87500000  1
  Na  Na22  1  1.00000000  0.71073209  0.37500000  1
  Na  Na23  1  1.00000000  0.71073209  0.87500000  1
  Cu  Cu24  1  0.16666667  -0.49663194  0.12500000  1
  Cu  Cu25  1  0.16666667  -0.49663194  0.62500000  1
  Cu  Cu26  1  0.50000000  -0.49663194  0.12500000  1
  Cu  Cu27  1  0.50000000  -0.49663194  0.62500000  1
  Cu  Cu28  1  0.83333333  -0.49663194  0.12500000  1
  Cu  Cu29  1  0.83333333  -0.49663194  0.62500000  1
  Cu  Cu30  1  0.33333333  0.00336806  0.12500000  1
  Cu  Cu31  1  0.33333333  0.00336806  0.62500000  1
  Cu  Cu32  1  0.66666667  0.00336806  0.12500000  1
  Cu  Cu33  1  0.66666667  0.00336806  0.62500000  1
  Cu  Cu34  1  1.00000000  0.00336806  0.12500000  1
  Cu  Cu35  1  1.00000000  0.00336806  0.62500000  1
  Cu  Cu36  1  0.16666667  0.49663194  0.37500000  1
  Cu  Cu37  1  0.16666667  0.49663194  0.87500000  1
  Cu  Cu38  1  0.50000000  0.49663194  0.37500000  1
  Cu  Cu39  1  0.50000000  0.49663194  0.87500000  1
  Cu  Cu40  1  0.83333333  0.49663194  0.37500000  1
  Cu  Cu41  1  0.83333333  0.49663194  0.87500000  1
  Cu  Cu42  1  0.33333333  0.99663194  0.37500000  1
  Cu  Cu43  1  0.33333333  0.99663194  0.87500000  1
  Cu  Cu44  1  0.66666667  0.99663194  0.37500000  1
  Cu  Cu45  1  0.66666667  0.99663194  0.87500000  1
  Cu  Cu46  1  1.00000000  0.99663194  0.37500000  1
  Cu  Cu47  1  1.00000000  0.99663194  0.87500000  1
  O  O48  1  0.16666667  0.38524858  0.24670583  1
  O  O49  1  0.16666667  0.38524858  0.74670583  1
  O  O50  1  0.50000000  0.38524858  0.24670583  1
  O  O51  1  0.50000000  0.38524858  0.74670583  1
  O  O52  1  0.83333333  0.38524858  0.24670583  1
  O  O53  1  0.83333333  0.38524858  0.74670583  1
  O  O54  1  0.33333333  0.88524858  0.24670583  1
  O  O55  1  0.33333333  0.88524858  0.74670583  1
  O  O56  1  0.66666667  0.88524858  0.24670583  1
  O  O57  1  0.66666667  0.88524858  0.74670583  1
  O  O58  1  1.00000000  0.88524858  0.24670583  1
  O  O59  1  1.00000000  0.88524858  0.74670583  1
  O  O60  1  0.16666667  -0.38524858  0.25329417  1
  O  O61  1  0.16666667  -0.38524858  0.75329417  1
  O  O62  1  0.50000000  -0.38524858  0.25329417  1
  O  O63  1  0.50000000  -0.38524858  0.75329417  1
  O  O64  1  0.83333333  -0.38524858  0.25329417  1
  O  O65  1  0.83333333  -0.38524858  0.75329417  1
  O  O66  1  0.33333333  0.11475142  0.25329417  1
  O  O67  1  0.33333333  0.11475142  0.75329417  1
  O  O68  1  0.66666667  0.11475142  0.25329417  1
  O  O69  1  0.66666667  0.11475142  0.75329417  1
  O  O70  1  1.00000000  0.11475142  0.25329417  1
  O  O71  1  1.00000000  0.11475142  0.75329417  1
  O  O72  1  0.16666667  0.38524858  0.00329417  1
  O  O73  1  0.16666667  0.38524858  0.50329417  1
  O  O74  1  0.50000000  0.38524858  0.00329417  1
  O  O75  1  0.50000000  0.38524858  0.50329417  1
  O  O76  1  0.83333333  0.38524858  0.00329417  1
  O  O77  1  0.83333333  0.38524858  0.50329417  1
  O  O78  1  0.33333333  0.88524858  0.00329417  1
  O  O79  1  0.33333333  0.88524858  0.50329417  1
  O  O80  1  0.66666667  0.88524858  0.00329417  1
  O  O81  1  0.66666667  0.88524858  0.50329417  1
  O  O82  1  1.00000000  0.88524858  0.00329417  1
  O  O83  1  1.00000000  0.88524858  0.50329417  1
  O  O84  1  0.16666667  -0.38524858  0.49670583  1
  O  O85  1  0.16666667  -0.38524858  0.99670583  1
  O  O86  1  0.50000000  -0.38524858  0.49670583  1
  O  O87  1  0.50000000  -0.38524858  0.99670583  1
  O  O88  1  0.83333333  -0.38524858  0.49670583  1
  O  O89  1  0.83333333  -0.38524858  0.99670583  1
  O  O90  1  0.33333333  0.11475142  0.49670583  1
  O  O91  1  0.33333333  0.11475142  0.99670583  1
  O  O92  1  0.66666667  0.11475142  0.49670583  1
  O  O93  1  0.66666667  0.11475142  0.99670583  1
  O  O94  1  1.00000000  0.11475142  0.49670583  1
  O  O95  1  1.00000000  0.11475142  0.99670583  1
