# generated using pymatgen
data_Rb2CdO2
_symmetry_space_group_name_H-M   'P 1'
_cell_length_a   20.97862090
_cell_length_b   19.04523498
_cell_length_c   18.84319720
_cell_angle_alpha   90.00000000
_cell_angle_beta   90.00000000
_cell_angle_gamma   90.00000000
_symmetry_Int_Tables_number   1
_chemical_formula_structural   Rb2CdO2
_chemical_formula_sum   'Rb144 Cd72 O144'
_cell_volume   7528.66310470
_cell_formula_units_Z   72
loop_
 _symmetry_equiv_pos_site_id
 _symmetry_equiv_pos_as_xyz
  1  'x, y, z'
loop_
 _atom_site_type_symbol
 _atom_site_label
 _atom_site_symmetry_multiplicity
 _atom_site_fract_x
 _atom_site_fract_y
 _atom_site_fract_z
 _atom_site_occupancy
  Rb  Rb0  1  0.32784561  0.03634013  0.13237470  1
  Rb  Rb1  1  0.32784561  0.03634013  0.46570804  1
  Rb  Rb2  1  0.32784561  0.03634013  0.79904137  1
  Rb  Rb3  1  0.32784561  0.36967347  0.13237470  1
  Rb  Rb4  1  0.32784561  0.36967347  0.46570804  1
  Rb  Rb5  1  0.32784561  0.36967347  0.79904137  1
  Rb  Rb6  1  0.32784561  0.70300680  0.13237470  1
  Rb  Rb7  1  0.32784561  0.70300680  0.46570804  1
  Rb  Rb8  1  0.32784561  0.70300680  0.79904137  1
  Rb  Rb9  1  0.82784561  0.03634013  0.13237470  1
  Rb  Rb10  1  0.82784561  0.03634013  0.46570804  1
  Rb  Rb11  1  0.82784561  0.03634013  0.79904137  1
  Rb  Rb12  1  0.82784561  0.36967347  0.13237470  1
  Rb  Rb13  1  0.82784561  0.36967347  0.46570804  1
  Rb  Rb14  1  0.82784561  0.36967347  0.79904137  1
  Rb  Rb15  1  0.82784561  0.70300680  0.13237470  1
  Rb  Rb16  1  0.82784561  0.70300680  0.46570804  1
  Rb  Rb17  1  0.82784561  0.70300680  0.79904137  1
  Rb  Rb18  1  0.07784561  0.13032653  0.20095863  1
  Rb  Rb19  1  0.07784561  0.13032653  0.53429196  1
  Rb  Rb20  1  0.07784561  0.13032653  0.86762530  1
  Rb  Rb21  1  0.07784561  0.46365987  0.20095863  1
  Rb  Rb22  1  0.07784561  0.46365987  0.53429196  1
  Rb  Rb23  1  0.07784561  0.46365987  0.86762530  1
  Rb  Rb24  1  0.07784561  0.79699320  0.20095863  1
  Rb  Rb25  1  0.07784561  0.79699320  0.53429196  1
  Rb  Rb26  1  0.07784561  0.79699320  0.86762530  1
  Rb  Rb27  1  0.57784561  0.13032653  0.20095863  1
  Rb  Rb28  1  0.57784561  0.13032653  0.53429196  1
  Rb  Rb29  1  0.57784561  0.13032653  0.86762530  1
  Rb  Rb30  1  0.57784561  0.46365987  0.20095863  1
  Rb  Rb31  1  0.57784561  0.46365987  0.53429196  1
  Rb  Rb32  1  0.57784561  0.46365987  0.86762530  1
  Rb  Rb33  1  0.57784561  0.79699320  0.20095863  1
  Rb  Rb34  1  0.57784561  0.79699320  0.53429196  1
  Rb  Rb35  1  0.57784561  0.79699320  0.86762530  1
  Rb  Rb36  1  0.32784561  0.29699320  0.29904137  1
  Rb  Rb37  1  0.32784561  0.29699320  0.63237470  1
  Rb  Rb38  1  0.32784561  0.29699320  0.96570804  1
  Rb  Rb39  1  0.32784561  0.63032653  0.29904137  1
  Rb  Rb40  1  0.32784561  0.63032653  0.63237470  1
  Rb  Rb41  1  0.32784561  0.63032653  0.96570804  1
  Rb  Rb42  1  0.32784561  0.96365987  0.29904137  1
  Rb  Rb43  1  0.32784561  0.96365987  0.63237470  1
  Rb  Rb44  1  0.32784561  0.96365987  0.96570804  1
  Rb  Rb45  1  0.82784561  0.29699320  0.29904137  1
  Rb  Rb46  1  0.82784561  0.29699320  0.63237470  1
  Rb  Rb47  1  0.82784561  0.29699320  0.96570804  1
  Rb  Rb48  1  0.82784561  0.63032653  0.29904137  1
  Rb  Rb49  1  0.82784561  0.63032653  0.63237470  1
  Rb  Rb50  1  0.82784561  0.63032653  0.96570804  1
  Rb  Rb51  1  0.82784561  0.96365987  0.29904137  1
  Rb  Rb52  1  0.82784561  0.96365987  0.63237470  1
  Rb  Rb53  1  0.82784561  0.96365987  0.96570804  1
  Rb  Rb54  1  0.07784561  0.20300680  0.03429196  1
  Rb  Rb55  1  0.07784561  0.20300680  0.36762530  1
  Rb  Rb56  1  0.07784561  0.20300680  0.70095863  1
  Rb  Rb57  1  0.07784561  0.53634013  0.03429196  1
  Rb  Rb58  1  0.07784561  0.53634013  0.36762530  1
  Rb  Rb59  1  0.07784561  0.53634013  0.70095863  1
  Rb  Rb60  1  0.07784561  0.86967347  0.03429196  1
  Rb  Rb61  1  0.07784561  0.86967347  0.36762530  1
  Rb  Rb62  1  0.07784561  0.86967347  0.70095863  1
  Rb  Rb63  1  0.57784561  0.20300680  0.03429196  1
  Rb  Rb64  1  0.57784561  0.20300680  0.36762530  1
  Rb  Rb65  1  0.57784561  0.20300680  0.70095863  1
  Rb  Rb66  1  0.57784561  0.53634013  0.03429196  1
  Rb  Rb67  1  0.57784561  0.53634013  0.36762530  1
  Rb  Rb68  1  0.57784561  0.53634013  0.70095863  1
  Rb  Rb69  1  0.57784561  0.86967347  0.03429196  1
  Rb  Rb70  1  0.57784561  0.86967347  0.36762530  1
  Rb  Rb71  1  0.57784561  0.86967347  0.70095863  1
  Rb  Rb72  1  0.17215439  0.29699320  0.20095863  1
  Rb  Rb73  1  0.17215439  0.29699320  0.53429196  1
  Rb  Rb74  1  0.17215439  0.29699320  0.86762530  1
  Rb  Rb75  1  0.17215439  0.63032653  0.20095863  1
  Rb  Rb76  1  0.17215439  0.63032653  0.53429196  1
  Rb  Rb77  1  0.17215439  0.63032653  0.86762530  1
  Rb  Rb78  1  0.17215439  0.96365987  0.20095863  1
  Rb  Rb79  1  0.17215439  0.96365987  0.53429196  1
  Rb  Rb80  1  0.17215439  0.96365987  0.86762530  1
  Rb  Rb81  1  0.67215439  0.29699320  0.20095863  1
  Rb  Rb82  1  0.67215439  0.29699320  0.53429196  1
  Rb  Rb83  1  0.67215439  0.29699320  0.86762530  1
  Rb  Rb84  1  0.67215439  0.63032653  0.20095863  1
  Rb  Rb85  1  0.67215439  0.63032653  0.53429196  1
  Rb  Rb86  1  0.67215439  0.63032653  0.86762530  1
  Rb  Rb87  1  0.67215439  0.96365987  0.20095863  1
  Rb  Rb88  1  0.67215439  0.96365987  0.53429196  1
  Rb  Rb89  1  0.67215439  0.96365987  0.86762530  1
  Rb  Rb90  1  0.42215439  0.20300680  0.13237470  1
  Rb  Rb91  1  0.42215439  0.20300680  0.46570804  1
  Rb  Rb92  1  0.42215439  0.20300680  0.79904137  1
  Rb  Rb93  1  0.42215439  0.53634013  0.13237470  1
  Rb  Rb94  1  0.42215439  0.53634013  0.46570804  1
  Rb  Rb95  1  0.42215439  0.53634013  0.79904137  1
  Rb  Rb96  1  0.42215439  0.86967347  0.13237470  1
  Rb  Rb97  1  0.42215439  0.86967347  0.46570804  1
  Rb  Rb98  1  0.42215439  0.86967347  0.79904137  1
  Rb  Rb99  1  0.92215439  0.20300680  0.13237470  1
  Rb  Rb100  1  0.92215439  0.20300680  0.46570804  1
  Rb  Rb101  1  0.92215439  0.20300680  0.79904137  1
  Rb  Rb102  1  0.92215439  0.53634013  0.13237470  1
  Rb  Rb103  1  0.92215439  0.53634013  0.46570804  1
  Rb  Rb104  1  0.92215439  0.53634013  0.79904137  1
  Rb  Rb105  1  0.92215439  0.86967347  0.13237470  1
  Rb  Rb106  1  0.92215439  0.86967347  0.46570804  1
  Rb  Rb107  1  0.92215439  0.86967347  0.79904137  1
  Rb  Rb108  1  0.42215439  0.13032653  0.29904137  1
  Rb  Rb109  1  0.42215439  0.13032653  0.63237470  1
  Rb  Rb110  1  0.42215439  0.13032653  0.96570804  1
  Rb  Rb111  1  0.42215439  0.46365987  0.29904137  1
  Rb  Rb112  1  0.42215439  0.46365987  0.63237470  1
  Rb  Rb113  1  0.42215439  0.46365987  0.96570804  1
  Rb  Rb114  1  0.42215439  0.79699320  0.29904137  1
  Rb  Rb115  1  0.42215439  0.79699320  0.63237470  1
  Rb  Rb116  1  0.42215439  0.79699320  0.96570804  1
  Rb  Rb117  1  0.92215439  0.13032653  0.29904137  1
  Rb  Rb118  1  0.92215439  0.13032653  0.63237470  1
  Rb  Rb119  1  0.92215439  0.13032653  0.96570804  1
  Rb  Rb120  1  0.92215439  0.46365987  0.29904137  1
  Rb  Rb121  1  0.92215439  0.46365987  0.63237470  1
  Rb  Rb122  1  0.92215439  0.46365987  0.96570804  1
  Rb  Rb123  1  0.92215439  0.79699320  0.29904137  1
  Rb  Rb124  1  0.92215439  0.79699320  0.63237470  1
  Rb  Rb125  1  0.92215439  0.79699320  0.96570804  1
  Rb  Rb126  1  0.17215439  0.03634013  0.03429196  1
  Rb  Rb127  1  0.17215439  0.03634013  0.36762530  1
  Rb  Rb128  1  0.17215439  0.03634013  0.70095863  1
  Rb  Rb129  1  0.17215439  0.36967347  0.03429196  1
  Rb  Rb130  1  0.17215439  0.36967347  0.36762530  1
  Rb  Rb131  1  0.17215439  0.36967347  0.70095863  1
  Rb  Rb132  1  0.17215439  0.70300680  0.03429196  1
  Rb  Rb133  1  0.17215439  0.70300680  0.36762530  1
  Rb  Rb134  1  0.17215439  0.70300680  0.70095863  1
  Rb  Rb135  1  0.67215439  0.03634013  0.03429196  1
  Rb  Rb136  1  0.67215439  0.03634013  0.36762530  1
  Rb  Rb137  1  0.67215439  0.03634013  0.70095863  1
  Rb  Rb138  1  0.67215439  0.36967347  0.03429196  1
  Rb  Rb139  1  0.67215439  0.36967347  0.36762530  1
  Rb  Rb140  1  0.67215439  0.36967347  0.70095863  1
  Rb  Rb141  1  0.67215439  0.70300680  0.03429196  1
  Rb  Rb142  1  0.67215439  0.70300680  0.36762530  1
  Rb  Rb143  1  0.67215439  0.70300680  0.70095863  1
  Cd  Cd144  1  0.25000000  0.15435982  0.25000000  1
  Cd  Cd145  1  0.25000000  0.15435982  0.58333333  1
  Cd  Cd146  1  0.25000000  0.15435982  0.91666667  1
  Cd  Cd147  1  0.25000000  0.48769316  0.25000000  1
  Cd  Cd148  1  0.25000000  0.48769316  0.58333333  1
  Cd  Cd149  1  0.25000000  0.48769316  0.91666667  1
  Cd  Cd150  1  0.25000000  0.82102649  0.25000000  1
  Cd  Cd151  1  0.25000000  0.82102649  0.58333333  1
  Cd  Cd152  1  0.25000000  0.82102649  0.91666667  1
  Cd  Cd153  1  0.75000000  0.15435982  0.25000000  1
  Cd  Cd154  1  0.75000000  0.15435982  0.58333333  1
  Cd  Cd155  1  0.75000000  0.15435982  0.91666667  1
  Cd  Cd156  1  0.75000000  0.48769316  0.25000000  1
  Cd  Cd157  1  0.75000000  0.48769316  0.58333333  1
  Cd  Cd158  1  0.75000000  0.48769316  0.91666667  1
  Cd  Cd159  1  0.75000000  0.82102649  0.25000000  1
  Cd  Cd160  1  0.75000000  0.82102649  0.58333333  1
  Cd  Cd161  1  0.75000000  0.82102649  0.91666667  1
  Cd  Cd162  1  0.25000000  0.17897351  0.08333333  1
  Cd  Cd163  1  0.25000000  0.17897351  0.41666667  1
  Cd  Cd164  1  0.25000000  0.17897351  0.75000000  1
  Cd  Cd165  1  0.25000000  0.51230684  0.08333333  1
  Cd  Cd166  1  0.25000000  0.51230684  0.41666667  1
  Cd  Cd167  1  0.25000000  0.51230684  0.75000000  1
  Cd  Cd168  1  0.25000000  0.84564018  0.08333333  1
  Cd  Cd169  1  0.25000000  0.84564018  0.41666667  1
  Cd  Cd170  1  0.25000000  0.84564018  0.75000000  1
  Cd  Cd171  1  0.75000000  0.17897351  0.08333333  1
  Cd  Cd172  1  0.75000000  0.17897351  0.41666667  1
  Cd  Cd173  1  0.75000000  0.17897351  0.75000000  1
  Cd  Cd174  1  0.75000000  0.51230684  0.08333333  1
  Cd  Cd175  1  0.75000000  0.51230684  0.41666667  1
  Cd  Cd176  1  0.75000000  0.51230684  0.75000000  1
  Cd  Cd177  1  0.75000000  0.84564018  0.08333333  1
  Cd  Cd178  1  0.75000000  0.84564018  0.41666667  1
  Cd  Cd179  1  0.75000000  0.84564018  0.75000000  1
  Cd  Cd180  1  0.00000000  0.32102649  0.25000000  1
  Cd  Cd181  1  0.00000000  0.32102649  0.58333333  1
  Cd  Cd182  1  0.00000000  0.32102649  0.91666667  1
  Cd  Cd183  1  0.00000000  0.65435982  0.25000000  1
  Cd  Cd184  1  0.00000000  0.65435982  0.58333333  1
  Cd  Cd185  1  0.00000000  0.65435982  0.91666667  1
  Cd  Cd186  1  0.00000000  0.98769316  0.25000000  1
  Cd  Cd187  1  0.00000000  0.98769316  0.58333333  1
  Cd  Cd188  1  0.00000000  0.98769316  0.91666667  1
  Cd  Cd189  1  0.50000000  0.32102649  0.25000000  1
  Cd  Cd190  1  0.50000000  0.32102649  0.58333333  1
  Cd  Cd191  1  0.50000000  0.32102649  0.91666667  1
  Cd  Cd192  1  0.50000000  0.65435982  0.25000000  1
  Cd  Cd193  1  0.50000000  0.65435982  0.58333333  1
  Cd  Cd194  1  0.50000000  0.65435982  0.91666667  1
  Cd  Cd195  1  0.50000000  0.98769316  0.25000000  1
  Cd  Cd196  1  0.50000000  0.98769316  0.58333333  1
  Cd  Cd197  1  0.50000000  0.98769316  0.91666667  1
  Cd  Cd198  1  0.00000000  0.01230684  0.08333333  1
  Cd  Cd199  1  0.00000000  0.01230684  0.41666667  1
  Cd  Cd200  1  0.00000000  0.01230684  0.75000000  1
  Cd  Cd201  1  0.00000000  0.34564018  0.08333333  1
  Cd  Cd202  1  0.00000000  0.34564018  0.41666667  1
  Cd  Cd203  1  0.00000000  0.34564018  0.75000000  1
  Cd  Cd204  1  0.00000000  0.67897351  0.08333333  1
  Cd  Cd205  1  0.00000000  0.67897351  0.41666667  1
  Cd  Cd206  1  0.00000000  0.67897351  0.75000000  1
  Cd  Cd207  1  0.50000000  0.01230684  0.08333333  1
  Cd  Cd208  1  0.50000000  0.01230684  0.41666667  1
  Cd  Cd209  1  0.50000000  0.01230684  0.75000000  1
  Cd  Cd210  1  0.50000000  0.34564018  0.08333333  1
  Cd  Cd211  1  0.50000000  0.34564018  0.41666667  1
  Cd  Cd212  1  0.50000000  0.34564018  0.75000000  1
  Cd  Cd213  1  0.50000000  0.67897351  0.08333333  1
  Cd  Cd214  1  0.50000000  0.67897351  0.41666667  1
  Cd  Cd215  1  0.50000000  0.67897351  0.75000000  1
  O  O216  1  0.45200936  0.06367020  0.17276137  1
  O  O217  1  0.45200936  0.06367020  0.50609471  1
  O  O218  1  0.45200936  0.06367020  0.83942804  1
  O  O219  1  0.45200936  0.39700354  0.17276137  1
  O  O220  1  0.45200936  0.39700354  0.50609471  1
  O  O221  1  0.45200936  0.39700354  0.83942804  1
  O  O222  1  0.45200936  0.73033687  0.17276137  1
  O  O223  1  0.45200936  0.73033687  0.50609471  1
  O  O224  1  0.45200936  0.73033687  0.83942804  1
  O  O225  1  0.95200936  0.06367020  0.17276137  1
  O  O226  1  0.95200936  0.06367020  0.50609471  1
  O  O227  1  0.95200936  0.06367020  0.83942804  1
  O  O228  1  0.95200936  0.39700354  0.17276137  1
  O  O229  1  0.95200936  0.39700354  0.50609471  1
  O  O230  1  0.95200936  0.39700354  0.83942804  1
  O  O231  1  0.95200936  0.73033687  0.17276137  1
  O  O232  1  0.95200936  0.73033687  0.50609471  1
  O  O233  1  0.95200936  0.73033687  0.83942804  1
  O  O234  1  0.45200936  0.26966313  0.00609471  1
  O  O235  1  0.45200936  0.26966313  0.33942804  1
  O  O236  1  0.45200936  0.26966313  0.67276137  1
  O  O237  1  0.45200936  0.60299646  0.00609471  1
  O  O238  1  0.45200936  0.60299646  0.33942804  1
  O  O239  1  0.45200936  0.60299646  0.67276137  1
  O  O240  1  0.45200936  0.93632980  0.00609471  1
  O  O241  1  0.45200936  0.93632980  0.33942804  1
  O  O242  1  0.45200936  0.93632980  0.67276137  1
  O  O243  1  0.95200936  0.26966313  0.00609471  1
  O  O244  1  0.95200936  0.26966313  0.33942804  1
  O  O245  1  0.95200936  0.26966313  0.67276137  1
  O  O246  1  0.95200936  0.60299646  0.00609471  1
  O  O247  1  0.95200936  0.60299646  0.33942804  1
  O  O248  1  0.95200936  0.60299646  0.67276137  1
  O  O249  1  0.95200936  0.93632980  0.00609471  1
  O  O250  1  0.95200936  0.93632980  0.33942804  1
  O  O251  1  0.95200936  0.93632980  0.67276137  1
  O  O252  1  0.29799064  0.23033687  0.17276137  1
  O  O253  1  0.29799064  0.23033687  0.50609471  1
  O  O254  1  0.29799064  0.23033687  0.83942804  1
  O  O255  1  0.29799064  0.56367020  0.17276137  1
  O  O256  1  0.29799064  0.56367020  0.50609471  1
  O  O257  1  0.29799064  0.56367020  0.83942804  1
  O  O258  1  0.29799064  0.89700354  0.17276137  1
  O  O259  1  0.29799064  0.89700354  0.50609471  1
  O  O260  1  0.29799064  0.89700354  0.83942804  1
  O  O261  1  0.79799064  0.23033687  0.17276137  1
  O  O262  1  0.79799064  0.23033687  0.50609471  1
  O  O263  1  0.79799064  0.23033687  0.83942804  1
  O  O264  1  0.79799064  0.56367020  0.17276137  1
  O  O265  1  0.79799064  0.56367020  0.50609471  1
  O  O266  1  0.79799064  0.56367020  0.83942804  1
  O  O267  1  0.79799064  0.89700354  0.17276137  1
  O  O268  1  0.79799064  0.89700354  0.50609471  1
  O  O269  1  0.79799064  0.89700354  0.83942804  1
  O  O270  1  0.20200936  0.10299646  0.16057196  1
  O  O271  1  0.20200936  0.10299646  0.49390529  1
  O  O272  1  0.20200936  0.10299646  0.82723863  1
  O  O273  1  0.20200936  0.43632980  0.16057196  1
  O  O274  1  0.20200936  0.43632980  0.49390529  1
  O  O275  1  0.20200936  0.43632980  0.82723863  1
  O  O276  1  0.20200936  0.76966313  0.16057196  1
  O  O277  1  0.20200936  0.76966313  0.49390529  1
  O  O278  1  0.20200936  0.76966313  0.82723863  1
  O  O279  1  0.70200936  0.10299646  0.16057196  1
  O  O280  1  0.70200936  0.10299646  0.49390529  1
  O  O281  1  0.70200936  0.10299646  0.82723863  1
  O  O282  1  0.70200936  0.43632980  0.16057196  1
  O  O283  1  0.70200936  0.43632980  0.49390529  1
  O  O284  1  0.70200936  0.43632980  0.82723863  1
  O  O285  1  0.70200936  0.76966313  0.16057196  1
  O  O286  1  0.70200936  0.76966313  0.49390529  1
  O  O287  1  0.70200936  0.76966313  0.82723863  1
  O  O288  1  0.04799064  0.26966313  0.16057196  1
  O  O289  1  0.04799064  0.26966313  0.49390529  1
  O  O290  1  0.04799064  0.26966313  0.82723863  1
  O  O291  1  0.04799064  0.60299646  0.16057196  1
  O  O292  1  0.04799064  0.60299646  0.49390529  1
  O  O293  1  0.04799064  0.60299646  0.82723863  1
  O  O294  1  0.04799064  0.93632980  0.16057196  1
  O  O295  1  0.04799064  0.93632980  0.49390529  1
  O  O296  1  0.04799064  0.93632980  0.82723863  1
  O  O297  1  0.54799064  0.26966313  0.16057196  1
  O  O298  1  0.54799064  0.26966313  0.49390529  1
  O  O299  1  0.54799064  0.26966313  0.82723863  1
  O  O300  1  0.54799064  0.60299646  0.16057196  1
  O  O301  1  0.54799064  0.60299646  0.49390529  1
  O  O302  1  0.54799064  0.60299646  0.82723863  1
  O  O303  1  0.54799064  0.93632980  0.16057196  1
  O  O304  1  0.54799064  0.93632980  0.49390529  1
  O  O305  1  0.54799064  0.93632980  0.82723863  1
  O  O306  1  0.04799064  0.06367020  0.32723863  1
  O  O307  1  0.04799064  0.06367020  0.66057196  1
  O  O308  1  0.04799064  0.06367020  0.99390529  1
  O  O309  1  0.04799064  0.39700354  0.32723863  1
  O  O310  1  0.04799064  0.39700354  0.66057196  1
  O  O311  1  0.04799064  0.39700354  0.99390529  1
  O  O312  1  0.04799064  0.73033687  0.32723863  1
  O  O313  1  0.04799064  0.73033687  0.66057196  1
  O  O314  1  0.04799064  0.73033687  0.99390529  1
  O  O315  1  0.54799064  0.06367020  0.32723863  1
  O  O316  1  0.54799064  0.06367020  0.66057196  1
  O  O317  1  0.54799064  0.06367020  0.99390529  1
  O  O318  1  0.54799064  0.39700354  0.32723863  1
  O  O319  1  0.54799064  0.39700354  0.66057196  1
  O  O320  1  0.54799064  0.39700354  0.99390529  1
  O  O321  1  0.54799064  0.73033687  0.32723863  1
  O  O322  1  0.54799064  0.73033687  0.66057196  1
  O  O323  1  0.54799064  0.73033687  0.99390529  1
  O  O324  1  0.29799064  0.10299646  0.00609471  1
  O  O325  1  0.29799064  0.10299646  0.33942804  1
  O  O326  1  0.29799064  0.10299646  0.67276137  1
  O  O327  1  0.29799064  0.43632980  0.00609471  1
  O  O328  1  0.29799064  0.43632980  0.33942804  1
  O  O329  1  0.29799064  0.43632980  0.67276137  1
  O  O330  1  0.29799064  0.76966313  0.00609471  1
  O  O331  1  0.29799064  0.76966313  0.33942804  1
  O  O332  1  0.29799064  0.76966313  0.67276137  1
  O  O333  1  0.79799064  0.10299646  0.00609471  1
  O  O334  1  0.79799064  0.10299646  0.33942804  1
  O  O335  1  0.79799064  0.10299646  0.67276137  1
  O  O336  1  0.79799064  0.43632980  0.00609471  1
  O  O337  1  0.79799064  0.43632980  0.33942804  1
  O  O338  1  0.79799064  0.43632980  0.67276137  1
  O  O339  1  0.79799064  0.76966313  0.00609471  1
  O  O340  1  0.79799064  0.76966313  0.33942804  1
  O  O341  1  0.79799064  0.76966313  0.67276137  1
  O  O342  1  0.20200936  0.23033687  0.32723863  1
  O  O343  1  0.20200936  0.23033687  0.66057196  1
  O  O344  1  0.20200936  0.23033687  0.99390529  1
  O  O345  1  0.20200936  0.56367020  0.32723863  1
  O  O346  1  0.20200936  0.56367020  0.66057196  1
  O  O347  1  0.20200936  0.56367020  0.99390529  1
  O  O348  1  0.20200936  0.89700354  0.32723863  1
  O  O349  1  0.20200936  0.89700354  0.66057196  1
  O  O350  1  0.20200936  0.89700354  0.99390529  1
  O  O351  1  0.70200936  0.23033687  0.32723863  1
  O  O352  1  0.70200936  0.23033687  0.66057196  1
  O  O353  1  0.70200936  0.23033687  0.99390529  1
  O  O354  1  0.70200936  0.56367020  0.32723863  1
  O  O355  1  0.70200936  0.56367020  0.66057196  1
  O  O356  1  0.70200936  0.56367020  0.99390529  1
  O  O357  1  0.70200936  0.89700354  0.32723863  1
  O  O358  1  0.70200936  0.89700354  0.66057196  1
  O  O359  1  0.70200936  0.89700354  0.99390529  1
