# generated using pymatgen
data_CaTiO3
_symmetry_space_group_name_H-M   'P 1'
_cell_length_a   16.38461253
_cell_length_b   15.22312277
_cell_length_c   16.02874886
_cell_angle_alpha   90.00000000
_cell_angle_beta   90.00000000
_cell_angle_gamma   90.00000000
_symmetry_Int_Tables_number   1
_chemical_formula_structural   CaTiO3
_chemical_formula_sum   'Ca72 Ti72 O216'
_cell_volume   3997.97017331
_cell_formula_units_Z   72
loop_
 _symmetry_equiv_pos_site_id
 _symmetry_equiv_pos_as_xyz
  1  'x, y, z'
loop_
 _atom_site_type_symbol
 _atom_site_label
 _atom_site_symmetry_multiplicity
 _atom_site_fract_x
 _atom_site_fract_y
 _atom_site_fract_z
 _atom_site_occupancy
  Ca  Ca0  1  0.18239092  0.37500000  0.17013374  1
  Ca  Ca1  1  0.18239092  0.37500000  0.50346707  1
  Ca  Ca2  1  0.18239092  0.37500000  0.83680041  1
  Ca  Ca3  1  0.18239092  0.87500000  0.17013374  1
  Ca  Ca4  1  0.18239092  0.87500000  0.50346707  1
  Ca  Ca5  1  0.18239092  0.87500000  0.83680041  1
  Ca  Ca6  1  0.51572425  0.37500000  0.17013374  1
  Ca  Ca7  1  0.51572425  0.37500000  0.50346707  1
  Ca  Ca8  1  0.51572425  0.37500000  0.83680041  1
  Ca  Ca9  1  0.51572425  0.87500000  0.17013374  1
  Ca  Ca10  1  0.51572425  0.87500000  0.50346707  1
  Ca  Ca11  1  0.51572425  0.87500000  0.83680041  1
  Ca  Ca12  1  0.84905758  0.37500000  0.17013374  1
  Ca  Ca13  1  0.84905758  0.37500000  0.50346707  1
  Ca  Ca14  1  0.84905758  0.37500000  0.83680041  1
  Ca  Ca15  1  0.84905758  0.87500000  0.17013374  1
  Ca  Ca16  1  0.84905758  0.87500000  0.50346707  1
  Ca  Ca17  1  0.84905758  0.87500000  0.83680041  1
  Ca  Ca18  1  0.15094242  0.12500000  0.16319959  1
  Ca  Ca19  1  0.15094242  0.12500000  0.49653293  1
  Ca  Ca20  1  0.15094242  0.12500000  0.82986626  1
  Ca  Ca21  1  0.15094242  0.62500000  0.16319959  1
  Ca  Ca22  1  0.15094242  0.62500000  0.49653293  1
  Ca  Ca23  1  0.15094242  0.62500000  0.82986626  1
  Ca  Ca24  1  0.48427575  0.12500000  0.16319959  1
  Ca  Ca25  1  0.48427575  0.12500000  0.49653293  1
  Ca  Ca26  1  0.48427575  0.12500000  0.82986626  1
  Ca  Ca27  1  0.48427575  0.62500000  0.16319959  1
  Ca  Ca28  1  0.48427575  0.62500000  0.49653293  1
  Ca  Ca29  1  0.48427575  0.62500000  0.82986626  1
  Ca  Ca30  1  0.81760908  0.12500000  0.16319959  1
  Ca  Ca31  1  0.81760908  0.12500000  0.49653293  1
  Ca  Ca32  1  0.81760908  0.12500000  0.82986626  1
  Ca  Ca33  1  0.81760908  0.62500000  0.16319959  1
  Ca  Ca34  1  0.81760908  0.62500000  0.49653293  1
  Ca  Ca35  1  0.81760908  0.62500000  0.82986626  1
  Ca  Ca36  1  0.01572425  0.37500000  0.32986626  1
  Ca  Ca37  1  0.01572425  0.37500000  0.66319959  1
  Ca  Ca38  1  0.01572425  0.37500000  0.99653293  1
  Ca  Ca39  1  0.01572425  0.87500000  0.32986626  1
  Ca  Ca40  1  0.01572425  0.87500000  0.66319959  1
  Ca  Ca41  1  0.01572425  0.87500000  0.99653293  1
  Ca  Ca42  1  0.34905758  0.37500000  0.32986626  1
  Ca  Ca43  1  0.34905758  0.37500000  0.66319959  1
  Ca  Ca44  1  0.34905758  0.37500000  0.99653293  1
  Ca  Ca45  1  0.34905758  0.87500000  0.32986626  1
  Ca  Ca46  1  0.34905758  0.87500000  0.66319959  1
  Ca  Ca47  1  0.34905758  0.87500000  0.99653293  1
  Ca  Ca48  1  0.68239092  0.37500000  0.32986626  1
  Ca  Ca49  1  0.68239092  0.37500000  0.66319959  1
  Ca  Ca50  1  0.68239092  0.37500000  0.99653293  1
  Ca  Ca51  1  0.68239092  0.87500000  0.32986626  1
  Ca  Ca52  1  0.68239092  0.87500000  0.66319959  1
  Ca  Ca53  1  0.68239092  0.87500000  0.99653293  1
  Ca  Ca54  1  0.31760908  0.12500000  0.00346707  1
  Ca  Ca55  1  0.31760908  0.12500000  0.33680041  1
  Ca  Ca56  1  0.31760908  0.12500000  0.67013374  1
  Ca  Ca57  1  0.31760908  0.62500000  0.00346707  1
  Ca  Ca58  1  0.31760908  0.62500000  0.33680041  1
  Ca  Ca59  1  0.31760908  0.62500000  0.67013374  1
  Ca  Ca60  1  0.65094242  0.12500000  0.00346707  1
  Ca  Ca61  1  0.65094242  0.12500000  0.33680041  1
  Ca  Ca62  1  0.65094242  0.12500000  0.67013374  1
  Ca  Ca63  1  0.65094242  0.62500000  0.00346707  1
  Ca  Ca64  1  0.65094242  0.62500000  0.33680041  1
  Ca  Ca65  1  0.65094242  0.62500000  0.67013374  1
  Ca  Ca66  1  0.98427575  0.12500000  0.00346707  1
  Ca  Ca67  1  0.98427575  0.12500000  0.33680041  1
  Ca  Ca68  1  0.98427575  0.12500000  0.67013374  1
  Ca  Ca69  1  0.98427575  0.62500000  0.00346707  1
  Ca  Ca70  1  0.98427575  0.62500000  0.33680041  1
  Ca  Ca71  1  0.98427575  0.62500000  0.67013374  1
  Ti  Ti72  1  0.16666667  0.25000000  0.00000000  1
  Ti  Ti73  1  0.16666667  0.25000000  0.33333333  1
  Ti  Ti74  1  0.16666667  0.25000000  0.66666667  1
  Ti  Ti75  1  0.16666667  0.75000000  0.00000000  1
  Ti  Ti76  1  0.16666667  0.75000000  0.33333333  1
  Ti  Ti77  1  0.16666667  0.75000000  0.66666667  1
  Ti  Ti78  1  0.50000000  0.25000000  0.00000000  1
  Ti  Ti79  1  0.50000000  0.25000000  0.33333333  1
  Ti  Ti80  1  0.50000000  0.25000000  0.66666667  1
  Ti  Ti81  1  0.50000000  0.75000000  0.00000000  1
  Ti  Ti82  1  0.50000000  0.75000000  0.33333333  1
  Ti  Ti83  1  0.50000000  0.75000000  0.66666667  1
  Ti  Ti84  1  0.83333333  0.25000000  0.00000000  1
  Ti  Ti85  1  0.83333333  0.25000000  0.33333333  1
  Ti  Ti86  1  0.83333333  0.25000000  0.66666667  1
  Ti  Ti87  1  0.83333333  0.75000000  0.00000000  1
  Ti  Ti88  1  0.83333333  0.75000000  0.33333333  1
  Ti  Ti89  1  0.83333333  0.75000000  0.66666667  1
  Ti  Ti90  1  0.16666667  0.00000000  0.00000000  1
  Ti  Ti91  1  0.16666667  0.00000000  0.33333333  1
  Ti  Ti92  1  0.16666667  0.00000000  0.66666667  1
  Ti  Ti93  1  0.16666667  0.50000000  0.00000000  1
  Ti  Ti94  1  0.16666667  0.50000000  0.33333333  1
  Ti  Ti95  1  0.16666667  0.50000000  0.66666667  1
  Ti  Ti96  1  0.50000000  0.00000000  0.00000000  1
  Ti  Ti97  1  0.50000000  0.00000000  0.33333333  1
  Ti  Ti98  1  0.50000000  0.00000000  0.66666667  1
  Ti  Ti99  1  0.50000000  0.50000000  0.00000000  1
  Ti  Ti100  1  0.50000000  0.50000000  0.33333333  1
  Ti  Ti101  1  0.50000000  0.50000000  0.66666667  1
  Ti  Ti102  1  0.83333333  0.00000000  0.00000000  1
  Ti  Ti103  1  0.83333333  0.00000000  0.33333333  1
  Ti  Ti104  1  0.83333333  0.00000000  0.66666667  1
  Ti  Ti105  1  0.83333333  0.50000000  0.00000000  1
  Ti  Ti106  1  0.83333333  0.50000000  0.33333333  1
  Ti  Ti107  1  0.83333333  0.50000000  0.66666667  1
  Ti  Ti108  1  0.00000000  0.25000000  0.16666667  1
  Ti  Ti109  1  0.00000000  0.25000000  0.50000000  1
  Ti  Ti110  1  0.00000000  0.25000000  0.83333333  1
  Ti  Ti111  1  0.00000000  0.75000000  0.16666667  1
  Ti  Ti112  1  0.00000000  0.75000000  0.50000000  1
  Ti  Ti113  1  0.00000000  0.75000000  0.83333333  1
  Ti  Ti114  1  0.33333333  0.25000000  0.16666667  1
  Ti  Ti115  1  0.33333333  0.25000000  0.50000000  1
  Ti  Ti116  1  0.33333333  0.25000000  0.83333333  1
  Ti  Ti117  1  0.33333333  0.75000000  0.16666667  1
  Ti  Ti118  1  0.33333333  0.75000000  0.50000000  1
  Ti  Ti119  1  0.33333333  0.75000000  0.83333333  1
  Ti  Ti120  1  0.66666667  0.25000000  0.16666667  1
  Ti  Ti121  1  0.66666667  0.25000000  0.50000000  1
  Ti  Ti122  1  0.66666667  0.25000000  0.83333333  1
  Ti  Ti123  1  0.66666667  0.75000000  0.16666667  1
  Ti  Ti124  1  0.66666667  0.75000000  0.50000000  1
  Ti  Ti125  1  0.66666667  0.75000000  0.83333333  1
  Ti  Ti126  1  0.00000000  0.00000000  0.16666667  1
  Ti  Ti127  1  0.00000000  0.00000000  0.50000000  1
  Ti  Ti128  1  0.00000000  0.00000000  0.83333333  1
  Ti  Ti129  1  0.00000000  0.50000000  0.16666667  1
  Ti  Ti130  1  0.00000000  0.50000000  0.50000000  1
  Ti  Ti131  1  0.00000000  0.50000000  0.83333333  1
  Ti  Ti132  1  0.33333333  0.00000000  0.16666667  1
  Ti  Ti133  1  0.33333333  0.00000000  0.50000000  1
  Ti  Ti134  1  0.33333333  0.00000000  0.83333333  1
  Ti  Ti135  1  0.33333333  0.50000000  0.16666667  1
  Ti  Ti136  1  0.33333333  0.50000000  0.50000000  1
  Ti  Ti137  1  0.33333333  0.50000000  0.83333333  1
  Ti  Ti138  1  0.66666667  0.00000000  0.16666667  1
  Ti  Ti139  1  0.66666667  0.00000000  0.50000000  1
  Ti  Ti140  1  0.66666667  0.00000000  0.83333333  1
  Ti  Ti141  1  0.66666667  0.50000000  0.16666667  1
  Ti  Ti142  1  0.66666667  0.50000000  0.50000000  1
  Ti  Ti143  1  0.66666667  0.50000000  0.83333333  1
  O  O144  1  0.15948374  0.37500000  0.02750375  1
  O  O145  1  0.15948374  0.37500000  0.36083709  1
  O  O146  1  0.15948374  0.37500000  0.69417042  1
  O  O147  1  0.15948374  0.87500000  0.02750375  1
  O  O148  1  0.15948374  0.87500000  0.36083709  1
  O  O149  1  0.15948374  0.87500000  0.69417042  1
  O  O150  1  0.49281708  0.37500000  0.02750375  1
  O  O151  1  0.49281708  0.37500000  0.36083709  1
  O  O152  1  0.49281708  0.37500000  0.69417042  1
  O  O153  1  0.49281708  0.87500000  0.02750375  1
  O  O154  1  0.49281708  0.87500000  0.36083709  1
  O  O155  1  0.49281708  0.87500000  0.69417042  1
  O  O156  1  0.82615041  0.37500000  0.02750375  1
  O  O157  1  0.82615041  0.37500000  0.36083709  1
  O  O158  1  0.82615041  0.37500000  0.69417042  1
  O  O159  1  0.82615041  0.87500000  0.02750375  1
  O  O160  1  0.82615041  0.87500000  0.36083709  1
  O  O161  1  0.82615041  0.87500000  0.69417042  1
  O  O162  1  0.17384959  0.12500000  0.30582958  1
  O  O163  1  0.17384959  0.12500000  0.63916291  1
  O  O164  1  0.17384959  0.12500000  0.97249625  1
  O  O165  1  0.17384959  0.62500000  0.30582958  1
  O  O166  1  0.17384959  0.62500000  0.63916291  1
  O  O167  1  0.17384959  0.62500000  0.97249625  1
  O  O168  1  0.50718292  0.12500000  0.30582958  1
  O  O169  1  0.50718292  0.12500000  0.63916291  1
  O  O170  1  0.50718292  0.12500000  0.97249625  1
  O  O171  1  0.50718292  0.62500000  0.30582958  1
  O  O172  1  0.50718292  0.62500000  0.63916291  1
  O  O173  1  0.50718292  0.62500000  0.97249625  1
  O  O174  1  0.84051626  0.12500000  0.30582958  1
  O  O175  1  0.84051626  0.12500000  0.63916291  1
  O  O176  1  0.84051626  0.12500000  0.97249625  1
  O  O177  1  0.84051626  0.62500000  0.30582958  1
  O  O178  1  0.84051626  0.62500000  0.63916291  1
  O  O179  1  0.84051626  0.62500000  0.97249625  1
  O  O180  1  0.32615041  0.37500000  0.13916291  1
  O  O181  1  0.32615041  0.37500000  0.47249625  1
  O  O182  1  0.32615041  0.37500000  0.80582958  1
  O  O183  1  0.32615041  0.87500000  0.13916291  1
  O  O184  1  0.32615041  0.87500000  0.47249625  1
  O  O185  1  0.32615041  0.87500000  0.80582958  1
  O  O186  1  0.65948374  0.37500000  0.13916291  1
  O  O187  1  0.65948374  0.37500000  0.47249625  1
  O  O188  1  0.65948374  0.37500000  0.80582958  1
  O  O189  1  0.65948374  0.87500000  0.13916291  1
  O  O190  1  0.65948374  0.87500000  0.47249625  1
  O  O191  1  0.65948374  0.87500000  0.80582958  1
  O  O192  1  0.99281708  0.37500000  0.13916291  1
  O  O193  1  0.99281708  0.37500000  0.47249625  1
  O  O194  1  0.99281708  0.37500000  0.80582958  1
  O  O195  1  0.99281708  0.87500000  0.13916291  1
  O  O196  1  0.99281708  0.87500000  0.47249625  1
  O  O197  1  0.99281708  0.87500000  0.80582958  1
  O  O198  1  0.00718292  0.12500000  0.19417042  1
  O  O199  1  0.00718292  0.12500000  0.52750375  1
  O  O200  1  0.00718292  0.12500000  0.86083709  1
  O  O201  1  0.00718292  0.62500000  0.19417042  1
  O  O202  1  0.00718292  0.62500000  0.52750375  1
  O  O203  1  0.00718292  0.62500000  0.86083709  1
  O  O204  1  0.34051626  0.12500000  0.19417042  1
  O  O205  1  0.34051626  0.12500000  0.52750375  1
  O  O206  1  0.34051626  0.12500000  0.86083709  1
  O  O207  1  0.34051626  0.62500000  0.19417042  1
  O  O208  1  0.34051626  0.62500000  0.52750375  1
  O  O209  1  0.34051626  0.62500000  0.86083709  1
  O  O210  1  0.67384959  0.12500000  0.19417042  1
  O  O211  1  0.67384959  0.12500000  0.52750375  1
  O  O212  1  0.67384959  0.12500000  0.86083709  1
  O  O213  1  0.67384959  0.62500000  0.19417042  1
  O  O214  1  0.67384959  0.62500000  0.52750375  1
  O  O215  1  0.67384959  0.62500000  0.86083709  1
  O  O216  1  0.26409791  0.47829852  0.26441872  1
  O  O217  1  0.26409791  0.47829852  0.59775206  1
  O  O218  1  0.26409791  0.47829852  0.93108539  1
  O  O219  1  0.26409791  0.97829852  0.26441872  1
  O  O220  1  0.26409791  0.97829852  0.59775206  1
  O  O221  1  0.26409791  0.97829852  0.93108539  1
  O  O222  1  0.59743124  0.47829852  0.26441872  1
  O  O223  1  0.59743124  0.47829852  0.59775206  1
  O  O224  1  0.59743124  0.47829852  0.93108539  1
  O  O225  1  0.59743124  0.97829852  0.26441872  1
  O  O226  1  0.59743124  0.97829852  0.59775206  1
  O  O227  1  0.59743124  0.97829852  0.93108539  1
  O  O228  1  0.93076458  0.47829852  0.26441872  1
  O  O229  1  0.93076458  0.47829852  0.59775206  1
  O  O230  1  0.93076458  0.47829852  0.93108539  1
  O  O231  1  0.93076458  0.97829852  0.26441872  1
  O  O232  1  0.93076458  0.97829852  0.59775206  1
  O  O233  1  0.93076458  0.97829852  0.93108539  1
  O  O234  1  0.06923542  0.22829852  0.06891461  1
  O  O235  1  0.06923542  0.22829852  0.40224794  1
  O  O236  1  0.06923542  0.22829852  0.73558128  1
  O  O237  1  0.06923542  0.72829852  0.06891461  1
  O  O238  1  0.06923542  0.72829852  0.40224794  1
  O  O239  1  0.06923542  0.72829852  0.73558128  1
  O  O240  1  0.40256876  0.22829852  0.06891461  1
  O  O241  1  0.40256876  0.22829852  0.40224794  1
  O  O242  1  0.40256876  0.22829852  0.73558128  1
  O  O243  1  0.40256876  0.72829852  0.06891461  1
  O  O244  1  0.40256876  0.72829852  0.40224794  1
  O  O245  1  0.40256876  0.72829852  0.73558128  1
  O  O246  1  0.73590209  0.22829852  0.06891461  1
  O  O247  1  0.73590209  0.22829852  0.40224794  1
  O  O248  1  0.73590209  0.22829852  0.73558128  1
  O  O249  1  0.73590209  0.72829852  0.06891461  1
  O  O250  1  0.73590209  0.72829852  0.40224794  1
  O  O251  1  0.73590209  0.72829852  0.73558128  1
  O  O252  1  0.06923542  0.02170148  0.06891461  1
  O  O253  1  0.06923542  0.02170148  0.40224794  1
  O  O254  1  0.06923542  0.02170148  0.73558128  1
  O  O255  1  0.06923542  0.52170148  0.06891461  1
  O  O256  1  0.06923542  0.52170148  0.40224794  1
  O  O257  1  0.06923542  0.52170148  0.73558128  1
  O  O258  1  0.40256876  0.02170148  0.06891461  1
  O  O259  1  0.40256876  0.02170148  0.40224794  1
  O  O260  1  0.40256876  0.02170148  0.73558128  1
  O  O261  1  0.40256876  0.52170148  0.06891461  1
  O  O262  1  0.40256876  0.52170148  0.40224794  1
  O  O263  1  0.40256876  0.52170148  0.73558128  1
  O  O264  1  0.73590209  0.02170148  0.06891461  1
  O  O265  1  0.73590209  0.02170148  0.40224794  1
  O  O266  1  0.73590209  0.02170148  0.73558128  1
  O  O267  1  0.73590209  0.52170148  0.06891461  1
  O  O268  1  0.73590209  0.52170148  0.40224794  1
  O  O269  1  0.73590209  0.52170148  0.73558128  1
  O  O270  1  0.26409791  0.27170148  0.26441872  1
  O  O271  1  0.26409791  0.27170148  0.59775206  1
  O  O272  1  0.26409791  0.27170148  0.93108539  1
  O  O273  1  0.26409791  0.77170148  0.26441872  1
  O  O274  1  0.26409791  0.77170148  0.59775206  1
  O  O275  1  0.26409791  0.77170148  0.93108539  1
  O  O276  1  0.59743124  0.27170148  0.26441872  1
  O  O277  1  0.59743124  0.27170148  0.59775206  1
  O  O278  1  0.59743124  0.27170148  0.93108539  1
  O  O279  1  0.59743124  0.77170148  0.26441872  1
  O  O280  1  0.59743124  0.77170148  0.59775206  1
  O  O281  1  0.59743124  0.77170148  0.93108539  1
  O  O282  1  0.93076458  0.27170148  0.26441872  1
  O  O283  1  0.93076458  0.27170148  0.59775206  1
  O  O284  1  0.93076458  0.27170148  0.93108539  1
  O  O285  1  0.93076458  0.77170148  0.26441872  1
  O  O286  1  0.93076458  0.77170148  0.59775206  1
  O  O287  1  0.93076458  0.77170148  0.93108539  1
  O  O288  1  0.09743124  0.47829852  0.23558128  1
  O  O289  1  0.09743124  0.47829852  0.56891461  1
  O  O290  1  0.09743124  0.47829852  0.90224794  1
  O  O291  1  0.09743124  0.97829852  0.23558128  1
  O  O292  1  0.09743124  0.97829852  0.56891461  1
  O  O293  1  0.09743124  0.97829852  0.90224794  1
  O  O294  1  0.43076458  0.47829852  0.23558128  1
  O  O295  1  0.43076458  0.47829852  0.56891461  1
  O  O296  1  0.43076458  0.47829852  0.90224794  1
  O  O297  1  0.43076458  0.97829852  0.23558128  1
  O  O298  1  0.43076458  0.97829852  0.56891461  1
  O  O299  1  0.43076458  0.97829852  0.90224794  1
  O  O300  1  0.76409791  0.47829852  0.23558128  1
  O  O301  1  0.76409791  0.47829852  0.56891461  1
  O  O302  1  0.76409791  0.47829852  0.90224794  1
  O  O303  1  0.76409791  0.97829852  0.23558128  1
  O  O304  1  0.76409791  0.97829852  0.56891461  1
  O  O305  1  0.76409791  0.97829852  0.90224794  1
  O  O306  1  0.23590209  0.22829852  0.09775206  1
  O  O307  1  0.23590209  0.22829852  0.43108539  1
  O  O308  1  0.23590209  0.22829852  0.76441872  1
  O  O309  1  0.23590209  0.72829852  0.09775206  1
  O  O310  1  0.23590209  0.72829852  0.43108539  1
  O  O311  1  0.23590209  0.72829852  0.76441872  1
  O  O312  1  0.56923542  0.22829852  0.09775206  1
  O  O313  1  0.56923542  0.22829852  0.43108539  1
  O  O314  1  0.56923542  0.22829852  0.76441872  1
  O  O315  1  0.56923542  0.72829852  0.09775206  1
  O  O316  1  0.56923542  0.72829852  0.43108539  1
  O  O317  1  0.56923542  0.72829852  0.76441872  1
  O  O318  1  0.90256876  0.22829852  0.09775206  1
  O  O319  1  0.90256876  0.22829852  0.43108539  1
  O  O320  1  0.90256876  0.22829852  0.76441872  1
  O  O321  1  0.90256876  0.72829852  0.09775206  1
  O  O322  1  0.90256876  0.72829852  0.43108539  1
  O  O323  1  0.90256876  0.72829852  0.76441872  1
  O  O324  1  0.23590209  0.02170148  0.09775206  1
  O  O325  1  0.23590209  0.02170148  0.43108539  1
  O  O326  1  0.23590209  0.02170148  0.76441872  1
  O  O327  1  0.23590209  0.52170148  0.09775206  1
  O  O328  1  0.23590209  0.52170148  0.43108539  1
  O  O329  1  0.23590209  0.52170148  0.76441872  1
  O  O330  1  0.56923542  0.02170148  0.09775206  1
  O  O331  1  0.56923542  0.02170148  0.43108539  1
  O  O332  1  0.56923542  0.02170148  0.76441872  1
  O  O333  1  0.56923542  0.52170148  0.09775206  1
  O  O334  1  0.56923542  0.52170148  0.43108539  1
  O  O335  1  0.56923542  0.52170148  0.76441872  1
  O  O336  1  0.90256876  0.02170148  0.09775206  1
  O  O337  1  0.90256876  0.02170148  0.43108539  1
  O  O338  1  0.90256876  0.02170148  0.76441872  1
  O  O339  1  0.90256876  0.52170148  0.09775206  1
  O  O340  1  0.90256876  0.52170148  0.43108539  1
  O  O341  1  0.90256876  0.52170148  0.76441872  1
  O  O342  1  0.09743124  0.27170148  0.23558128  1
  O  O343  1  0.09743124  0.27170148  0.56891461  1
  O  O344  1  0.09743124  0.27170148  0.90224794  1
  O  O345  1  0.09743124  0.77170148  0.23558128  1
  O  O346  1  0.09743124  0.77170148  0.56891461  1
  O  O347  1  0.09743124  0.77170148  0.90224794  1
  O  O348  1  0.43076458  0.27170148  0.23558128  1
  O  O349  1  0.43076458  0.27170148  0.56891461  1
  O  O350  1  0.43076458  0.27170148  0.90224794  1
  O  O351  1  0.43076458  0.77170148  0.23558128  1
  O  O352  1  0.43076458  0.77170148  0.56891461  1
  O  O353  1  0.43076458  0.77170148  0.90224794  1
  O  O354  1  0.76409791  0.27170148  0.23558128  1
  O  O355  1  0.76409791  0.27170148  0.56891461  1
  O  O356  1  0.76409791  0.27170148  0.90224794  1
  O  O357  1  0.76409791  0.77170148  0.23558128  1
  O  O358  1  0.76409791  0.77170148  0.56891461  1
  O  O359  1  0.76409791  0.77170148  0.90224794  1
