# generated using pymatgen
data_CsAlSiO4
_symmetry_space_group_name_H-M   'P 1'
_cell_length_a   17.91345689
_cell_length_b   18.80057261
_cell_length_c   16.25648197
_cell_angle_alpha   90.00000000
_cell_angle_beta   90.00000000
_cell_angle_gamma   90.00000000
_symmetry_Int_Tables_number   1
_chemical_formula_structural   CsAlSiO4
_chemical_formula_sum   'Cs48 Al48 Si48 O192'
_cell_volume   5474.91078490
_cell_formula_units_Z   48
loop_
 _symmetry_equiv_pos_site_id
 _symmetry_equiv_pos_as_xyz
  1  'x, y, z'
loop_
 _atom_site_type_symbol
 _atom_site_label
 _atom_site_symmetry_multiplicity
 _atom_site_fract_x
 _atom_site_fract_y
 _atom_site_fract_z
 _atom_site_occupancy
  Cs  Cs0  1  0.00050686  0.14841579  0.16220896  1
  Cs  Cs1  1  0.00050686  0.14841579  0.49554229  1
  Cs  Cs2  1  0.00050686  0.14841579  0.82887562  1
  Cs  Cs3  1  0.00050686  0.64841579  0.16220896  1
  Cs  Cs4  1  0.00050686  0.64841579  0.49554229  1
  Cs  Cs5  1  0.00050686  0.64841579  0.82887562  1
  Cs  Cs6  1  0.50050686  0.14841579  0.16220896  1
  Cs  Cs7  1  0.50050686  0.14841579  0.49554229  1
  Cs  Cs8  1  0.50050686  0.14841579  0.82887562  1
  Cs  Cs9  1  0.50050686  0.64841579  0.16220896  1
  Cs  Cs10  1  0.50050686  0.64841579  0.49554229  1
  Cs  Cs11  1  0.50050686  0.64841579  0.82887562  1
  Cs  Cs12  1  0.49949314  0.35158421  0.32887562  1
  Cs  Cs13  1  0.49949314  0.35158421  0.66220896  1
  Cs  Cs14  1  0.49949314  0.35158421  0.99554229  1
  Cs  Cs15  1  0.49949314  0.85158421  0.32887562  1
  Cs  Cs16  1  0.49949314  0.85158421  0.66220896  1
  Cs  Cs17  1  0.49949314  0.85158421  0.99554229  1
  Cs  Cs18  1  0.99949314  0.35158421  0.32887562  1
  Cs  Cs19  1  0.99949314  0.35158421  0.66220896  1
  Cs  Cs20  1  0.99949314  0.35158421  0.99554229  1
  Cs  Cs21  1  0.99949314  0.85158421  0.32887562  1
  Cs  Cs22  1  0.99949314  0.85158421  0.66220896  1
  Cs  Cs23  1  0.99949314  0.85158421  0.99554229  1
  Cs  Cs24  1  0.24949314  0.39841579  0.32887562  1
  Cs  Cs25  1  0.24949314  0.39841579  0.66220896  1
  Cs  Cs26  1  0.24949314  0.39841579  0.99554229  1
  Cs  Cs27  1  0.24949314  0.89841579  0.32887562  1
  Cs  Cs28  1  0.24949314  0.89841579  0.66220896  1
  Cs  Cs29  1  0.24949314  0.89841579  0.99554229  1
  Cs  Cs30  1  0.74949314  0.39841579  0.32887562  1
  Cs  Cs31  1  0.74949314  0.39841579  0.66220896  1
  Cs  Cs32  1  0.74949314  0.39841579  0.99554229  1
  Cs  Cs33  1  0.74949314  0.89841579  0.32887562  1
  Cs  Cs34  1  0.74949314  0.89841579  0.66220896  1
  Cs  Cs35  1  0.74949314  0.89841579  0.99554229  1
  Cs  Cs36  1  0.25050686  0.10158421  0.16220896  1
  Cs  Cs37  1  0.25050686  0.10158421  0.49554229  1
  Cs  Cs38  1  0.25050686  0.10158421  0.82887562  1
  Cs  Cs39  1  0.25050686  0.60158421  0.16220896  1
  Cs  Cs40  1  0.25050686  0.60158421  0.49554229  1
  Cs  Cs41  1  0.25050686  0.60158421  0.82887562  1
  Cs  Cs42  1  0.75050686  0.10158421  0.16220896  1
  Cs  Cs43  1  0.75050686  0.10158421  0.49554229  1
  Cs  Cs44  1  0.75050686  0.10158421  0.82887562  1
  Cs  Cs45  1  0.75050686  0.60158421  0.16220896  1
  Cs  Cs46  1  0.75050686  0.60158421  0.49554229  1
  Cs  Cs47  1  0.75050686  0.60158421  0.82887562  1
  Al  Al48  1  0.40808826  0.04200540  0.33330210  1
  Al  Al49  1  0.40808826  0.04200540  0.66663543  1
  Al  Al50  1  0.40808826  0.04200540  0.99996877  1
  Al  Al51  1  0.40808826  0.54200540  0.33330210  1
  Al  Al52  1  0.40808826  0.54200540  0.66663543  1
  Al  Al53  1  0.40808826  0.54200540  0.99996877  1
  Al  Al54  1  0.90808826  0.04200540  0.33330210  1
  Al  Al55  1  0.90808826  0.04200540  0.66663543  1
  Al  Al56  1  0.90808826  0.04200540  0.99996877  1
  Al  Al57  1  0.90808826  0.54200540  0.33330210  1
  Al  Al58  1  0.90808826  0.54200540  0.66663543  1
  Al  Al59  1  0.90808826  0.54200540  0.99996877  1
  Al  Al60  1  0.09191174  0.45799460  0.16663543  1
  Al  Al61  1  0.09191174  0.45799460  0.49996877  1
  Al  Al62  1  0.09191174  0.45799460  0.83330210  1
  Al  Al63  1  0.09191174  0.95799460  0.16663543  1
  Al  Al64  1  0.09191174  0.95799460  0.49996877  1
  Al  Al65  1  0.09191174  0.95799460  0.83330210  1
  Al  Al66  1  0.59191174  0.45799460  0.16663543  1
  Al  Al67  1  0.59191174  0.45799460  0.49996877  1
  Al  Al68  1  0.59191174  0.45799460  0.83330210  1
  Al  Al69  1  0.59191174  0.95799460  0.16663543  1
  Al  Al70  1  0.59191174  0.95799460  0.49996877  1
  Al  Al71  1  0.59191174  0.95799460  0.83330210  1
  Al  Al72  1  0.34191174  0.29200540  0.16663543  1
  Al  Al73  1  0.34191174  0.29200540  0.49996877  1
  Al  Al74  1  0.34191174  0.29200540  0.83330210  1
  Al  Al75  1  0.34191174  0.79200540  0.16663543  1
  Al  Al76  1  0.34191174  0.79200540  0.49996877  1
  Al  Al77  1  0.34191174  0.79200540  0.83330210  1
  Al  Al78  1  0.84191174  0.29200540  0.16663543  1
  Al  Al79  1  0.84191174  0.29200540  0.49996877  1
  Al  Al80  1  0.84191174  0.29200540  0.83330210  1
  Al  Al81  1  0.84191174  0.79200540  0.16663543  1
  Al  Al82  1  0.84191174  0.79200540  0.49996877  1
  Al  Al83  1  0.84191174  0.79200540  0.83330210  1
  Al  Al84  1  0.15808826  0.20799460  0.33330210  1
  Al  Al85  1  0.15808826  0.20799460  0.66663543  1
  Al  Al86  1  0.15808826  0.20799460  0.99996877  1
  Al  Al87  1  0.15808826  0.70799460  0.33330210  1
  Al  Al88  1  0.15808826  0.70799460  0.66663543  1
  Al  Al89  1  0.15808826  0.70799460  0.99996877  1
  Al  Al90  1  0.65808826  0.20799460  0.33330210  1
  Al  Al91  1  0.65808826  0.20799460  0.66663543  1
  Al  Al92  1  0.65808826  0.20799460  0.99996877  1
  Al  Al93  1  0.65808826  0.70799460  0.33330210  1
  Al  Al94  1  0.65808826  0.70799460  0.66663543  1
  Al  Al95  1  0.65808826  0.70799460  0.99996877  1
  Si  Si96  1  0.34519398  0.20768228  0.00007244  1
  Si  Si97  1  0.34519398  0.20768228  0.33340577  1
  Si  Si98  1  0.34519398  0.20768228  0.66673911  1
  Si  Si99  1  0.34519398  0.70768228  0.00007244  1
  Si  Si100  1  0.34519398  0.70768228  0.33340577  1
  Si  Si101  1  0.34519398  0.70768228  0.66673911  1
  Si  Si102  1  0.84519398  0.20768228  0.00007244  1
  Si  Si103  1  0.84519398  0.20768228  0.33340577  1
  Si  Si104  1  0.84519398  0.20768228  0.66673911  1
  Si  Si105  1  0.84519398  0.70768228  0.00007244  1
  Si  Si106  1  0.84519398  0.70768228  0.33340577  1
  Si  Si107  1  0.84519398  0.70768228  0.66673911  1
  Si  Si108  1  0.15480602  0.29231772  0.16673911  1
  Si  Si109  1  0.15480602  0.29231772  0.50007244  1
  Si  Si110  1  0.15480602  0.29231772  0.83340577  1
  Si  Si111  1  0.15480602  0.79231772  0.16673911  1
  Si  Si112  1  0.15480602  0.79231772  0.50007244  1
  Si  Si113  1  0.15480602  0.79231772  0.83340577  1
  Si  Si114  1  0.65480602  0.29231772  0.16673911  1
  Si  Si115  1  0.65480602  0.29231772  0.50007244  1
  Si  Si116  1  0.65480602  0.29231772  0.83340577  1
  Si  Si117  1  0.65480602  0.79231772  0.16673911  1
  Si  Si118  1  0.65480602  0.79231772  0.50007244  1
  Si  Si119  1  0.65480602  0.79231772  0.83340577  1
  Si  Si120  1  0.40480602  0.45768228  0.16673911  1
  Si  Si121  1  0.40480602  0.45768228  0.50007244  1
  Si  Si122  1  0.40480602  0.45768228  0.83340577  1
  Si  Si123  1  0.40480602  0.95768228  0.16673911  1
  Si  Si124  1  0.40480602  0.95768228  0.50007244  1
  Si  Si125  1  0.40480602  0.95768228  0.83340577  1
  Si  Si126  1  0.90480602  0.45768228  0.16673911  1
  Si  Si127  1  0.90480602  0.45768228  0.50007244  1
  Si  Si128  1  0.90480602  0.45768228  0.83340577  1
  Si  Si129  1  0.90480602  0.95768228  0.16673911  1
  Si  Si130  1  0.90480602  0.95768228  0.50007244  1
  Si  Si131  1  0.90480602  0.95768228  0.83340577  1
  Si  Si132  1  0.09519398  0.04231772  0.00007244  1
  Si  Si133  1  0.09519398  0.04231772  0.33340577  1
  Si  Si134  1  0.09519398  0.04231772  0.66673911  1
  Si  Si135  1  0.09519398  0.54231772  0.00007244  1
  Si  Si136  1  0.09519398  0.54231772  0.33340577  1
  Si  Si137  1  0.09519398  0.54231772  0.66673911  1
  Si  Si138  1  0.59519398  0.04231772  0.00007244  1
  Si  Si139  1  0.59519398  0.04231772  0.33340577  1
  Si  Si140  1  0.59519398  0.04231772  0.66673911  1
  Si  Si141  1  0.59519398  0.54231772  0.00007244  1
  Si  Si142  1  0.59519398  0.54231772  0.33340577  1
  Si  Si143  1  0.59519398  0.54231772  0.66673911  1
  O  O144  1  0.25483706  0.20573217  0.00012750  1
  O  O145  1  0.25483706  0.20573217  0.33346084  1
  O  O146  1  0.25483706  0.20573217  0.66679417  1
  O  O147  1  0.25483706  0.70573217  0.00012750  1
  O  O148  1  0.25483706  0.70573217  0.33346084  1
  O  O149  1  0.25483706  0.70573217  0.66679417  1
  O  O150  1  0.75483706  0.20573217  0.00012750  1
  O  O151  1  0.75483706  0.20573217  0.33346084  1
  O  O152  1  0.75483706  0.20573217  0.66679417  1
  O  O153  1  0.75483706  0.70573217  0.00012750  1
  O  O154  1  0.75483706  0.70573217  0.33346084  1
  O  O155  1  0.75483706  0.70573217  0.66679417  1
  O  O156  1  0.24516294  0.29426783  0.16679417  1
  O  O157  1  0.24516294  0.29426783  0.50012750  1
  O  O158  1  0.24516294  0.29426783  0.83346084  1
  O  O159  1  0.24516294  0.79426783  0.16679417  1
  O  O160  1  0.24516294  0.79426783  0.50012750  1
  O  O161  1  0.24516294  0.79426783  0.83346084  1
  O  O162  1  0.74516294  0.29426783  0.16679417  1
  O  O163  1  0.74516294  0.29426783  0.50012750  1
  O  O164  1  0.74516294  0.29426783  0.83346084  1
  O  O165  1  0.74516294  0.79426783  0.16679417  1
  O  O166  1  0.74516294  0.79426783  0.50012750  1
  O  O167  1  0.74516294  0.79426783  0.83346084  1
  O  O168  1  0.49516294  0.45573217  0.16679417  1
  O  O169  1  0.49516294  0.45573217  0.50012750  1
  O  O170  1  0.49516294  0.45573217  0.83346084  1
  O  O171  1  0.49516294  0.95573217  0.16679417  1
  O  O172  1  0.49516294  0.95573217  0.50012750  1
  O  O173  1  0.49516294  0.95573217  0.83346084  1
  O  O174  1  0.99516294  0.45573217  0.16679417  1
  O  O175  1  0.99516294  0.45573217  0.50012750  1
  O  O176  1  0.99516294  0.45573217  0.83346084  1
  O  O177  1  0.99516294  0.95573217  0.16679417  1
  O  O178  1  0.99516294  0.95573217  0.50012750  1
  O  O179  1  0.99516294  0.95573217  0.83346084  1
  O  O180  1  0.00483706  0.04426783  0.00012750  1
  O  O181  1  0.00483706  0.04426783  0.33346084  1
  O  O182  1  0.00483706  0.04426783  0.66679417  1
  O  O183  1  0.00483706  0.54426783  0.00012750  1
  O  O184  1  0.00483706  0.54426783  0.33346084  1
  O  O185  1  0.00483706  0.54426783  0.66679417  1
  O  O186  1  0.50483706  0.04426783  0.00012750  1
  O  O187  1  0.50483706  0.04426783  0.33346084  1
  O  O188  1  0.50483706  0.04426783  0.66679417  1
  O  O189  1  0.50483706  0.54426783  0.00012750  1
  O  O190  1  0.50483706  0.54426783  0.33346084  1
  O  O191  1  0.50483706  0.54426783  0.66679417  1
  O  O192  1  0.37646901  0.23595175  0.24459600  1
  O  O193  1  0.37646901  0.23595175  0.57792934  1
  O  O194  1  0.37646901  0.23595175  0.91126267  1
  O  O195  1  0.37646901  0.73595175  0.24459600  1
  O  O196  1  0.37646901  0.73595175  0.57792934  1
  O  O197  1  0.37646901  0.73595175  0.91126267  1
  O  O198  1  0.87646901  0.23595175  0.24459600  1
  O  O199  1  0.87646901  0.23595175  0.57792934  1
  O  O200  1  0.87646901  0.23595175  0.91126267  1
  O  O201  1  0.87646901  0.73595175  0.24459600  1
  O  O202  1  0.87646901  0.73595175  0.57792934  1
  O  O203  1  0.87646901  0.73595175  0.91126267  1
  O  O204  1  0.12353099  0.26404825  0.07792934  1
  O  O205  1  0.12353099  0.26404825  0.41126267  1
  O  O206  1  0.12353099  0.26404825  0.74459600  1
  O  O207  1  0.12353099  0.76404825  0.07792934  1
  O  O208  1  0.12353099  0.76404825  0.41126267  1
  O  O209  1  0.12353099  0.76404825  0.74459600  1
  O  O210  1  0.62353099  0.26404825  0.07792934  1
  O  O211  1  0.62353099  0.26404825  0.41126267  1
  O  O212  1  0.62353099  0.26404825  0.74459600  1
  O  O213  1  0.62353099  0.76404825  0.07792934  1
  O  O214  1  0.62353099  0.76404825  0.41126267  1
  O  O215  1  0.62353099  0.76404825  0.74459600  1
  O  O216  1  0.37353099  0.48595175  0.07792934  1
  O  O217  1  0.37353099  0.48595175  0.41126267  1
  O  O218  1  0.37353099  0.48595175  0.74459600  1
  O  O219  1  0.37353099  0.98595175  0.07792934  1
  O  O220  1  0.37353099  0.98595175  0.41126267  1
  O  O221  1  0.37353099  0.98595175  0.74459600  1
  O  O222  1  0.87353099  0.48595175  0.07792934  1
  O  O223  1  0.87353099  0.48595175  0.41126267  1
  O  O224  1  0.87353099  0.48595175  0.74459600  1
  O  O225  1  0.87353099  0.98595175  0.07792934  1
  O  O226  1  0.87353099  0.98595175  0.41126267  1
  O  O227  1  0.87353099  0.98595175  0.74459600  1
  O  O228  1  0.12646901  0.01404825  0.24459600  1
  O  O229  1  0.12646901  0.01404825  0.57792934  1
  O  O230  1  0.12646901  0.01404825  0.91126267  1
  O  O231  1  0.12646901  0.51404825  0.24459600  1
  O  O232  1  0.12646901  0.51404825  0.57792934  1
  O  O233  1  0.12646901  0.51404825  0.91126267  1
  O  O234  1  0.62646901  0.01404825  0.24459600  1
  O  O235  1  0.62646901  0.01404825  0.57792934  1
  O  O236  1  0.62646901  0.01404825  0.91126267  1
  O  O237  1  0.62646901  0.51404825  0.24459600  1
  O  O238  1  0.62646901  0.51404825  0.57792934  1
  O  O239  1  0.62646901  0.51404825  0.91126267  1
  O  O240  1  0.37630035  0.26105206  0.07209304  1
  O  O241  1  0.37630035  0.26105206  0.40542637  1
  O  O242  1  0.37630035  0.26105206  0.73875971  1
  O  O243  1  0.37630035  0.76105206  0.07209304  1
  O  O244  1  0.37630035  0.76105206  0.40542637  1
  O  O245  1  0.37630035  0.76105206  0.73875971  1
  O  O246  1  0.87630035  0.26105206  0.07209304  1
  O  O247  1  0.87630035  0.26105206  0.40542637  1
  O  O248  1  0.87630035  0.26105206  0.73875971  1
  O  O249  1  0.87630035  0.76105206  0.07209304  1
  O  O250  1  0.87630035  0.76105206  0.40542637  1
  O  O251  1  0.87630035  0.76105206  0.73875971  1
  O  O252  1  0.12369965  0.23894794  0.23875971  1
  O  O253  1  0.12369965  0.23894794  0.57209304  1
  O  O254  1  0.12369965  0.23894794  0.90542637  1
  O  O255  1  0.12369965  0.73894794  0.23875971  1
  O  O256  1  0.12369965  0.73894794  0.57209304  1
  O  O257  1  0.12369965  0.73894794  0.90542637  1
  O  O258  1  0.62369965  0.23894794  0.23875971  1
  O  O259  1  0.62369965  0.23894794  0.57209304  1
  O  O260  1  0.62369965  0.23894794  0.90542637  1
  O  O261  1  0.62369965  0.73894794  0.23875971  1
  O  O262  1  0.62369965  0.73894794  0.57209304  1
  O  O263  1  0.62369965  0.73894794  0.90542637  1
  O  O264  1  0.37369965  0.01105206  0.23875971  1
  O  O265  1  0.37369965  0.01105206  0.57209304  1
  O  O266  1  0.37369965  0.01105206  0.90542637  1
  O  O267  1  0.37369965  0.51105206  0.23875971  1
  O  O268  1  0.37369965  0.51105206  0.57209304  1
  O  O269  1  0.37369965  0.51105206  0.90542637  1
  O  O270  1  0.87369965  0.01105206  0.23875971  1
  O  O271  1  0.87369965  0.01105206  0.57209304  1
  O  O272  1  0.87369965  0.01105206  0.90542637  1
  O  O273  1  0.87369965  0.51105206  0.23875971  1
  O  O274  1  0.87369965  0.51105206  0.57209304  1
  O  O275  1  0.87369965  0.51105206  0.90542637  1
  O  O276  1  0.12630035  0.48894794  0.07209304  1
  O  O277  1  0.12630035  0.48894794  0.40542637  1
  O  O278  1  0.12630035  0.48894794  0.73875971  1
  O  O279  1  0.12630035  0.98894794  0.07209304  1
  O  O280  1  0.12630035  0.98894794  0.40542637  1
  O  O281  1  0.12630035  0.98894794  0.73875971  1
  O  O282  1  0.62630035  0.48894794  0.07209304  1
  O  O283  1  0.62630035  0.48894794  0.40542637  1
  O  O284  1  0.62630035  0.48894794  0.73875971  1
  O  O285  1  0.62630035  0.98894794  0.07209304  1
  O  O286  1  0.62630035  0.98894794  0.40542637  1
  O  O287  1  0.62630035  0.98894794  0.73875971  1
  O  O288  1  0.37637420  0.12807987  0.01859996  1
  O  O289  1  0.37637420  0.12807987  0.35193329  1
  O  O290  1  0.37637420  0.12807987  0.68526662  1
  O  O291  1  0.37637420  0.62807987  0.01859996  1
  O  O292  1  0.37637420  0.62807987  0.35193329  1
  O  O293  1  0.37637420  0.62807987  0.68526662  1
  O  O294  1  0.87637420  0.12807987  0.01859996  1
  O  O295  1  0.87637420  0.12807987  0.35193329  1
  O  O296  1  0.87637420  0.12807987  0.68526662  1
  O  O297  1  0.87637420  0.62807987  0.01859996  1
  O  O298  1  0.87637420  0.62807987  0.35193329  1
  O  O299  1  0.87637420  0.62807987  0.68526662  1
  O  O300  1  0.12362580  0.37192013  0.18526662  1
  O  O301  1  0.12362580  0.37192013  0.51859996  1
  O  O302  1  0.12362580  0.37192013  0.85193329  1
  O  O303  1  0.12362580  0.87192013  0.18526662  1
  O  O304  1  0.12362580  0.87192013  0.51859996  1
  O  O305  1  0.12362580  0.87192013  0.85193329  1
  O  O306  1  0.62362580  0.37192013  0.18526662  1
  O  O307  1  0.62362580  0.37192013  0.51859996  1
  O  O308  1  0.62362580  0.37192013  0.85193329  1
  O  O309  1  0.62362580  0.87192013  0.18526662  1
  O  O310  1  0.62362580  0.87192013  0.51859996  1
  O  O311  1  0.62362580  0.87192013  0.85193329  1
  O  O312  1  0.37362580  0.37807987  0.18526662  1
  O  O313  1  0.37362580  0.37807987  0.51859996  1
  O  O314  1  0.37362580  0.37807987  0.85193329  1
  O  O315  1  0.37362580  0.87807987  0.18526662  1
  O  O316  1  0.37362580  0.87807987  0.51859996  1
  O  O317  1  0.37362580  0.87807987  0.85193329  1
  O  O318  1  0.87362580  0.37807987  0.18526662  1
  O  O319  1  0.87362580  0.37807987  0.51859996  1
  O  O320  1  0.87362580  0.37807987  0.85193329  1
  O  O321  1  0.87362580  0.87807987  0.18526662  1
  O  O322  1  0.87362580  0.87807987  0.51859996  1
  O  O323  1  0.87362580  0.87807987  0.85193329  1
  O  O324  1  0.12637420  0.12192013  0.01859996  1
  O  O325  1  0.12637420  0.12192013  0.35193329  1
  O  O326  1  0.12637420  0.12192013  0.68526662  1
  O  O327  1  0.12637420  0.62192013  0.01859996  1
  O  O328  1  0.12637420  0.62192013  0.35193329  1
  O  O329  1  0.12637420  0.62192013  0.68526662  1
  O  O330  1  0.62637420  0.12192013  0.01859996  1
  O  O331  1  0.62637420  0.12192013  0.35193329  1
  O  O332  1  0.62637420  0.12192013  0.68526662  1
  O  O333  1  0.62637420  0.62192013  0.01859996  1
  O  O334  1  0.62637420  0.62192013  0.35193329  1
  O  O335  1  0.62637420  0.62192013  0.68526662  1
