# generated using pymatgen
data_K2Sn2O3
_symmetry_space_group_name_H-M   'P 1'
_cell_length_a   16.74161474
_cell_length_b   16.74161474
_cell_length_c   16.74161474
_cell_angle_alpha   90.00000000
_cell_angle_beta   90.00000000
_cell_angle_gamma   90.00000000
_symmetry_Int_Tables_number   1
_chemical_formula_structural   K2Sn2O3
_chemical_formula_sum   'K64 Sn64 O96'
_cell_volume   4692.36764257
_cell_formula_units_Z   32
loop_
 _symmetry_equiv_pos_site_id
 _symmetry_equiv_pos_as_xyz
  1  'x, y, z'
loop_
 _atom_site_type_symbol
 _atom_site_label
 _atom_site_symmetry_multiplicity
 _atom_site_fract_x
 _atom_site_fract_y
 _atom_site_fract_z
 _atom_site_occupancy
  K  K0  1  -0.00456479  0.24543521  0.00456479  1
  K  K1  1  -0.00456479  0.24543521  0.50456479  1
  K  K2  1  -0.00456479  0.74543521  0.00456479  1
  K  K3  1  -0.00456479  0.74543521  0.50456479  1
  K  K4  1  0.49543521  0.24543521  0.00456479  1
  K  K5  1  0.49543521  0.24543521  0.50456479  1
  K  K6  1  0.49543521  0.74543521  0.00456479  1
  K  K7  1  0.49543521  0.74543521  0.50456479  1
  K  K8  1  0.24543521  0.49543521  0.25456479  1
  K  K9  1  0.24543521  0.49543521  0.75456479  1
  K  K10  1  0.24543521  0.99543521  0.25456479  1
  K  K11  1  0.24543521  0.99543521  0.75456479  1
  K  K12  1  0.74543521  0.49543521  0.25456479  1
  K  K13  1  0.74543521  0.49543521  0.75456479  1
  K  K14  1  0.74543521  0.99543521  0.25456479  1
  K  K15  1  0.74543521  0.99543521  0.75456479  1
  K  K16  1  0.00456479  0.00456479  0.00456479  1
  K  K17  1  0.00456479  0.00456479  0.50456479  1
  K  K18  1  0.00456479  0.50456479  0.00456479  1
  K  K19  1  0.00456479  0.50456479  0.50456479  1
  K  K20  1  0.50456479  0.00456479  0.00456479  1
  K  K21  1  0.50456479  0.00456479  0.50456479  1
  K  K22  1  0.50456479  0.50456479  0.00456479  1
  K  K23  1  0.50456479  0.50456479  0.50456479  1
  K  K24  1  0.25456479  0.25456479  0.25456479  1
  K  K25  1  0.25456479  0.25456479  0.75456479  1
  K  K26  1  0.25456479  0.75456479  0.25456479  1
  K  K27  1  0.25456479  0.75456479  0.75456479  1
  K  K28  1  0.75456479  0.25456479  0.25456479  1
  K  K29  1  0.75456479  0.25456479  0.75456479  1
  K  K30  1  0.75456479  0.75456479  0.25456479  1
  K  K31  1  0.75456479  0.75456479  0.75456479  1
  K  K32  1  0.00456479  -0.00456479  0.24543521  1
  K  K33  1  0.00456479  -0.00456479  0.74543521  1
  K  K34  1  0.00456479  0.49543521  0.24543521  1
  K  K35  1  0.00456479  0.49543521  0.74543521  1
  K  K36  1  0.50456479  -0.00456479  0.24543521  1
  K  K37  1  0.50456479  -0.00456479  0.74543521  1
  K  K38  1  0.50456479  0.49543521  0.24543521  1
  K  K39  1  0.50456479  0.49543521  0.74543521  1
  K  K40  1  0.25456479  0.24543521  0.49543521  1
  K  K41  1  0.25456479  0.24543521  0.99543521  1
  K  K42  1  0.25456479  0.74543521  0.49543521  1
  K  K43  1  0.25456479  0.74543521  0.99543521  1
  K  K44  1  0.75456479  0.24543521  0.49543521  1
  K  K45  1  0.75456479  0.24543521  0.99543521  1
  K  K46  1  0.75456479  0.74543521  0.49543521  1
  K  K47  1  0.75456479  0.74543521  0.99543521  1
  K  K48  1  0.24543521  0.00456479  -0.00456479  1
  K  K49  1  0.24543521  0.00456479  0.49543521  1
  K  K50  1  0.24543521  0.50456479  -0.00456479  1
  K  K51  1  0.24543521  0.50456479  0.49543521  1
  K  K52  1  0.74543521  0.00456479  -0.00456479  1
  K  K53  1  0.74543521  0.00456479  0.49543521  1
  K  K54  1  0.74543521  0.50456479  -0.00456479  1
  K  K55  1  0.74543521  0.50456479  0.49543521  1
  K  K56  1  0.49543521  0.25456479  0.24543521  1
  K  K57  1  0.49543521  0.25456479  0.74543521  1
  K  K58  1  0.49543521  0.75456479  0.24543521  1
  K  K59  1  0.49543521  0.75456479  0.74543521  1
  K  K60  1  0.99543521  0.25456479  0.24543521  1
  K  K61  1  0.99543521  0.25456479  0.74543521  1
  K  K62  1  0.99543521  0.75456479  0.24543521  1
  K  K63  1  0.99543521  0.75456479  0.74543521  1
  Sn  Sn64  1  0.12701085  0.12298915  -0.12298915  1
  Sn  Sn65  1  0.12701085  0.12298915  0.37701085  1
  Sn  Sn66  1  0.12701085  0.62298915  -0.12298915  1
  Sn  Sn67  1  0.12701085  0.62298915  0.37701085  1
  Sn  Sn68  1  0.62701085  0.12298915  -0.12298915  1
  Sn  Sn69  1  0.62701085  0.12298915  0.37701085  1
  Sn  Sn70  1  0.62701085  0.62298915  -0.12298915  1
  Sn  Sn71  1  0.62701085  0.62298915  0.37701085  1
  Sn  Sn72  1  0.37701085  0.37298915  0.12701085  1
  Sn  Sn73  1  0.37701085  0.37298915  0.62701085  1
  Sn  Sn74  1  0.37701085  0.87298915  0.12701085  1
  Sn  Sn75  1  0.37701085  0.87298915  0.62701085  1
  Sn  Sn76  1  0.87701085  0.37298915  0.12701085  1
  Sn  Sn77  1  0.87701085  0.37298915  0.62701085  1
  Sn  Sn78  1  0.87701085  0.87298915  0.12701085  1
  Sn  Sn79  1  0.87701085  0.87298915  0.62701085  1
  Sn  Sn80  1  0.12298915  -0.12298915  0.12701085  1
  Sn  Sn81  1  0.12298915  -0.12298915  0.62701085  1
  Sn  Sn82  1  0.12298915  0.37701085  0.12701085  1
  Sn  Sn83  1  0.12298915  0.37701085  0.62701085  1
  Sn  Sn84  1  0.62298915  -0.12298915  0.12701085  1
  Sn  Sn85  1  0.62298915  -0.12298915  0.62701085  1
  Sn  Sn86  1  0.62298915  0.37701085  0.12701085  1
  Sn  Sn87  1  0.62298915  0.37701085  0.62701085  1
  Sn  Sn88  1  0.37298915  0.12701085  0.37701085  1
  Sn  Sn89  1  0.37298915  0.12701085  0.87701085  1
  Sn  Sn90  1  0.37298915  0.62701085  0.37701085  1
  Sn  Sn91  1  0.37298915  0.62701085  0.87701085  1
  Sn  Sn92  1  0.87298915  0.12701085  0.37701085  1
  Sn  Sn93  1  0.87298915  0.12701085  0.87701085  1
  Sn  Sn94  1  0.87298915  0.62701085  0.37701085  1
  Sn  Sn95  1  0.87298915  0.62701085  0.87701085  1
  Sn  Sn96  1  0.12298915  0.12298915  0.12298915  1
  Sn  Sn97  1  0.12298915  0.12298915  0.62298915  1
  Sn  Sn98  1  0.12298915  0.62298915  0.12298915  1
  Sn  Sn99  1  0.12298915  0.62298915  0.62298915  1
  Sn  Sn100  1  0.62298915  0.12298915  0.12298915  1
  Sn  Sn101  1  0.62298915  0.12298915  0.62298915  1
  Sn  Sn102  1  0.62298915  0.62298915  0.12298915  1
  Sn  Sn103  1  0.62298915  0.62298915  0.62298915  1
  Sn  Sn104  1  0.37298915  0.37298915  0.37298915  1
  Sn  Sn105  1  0.37298915  0.37298915  0.87298915  1
  Sn  Sn106  1  0.37298915  0.87298915  0.37298915  1
  Sn  Sn107  1  0.37298915  0.87298915  0.87298915  1
  Sn  Sn108  1  0.87298915  0.37298915  0.37298915  1
  Sn  Sn109  1  0.87298915  0.37298915  0.87298915  1
  Sn  Sn110  1  0.87298915  0.87298915  0.37298915  1
  Sn  Sn111  1  0.87298915  0.87298915  0.87298915  1
  Sn  Sn112  1  -0.12298915  0.12701085  0.12298915  1
  Sn  Sn113  1  -0.12298915  0.12701085  0.62298915  1
  Sn  Sn114  1  -0.12298915  0.62701085  0.12298915  1
  Sn  Sn115  1  -0.12298915  0.62701085  0.62298915  1
  Sn  Sn116  1  0.37701085  0.12701085  0.12298915  1
  Sn  Sn117  1  0.37701085  0.12701085  0.62298915  1
  Sn  Sn118  1  0.37701085  0.62701085  0.12298915  1
  Sn  Sn119  1  0.37701085  0.62701085  0.62298915  1
  Sn  Sn120  1  0.12701085  0.37701085  0.37298915  1
  Sn  Sn121  1  0.12701085  0.37701085  0.87298915  1
  Sn  Sn122  1  0.12701085  0.87701085  0.37298915  1
  Sn  Sn123  1  0.12701085  0.87701085  0.87298915  1
  Sn  Sn124  1  0.62701085  0.37701085  0.37298915  1
  Sn  Sn125  1  0.62701085  0.37701085  0.87298915  1
  Sn  Sn126  1  0.62701085  0.87701085  0.37298915  1
  Sn  Sn127  1  0.62701085  0.87701085  0.87298915  1
  O  O128  1  -0.00000000  0.37500000  0.11438980  1
  O  O129  1  -0.00000000  0.37500000  0.61438980  1
  O  O130  1  -0.00000000  0.87500000  0.11438980  1
  O  O131  1  -0.00000000  0.87500000  0.61438980  1
  O  O132  1  0.50000000  0.37500000  0.11438980  1
  O  O133  1  0.50000000  0.37500000  0.61438980  1
  O  O134  1  0.50000000  0.87500000  0.11438980  1
  O  O135  1  0.50000000  0.87500000  0.61438980  1
  O  O136  1  0.25000000  0.62500000  0.36438980  1
  O  O137  1  0.25000000  0.62500000  0.86438980  1
  O  O138  1  0.25000000  1.12500000  0.36438980  1
  O  O139  1  0.25000000  1.12500000  0.86438980  1
  O  O140  1  0.75000000  0.62500000  0.36438980  1
  O  O141  1  0.75000000  0.62500000  0.86438980  1
  O  O142  1  0.75000000  1.12500000  0.36438980  1
  O  O143  1  0.75000000  1.12500000  0.86438980  1
  O  O144  1  -0.00000000  0.12500000  0.13561020  1
  O  O145  1  -0.00000000  0.12500000  0.63561020  1
  O  O146  1  -0.00000000  0.62500000  0.13561020  1
  O  O147  1  -0.00000000  0.62500000  0.63561020  1
  O  O148  1  0.50000000  0.12500000  0.13561020  1
  O  O149  1  0.50000000  0.12500000  0.63561020  1
  O  O150  1  0.50000000  0.62500000  0.13561020  1
  O  O151  1  0.50000000  0.62500000  0.63561020  1
  O  O152  1  0.25000000  0.37500000  0.38561020  1
  O  O153  1  0.25000000  0.37500000  0.88561020  1
  O  O154  1  0.25000000  0.87500000  0.38561020  1
  O  O155  1  0.25000000  0.87500000  0.88561020  1
  O  O156  1  0.75000000  0.37500000  0.38561020  1
  O  O157  1  0.75000000  0.37500000  0.88561020  1
  O  O158  1  0.75000000  0.87500000  0.38561020  1
  O  O159  1  0.75000000  0.87500000  0.88561020  1
  O  O160  1  0.37500000  0.11438980  -0.00000000  1
  O  O161  1  0.37500000  0.11438980  0.50000000  1
  O  O162  1  0.37500000  0.61438980  -0.00000000  1
  O  O163  1  0.37500000  0.61438980  0.50000000  1
  O  O164  1  0.87500000  0.11438980  -0.00000000  1
  O  O165  1  0.87500000  0.11438980  0.50000000  1
  O  O166  1  0.87500000  0.61438980  -0.00000000  1
  O  O167  1  0.87500000  0.61438980  0.50000000  1
  O  O168  1  0.62500000  0.36438980  0.25000000  1
  O  O169  1  0.62500000  0.36438980  0.75000000  1
  O  O170  1  0.62500000  0.86438980  0.25000000  1
  O  O171  1  0.62500000  0.86438980  0.75000000  1
  O  O172  1  1.12500000  0.36438980  0.25000000  1
  O  O173  1  1.12500000  0.36438980  0.75000000  1
  O  O174  1  1.12500000  0.86438980  0.25000000  1
  O  O175  1  1.12500000  0.86438980  0.75000000  1
  O  O176  1  0.11438980  -0.00000000  0.37500000  1
  O  O177  1  0.11438980  -0.00000000  0.87500000  1
  O  O178  1  0.11438980  0.50000000  0.37500000  1
  O  O179  1  0.11438980  0.50000000  0.87500000  1
  O  O180  1  0.61438980  -0.00000000  0.37500000  1
  O  O181  1  0.61438980  -0.00000000  0.87500000  1
  O  O182  1  0.61438980  0.50000000  0.37500000  1
  O  O183  1  0.61438980  0.50000000  0.87500000  1
  O  O184  1  0.36438980  0.25000000  0.62500000  1
  O  O185  1  0.36438980  0.25000000  1.12500000  1
  O  O186  1  0.36438980  0.75000000  0.62500000  1
  O  O187  1  0.36438980  0.75000000  1.12500000  1
  O  O188  1  0.86438980  0.25000000  0.62500000  1
  O  O189  1  0.86438980  0.25000000  1.12500000  1
  O  O190  1  0.86438980  0.75000000  0.62500000  1
  O  O191  1  0.86438980  0.75000000  1.12500000  1
  O  O192  1  0.13561020  -0.00000000  0.12500000  1
  O  O193  1  0.13561020  -0.00000000  0.62500000  1
  O  O194  1  0.13561020  0.50000000  0.12500000  1
  O  O195  1  0.13561020  0.50000000  0.62500000  1
  O  O196  1  0.63561020  -0.00000000  0.12500000  1
  O  O197  1  0.63561020  -0.00000000  0.62500000  1
  O  O198  1  0.63561020  0.50000000  0.12500000  1
  O  O199  1  0.63561020  0.50000000  0.62500000  1
  O  O200  1  0.38561020  0.25000000  0.37500000  1
  O  O201  1  0.38561020  0.25000000  0.87500000  1
  O  O202  1  0.38561020  0.75000000  0.37500000  1
  O  O203  1  0.38561020  0.75000000  0.87500000  1
  O  O204  1  0.88561020  0.25000000  0.37500000  1
  O  O205  1  0.88561020  0.25000000  0.87500000  1
  O  O206  1  0.88561020  0.75000000  0.37500000  1
  O  O207  1  0.88561020  0.75000000  0.87500000  1
  O  O208  1  0.12500000  0.13561020  -0.00000000  1
  O  O209  1  0.12500000  0.13561020  0.50000000  1
  O  O210  1  0.12500000  0.63561020  -0.00000000  1
  O  O211  1  0.12500000  0.63561020  0.50000000  1
  O  O212  1  0.62500000  0.13561020  -0.00000000  1
  O  O213  1  0.62500000  0.13561020  0.50000000  1
  O  O214  1  0.62500000  0.63561020  -0.00000000  1
  O  O215  1  0.62500000  0.63561020  0.50000000  1
  O  O216  1  0.37500000  0.38561020  0.25000000  1
  O  O217  1  0.37500000  0.38561020  0.75000000  1
  O  O218  1  0.37500000  0.88561020  0.25000000  1
  O  O219  1  0.37500000  0.88561020  0.75000000  1
  O  O220  1  0.87500000  0.38561020  0.25000000  1
  O  O221  1  0.87500000  0.38561020  0.75000000  1
  O  O222  1  0.87500000  0.88561020  0.25000000  1
  O  O223  1  0.87500000  0.88561020  0.75000000  1
