# generated using pymatgen
data_Ba2Bi2O5
_symmetry_space_group_name_H-M   'P 1'
_cell_length_a   14.81544024
_cell_length_b   15.03127605
_cell_length_c   12.27501827
_cell_angle_alpha   90.00000000
_cell_angle_beta   101.35333516
_cell_angle_gamma   90.00000000
_symmetry_Int_Tables_number   1
_chemical_formula_structural   Ba2Bi2O5
_chemical_formula_sum   'Ba32 Bi32 O80'
_cell_volume   2680.09360430
_cell_formula_units_Z   16
loop_
 _symmetry_equiv_pos_site_id
 _symmetry_equiv_pos_as_xyz
  1  'x, y, z'
loop_
 _atom_site_type_symbol
 _atom_site_label
 _atom_site_symmetry_multiplicity
 _atom_site_fract_x
 _atom_site_fract_y
 _atom_site_fract_z
 _atom_site_occupancy
  Ba  Ba0  1  0.06747370  0.03750275  0.38941469  1
  Ba  Ba1  1  0.06747370  0.03750275  0.88941469  1
  Ba  Ba2  1  0.06747370  0.53750275  0.38941469  1
  Ba  Ba3  1  0.06747370  0.53750275  0.88941469  1
  Ba  Ba4  1  0.56747370  0.03750275  0.38941469  1
  Ba  Ba5  1  0.56747370  0.03750275  0.88941469  1
  Ba  Ba6  1  0.56747370  0.53750275  0.38941469  1
  Ba  Ba7  1  0.56747370  0.53750275  0.88941469  1
  Ba  Ba8  1  0.43252630  0.28750275  0.36058531  1
  Ba  Ba9  1  0.43252630  0.28750275  0.86058531  1
  Ba  Ba10  1  0.43252630  0.78750275  0.36058531  1
  Ba  Ba11  1  0.43252630  0.78750275  0.86058531  1
  Ba  Ba12  1  0.93252630  0.28750275  0.36058531  1
  Ba  Ba13  1  0.93252630  0.28750275  0.86058531  1
  Ba  Ba14  1  0.93252630  0.78750275  0.36058531  1
  Ba  Ba15  1  0.93252630  0.78750275  0.86058531  1
  Ba  Ba16  1  0.43252630  0.46249725  0.11058531  1
  Ba  Ba17  1  0.43252630  0.46249725  0.61058531  1
  Ba  Ba18  1  0.43252630  0.96249725  0.11058531  1
  Ba  Ba19  1  0.43252630  0.96249725  0.61058531  1
  Ba  Ba20  1  0.93252630  0.46249725  0.11058531  1
  Ba  Ba21  1  0.93252630  0.46249725  0.61058531  1
  Ba  Ba22  1  0.93252630  0.96249725  0.11058531  1
  Ba  Ba23  1  0.93252630  0.96249725  0.61058531  1
  Ba  Ba24  1  0.06747370  0.21249725  0.13941469  1
  Ba  Ba25  1  0.06747370  0.21249725  0.63941469  1
  Ba  Ba26  1  0.06747370  0.71249725  0.13941469  1
  Ba  Ba27  1  0.06747370  0.71249725  0.63941469  1
  Ba  Ba28  1  0.56747370  0.21249725  0.13941469  1
  Ba  Ba29  1  0.56747370  0.21249725  0.63941469  1
  Ba  Ba30  1  0.56747370  0.71249725  0.13941469  1
  Ba  Ba31  1  0.56747370  0.71249725  0.63941469  1
  Bi  Bi32  1  0.31326023  0.06108290  0.36159120  1
  Bi  Bi33  1  0.31326023  0.06108290  0.86159120  1
  Bi  Bi34  1  0.31326023  0.56108290  0.36159120  1
  Bi  Bi35  1  0.31326023  0.56108290  0.86159120  1
  Bi  Bi36  1  0.81326023  0.06108290  0.36159120  1
  Bi  Bi37  1  0.81326023  0.06108290  0.86159120  1
  Bi  Bi38  1  0.81326023  0.56108290  0.36159120  1
  Bi  Bi39  1  0.81326023  0.56108290  0.86159120  1
  Bi  Bi40  1  0.18673977  0.31108290  0.38840880  1
  Bi  Bi41  1  0.18673977  0.31108290  0.88840880  1
  Bi  Bi42  1  0.18673977  0.81108290  0.38840880  1
  Bi  Bi43  1  0.18673977  0.81108290  0.88840880  1
  Bi  Bi44  1  0.68673977  0.31108290  0.38840880  1
  Bi  Bi45  1  0.68673977  0.31108290  0.88840880  1
  Bi  Bi46  1  0.68673977  0.81108290  0.38840880  1
  Bi  Bi47  1  0.68673977  0.81108290  0.88840880  1
  Bi  Bi48  1  0.18673977  0.43891710  0.13840880  1
  Bi  Bi49  1  0.18673977  0.43891710  0.63840880  1
  Bi  Bi50  1  0.18673977  0.93891710  0.13840880  1
  Bi  Bi51  1  0.18673977  0.93891710  0.63840880  1
  Bi  Bi52  1  0.68673977  0.43891710  0.13840880  1
  Bi  Bi53  1  0.68673977  0.43891710  0.63840880  1
  Bi  Bi54  1  0.68673977  0.93891710  0.13840880  1
  Bi  Bi55  1  0.68673977  0.93891710  0.63840880  1
  Bi  Bi56  1  0.31326023  0.18891710  0.11159120  1
  Bi  Bi57  1  0.31326023  0.18891710  0.61159120  1
  Bi  Bi58  1  0.31326023  0.68891710  0.11159120  1
  Bi  Bi59  1  0.31326023  0.68891710  0.61159120  1
  Bi  Bi60  1  0.81326023  0.18891710  0.11159120  1
  Bi  Bi61  1  0.81326023  0.18891710  0.61159120  1
  Bi  Bi62  1  0.81326023  0.68891710  0.11159120  1
  Bi  Bi63  1  0.81326023  0.68891710  0.61159120  1
  O  O64  1  0.40335216  0.11273768  0.23221838  1
  O  O65  1  0.40335216  0.11273768  0.73221838  1
  O  O66  1  0.40335216  0.61273768  0.23221838  1
  O  O67  1  0.40335216  0.61273768  0.73221838  1
  O  O68  1  0.90335216  0.11273768  0.23221838  1
  O  O69  1  0.90335216  0.11273768  0.73221838  1
  O  O70  1  0.90335216  0.61273768  0.23221838  1
  O  O71  1  0.90335216  0.61273768  0.73221838  1
  O  O72  1  0.09664784  0.36273768  0.01778162  1
  O  O73  1  0.09664784  0.36273768  0.51778162  1
  O  O74  1  0.09664784  0.86273768  0.01778162  1
  O  O75  1  0.09664784  0.86273768  0.51778162  1
  O  O76  1  0.59664784  0.36273768  0.01778162  1
  O  O77  1  0.59664784  0.36273768  0.51778162  1
  O  O78  1  0.59664784  0.86273768  0.01778162  1
  O  O79  1  0.59664784  0.86273768  0.51778162  1
  O  O80  1  0.09664784  0.38726232  0.26778162  1
  O  O81  1  0.09664784  0.38726232  0.76778162  1
  O  O82  1  0.09664784  0.88726232  0.26778162  1
  O  O83  1  0.09664784  0.88726232  0.76778162  1
  O  O84  1  0.59664784  0.38726232  0.26778162  1
  O  O85  1  0.59664784  0.38726232  0.76778162  1
  O  O86  1  0.59664784  0.88726232  0.26778162  1
  O  O87  1  0.59664784  0.88726232  0.76778162  1
  O  O88  1  0.40335216  0.13726232  0.48221838  1
  O  O89  1  0.40335216  0.13726232  0.98221838  1
  O  O90  1  0.40335216  0.63726232  0.48221838  1
  O  O91  1  0.40335216  0.63726232  0.98221838  1
  O  O92  1  0.90335216  0.13726232  0.48221838  1
  O  O93  1  0.90335216  0.13726232  0.98221838  1
  O  O94  1  0.90335216  0.63726232  0.48221838  1
  O  O95  1  0.90335216  0.63726232  0.98221838  1
  O  O96  1  0.09278162  0.20589061  0.36972786  1
  O  O97  1  0.09278162  0.20589061  0.86972786  1
  O  O98  1  0.09278162  0.70589061  0.36972786  1
  O  O99  1  0.09278162  0.70589061  0.86972786  1
  O  O100  1  0.59278162  0.20589061  0.36972786  1
  O  O101  1  0.59278162  0.20589061  0.86972786  1
  O  O102  1  0.59278162  0.70589061  0.36972786  1
  O  O103  1  0.59278162  0.70589061  0.86972786  1
  O  O104  1  0.40721838  0.45589061  0.38027214  1
  O  O105  1  0.40721838  0.45589061  0.88027214  1
  O  O106  1  0.40721838  0.95589061  0.38027214  1
  O  O107  1  0.40721838  0.95589061  0.88027214  1
  O  O108  1  0.90721838  0.45589061  0.38027214  1
  O  O109  1  0.90721838  0.45589061  0.88027214  1
  O  O110  1  0.90721838  0.95589061  0.38027214  1
  O  O111  1  0.90721838  0.95589061  0.88027214  1
  O  O112  1  0.40721838  0.29410939  0.13027214  1
  O  O113  1  0.40721838  0.29410939  0.63027214  1
  O  O114  1  0.40721838  0.79410939  0.13027214  1
  O  O115  1  0.40721838  0.79410939  0.63027214  1
  O  O116  1  0.90721838  0.29410939  0.13027214  1
  O  O117  1  0.90721838  0.29410939  0.63027214  1
  O  O118  1  0.90721838  0.79410939  0.13027214  1
  O  O119  1  0.90721838  0.79410939  0.63027214  1
  O  O120  1  0.09278162  0.04410939  0.11972786  1
  O  O121  1  0.09278162  0.04410939  0.61972786  1
  O  O122  1  0.09278162  0.54410939  0.11972786  1
  O  O123  1  0.09278162  0.54410939  0.61972786  1
  O  O124  1  0.59278162  0.04410939  0.11972786  1
  O  O125  1  0.59278162  0.04410939  0.61972786  1
  O  O126  1  0.59278162  0.54410939  0.11972786  1
  O  O127  1  0.59278162  0.54410939  0.61972786  1
  O  O128  1  0.25000000  0.00000000  0.00000000  1
  O  O129  1  0.25000000  0.00000000  0.50000000  1
  O  O130  1  0.25000000  0.50000000  0.00000000  1
  O  O131  1  0.25000000  0.50000000  0.50000000  1
  O  O132  1  0.75000000  0.00000000  0.00000000  1
  O  O133  1  0.75000000  0.00000000  0.50000000  1
  O  O134  1  0.75000000  0.50000000  0.00000000  1
  O  O135  1  0.75000000  0.50000000  0.50000000  1
  O  O136  1  0.25000000  0.25000000  0.25000000  1
  O  O137  1  0.25000000  0.25000000  0.75000000  1
  O  O138  1  0.25000000  0.75000000  0.25000000  1
  O  O139  1  0.25000000  0.75000000  0.75000000  1
  O  O140  1  0.75000000  0.25000000  0.25000000  1
  O  O141  1  0.75000000  0.25000000  0.75000000  1
  O  O142  1  0.75000000  0.75000000  0.25000000  1
  O  O143  1  0.75000000  0.75000000  0.75000000  1
