# generated using pymatgen
data_Hg2GeO4
_symmetry_space_group_name_H-M   'P 1'
_cell_length_a   13.21355639
_cell_length_b   10.69865573
_cell_length_c   11.65266846
_cell_angle_alpha   90.00000000
_cell_angle_beta   90.00000000
_cell_angle_gamma   90.00000000
_symmetry_Int_Tables_number   1
_chemical_formula_structural   Hg2GeO4
_chemical_formula_sum   'Hg32 Ge16 O64'
_cell_volume   1647.30617135
_cell_formula_units_Z   16
loop_
 _symmetry_equiv_pos_site_id
 _symmetry_equiv_pos_as_xyz
  1  'x, y, z'
loop_
 _atom_site_type_symbol
 _atom_site_label
 _atom_site_symmetry_multiplicity
 _atom_site_fract_x
 _atom_site_fract_y
 _atom_site_fract_z
 _atom_site_occupancy
  Hg  Hg0  1  0.25000000  0.67885137  0.50000000  1
  Hg  Hg1  1  0.75000000  0.67885137  0.50000000  1
  Hg  Hg2  1  0.50000000  1.17885137  0.50000000  1
  Hg  Hg3  1  1.00000000  1.17885137  0.50000000  1
  Hg  Hg4  1  0.50000000  0.67885137  1.00000000  1
  Hg  Hg5  1  1.00000000  0.67885137  1.00000000  1
  Hg  Hg6  1  0.25000000  1.17885137  1.00000000  1
  Hg  Hg7  1  0.75000000  1.17885137  1.00000000  1
  Hg  Hg8  1  0.25000000  0.32114863  0.50000000  1
  Hg  Hg9  1  0.75000000  0.32114863  0.50000000  1
  Hg  Hg10  1  0.50000000  0.82114863  0.50000000  1
  Hg  Hg11  1  1.00000000  0.82114863  0.50000000  1
  Hg  Hg12  1  0.50000000  0.32114863  1.00000000  1
  Hg  Hg13  1  1.00000000  0.32114863  1.00000000  1
  Hg  Hg14  1  0.25000000  0.82114863  1.00000000  1
  Hg  Hg15  1  0.75000000  0.82114863  1.00000000  1
  Hg  Hg16  1  0.37500000  0.57114863  0.75000000  1
  Hg  Hg17  1  0.87500000  0.57114863  0.75000000  1
  Hg  Hg18  1  0.62500000  1.07114863  0.75000000  1
  Hg  Hg19  1  1.12500000  1.07114863  0.75000000  1
  Hg  Hg20  1  0.62500000  0.57114863  1.25000000  1
  Hg  Hg21  1  1.12500000  0.57114863  1.25000000  1
  Hg  Hg22  1  0.37500000  1.07114863  1.25000000  1
  Hg  Hg23  1  0.87500000  1.07114863  1.25000000  1
  Hg  Hg24  1  0.37500000  0.92885137  0.75000000  1
  Hg  Hg25  1  0.87500000  0.92885137  0.75000000  1
  Hg  Hg26  1  0.62500000  1.42885137  0.75000000  1
  Hg  Hg27  1  1.12500000  1.42885137  0.75000000  1
  Hg  Hg28  1  0.62500000  0.92885137  1.25000000  1
  Hg  Hg29  1  1.12500000  0.92885137  1.25000000  1
  Hg  Hg30  1  0.37500000  1.42885137  1.25000000  1
  Hg  Hg31  1  0.87500000  1.42885137  1.25000000  1
  Ge  Ge32  1  -0.00000000  0.00000000  0.00000000  1
  Ge  Ge33  1  0.50000000  0.00000000  0.00000000  1
  Ge  Ge34  1  0.25000000  0.50000000  0.00000000  1
  Ge  Ge35  1  0.75000000  0.50000000  0.00000000  1
  Ge  Ge36  1  0.25000000  0.00000000  0.50000000  1
  Ge  Ge37  1  0.75000000  0.00000000  0.50000000  1
  Ge  Ge38  1  -0.00000000  0.50000000  0.50000000  1
  Ge  Ge39  1  0.50000000  0.50000000  0.50000000  1
  Ge  Ge40  1  0.12500000  0.25000000  0.25000000  1
  Ge  Ge41  1  0.62500000  0.25000000  0.25000000  1
  Ge  Ge42  1  0.37500000  0.75000000  0.25000000  1
  Ge  Ge43  1  0.87500000  0.75000000  0.25000000  1
  Ge  Ge44  1  0.37500000  0.25000000  0.75000000  1
  Ge  Ge45  1  0.87500000  0.25000000  0.75000000  1
  Ge  Ge46  1  0.12500000  0.75000000  0.75000000  1
  Ge  Ge47  1  0.62500000  0.75000000  0.75000000  1
  O  O48  1  0.42654363  0.89222126  0.91648370  1
  O  O49  1  0.92654363  0.89222126  0.91648370  1
  O  O50  1  0.67654363  1.39222126  0.91648370  1
  O  O51  1  1.17654363  1.39222126  0.91648370  1
  O  O52  1  0.67654363  0.89222126  1.41648370  1
  O  O53  1  1.17654363  0.89222126  1.41648370  1
  O  O54  1  0.42654363  1.39222126  1.41648370  1
  O  O55  1  0.92654363  1.39222126  1.41648370  1
  O  O56  1  0.42654363  0.60777874  0.58351630  1
  O  O57  1  0.92654363  0.60777874  0.58351630  1
  O  O58  1  0.67654363  1.10777874  0.58351630  1
  O  O59  1  1.17654363  1.10777874  0.58351630  1
  O  O60  1  0.67654363  0.60777874  1.08351630  1
  O  O61  1  1.17654363  0.60777874  1.08351630  1
  O  O62  1  0.42654363  1.10777874  1.08351630  1
  O  O63  1  0.92654363  1.10777874  1.08351630  1
  O  O64  1  0.32345637  0.89222126  0.58351630  1
  O  O65  1  0.82345637  0.89222126  0.58351630  1
  O  O66  1  0.57345637  1.39222126  0.58351630  1
  O  O67  1  1.07345637  1.39222126  0.58351630  1
  O  O68  1  0.57345637  0.89222126  1.08351630  1
  O  O69  1  1.07345637  0.89222126  1.08351630  1
  O  O70  1  0.32345637  1.39222126  1.08351630  1
  O  O71  1  0.82345637  1.39222126  1.08351630  1
  O  O72  1  0.32345637  0.60777874  0.91648370  1
  O  O73  1  0.82345637  0.60777874  0.91648370  1
  O  O74  1  0.57345637  1.10777874  0.91648370  1
  O  O75  1  1.07345637  1.10777874  0.91648370  1
  O  O76  1  0.57345637  0.60777874  1.41648370  1
  O  O77  1  1.07345637  0.60777874  1.41648370  1
  O  O78  1  0.32345637  1.10777874  1.41648370  1
  O  O79  1  0.82345637  1.10777874  1.41648370  1
  O  O80  1  0.19845637  0.35777874  0.33351630  1
  O  O81  1  0.69845637  0.35777874  0.33351630  1
  O  O82  1  0.44845637  0.85777874  0.33351630  1
  O  O83  1  0.94845637  0.85777874  0.33351630  1
  O  O84  1  0.44845637  0.35777874  0.83351630  1
  O  O85  1  0.94845637  0.35777874  0.83351630  1
  O  O86  1  0.19845637  0.85777874  0.83351630  1
  O  O87  1  0.69845637  0.85777874  0.83351630  1
  O  O88  1  0.19845637  0.64222126  0.66648370  1
  O  O89  1  0.69845637  0.64222126  0.66648370  1
  O  O90  1  0.44845637  1.14222126  0.66648370  1
  O  O91  1  0.94845637  1.14222126  0.66648370  1
  O  O92  1  0.44845637  0.64222126  1.16648370  1
  O  O93  1  0.94845637  0.64222126  1.16648370  1
  O  O94  1  0.19845637  1.14222126  1.16648370  1
  O  O95  1  0.69845637  1.14222126  1.16648370  1
  O  O96  1  0.30154363  0.64222126  0.33351630  1
  O  O97  1  0.80154363  0.64222126  0.33351630  1
  O  O98  1  0.55154363  1.14222126  0.33351630  1
  O  O99  1  1.05154363  1.14222126  0.33351630  1
  O  O100  1  0.55154363  0.64222126  0.83351630  1
  O  O101  1  1.05154363  0.64222126  0.83351630  1
  O  O102  1  0.30154363  1.14222126  0.83351630  1
  O  O103  1  0.80154363  1.14222126  0.83351630  1
  O  O104  1  0.30154363  0.35777874  0.66648370  1
  O  O105  1  0.80154363  0.35777874  0.66648370  1
  O  O106  1  0.55154363  0.85777874  0.66648370  1
  O  O107  1  1.05154363  0.85777874  0.66648370  1
  O  O108  1  0.55154363  0.35777874  1.16648370  1
  O  O109  1  1.05154363  0.35777874  1.16648370  1
  O  O110  1  0.30154363  0.85777874  1.16648370  1
  O  O111  1  0.80154363  0.85777874  1.16648370  1
