# generated using pymatgen
data_Cs2Li3GaO4
_symmetry_space_group_name_H-M   'P 1'
_cell_length_a   10.02339560
_cell_length_b   9.96652943
_cell_length_c   11.71617602
_cell_angle_alpha   90.00000000
_cell_angle_beta   90.00000000
_cell_angle_gamma   90.00000000
_symmetry_Int_Tables_number   1
_chemical_formula_structural   Cs2Li3GaO4
_chemical_formula_sum   'Cs16 Li24 Ga8 O32'
_cell_volume   1170.42802612
_cell_formula_units_Z   8
loop_
 _symmetry_equiv_pos_site_id
 _symmetry_equiv_pos_as_xyz
  1  'x, y, z'
loop_
 _atom_site_type_symbol
 _atom_site_label
 _atom_site_symmetry_multiplicity
 _atom_site_fract_x
 _atom_site_fract_y
 _atom_site_fract_z
 _atom_site_occupancy
  Cs  Cs0  1  0.11936617  0.37232858  0.00000000  1
  Cs  Cs1  1  0.61936617  0.37232858  0.00000000  1
  Cs  Cs2  1  0.36936617  0.87232858  0.50000000  1
  Cs  Cs3  1  0.86936617  0.87232858  0.50000000  1
  Cs  Cs4  1  0.13063383  0.12767142  0.50000000  1
  Cs  Cs5  1  0.63063383  0.12767142  0.50000000  1
  Cs  Cs6  1  0.38063383  0.62767142  1.00000000  1
  Cs  Cs7  1  0.88063383  0.62767142  1.00000000  1
  Cs  Cs8  1  -0.11936617  0.37232858  0.50000000  1
  Cs  Cs9  1  0.38063383  0.37232858  0.50000000  1
  Cs  Cs10  1  0.13063383  0.87232858  1.00000000  1
  Cs  Cs11  1  0.63063383  0.87232858  1.00000000  1
  Cs  Cs12  1  0.36936617  0.12767142  0.00000000  1
  Cs  Cs13  1  0.86936617  0.12767142  0.00000000  1
  Cs  Cs14  1  0.61936617  0.62767142  0.50000000  1
  Cs  Cs15  1  1.11936617  0.62767142  0.50000000  1
  Li  Li16  1  0.25000000  0.24044373  0.25000000  1
  Li  Li17  1  0.75000000  0.24044373  0.25000000  1
  Li  Li18  1  0.50000000  0.74044373  0.75000000  1
  Li  Li19  1  1.00000000  0.74044373  0.75000000  1
  Li  Li20  1  0.00000000  0.74044373  0.25000000  1
  Li  Li21  1  0.50000000  0.74044373  0.25000000  1
  Li  Li22  1  0.25000000  1.24044373  0.75000000  1
  Li  Li23  1  0.75000000  1.24044373  0.75000000  1
  Li  Li24  1  0.25000000  -0.24044373  0.25000000  1
  Li  Li25  1  0.75000000  -0.24044373  0.25000000  1
  Li  Li26  1  0.50000000  0.25955627  0.75000000  1
  Li  Li27  1  1.00000000  0.25955627  0.75000000  1
  Li  Li28  1  0.25000000  0.00000000  0.25000000  1
  Li  Li29  1  0.75000000  0.00000000  0.25000000  1
  Li  Li30  1  0.50000000  0.50000000  0.75000000  1
  Li  Li31  1  1.00000000  0.50000000  0.75000000  1
  Li  Li32  1  -0.00000000  0.25955627  0.25000000  1
  Li  Li33  1  0.50000000  0.25955627  0.25000000  1
  Li  Li34  1  0.25000000  0.75955627  0.75000000  1
  Li  Li35  1  0.75000000  0.75955627  0.75000000  1
  Li  Li36  1  0.00000000  0.50000000  0.25000000  1
  Li  Li37  1  0.50000000  0.50000000  0.25000000  1
  Li  Li38  1  0.25000000  1.00000000  0.75000000  1
  Li  Li39  1  0.75000000  1.00000000  0.75000000  1
  Ga  Ga40  1  0.00000000  0.00000000  0.75000000  1
  Ga  Ga41  1  0.50000000  0.00000000  0.75000000  1
  Ga  Ga42  1  0.25000000  0.50000000  1.25000000  1
  Ga  Ga43  1  0.75000000  0.50000000  1.25000000  1
  Ga  Ga44  1  0.00000000  0.00000000  0.25000000  1
  Ga  Ga45  1  0.50000000  0.00000000  0.25000000  1
  Ga  Ga46  1  0.25000000  0.50000000  0.75000000  1
  Ga  Ga47  1  0.75000000  0.50000000  0.75000000  1
  O  O48  1  0.38327389  -0.11822426  0.17474788  1
  O  O49  1  0.88327389  -0.11822426  0.17474788  1
  O  O50  1  0.63327389  0.38177574  0.67474788  1
  O  O51  1  1.13327389  0.38177574  0.67474788  1
  O  O52  1  0.11672611  -0.11822426  0.32525212  1
  O  O53  1  0.61672611  -0.11822426  0.32525212  1
  O  O54  1  0.36672611  0.38177574  0.82525212  1
  O  O55  1  0.86672611  0.38177574  0.82525212  1
  O  O56  1  0.13327389  0.61822426  0.17474788  1
  O  O57  1  0.63327389  0.61822426  0.17474788  1
  O  O58  1  0.38327389  1.11822426  0.67474788  1
  O  O59  1  0.88327389  1.11822426  0.67474788  1
  O  O60  1  0.11672611  -0.11822426  0.67474788  1
  O  O61  1  0.61672611  -0.11822426  0.67474788  1
  O  O62  1  0.36672611  0.38177574  1.17474788  1
  O  O63  1  0.86672611  0.38177574  1.17474788  1
  O  O64  1  -0.13327389  0.61822426  0.32525212  1
  O  O65  1  0.36672611  0.61822426  0.32525212  1
  O  O66  1  0.11672611  1.11822426  0.82525212  1
  O  O67  1  0.61672611  1.11822426  0.82525212  1
  O  O68  1  0.13327389  0.38177574  0.32525212  1
  O  O69  1  0.63327389  0.38177574  0.32525212  1
  O  O70  1  0.38327389  0.88177574  0.82525212  1
  O  O71  1  0.88327389  0.88177574  0.82525212  1
  O  O72  1  0.13327389  0.61822426  -0.17474788  1
  O  O73  1  0.63327389  0.61822426  -0.17474788  1
  O  O74  1  0.38327389  1.11822426  0.32525212  1
  O  O75  1  0.88327389  1.11822426  0.32525212  1
  O  O76  1  0.11672611  0.11822426  0.17474788  1
  O  O77  1  0.61672611  0.11822426  0.17474788  1
  O  O78  1  0.36672611  0.61822426  0.67474788  1
  O  O79  1  0.86672611  0.61822426  0.67474788  1
