# generated using pymatgen
data_Rb6CdO4
_symmetry_space_group_name_H-M   'P 1'
_cell_length_a   18.09095321
_cell_length_b   18.09095321
_cell_length_c   20.61550614
_cell_angle_alpha   90.00000000
_cell_angle_beta   90.00000000
_cell_angle_gamma   120.00000000
_symmetry_Int_Tables_number   1
_chemical_formula_structural   Rb6CdO4
_chemical_formula_sum   'Rb144 Cd24 O96'
_cell_volume   5843.15671215
_cell_formula_units_Z   24
loop_
 _symmetry_equiv_pos_site_id
 _symmetry_equiv_pos_as_xyz
  1  'x, y, z'
loop_
 _atom_site_type_symbol
 _atom_site_label
 _atom_site_symmetry_multiplicity
 _atom_site_fract_x
 _atom_site_fract_y
 _atom_site_fract_z
 _atom_site_occupancy
  Rb  Rb0  1  0.23100439  0.46200878  0.20522164  1
  Rb  Rb1  1  0.23100439  0.46200878  0.53855498  1
  Rb  Rb2  1  0.23100439  0.46200878  0.87188831  1
  Rb  Rb3  1  0.23100439  0.96200878  0.20522164  1
  Rb  Rb4  1  0.23100439  0.96200878  0.53855498  1
  Rb  Rb5  1  0.23100439  0.96200878  0.87188831  1
  Rb  Rb6  1  0.73100439  0.46200878  0.20522164  1
  Rb  Rb7  1  0.73100439  0.46200878  0.53855498  1
  Rb  Rb8  1  0.73100439  0.46200878  0.87188831  1
  Rb  Rb9  1  0.73100439  0.96200878  0.20522164  1
  Rb  Rb10  1  0.73100439  0.96200878  0.53855498  1
  Rb  Rb11  1  0.73100439  0.96200878  0.87188831  1
  Rb  Rb12  1  0.03799122  0.26899561  0.20522164  1
  Rb  Rb13  1  0.03799122  0.26899561  0.53855498  1
  Rb  Rb14  1  0.03799122  0.26899561  0.87188831  1
  Rb  Rb15  1  0.03799122  0.76899561  0.20522164  1
  Rb  Rb16  1  0.03799122  0.76899561  0.53855498  1
  Rb  Rb17  1  0.03799122  0.76899561  0.87188831  1
  Rb  Rb18  1  0.53799122  0.26899561  0.20522164  1
  Rb  Rb19  1  0.53799122  0.26899561  0.53855498  1
  Rb  Rb20  1  0.53799122  0.26899561  0.87188831  1
  Rb  Rb21  1  0.53799122  0.76899561  0.20522164  1
  Rb  Rb22  1  0.53799122  0.76899561  0.53855498  1
  Rb  Rb23  1  0.53799122  0.76899561  0.87188831  1
  Rb  Rb24  1  0.26899561  0.03799122  0.03855498  1
  Rb  Rb25  1  0.26899561  0.03799122  0.37188831  1
  Rb  Rb26  1  0.26899561  0.03799122  0.70522164  1
  Rb  Rb27  1  0.26899561  0.53799122  0.03855498  1
  Rb  Rb28  1  0.26899561  0.53799122  0.37188831  1
  Rb  Rb29  1  0.26899561  0.53799122  0.70522164  1
  Rb  Rb30  1  0.76899561  0.03799122  0.03855498  1
  Rb  Rb31  1  0.76899561  0.03799122  0.37188831  1
  Rb  Rb32  1  0.76899561  0.03799122  0.70522164  1
  Rb  Rb33  1  0.76899561  0.53799122  0.03855498  1
  Rb  Rb34  1  0.76899561  0.53799122  0.37188831  1
  Rb  Rb35  1  0.76899561  0.53799122  0.70522164  1
  Rb  Rb36  1  0.23100439  0.26899561  0.20522164  1
  Rb  Rb37  1  0.23100439  0.26899561  0.53855498  1
  Rb  Rb38  1  0.23100439  0.26899561  0.87188831  1
  Rb  Rb39  1  0.23100439  0.76899561  0.20522164  1
  Rb  Rb40  1  0.23100439  0.76899561  0.53855498  1
  Rb  Rb41  1  0.23100439  0.76899561  0.87188831  1
  Rb  Rb42  1  0.73100439  0.26899561  0.20522164  1
  Rb  Rb43  1  0.73100439  0.26899561  0.53855498  1
  Rb  Rb44  1  0.73100439  0.26899561  0.87188831  1
  Rb  Rb45  1  0.73100439  0.76899561  0.20522164  1
  Rb  Rb46  1  0.73100439  0.76899561  0.53855498  1
  Rb  Rb47  1  0.73100439  0.76899561  0.87188831  1
  Rb  Rb48  1  0.46200878  0.23100439  0.03855498  1
  Rb  Rb49  1  0.46200878  0.23100439  0.37188831  1
  Rb  Rb50  1  0.46200878  0.23100439  0.70522164  1
  Rb  Rb51  1  0.46200878  0.73100439  0.03855498  1
  Rb  Rb52  1  0.46200878  0.73100439  0.37188831  1
  Rb  Rb53  1  0.46200878  0.73100439  0.70522164  1
  Rb  Rb54  1  0.96200878  0.23100439  0.03855498  1
  Rb  Rb55  1  0.96200878  0.23100439  0.37188831  1
  Rb  Rb56  1  0.96200878  0.23100439  0.70522164  1
  Rb  Rb57  1  0.96200878  0.73100439  0.03855498  1
  Rb  Rb58  1  0.96200878  0.73100439  0.37188831  1
  Rb  Rb59  1  0.96200878  0.73100439  0.70522164  1
  Rb  Rb60  1  0.26899561  0.23100439  0.03855498  1
  Rb  Rb61  1  0.26899561  0.23100439  0.37188831  1
  Rb  Rb62  1  0.26899561  0.23100439  0.70522164  1
  Rb  Rb63  1  0.26899561  0.73100439  0.03855498  1
  Rb  Rb64  1  0.26899561  0.73100439  0.37188831  1
  Rb  Rb65  1  0.26899561  0.73100439  0.70522164  1
  Rb  Rb66  1  0.76899561  0.23100439  0.03855498  1
  Rb  Rb67  1  0.76899561  0.23100439  0.37188831  1
  Rb  Rb68  1  0.76899561  0.23100439  0.70522164  1
  Rb  Rb69  1  0.76899561  0.73100439  0.03855498  1
  Rb  Rb70  1  0.76899561  0.73100439  0.37188831  1
  Rb  Rb71  1  0.76899561  0.73100439  0.70522164  1
  Rb  Rb72  1  0.42810765  0.35621530  0.26035870  1
  Rb  Rb73  1  0.42810765  0.35621530  0.59369204  1
  Rb  Rb74  1  0.42810765  0.35621530  0.92702537  1
  Rb  Rb75  1  0.42810765  0.85621530  0.26035870  1
  Rb  Rb76  1  0.42810765  0.85621530  0.59369204  1
  Rb  Rb77  1  0.42810765  0.85621530  0.92702537  1
  Rb  Rb78  1  0.92810765  0.35621530  0.26035870  1
  Rb  Rb79  1  0.92810765  0.35621530  0.59369204  1
  Rb  Rb80  1  0.92810765  0.35621530  0.92702537  1
  Rb  Rb81  1  0.92810765  0.85621530  0.26035870  1
  Rb  Rb82  1  0.92810765  0.85621530  0.59369204  1
  Rb  Rb83  1  0.92810765  0.85621530  0.92702537  1
  Rb  Rb84  1  0.14378470  0.07189235  0.26035870  1
  Rb  Rb85  1  0.14378470  0.07189235  0.59369204  1
  Rb  Rb86  1  0.14378470  0.07189235  0.92702537  1
  Rb  Rb87  1  0.14378470  0.57189235  0.26035870  1
  Rb  Rb88  1  0.14378470  0.57189235  0.59369204  1
  Rb  Rb89  1  0.14378470  0.57189235  0.92702537  1
  Rb  Rb90  1  0.64378470  0.07189235  0.26035870  1
  Rb  Rb91  1  0.64378470  0.07189235  0.59369204  1
  Rb  Rb92  1  0.64378470  0.07189235  0.92702537  1
  Rb  Rb93  1  0.64378470  0.57189235  0.26035870  1
  Rb  Rb94  1  0.64378470  0.57189235  0.59369204  1
  Rb  Rb95  1  0.64378470  0.57189235  0.92702537  1
  Rb  Rb96  1  0.07189235  0.14378470  0.09369204  1
  Rb  Rb97  1  0.07189235  0.14378470  0.42702537  1
  Rb  Rb98  1  0.07189235  0.14378470  0.76035870  1
  Rb  Rb99  1  0.07189235  0.64378470  0.09369204  1
  Rb  Rb100  1  0.07189235  0.64378470  0.42702537  1
  Rb  Rb101  1  0.07189235  0.64378470  0.76035870  1
  Rb  Rb102  1  0.57189235  0.14378470  0.09369204  1
  Rb  Rb103  1  0.57189235  0.14378470  0.42702537  1
  Rb  Rb104  1  0.57189235  0.14378470  0.76035870  1
  Rb  Rb105  1  0.57189235  0.64378470  0.09369204  1
  Rb  Rb106  1  0.57189235  0.64378470  0.42702537  1
  Rb  Rb107  1  0.57189235  0.64378470  0.76035870  1
  Rb  Rb108  1  0.42810765  0.07189235  0.26035870  1
  Rb  Rb109  1  0.42810765  0.07189235  0.59369204  1
  Rb  Rb110  1  0.42810765  0.07189235  0.92702537  1
  Rb  Rb111  1  0.42810765  0.57189235  0.26035870  1
  Rb  Rb112  1  0.42810765  0.57189235  0.59369204  1
  Rb  Rb113  1  0.42810765  0.57189235  0.92702537  1
  Rb  Rb114  1  0.92810765  0.07189235  0.26035870  1
  Rb  Rb115  1  0.92810765  0.07189235  0.59369204  1
  Rb  Rb116  1  0.92810765  0.07189235  0.92702537  1
  Rb  Rb117  1  0.92810765  0.57189235  0.26035870  1
  Rb  Rb118  1  0.92810765  0.57189235  0.59369204  1
  Rb  Rb119  1  0.92810765  0.57189235  0.92702537  1
  Rb  Rb120  1  0.35621530  0.42810765  0.09369204  1
  Rb  Rb121  1  0.35621530  0.42810765  0.42702537  1
  Rb  Rb122  1  0.35621530  0.42810765  0.76035870  1
  Rb  Rb123  1  0.35621530  0.92810765  0.09369204  1
  Rb  Rb124  1  0.35621530  0.92810765  0.42702537  1
  Rb  Rb125  1  0.35621530  0.92810765  0.76035870  1
  Rb  Rb126  1  0.85621530  0.42810765  0.09369204  1
  Rb  Rb127  1  0.85621530  0.42810765  0.42702537  1
  Rb  Rb128  1  0.85621530  0.42810765  0.76035870  1
  Rb  Rb129  1  0.85621530  0.92810765  0.09369204  1
  Rb  Rb130  1  0.85621530  0.92810765  0.42702537  1
  Rb  Rb131  1  0.85621530  0.92810765  0.76035870  1
  Rb  Rb132  1  0.07189235  0.42810765  0.09369204  1
  Rb  Rb133  1  0.07189235  0.42810765  0.42702537  1
  Rb  Rb134  1  0.07189235  0.42810765  0.76035870  1
  Rb  Rb135  1  0.07189235  0.92810765  0.09369204  1
  Rb  Rb136  1  0.07189235  0.92810765  0.42702537  1
  Rb  Rb137  1  0.07189235  0.92810765  0.76035870  1
  Rb  Rb138  1  0.57189235  0.42810765  0.09369204  1
  Rb  Rb139  1  0.57189235  0.42810765  0.42702537  1
  Rb  Rb140  1  0.57189235  0.42810765  0.76035870  1
  Rb  Rb141  1  0.57189235  0.92810765  0.09369204  1
  Rb  Rb142  1  0.57189235  0.92810765  0.42702537  1
  Rb  Rb143  1  0.57189235  0.92810765  0.76035870  1
  Cd  Cd144  1  0.33333333  0.16666667  0.16916290  1
  Cd  Cd145  1  0.33333333  0.16666667  0.50249624  1
  Cd  Cd146  1  0.33333333  0.16666667  0.83582957  1
  Cd  Cd147  1  0.33333333  0.66666667  0.16916290  1
  Cd  Cd148  1  0.33333333  0.66666667  0.50249624  1
  Cd  Cd149  1  0.33333333  0.66666667  0.83582957  1
  Cd  Cd150  1  0.83333333  0.16666667  0.16916290  1
  Cd  Cd151  1  0.83333333  0.16666667  0.50249624  1
  Cd  Cd152  1  0.83333333  0.16666667  0.83582957  1
  Cd  Cd153  1  0.83333333  0.66666667  0.16916290  1
  Cd  Cd154  1  0.83333333  0.66666667  0.50249624  1
  Cd  Cd155  1  0.83333333  0.66666667  0.83582957  1
  Cd  Cd156  1  0.16666667  0.33333333  0.00249624  1
  Cd  Cd157  1  0.16666667  0.33333333  0.33582957  1
  Cd  Cd158  1  0.16666667  0.33333333  0.66916290  1
  Cd  Cd159  1  0.16666667  0.83333333  0.00249624  1
  Cd  Cd160  1  0.16666667  0.83333333  0.33582957  1
  Cd  Cd161  1  0.16666667  0.83333333  0.66916290  1
  Cd  Cd162  1  0.66666667  0.33333333  0.00249624  1
  Cd  Cd163  1  0.66666667  0.33333333  0.33582957  1
  Cd  Cd164  1  0.66666667  0.33333333  0.66916290  1
  Cd  Cd165  1  0.66666667  0.83333333  0.00249624  1
  Cd  Cd166  1  0.66666667  0.83333333  0.33582957  1
  Cd  Cd167  1  0.66666667  0.83333333  0.66916290  1
  O  O168  1  0.33333333  0.16666667  0.27660696  1
  O  O169  1  0.33333333  0.16666667  0.60994030  1
  O  O170  1  0.33333333  0.16666667  0.94327363  1
  O  O171  1  0.33333333  0.66666667  0.27660696  1
  O  O172  1  0.33333333  0.66666667  0.60994030  1
  O  O173  1  0.33333333  0.66666667  0.94327363  1
  O  O174  1  0.83333333  0.16666667  0.27660696  1
  O  O175  1  0.83333333  0.16666667  0.60994030  1
  O  O176  1  0.83333333  0.16666667  0.94327363  1
  O  O177  1  0.83333333  0.66666667  0.27660696  1
  O  O178  1  0.83333333  0.66666667  0.60994030  1
  O  O179  1  0.83333333  0.66666667  0.94327363  1
  O  O180  1  0.16666667  0.33333333  0.10994030  1
  O  O181  1  0.16666667  0.33333333  0.44327363  1
  O  O182  1  0.16666667  0.33333333  0.77660696  1
  O  O183  1  0.16666667  0.83333333  0.10994030  1
  O  O184  1  0.16666667  0.83333333  0.44327363  1
  O  O185  1  0.16666667  0.83333333  0.77660696  1
  O  O186  1  0.66666667  0.33333333  0.10994030  1
  O  O187  1  0.66666667  0.33333333  0.44327363  1
  O  O188  1  0.66666667  0.33333333  0.77660696  1
  O  O189  1  0.66666667  0.83333333  0.10994030  1
  O  O190  1  0.66666667  0.83333333  0.44327363  1
  O  O191  1  0.66666667  0.83333333  0.77660696  1
  O  O192  1  0.09813291  0.19626582  0.29960781  1
  O  O193  1  0.09813291  0.19626582  0.63294114  1
  O  O194  1  0.09813291  0.19626582  0.96627448  1
  O  O195  1  0.09813291  0.69626582  0.29960781  1
  O  O196  1  0.09813291  0.69626582  0.63294114  1
  O  O197  1  0.09813291  0.69626582  0.96627448  1
  O  O198  1  0.59813291  0.19626582  0.29960781  1
  O  O199  1  0.59813291  0.19626582  0.63294114  1
  O  O200  1  0.59813291  0.19626582  0.96627448  1
  O  O201  1  0.59813291  0.69626582  0.29960781  1
  O  O202  1  0.59813291  0.69626582  0.63294114  1
  O  O203  1  0.59813291  0.69626582  0.96627448  1
  O  O204  1  0.30373418  0.40186709  0.29960781  1
  O  O205  1  0.30373418  0.40186709  0.63294114  1
  O  O206  1  0.30373418  0.40186709  0.96627448  1
  O  O207  1  0.30373418  0.90186709  0.29960781  1
  O  O208  1  0.30373418  0.90186709  0.63294114  1
  O  O209  1  0.30373418  0.90186709  0.96627448  1
  O  O210  1  0.80373418  0.40186709  0.29960781  1
  O  O211  1  0.80373418  0.40186709  0.63294114  1
  O  O212  1  0.80373418  0.40186709  0.96627448  1
  O  O213  1  0.80373418  0.90186709  0.29960781  1
  O  O214  1  0.80373418  0.90186709  0.63294114  1
  O  O215  1  0.80373418  0.90186709  0.96627448  1
  O  O216  1  0.40186709  0.30373418  0.13294114  1
  O  O217  1  0.40186709  0.30373418  0.46627448  1
  O  O218  1  0.40186709  0.30373418  0.79960781  1
  O  O219  1  0.40186709  0.80373418  0.13294114  1
  O  O220  1  0.40186709  0.80373418  0.46627448  1
  O  O221  1  0.40186709  0.80373418  0.79960781  1
  O  O222  1  0.90186709  0.30373418  0.13294114  1
  O  O223  1  0.90186709  0.30373418  0.46627448  1
  O  O224  1  0.90186709  0.30373418  0.79960781  1
  O  O225  1  0.90186709  0.80373418  0.13294114  1
  O  O226  1  0.90186709  0.80373418  0.46627448  1
  O  O227  1  0.90186709  0.80373418  0.79960781  1
  O  O228  1  0.09813291  0.40186709  0.29960781  1
  O  O229  1  0.09813291  0.40186709  0.63294114  1
  O  O230  1  0.09813291  0.40186709  0.96627448  1
  O  O231  1  0.09813291  0.90186709  0.29960781  1
  O  O232  1  0.09813291  0.90186709  0.63294114  1
  O  O233  1  0.09813291  0.90186709  0.96627448  1
  O  O234  1  0.59813291  0.40186709  0.29960781  1
  O  O235  1  0.59813291  0.40186709  0.63294114  1
  O  O236  1  0.59813291  0.40186709  0.96627448  1
  O  O237  1  0.59813291  0.90186709  0.29960781  1
  O  O238  1  0.59813291  0.90186709  0.63294114  1
  O  O239  1  0.59813291  0.90186709  0.96627448  1
  O  O240  1  0.19626582  0.09813291  0.13294114  1
  O  O241  1  0.19626582  0.09813291  0.46627448  1
  O  O242  1  0.19626582  0.09813291  0.79960781  1
  O  O243  1  0.19626582  0.59813291  0.13294114  1
  O  O244  1  0.19626582  0.59813291  0.46627448  1
  O  O245  1  0.19626582  0.59813291  0.79960781  1
  O  O246  1  0.69626582  0.09813291  0.13294114  1
  O  O247  1  0.69626582  0.09813291  0.46627448  1
  O  O248  1  0.69626582  0.09813291  0.79960781  1
  O  O249  1  0.69626582  0.59813291  0.13294114  1
  O  O250  1  0.69626582  0.59813291  0.46627448  1
  O  O251  1  0.69626582  0.59813291  0.79960781  1
  O  O252  1  0.40186709  0.09813291  0.13294114  1
  O  O253  1  0.40186709  0.09813291  0.46627448  1
  O  O254  1  0.40186709  0.09813291  0.79960781  1
  O  O255  1  0.40186709  0.59813291  0.13294114  1
  O  O256  1  0.40186709  0.59813291  0.46627448  1
  O  O257  1  0.40186709  0.59813291  0.79960781  1
  O  O258  1  0.90186709  0.09813291  0.13294114  1
  O  O259  1  0.90186709  0.09813291  0.46627448  1
  O  O260  1  0.90186709  0.09813291  0.79960781  1
  O  O261  1  0.90186709  0.59813291  0.13294114  1
  O  O262  1  0.90186709  0.59813291  0.46627448  1
  O  O263  1  0.90186709  0.59813291  0.79960781  1
