# generated using pymatgen
data_CsCdBO3
_symmetry_space_group_name_H-M   'P 1'
_cell_length_a   14.98386275
_cell_length_b   14.98386275
_cell_length_c   14.98386275
_cell_angle_alpha   90.00000000
_cell_angle_beta   90.00000000
_cell_angle_gamma   90.00000000
_symmetry_Int_Tables_number   1
_chemical_formula_structural   CsCdBO3
_chemical_formula_sum   'Cs32 Cd32 B32 O96'
_cell_volume   3364.11907159
_cell_formula_units_Z   32
loop_
 _symmetry_equiv_pos_site_id
 _symmetry_equiv_pos_as_xyz
  1  'x, y, z'
loop_
 _atom_site_type_symbol
 _atom_site_label
 _atom_site_symmetry_multiplicity
 _atom_site_fract_x
 _atom_site_fract_y
 _atom_site_fract_z
 _atom_site_occupancy
  Cs  Cs0  1  0.31863188  0.06863188  0.18136812  1
  Cs  Cs1  1  0.31863188  0.06863188  0.68136812  1
  Cs  Cs2  1  0.31863188  0.56863188  0.18136812  1
  Cs  Cs3  1  0.31863188  0.56863188  0.68136812  1
  Cs  Cs4  1  0.81863188  0.06863188  0.18136812  1
  Cs  Cs5  1  0.81863188  0.06863188  0.68136812  1
  Cs  Cs6  1  0.81863188  0.56863188  0.18136812  1
  Cs  Cs7  1  0.81863188  0.56863188  0.68136812  1
  Cs  Cs8  1  0.06863188  0.18136812  0.31863188  1
  Cs  Cs9  1  0.06863188  0.18136812  0.81863188  1
  Cs  Cs10  1  0.06863188  0.68136812  0.31863188  1
  Cs  Cs11  1  0.06863188  0.68136812  0.81863188  1
  Cs  Cs12  1  0.56863188  0.18136812  0.31863188  1
  Cs  Cs13  1  0.56863188  0.18136812  0.81863188  1
  Cs  Cs14  1  0.56863188  0.68136812  0.31863188  1
  Cs  Cs15  1  0.56863188  0.68136812  0.81863188  1
  Cs  Cs16  1  0.18136812  0.31863188  0.06863188  1
  Cs  Cs17  1  0.18136812  0.31863188  0.56863188  1
  Cs  Cs18  1  0.18136812  0.81863188  0.06863188  1
  Cs  Cs19  1  0.18136812  0.81863188  0.56863188  1
  Cs  Cs20  1  0.68136812  0.31863188  0.06863188  1
  Cs  Cs21  1  0.68136812  0.31863188  0.56863188  1
  Cs  Cs22  1  0.68136812  0.81863188  0.06863188  1
  Cs  Cs23  1  0.68136812  0.81863188  0.56863188  1
  Cs  Cs24  1  0.43136812  0.43136812  0.43136812  1
  Cs  Cs25  1  0.43136812  0.43136812  0.93136812  1
  Cs  Cs26  1  0.43136812  0.93136812  0.43136812  1
  Cs  Cs27  1  0.43136812  0.93136812  0.93136812  1
  Cs  Cs28  1  0.93136812  0.43136812  0.43136812  1
  Cs  Cs29  1  0.93136812  0.43136812  0.93136812  1
  Cs  Cs30  1  0.93136812  0.93136812  0.43136812  1
  Cs  Cs31  1  0.93136812  0.93136812  0.93136812  1
  Cd  Cd32  1  0.32332024  0.17667976  0.42667976  1
  Cd  Cd33  1  0.32332024  0.17667976  0.92667976  1
  Cd  Cd34  1  0.32332024  0.67667976  0.42667976  1
  Cd  Cd35  1  0.32332024  0.67667976  0.92667976  1
  Cd  Cd36  1  0.82332024  0.17667976  0.42667976  1
  Cd  Cd37  1  0.82332024  0.17667976  0.92667976  1
  Cd  Cd38  1  0.82332024  0.67667976  0.42667976  1
  Cd  Cd39  1  0.82332024  0.67667976  0.92667976  1
  Cd  Cd40  1  0.07332024  0.07332024  0.07332024  1
  Cd  Cd41  1  0.07332024  0.07332024  0.57332024  1
  Cd  Cd42  1  0.07332024  0.57332024  0.07332024  1
  Cd  Cd43  1  0.07332024  0.57332024  0.57332024  1
  Cd  Cd44  1  0.57332024  0.07332024  0.07332024  1
  Cd  Cd45  1  0.57332024  0.07332024  0.57332024  1
  Cd  Cd46  1  0.57332024  0.57332024  0.07332024  1
  Cd  Cd47  1  0.57332024  0.57332024  0.57332024  1
  Cd  Cd48  1  0.42667976  0.32332024  0.17667976  1
  Cd  Cd49  1  0.42667976  0.32332024  0.67667976  1
  Cd  Cd50  1  0.42667976  0.82332024  0.17667976  1
  Cd  Cd51  1  0.42667976  0.82332024  0.67667976  1
  Cd  Cd52  1  0.92667976  0.32332024  0.17667976  1
  Cd  Cd53  1  0.92667976  0.32332024  0.67667976  1
  Cd  Cd54  1  0.92667976  0.82332024  0.17667976  1
  Cd  Cd55  1  0.92667976  0.82332024  0.67667976  1
  Cd  Cd56  1  0.17667976  0.42667976  0.32332024  1
  Cd  Cd57  1  0.17667976  0.42667976  0.82332024  1
  Cd  Cd58  1  0.17667976  0.92667976  0.32332024  1
  Cd  Cd59  1  0.17667976  0.92667976  0.82332024  1
  Cd  Cd60  1  0.67667976  0.42667976  0.32332024  1
  Cd  Cd61  1  0.67667976  0.42667976  0.82332024  1
  Cd  Cd62  1  0.67667976  0.92667976  0.32332024  1
  Cd  Cd63  1  0.67667976  0.92667976  0.82332024  1
  B  B64  1  0.29764501  0.29764501  0.29764501  1
  B  B65  1  0.29764501  0.29764501  0.79764501  1
  B  B66  1  0.29764501  0.79764501  0.29764501  1
  B  B67  1  0.29764501  0.79764501  0.79764501  1
  B  B68  1  0.79764501  0.29764501  0.29764501  1
  B  B69  1  0.79764501  0.29764501  0.79764501  1
  B  B70  1  0.79764501  0.79764501  0.29764501  1
  B  B71  1  0.79764501  0.79764501  0.79764501  1
  B  B72  1  0.20235499  0.04764501  0.45235499  1
  B  B73  1  0.20235499  0.04764501  0.95235499  1
  B  B74  1  0.20235499  0.54764501  0.45235499  1
  B  B75  1  0.20235499  0.54764501  0.95235499  1
  B  B76  1  0.70235499  0.04764501  0.45235499  1
  B  B77  1  0.70235499  0.04764501  0.95235499  1
  B  B78  1  0.70235499  0.54764501  0.45235499  1
  B  B79  1  0.70235499  0.54764501  0.95235499  1
  B  B80  1  0.04764501  0.45235499  0.20235499  1
  B  B81  1  0.04764501  0.45235499  0.70235499  1
  B  B82  1  0.04764501  0.95235499  0.20235499  1
  B  B83  1  0.04764501  0.95235499  0.70235499  1
  B  B84  1  0.54764501  0.45235499  0.20235499  1
  B  B85  1  0.54764501  0.45235499  0.70235499  1
  B  B86  1  0.54764501  0.95235499  0.20235499  1
  B  B87  1  0.54764501  0.95235499  0.70235499  1
  B  B88  1  0.45235499  0.20235499  0.04764501  1
  B  B89  1  0.45235499  0.20235499  0.54764501  1
  B  B90  1  0.45235499  0.70235499  0.04764501  1
  B  B91  1  0.45235499  0.70235499  0.54764501  1
  B  B92  1  0.95235499  0.20235499  0.04764501  1
  B  B93  1  0.95235499  0.20235499  0.54764501  1
  B  B94  1  0.95235499  0.70235499  0.04764501  1
  B  B95  1  0.95235499  0.70235499  0.54764501  1
  O  O96  1  0.26403995  0.04205008  0.38331279  1
  O  O97  1  0.26403995  0.04205008  0.88331279  1
  O  O98  1  0.26403995  0.54205008  0.38331279  1
  O  O99  1  0.26403995  0.54205008  0.88331279  1
  O  O100  1  0.76403995  0.04205008  0.38331279  1
  O  O101  1  0.76403995  0.04205008  0.88331279  1
  O  O102  1  0.76403995  0.54205008  0.38331279  1
  O  O103  1  0.76403995  0.54205008  0.88331279  1
  O  O104  1  0.11668721  0.01403995  0.20794992  1
  O  O105  1  0.11668721  0.01403995  0.70794992  1
  O  O106  1  0.11668721  0.51403995  0.20794992  1
  O  O107  1  0.11668721  0.51403995  0.70794992  1
  O  O108  1  0.61668721  0.01403995  0.20794992  1
  O  O109  1  0.61668721  0.01403995  0.70794992  1
  O  O110  1  0.61668721  0.51403995  0.20794992  1
  O  O111  1  0.61668721  0.51403995  0.70794992  1
  O  O112  1  0.29205008  0.36668721  0.23596005  1
  O  O113  1  0.29205008  0.36668721  0.73596005  1
  O  O114  1  0.29205008  0.86668721  0.23596005  1
  O  O115  1  0.29205008  0.86668721  0.73596005  1
  O  O116  1  0.79205008  0.36668721  0.23596005  1
  O  O117  1  0.79205008  0.36668721  0.73596005  1
  O  O118  1  0.79205008  0.86668721  0.23596005  1
  O  O119  1  0.79205008  0.86668721  0.73596005  1
  O  O120  1  0.01403995  0.20794992  0.11668721  1
  O  O121  1  0.01403995  0.20794992  0.61668721  1
  O  O122  1  0.01403995  0.70794992  0.11668721  1
  O  O123  1  0.01403995  0.70794992  0.61668721  1
  O  O124  1  0.51403995  0.20794992  0.11668721  1
  O  O125  1  0.51403995  0.20794992  0.61668721  1
  O  O126  1  0.51403995  0.70794992  0.11668721  1
  O  O127  1  0.51403995  0.70794992  0.61668721  1
  O  O128  1  0.36668721  0.23596005  0.29205008  1
  O  O129  1  0.36668721  0.23596005  0.79205008  1
  O  O130  1  0.36668721  0.73596005  0.29205008  1
  O  O131  1  0.36668721  0.73596005  0.79205008  1
  O  O132  1  0.86668721  0.23596005  0.29205008  1
  O  O133  1  0.86668721  0.23596005  0.79205008  1
  O  O134  1  0.86668721  0.73596005  0.29205008  1
  O  O135  1  0.86668721  0.73596005  0.79205008  1
  O  O136  1  0.04205008  0.38331279  0.26403995  1
  O  O137  1  0.04205008  0.38331279  0.76403995  1
  O  O138  1  0.04205008  0.88331279  0.26403995  1
  O  O139  1  0.04205008  0.88331279  0.76403995  1
  O  O140  1  0.54205008  0.38331279  0.26403995  1
  O  O141  1  0.54205008  0.38331279  0.76403995  1
  O  O142  1  0.54205008  0.88331279  0.26403995  1
  O  O143  1  0.54205008  0.88331279  0.76403995  1
  O  O144  1  0.23596005  0.29205008  0.36668721  1
  O  O145  1  0.23596005  0.29205008  0.86668721  1
  O  O146  1  0.23596005  0.79205008  0.36668721  1
  O  O147  1  0.23596005  0.79205008  0.86668721  1
  O  O148  1  0.73596005  0.29205008  0.36668721  1
  O  O149  1  0.73596005  0.29205008  0.86668721  1
  O  O150  1  0.73596005  0.79205008  0.36668721  1
  O  O151  1  0.73596005  0.79205008  0.86668721  1
  O  O152  1  0.38331279  0.26403995  0.04205008  1
  O  O153  1  0.38331279  0.26403995  0.54205008  1
  O  O154  1  0.38331279  0.76403995  0.04205008  1
  O  O155  1  0.38331279  0.76403995  0.54205008  1
  O  O156  1  0.88331279  0.26403995  0.04205008  1
  O  O157  1  0.88331279  0.26403995  0.54205008  1
  O  O158  1  0.88331279  0.76403995  0.04205008  1
  O  O159  1  0.88331279  0.76403995  0.54205008  1
  O  O160  1  0.20794992  0.11668721  0.01403995  1
  O  O161  1  0.20794992  0.11668721  0.51403995  1
  O  O162  1  0.20794992  0.61668721  0.01403995  1
  O  O163  1  0.20794992  0.61668721  0.51403995  1
  O  O164  1  0.70794992  0.11668721  0.01403995  1
  O  O165  1  0.70794992  0.11668721  0.51403995  1
  O  O166  1  0.70794992  0.61668721  0.01403995  1
  O  O167  1  0.70794992  0.61668721  0.51403995  1
  O  O168  1  0.48596005  0.45794992  0.13331279  1
  O  O169  1  0.48596005  0.45794992  0.63331279  1
  O  O170  1  0.48596005  0.95794992  0.13331279  1
  O  O171  1  0.48596005  0.95794992  0.63331279  1
  O  O172  1  0.98596005  0.45794992  0.13331279  1
  O  O173  1  0.98596005  0.45794992  0.63331279  1
  O  O174  1  0.98596005  0.95794992  0.13331279  1
  O  O175  1  0.98596005  0.95794992  0.63331279  1
  O  O176  1  0.13331279  0.48596005  0.45794992  1
  O  O177  1  0.13331279  0.48596005  0.95794992  1
  O  O178  1  0.13331279  0.98596005  0.45794992  1
  O  O179  1  0.13331279  0.98596005  0.95794992  1
  O  O180  1  0.63331279  0.48596005  0.45794992  1
  O  O181  1  0.63331279  0.48596005  0.95794992  1
  O  O182  1  0.63331279  0.98596005  0.45794992  1
  O  O183  1  0.63331279  0.98596005  0.95794992  1
  O  O184  1  0.45794992  0.13331279  0.48596005  1
  O  O185  1  0.45794992  0.13331279  0.98596005  1
  O  O186  1  0.45794992  0.63331279  0.48596005  1
  O  O187  1  0.45794992  0.63331279  0.98596005  1
  O  O188  1  0.95794992  0.13331279  0.48596005  1
  O  O189  1  0.95794992  0.13331279  0.98596005  1
  O  O190  1  0.95794992  0.63331279  0.48596005  1
  O  O191  1  0.95794992  0.63331279  0.98596005  1
