# generated using pymatgen
data_BeO
_symmetry_space_group_name_H-M   'P 1'
_cell_length_a   13.47970937
_cell_length_b   13.47970937
_cell_length_c   13.13345352
_cell_angle_alpha   90.00000000
_cell_angle_beta   90.00000000
_cell_angle_gamma   120.00000000
_symmetry_Int_Tables_number   1
_chemical_formula_structural   BeO
_chemical_formula_sum   'Be150 O150'
_cell_volume   2066.66759817
_cell_formula_units_Z   150
loop_
 _symmetry_equiv_pos_site_id
 _symmetry_equiv_pos_as_xyz
  1  'x, y, z'
loop_
 _atom_site_type_symbol
 _atom_site_label
 _atom_site_symmetry_multiplicity
 _atom_site_fract_x
 _atom_site_fract_y
 _atom_site_fract_z
 _atom_site_occupancy
  Be  Be0  1  0.13333333  0.06666667  0.00000673  1
  Be  Be1  1  0.13333333  0.06666667  0.33334007  1
  Be  Be2  1  0.13333333  0.06666667  0.66667340  1
  Be  Be3  1  0.13333333  0.26666667  0.00000673  1
  Be  Be4  1  0.13333333  0.26666667  0.33334007  1
  Be  Be5  1  0.13333333  0.26666667  0.66667340  1
  Be  Be6  1  0.13333333  0.46666667  0.00000673  1
  Be  Be7  1  0.13333333  0.46666667  0.33334007  1
  Be  Be8  1  0.13333333  0.46666667  0.66667340  1
  Be  Be9  1  0.13333333  0.66666667  0.00000673  1
  Be  Be10  1  0.13333333  0.66666667  0.33334007  1
  Be  Be11  1  0.13333333  0.66666667  0.66667340  1
  Be  Be12  1  0.13333333  0.86666667  0.00000673  1
  Be  Be13  1  0.13333333  0.86666667  0.33334007  1
  Be  Be14  1  0.13333333  0.86666667  0.66667340  1
  Be  Be15  1  0.33333333  0.06666667  0.00000673  1
  Be  Be16  1  0.33333333  0.06666667  0.33334007  1
  Be  Be17  1  0.33333333  0.06666667  0.66667340  1
  Be  Be18  1  0.33333333  0.26666667  0.00000673  1
  Be  Be19  1  0.33333333  0.26666667  0.33334007  1
  Be  Be20  1  0.33333333  0.26666667  0.66667340  1
  Be  Be21  1  0.33333333  0.46666667  0.00000673  1
  Be  Be22  1  0.33333333  0.46666667  0.33334007  1
  Be  Be23  1  0.33333333  0.46666667  0.66667340  1
  Be  Be24  1  0.33333333  0.66666667  0.00000673  1
  Be  Be25  1  0.33333333  0.66666667  0.33334007  1
  Be  Be26  1  0.33333333  0.66666667  0.66667340  1
  Be  Be27  1  0.33333333  0.86666667  0.00000673  1
  Be  Be28  1  0.33333333  0.86666667  0.33334007  1
  Be  Be29  1  0.33333333  0.86666667  0.66667340  1
  Be  Be30  1  0.53333333  0.06666667  0.00000673  1
  Be  Be31  1  0.53333333  0.06666667  0.33334007  1
  Be  Be32  1  0.53333333  0.06666667  0.66667340  1
  Be  Be33  1  0.53333333  0.26666667  0.00000673  1
  Be  Be34  1  0.53333333  0.26666667  0.33334007  1
  Be  Be35  1  0.53333333  0.26666667  0.66667340  1
  Be  Be36  1  0.53333333  0.46666667  0.00000673  1
  Be  Be37  1  0.53333333  0.46666667  0.33334007  1
  Be  Be38  1  0.53333333  0.46666667  0.66667340  1
  Be  Be39  1  0.53333333  0.66666667  0.00000673  1
  Be  Be40  1  0.53333333  0.66666667  0.33334007  1
  Be  Be41  1  0.53333333  0.66666667  0.66667340  1
  Be  Be42  1  0.53333333  0.86666667  0.00000673  1
  Be  Be43  1  0.53333333  0.86666667  0.33334007  1
  Be  Be44  1  0.53333333  0.86666667  0.66667340  1
  Be  Be45  1  0.73333333  0.06666667  0.00000673  1
  Be  Be46  1  0.73333333  0.06666667  0.33334007  1
  Be  Be47  1  0.73333333  0.06666667  0.66667340  1
  Be  Be48  1  0.73333333  0.26666667  0.00000673  1
  Be  Be49  1  0.73333333  0.26666667  0.33334007  1
  Be  Be50  1  0.73333333  0.26666667  0.66667340  1
  Be  Be51  1  0.73333333  0.46666667  0.00000673  1
  Be  Be52  1  0.73333333  0.46666667  0.33334007  1
  Be  Be53  1  0.73333333  0.46666667  0.66667340  1
  Be  Be54  1  0.73333333  0.66666667  0.00000673  1
  Be  Be55  1  0.73333333  0.66666667  0.33334007  1
  Be  Be56  1  0.73333333  0.66666667  0.66667340  1
  Be  Be57  1  0.73333333  0.86666667  0.00000673  1
  Be  Be58  1  0.73333333  0.86666667  0.33334007  1
  Be  Be59  1  0.73333333  0.86666667  0.66667340  1
  Be  Be60  1  0.93333333  0.06666667  0.00000673  1
  Be  Be61  1  0.93333333  0.06666667  0.33334007  1
  Be  Be62  1  0.93333333  0.06666667  0.66667340  1
  Be  Be63  1  0.93333333  0.26666667  0.00000673  1
  Be  Be64  1  0.93333333  0.26666667  0.33334007  1
  Be  Be65  1  0.93333333  0.26666667  0.66667340  1
  Be  Be66  1  0.93333333  0.46666667  0.00000673  1
  Be  Be67  1  0.93333333  0.46666667  0.33334007  1
  Be  Be68  1  0.93333333  0.46666667  0.66667340  1
  Be  Be69  1  0.93333333  0.66666667  0.00000673  1
  Be  Be70  1  0.93333333  0.66666667  0.33334007  1
  Be  Be71  1  0.93333333  0.66666667  0.66667340  1
  Be  Be72  1  0.93333333  0.86666667  0.00000673  1
  Be  Be73  1  0.93333333  0.86666667  0.33334007  1
  Be  Be74  1  0.93333333  0.86666667  0.66667340  1
  Be  Be75  1  0.06666667  0.13333333  0.16667340  1
  Be  Be76  1  0.06666667  0.13333333  0.50000673  1
  Be  Be77  1  0.06666667  0.13333333  0.83334007  1
  Be  Be78  1  0.06666667  0.33333333  0.16667340  1
  Be  Be79  1  0.06666667  0.33333333  0.50000673  1
  Be  Be80  1  0.06666667  0.33333333  0.83334007  1
  Be  Be81  1  0.06666667  0.53333333  0.16667340  1
  Be  Be82  1  0.06666667  0.53333333  0.50000673  1
  Be  Be83  1  0.06666667  0.53333333  0.83334007  1
  Be  Be84  1  0.06666667  0.73333333  0.16667340  1
  Be  Be85  1  0.06666667  0.73333333  0.50000673  1
  Be  Be86  1  0.06666667  0.73333333  0.83334007  1
  Be  Be87  1  0.06666667  0.93333333  0.16667340  1
  Be  Be88  1  0.06666667  0.93333333  0.50000673  1
  Be  Be89  1  0.06666667  0.93333333  0.83334007  1
  Be  Be90  1  0.26666667  0.13333333  0.16667340  1
  Be  Be91  1  0.26666667  0.13333333  0.50000673  1
  Be  Be92  1  0.26666667  0.13333333  0.83334007  1
  Be  Be93  1  0.26666667  0.33333333  0.16667340  1
  Be  Be94  1  0.26666667  0.33333333  0.50000673  1
  Be  Be95  1  0.26666667  0.33333333  0.83334007  1
  Be  Be96  1  0.26666667  0.53333333  0.16667340  1
  Be  Be97  1  0.26666667  0.53333333  0.50000673  1
  Be  Be98  1  0.26666667  0.53333333  0.83334007  1
  Be  Be99  1  0.26666667  0.73333333  0.16667340  1
  Be  Be100  1  0.26666667  0.73333333  0.50000673  1
  Be  Be101  1  0.26666667  0.73333333  0.83334007  1
  Be  Be102  1  0.26666667  0.93333333  0.16667340  1
  Be  Be103  1  0.26666667  0.93333333  0.50000673  1
  Be  Be104  1  0.26666667  0.93333333  0.83334007  1
  Be  Be105  1  0.46666667  0.13333333  0.16667340  1
  Be  Be106  1  0.46666667  0.13333333  0.50000673  1
  Be  Be107  1  0.46666667  0.13333333  0.83334007  1
  Be  Be108  1  0.46666667  0.33333333  0.16667340  1
  Be  Be109  1  0.46666667  0.33333333  0.50000673  1
  Be  Be110  1  0.46666667  0.33333333  0.83334007  1
  Be  Be111  1  0.46666667  0.53333333  0.16667340  1
  Be  Be112  1  0.46666667  0.53333333  0.50000673  1
  Be  Be113  1  0.46666667  0.53333333  0.83334007  1
  Be  Be114  1  0.46666667  0.73333333  0.16667340  1
  Be  Be115  1  0.46666667  0.73333333  0.50000673  1
  Be  Be116  1  0.46666667  0.73333333  0.83334007  1
  Be  Be117  1  0.46666667  0.93333333  0.16667340  1
  Be  Be118  1  0.46666667  0.93333333  0.50000673  1
  Be  Be119  1  0.46666667  0.93333333  0.83334007  1
  Be  Be120  1  0.66666667  0.13333333  0.16667340  1
  Be  Be121  1  0.66666667  0.13333333  0.50000673  1
  Be  Be122  1  0.66666667  0.13333333  0.83334007  1
  Be  Be123  1  0.66666667  0.33333333  0.16667340  1
  Be  Be124  1  0.66666667  0.33333333  0.50000673  1
  Be  Be125  1  0.66666667  0.33333333  0.83334007  1
  Be  Be126  1  0.66666667  0.53333333  0.16667340  1
  Be  Be127  1  0.66666667  0.53333333  0.50000673  1
  Be  Be128  1  0.66666667  0.53333333  0.83334007  1
  Be  Be129  1  0.66666667  0.73333333  0.16667340  1
  Be  Be130  1  0.66666667  0.73333333  0.50000673  1
  Be  Be131  1  0.66666667  0.73333333  0.83334007  1
  Be  Be132  1  0.66666667  0.93333333  0.16667340  1
  Be  Be133  1  0.66666667  0.93333333  0.50000673  1
  Be  Be134  1  0.66666667  0.93333333  0.83334007  1
  Be  Be135  1  0.86666667  0.13333333  0.16667340  1
  Be  Be136  1  0.86666667  0.13333333  0.50000673  1
  Be  Be137  1  0.86666667  0.13333333  0.83334007  1
  Be  Be138  1  0.86666667  0.33333333  0.16667340  1
  Be  Be139  1  0.86666667  0.33333333  0.50000673  1
  Be  Be140  1  0.86666667  0.33333333  0.83334007  1
  Be  Be141  1  0.86666667  0.53333333  0.16667340  1
  Be  Be142  1  0.86666667  0.53333333  0.50000673  1
  Be  Be143  1  0.86666667  0.53333333  0.83334007  1
  Be  Be144  1  0.86666667  0.73333333  0.16667340  1
  Be  Be145  1  0.86666667  0.73333333  0.50000673  1
  Be  Be146  1  0.86666667  0.73333333  0.83334007  1
  Be  Be147  1  0.86666667  0.93333333  0.16667340  1
  Be  Be148  1  0.86666667  0.93333333  0.50000673  1
  Be  Be149  1  0.86666667  0.93333333  0.83334007  1
  O  O150  1  0.13333333  0.06666667  0.20742660  1
  O  O151  1  0.13333333  0.06666667  0.54075993  1
  O  O152  1  0.13333333  0.06666667  0.87409327  1
  O  O153  1  0.13333333  0.26666667  0.20742660  1
  O  O154  1  0.13333333  0.26666667  0.54075993  1
  O  O155  1  0.13333333  0.26666667  0.87409327  1
  O  O156  1  0.13333333  0.46666667  0.20742660  1
  O  O157  1  0.13333333  0.46666667  0.54075993  1
  O  O158  1  0.13333333  0.46666667  0.87409327  1
  O  O159  1  0.13333333  0.66666667  0.20742660  1
  O  O160  1  0.13333333  0.66666667  0.54075993  1
  O  O161  1  0.13333333  0.66666667  0.87409327  1
  O  O162  1  0.13333333  0.86666667  0.20742660  1
  O  O163  1  0.13333333  0.86666667  0.54075993  1
  O  O164  1  0.13333333  0.86666667  0.87409327  1
  O  O165  1  0.33333333  0.06666667  0.20742660  1
  O  O166  1  0.33333333  0.06666667  0.54075993  1
  O  O167  1  0.33333333  0.06666667  0.87409327  1
  O  O168  1  0.33333333  0.26666667  0.20742660  1
  O  O169  1  0.33333333  0.26666667  0.54075993  1
  O  O170  1  0.33333333  0.26666667  0.87409327  1
  O  O171  1  0.33333333  0.46666667  0.20742660  1
  O  O172  1  0.33333333  0.46666667  0.54075993  1
  O  O173  1  0.33333333  0.46666667  0.87409327  1
  O  O174  1  0.33333333  0.66666667  0.20742660  1
  O  O175  1  0.33333333  0.66666667  0.54075993  1
  O  O176  1  0.33333333  0.66666667  0.87409327  1
  O  O177  1  0.33333333  0.86666667  0.20742660  1
  O  O178  1  0.33333333  0.86666667  0.54075993  1
  O  O179  1  0.33333333  0.86666667  0.87409327  1
  O  O180  1  0.53333333  0.06666667  0.20742660  1
  O  O181  1  0.53333333  0.06666667  0.54075993  1
  O  O182  1  0.53333333  0.06666667  0.87409327  1
  O  O183  1  0.53333333  0.26666667  0.20742660  1
  O  O184  1  0.53333333  0.26666667  0.54075993  1
  O  O185  1  0.53333333  0.26666667  0.87409327  1
  O  O186  1  0.53333333  0.46666667  0.20742660  1
  O  O187  1  0.53333333  0.46666667  0.54075993  1
  O  O188  1  0.53333333  0.46666667  0.87409327  1
  O  O189  1  0.53333333  0.66666667  0.20742660  1
  O  O190  1  0.53333333  0.66666667  0.54075993  1
  O  O191  1  0.53333333  0.66666667  0.87409327  1
  O  O192  1  0.53333333  0.86666667  0.20742660  1
  O  O193  1  0.53333333  0.86666667  0.54075993  1
  O  O194  1  0.53333333  0.86666667  0.87409327  1
  O  O195  1  0.73333333  0.06666667  0.20742660  1
  O  O196  1  0.73333333  0.06666667  0.54075993  1
  O  O197  1  0.73333333  0.06666667  0.87409327  1
  O  O198  1  0.73333333  0.26666667  0.20742660  1
  O  O199  1  0.73333333  0.26666667  0.54075993  1
  O  O200  1  0.73333333  0.26666667  0.87409327  1
  O  O201  1  0.73333333  0.46666667  0.20742660  1
  O  O202  1  0.73333333  0.46666667  0.54075993  1
  O  O203  1  0.73333333  0.46666667  0.87409327  1
  O  O204  1  0.73333333  0.66666667  0.20742660  1
  O  O205  1  0.73333333  0.66666667  0.54075993  1
  O  O206  1  0.73333333  0.66666667  0.87409327  1
  O  O207  1  0.73333333  0.86666667  0.20742660  1
  O  O208  1  0.73333333  0.86666667  0.54075993  1
  O  O209  1  0.73333333  0.86666667  0.87409327  1
  O  O210  1  0.93333333  0.06666667  0.20742660  1
  O  O211  1  0.93333333  0.06666667  0.54075993  1
  O  O212  1  0.93333333  0.06666667  0.87409327  1
  O  O213  1  0.93333333  0.26666667  0.20742660  1
  O  O214  1  0.93333333  0.26666667  0.54075993  1
  O  O215  1  0.93333333  0.26666667  0.87409327  1
  O  O216  1  0.93333333  0.46666667  0.20742660  1
  O  O217  1  0.93333333  0.46666667  0.54075993  1
  O  O218  1  0.93333333  0.46666667  0.87409327  1
  O  O219  1  0.93333333  0.66666667  0.20742660  1
  O  O220  1  0.93333333  0.66666667  0.54075993  1
  O  O221  1  0.93333333  0.66666667  0.87409327  1
  O  O222  1  0.93333333  0.86666667  0.20742660  1
  O  O223  1  0.93333333  0.86666667  0.54075993  1
  O  O224  1  0.93333333  0.86666667  0.87409327  1
  O  O225  1  0.06666667  0.13333333  0.04075993  1
  O  O226  1  0.06666667  0.13333333  0.37409327  1
  O  O227  1  0.06666667  0.13333333  0.70742660  1
  O  O228  1  0.06666667  0.33333333  0.04075993  1
  O  O229  1  0.06666667  0.33333333  0.37409327  1
  O  O230  1  0.06666667  0.33333333  0.70742660  1
  O  O231  1  0.06666667  0.53333333  0.04075993  1
  O  O232  1  0.06666667  0.53333333  0.37409327  1
  O  O233  1  0.06666667  0.53333333  0.70742660  1
  O  O234  1  0.06666667  0.73333333  0.04075993  1
  O  O235  1  0.06666667  0.73333333  0.37409327  1
  O  O236  1  0.06666667  0.73333333  0.70742660  1
  O  O237  1  0.06666667  0.93333333  0.04075993  1
  O  O238  1  0.06666667  0.93333333  0.37409327  1
  O  O239  1  0.06666667  0.93333333  0.70742660  1
  O  O240  1  0.26666667  0.13333333  0.04075993  1
  O  O241  1  0.26666667  0.13333333  0.37409327  1
  O  O242  1  0.26666667  0.13333333  0.70742660  1
  O  O243  1  0.26666667  0.33333333  0.04075993  1
  O  O244  1  0.26666667  0.33333333  0.37409327  1
  O  O245  1  0.26666667  0.33333333  0.70742660  1
  O  O246  1  0.26666667  0.53333333  0.04075993  1
  O  O247  1  0.26666667  0.53333333  0.37409327  1
  O  O248  1  0.26666667  0.53333333  0.70742660  1
  O  O249  1  0.26666667  0.73333333  0.04075993  1
  O  O250  1  0.26666667  0.73333333  0.37409327  1
  O  O251  1  0.26666667  0.73333333  0.70742660  1
  O  O252  1  0.26666667  0.93333333  0.04075993  1
  O  O253  1  0.26666667  0.93333333  0.37409327  1
  O  O254  1  0.26666667  0.93333333  0.70742660  1
  O  O255  1  0.46666667  0.13333333  0.04075993  1
  O  O256  1  0.46666667  0.13333333  0.37409327  1
  O  O257  1  0.46666667  0.13333333  0.70742660  1
  O  O258  1  0.46666667  0.33333333  0.04075993  1
  O  O259  1  0.46666667  0.33333333  0.37409327  1
  O  O260  1  0.46666667  0.33333333  0.70742660  1
  O  O261  1  0.46666667  0.53333333  0.04075993  1
  O  O262  1  0.46666667  0.53333333  0.37409327  1
  O  O263  1  0.46666667  0.53333333  0.70742660  1
  O  O264  1  0.46666667  0.73333333  0.04075993  1
  O  O265  1  0.46666667  0.73333333  0.37409327  1
  O  O266  1  0.46666667  0.73333333  0.70742660  1
  O  O267  1  0.46666667  0.93333333  0.04075993  1
  O  O268  1  0.46666667  0.93333333  0.37409327  1
  O  O269  1  0.46666667  0.93333333  0.70742660  1
  O  O270  1  0.66666667  0.13333333  0.04075993  1
  O  O271  1  0.66666667  0.13333333  0.37409327  1
  O  O272  1  0.66666667  0.13333333  0.70742660  1
  O  O273  1  0.66666667  0.33333333  0.04075993  1
  O  O274  1  0.66666667  0.33333333  0.37409327  1
  O  O275  1  0.66666667  0.33333333  0.70742660  1
  O  O276  1  0.66666667  0.53333333  0.04075993  1
  O  O277  1  0.66666667  0.53333333  0.37409327  1
  O  O278  1  0.66666667  0.53333333  0.70742660  1
  O  O279  1  0.66666667  0.73333333  0.04075993  1
  O  O280  1  0.66666667  0.73333333  0.37409327  1
  O  O281  1  0.66666667  0.73333333  0.70742660  1
  O  O282  1  0.66666667  0.93333333  0.04075993  1
  O  O283  1  0.66666667  0.93333333  0.37409327  1
  O  O284  1  0.66666667  0.93333333  0.70742660  1
  O  O285  1  0.86666667  0.13333333  0.04075993  1
  O  O286  1  0.86666667  0.13333333  0.37409327  1
  O  O287  1  0.86666667  0.13333333  0.70742660  1
  O  O288  1  0.86666667  0.33333333  0.04075993  1
  O  O289  1  0.86666667  0.33333333  0.37409327  1
  O  O290  1  0.86666667  0.33333333  0.70742660  1
  O  O291  1  0.86666667  0.53333333  0.04075993  1
  O  O292  1  0.86666667  0.53333333  0.37409327  1
  O  O293  1  0.86666667  0.53333333  0.70742660  1
  O  O294  1  0.86666667  0.73333333  0.04075993  1
  O  O295  1  0.86666667  0.73333333  0.37409327  1
  O  O296  1  0.86666667  0.73333333  0.70742660  1
  O  O297  1  0.86666667  0.93333333  0.04075993  1
  O  O298  1  0.86666667  0.93333333  0.37409327  1
  O  O299  1  0.86666667  0.93333333  0.70742660  1
