# generated using pymatgen
data_LiTa3O8
_symmetry_space_group_name_H-M   'P 1'
_cell_length_a   9.41393630
_cell_length_b   11.54126784
_cell_length_c   10.10828043
_cell_angle_alpha   90.00000000
_cell_angle_beta   90.85980964
_cell_angle_gamma   90.00000000
_symmetry_Int_Tables_number   1
_chemical_formula_structural   LiTa3O8
_chemical_formula_sum   'Li8 Ta24 O64'
_cell_volume   1098.12847905
_cell_formula_units_Z   8
loop_
 _symmetry_equiv_pos_site_id
 _symmetry_equiv_pos_as_xyz
  1  'x, y, z'
loop_
 _atom_site_type_symbol
 _atom_site_label
 _atom_site_symmetry_multiplicity
 _atom_site_fract_x
 _atom_site_fract_y
 _atom_site_fract_z
 _atom_site_occupancy
  Li  Li0  1  0.50000000  0.34126059  0.12500000  1
  Li  Li1  1  0.50000000  0.34126059  0.62500000  1
  Li  Li2  1  1.00000000  0.84126059  0.12500000  1
  Li  Li3  1  1.00000000  0.84126059  0.62500000  1
  Li  Li4  1  0.50000000  -0.34126059  0.37500000  1
  Li  Li5  1  0.50000000  -0.34126059  0.87500000  1
  Li  Li6  1  1.00000000  0.15873941  0.37500000  1
  Li  Li7  1  1.00000000  0.15873941  0.87500000  1
  Ta  Ta8  1  0.50000000  -0.17111562  0.12500000  1
  Ta  Ta9  1  0.50000000  -0.17111562  0.62500000  1
  Ta  Ta10  1  1.00000000  0.32888438  0.12500000  1
  Ta  Ta11  1  1.00000000  0.32888438  0.62500000  1
  Ta  Ta12  1  0.50000000  0.17111562  0.37500000  1
  Ta  Ta13  1  0.50000000  0.17111562  0.87500000  1
  Ta  Ta14  1  1.00000000  0.67111562  0.37500000  1
  Ta  Ta15  1  1.00000000  0.67111562  0.87500000  1
  Ta  Ta16  1  0.75816533  0.08492139  0.12701007  1
  Ta  Ta17  1  0.75816533  0.08492139  0.62701007  1
  Ta  Ta18  1  1.25816533  0.58492139  0.12701007  1
  Ta  Ta19  1  1.25816533  0.58492139  0.62701007  1
  Ta  Ta20  1  0.24183467  0.08492139  0.12298993  1
  Ta  Ta21  1  0.24183467  0.08492139  0.62298993  1
  Ta  Ta22  1  0.74183467  0.58492139  0.12298993  1
  Ta  Ta23  1  0.74183467  0.58492139  0.62298993  1
  Ta  Ta24  1  0.24183467  -0.08492139  0.37298993  1
  Ta  Ta25  1  0.24183467  -0.08492139  0.87298993  1
  Ta  Ta26  1  0.74183467  0.41507861  0.37298993  1
  Ta  Ta27  1  0.74183467  0.41507861  0.87298993  1
  Ta  Ta28  1  0.75816533  -0.08492139  0.37701007  1
  Ta  Ta29  1  0.75816533  -0.08492139  0.87701007  1
  Ta  Ta30  1  1.25816533  0.41507861  0.37701007  1
  Ta  Ta31  1  1.25816533  0.41507861  0.87701007  1
  O  O32  1  0.38276678  -0.30305212  0.19734745  1
  O  O33  1  0.38276678  -0.30305212  0.69734745  1
  O  O34  1  0.88276678  0.19694788  0.19734745  1
  O  O35  1  0.88276678  0.19694788  0.69734745  1
  O  O36  1  0.61723322  -0.30305212  0.05265255  1
  O  O37  1  0.61723322  -0.30305212  0.55265255  1
  O  O38  1  1.11723322  0.19694788  0.05265255  1
  O  O39  1  1.11723322  0.19694788  0.55265255  1
  O  O40  1  0.61723322  0.30305212  0.30265255  1
  O  O41  1  0.61723322  0.30305212  0.80265255  1
  O  O42  1  1.11723322  0.80305212  0.30265255  1
  O  O43  1  1.11723322  0.80305212  0.80265255  1
  O  O44  1  0.38276678  0.30305212  0.44734745  1
  O  O45  1  0.38276678  0.30305212  0.94734745  1
  O  O46  1  0.88276678  0.80305212  0.44734745  1
  O  O47  1  0.88276678  0.80305212  0.94734745  1
  O  O48  1  0.14502769  0.04995317  0.28254120  1
  O  O49  1  0.14502769  0.04995317  0.78254120  1
  O  O50  1  0.64502769  0.54995317  0.28254120  1
  O  O51  1  0.64502769  0.54995317  0.78254120  1
  O  O52  1  0.85497231  0.04995317  0.46745880  1
  O  O53  1  0.85497231  0.04995317  0.96745880  1
  O  O54  1  1.35497231  0.54995317  0.46745880  1
  O  O55  1  1.35497231  0.54995317  0.96745880  1
  O  O56  1  0.85497231  -0.04995317  0.21745880  1
  O  O57  1  0.85497231  -0.04995317  0.71745880  1
  O  O58  1  1.35497231  0.45004683  0.21745880  1
  O  O59  1  1.35497231  0.45004683  0.71745880  1
  O  O60  1  0.14502769  -0.04995317  0.03254120  1
  O  O61  1  0.14502769  -0.04995317  0.53254120  1
  O  O62  1  0.64502769  0.45004683  0.03254120  1
  O  O63  1  0.64502769  0.45004683  0.53254120  1
  O  O64  1  0.61526294  -0.17763989  0.28827581  1
  O  O65  1  0.61526294  -0.17763989  0.78827581  1
  O  O66  1  1.11526294  0.32236011  0.28827581  1
  O  O67  1  1.11526294  0.32236011  0.78827581  1
  O  O68  1  0.38473706  -0.17763989  0.46172419  1
  O  O69  1  0.38473706  -0.17763989  0.96172419  1
  O  O70  1  0.88473706  0.32236011  0.46172419  1
  O  O71  1  0.88473706  0.32236011  0.96172419  1
  O  O72  1  0.38473706  0.17763989  0.21172419  1
  O  O73  1  0.38473706  0.17763989  0.71172419  1
  O  O74  1  0.88473706  0.67763989  0.21172419  1
  O  O75  1  0.88473706  0.67763989  0.71172419  1
  O  O76  1  0.61526294  0.17763989  0.03827581  1
  O  O77  1  0.61526294  0.17763989  0.53827581  1
  O  O78  1  1.11526294  0.67763989  0.03827581  1
  O  O79  1  1.11526294  0.67763989  0.53827581  1
  O  O80  1  0.36645680  0.06260061  0.45785311  1
  O  O81  1  0.36645680  0.06260061  0.95785311  1
  O  O82  1  0.86645680  0.56260061  0.45785311  1
  O  O83  1  0.86645680  0.56260061  0.95785311  1
  O  O84  1  0.63354320  0.06260061  0.29214689  1
  O  O85  1  0.63354320  0.06260061  0.79214689  1
  O  O86  1  1.13354320  0.56260061  0.29214689  1
  O  O87  1  1.13354320  0.56260061  0.79214689  1
  O  O88  1  0.63354320  -0.06260061  0.04214689  1
  O  O89  1  0.63354320  -0.06260061  0.54214689  1
  O  O90  1  1.13354320  0.43739939  0.04214689  1
  O  O91  1  1.13354320  0.43739939  0.54214689  1
  O  O92  1  0.36645680  -0.06260061  0.20785311  1
  O  O93  1  0.36645680  -0.06260061  0.70785311  1
  O  O94  1  0.86645680  0.43739939  0.20785311  1
  O  O95  1  0.86645680  0.43739939  0.70785311  1
