# generated using pymatgen
data_LaCuO2
_symmetry_space_group_name_H-M   'P 1'
_cell_length_a   15.24386644
_cell_length_b   15.24386644
_cell_length_c   16.80197881
_cell_angle_alpha   90.00000000
_cell_angle_beta   90.00000000
_cell_angle_gamma   120.00000000
_symmetry_Int_Tables_number   1
_chemical_formula_structural   LaCuO2
_chemical_formula_sum   'La48 Cu48 O96'
_cell_volume   3381.28154575
_cell_formula_units_Z   48
loop_
 _symmetry_equiv_pos_site_id
 _symmetry_equiv_pos_as_xyz
  1  'x, y, z'
loop_
 _atom_site_type_symbol
 _atom_site_label
 _atom_site_symmetry_multiplicity
 _atom_site_fract_x
 _atom_site_fract_y
 _atom_site_fract_z
 _atom_site_occupancy
  La  La0  1  -0.00000000  -0.00000000  0.50000000  1
  La  La1  1  -0.00000000  0.25000000  0.50000000  1
  La  La2  1  -0.00000000  0.50000000  0.50000000  1
  La  La3  1  -0.00000000  0.75000000  0.50000000  1
  La  La4  1  0.25000000  -0.00000000  0.50000000  1
  La  La5  1  0.25000000  0.25000000  0.50000000  1
  La  La6  1  0.25000000  0.50000000  0.50000000  1
  La  La7  1  0.25000000  0.75000000  0.50000000  1
  La  La8  1  0.50000000  -0.00000000  0.50000000  1
  La  La9  1  0.50000000  0.25000000  0.50000000  1
  La  La10  1  0.50000000  0.50000000  0.50000000  1
  La  La11  1  0.50000000  0.75000000  0.50000000  1
  La  La12  1  0.75000000  -0.00000000  0.50000000  1
  La  La13  1  0.75000000  0.25000000  0.50000000  1
  La  La14  1  0.75000000  0.50000000  0.50000000  1
  La  La15  1  0.75000000  0.75000000  0.50000000  1
  La  La16  1  0.16666667  0.08333333  0.83333333  1
  La  La17  1  0.16666667  0.33333333  0.83333333  1
  La  La18  1  0.16666667  0.58333333  0.83333333  1
  La  La19  1  0.16666667  0.83333333  0.83333333  1
  La  La20  1  0.41666667  0.08333333  0.83333333  1
  La  La21  1  0.41666667  0.33333333  0.83333333  1
  La  La22  1  0.41666667  0.58333333  0.83333333  1
  La  La23  1  0.41666667  0.83333333  0.83333333  1
  La  La24  1  0.66666667  0.08333333  0.83333333  1
  La  La25  1  0.66666667  0.33333333  0.83333333  1
  La  La26  1  0.66666667  0.58333333  0.83333333  1
  La  La27  1  0.66666667  0.83333333  0.83333333  1
  La  La28  1  0.91666667  0.08333333  0.83333333  1
  La  La29  1  0.91666667  0.33333333  0.83333333  1
  La  La30  1  0.91666667  0.58333333  0.83333333  1
  La  La31  1  0.91666667  0.83333333  0.83333333  1
  La  La32  1  0.08333333  0.16666667  1.16666667  1
  La  La33  1  0.08333333  0.41666667  1.16666667  1
  La  La34  1  0.08333333  0.66666667  1.16666667  1
  La  La35  1  0.08333333  0.91666667  1.16666667  1
  La  La36  1  0.33333333  0.16666667  1.16666667  1
  La  La37  1  0.33333333  0.41666667  1.16666667  1
  La  La38  1  0.33333333  0.66666667  1.16666667  1
  La  La39  1  0.33333333  0.91666667  1.16666667  1
  La  La40  1  0.58333333  0.16666667  1.16666667  1
  La  La41  1  0.58333333  0.41666667  1.16666667  1
  La  La42  1  0.58333333  0.66666667  1.16666667  1
  La  La43  1  0.58333333  0.91666667  1.16666667  1
  La  La44  1  0.83333333  0.16666667  1.16666667  1
  La  La45  1  0.83333333  0.41666667  1.16666667  1
  La  La46  1  0.83333333  0.66666667  1.16666667  1
  La  La47  1  0.83333333  0.91666667  1.16666667  1
  Cu  Cu48  1  -0.00000000  -0.00000000  -0.00000000  1
  Cu  Cu49  1  0.00000000  0.25000000  -0.00000000  1
  Cu  Cu50  1  0.00000000  0.50000000  -0.00000000  1
  Cu  Cu51  1  0.00000000  0.75000000  -0.00000000  1
  Cu  Cu52  1  0.25000000  -0.00000000  -0.00000000  1
  Cu  Cu53  1  0.25000000  0.25000000  -0.00000000  1
  Cu  Cu54  1  0.25000000  0.50000000  -0.00000000  1
  Cu  Cu55  1  0.25000000  0.75000000  -0.00000000  1
  Cu  Cu56  1  0.50000000  -0.00000000  -0.00000000  1
  Cu  Cu57  1  0.50000000  0.25000000  -0.00000000  1
  Cu  Cu58  1  0.50000000  0.50000000  -0.00000000  1
  Cu  Cu59  1  0.50000000  0.75000000  -0.00000000  1
  Cu  Cu60  1  0.75000000  -0.00000000  -0.00000000  1
  Cu  Cu61  1  0.75000000  0.25000000  -0.00000000  1
  Cu  Cu62  1  0.75000000  0.50000000  -0.00000000  1
  Cu  Cu63  1  0.75000000  0.75000000  -0.00000000  1
  Cu  Cu64  1  0.16666667  0.08333333  0.33333333  1
  Cu  Cu65  1  0.16666667  0.33333333  0.33333333  1
  Cu  Cu66  1  0.16666667  0.58333333  0.33333333  1
  Cu  Cu67  1  0.16666667  0.83333333  0.33333333  1
  Cu  Cu68  1  0.41666667  0.08333333  0.33333333  1
  Cu  Cu69  1  0.41666667  0.33333333  0.33333333  1
  Cu  Cu70  1  0.41666667  0.58333333  0.33333333  1
  Cu  Cu71  1  0.41666667  0.83333333  0.33333333  1
  Cu  Cu72  1  0.66666667  0.08333333  0.33333333  1
  Cu  Cu73  1  0.66666667  0.33333333  0.33333333  1
  Cu  Cu74  1  0.66666667  0.58333333  0.33333333  1
  Cu  Cu75  1  0.66666667  0.83333333  0.33333333  1
  Cu  Cu76  1  0.91666667  0.08333333  0.33333333  1
  Cu  Cu77  1  0.91666667  0.33333333  0.33333333  1
  Cu  Cu78  1  0.91666667  0.58333333  0.33333333  1
  Cu  Cu79  1  0.91666667  0.83333333  0.33333333  1
  Cu  Cu80  1  0.08333333  0.16666667  0.66666667  1
  Cu  Cu81  1  0.08333333  0.41666667  0.66666667  1
  Cu  Cu82  1  0.08333333  0.66666667  0.66666667  1
  Cu  Cu83  1  0.08333333  0.91666667  0.66666667  1
  Cu  Cu84  1  0.33333333  0.16666667  0.66666667  1
  Cu  Cu85  1  0.33333333  0.41666667  0.66666667  1
  Cu  Cu86  1  0.33333333  0.66666667  0.66666667  1
  Cu  Cu87  1  0.33333333  0.91666667  0.66666667  1
  Cu  Cu88  1  0.58333333  0.16666667  0.66666667  1
  Cu  Cu89  1  0.58333333  0.41666667  0.66666667  1
  Cu  Cu90  1  0.58333333  0.66666667  0.66666667  1
  Cu  Cu91  1  0.58333333  0.91666667  0.66666667  1
  Cu  Cu92  1  0.83333333  0.16666667  0.66666667  1
  Cu  Cu93  1  0.83333333  0.41666667  0.66666667  1
  Cu  Cu94  1  0.83333333  0.66666667  0.66666667  1
  Cu  Cu95  1  0.83333333  0.91666667  0.66666667  1
  O  O96  1  -0.00000000  -0.00000000  0.10620686  1
  O  O97  1  0.00000000  0.25000000  0.10620686  1
  O  O98  1  0.00000000  0.50000000  0.10620686  1
  O  O99  1  0.00000000  0.75000000  0.10620686  1
  O  O100  1  0.25000000  -0.00000000  0.10620686  1
  O  O101  1  0.25000000  0.25000000  0.10620686  1
  O  O102  1  0.25000000  0.50000000  0.10620686  1
  O  O103  1  0.25000000  0.75000000  0.10620686  1
  O  O104  1  0.50000000  -0.00000000  0.10620686  1
  O  O105  1  0.50000000  0.25000000  0.10620686  1
  O  O106  1  0.50000000  0.50000000  0.10620686  1
  O  O107  1  0.50000000  0.75000000  0.10620686  1
  O  O108  1  0.75000000  -0.00000000  0.10620686  1
  O  O109  1  0.75000000  0.25000000  0.10620686  1
  O  O110  1  0.75000000  0.50000000  0.10620686  1
  O  O111  1  0.75000000  0.75000000  0.10620686  1
  O  O112  1  0.16666667  0.08333333  0.43954020  1
  O  O113  1  0.16666667  0.33333333  0.43954020  1
  O  O114  1  0.16666667  0.58333333  0.43954020  1
  O  O115  1  0.16666667  0.83333333  0.43954020  1
  O  O116  1  0.41666667  0.08333333  0.43954020  1
  O  O117  1  0.41666667  0.33333333  0.43954020  1
  O  O118  1  0.41666667  0.58333333  0.43954020  1
  O  O119  1  0.41666667  0.83333333  0.43954020  1
  O  O120  1  0.66666667  0.08333333  0.43954020  1
  O  O121  1  0.66666667  0.33333333  0.43954020  1
  O  O122  1  0.66666667  0.58333333  0.43954020  1
  O  O123  1  0.66666667  0.83333333  0.43954020  1
  O  O124  1  0.91666667  0.08333333  0.43954020  1
  O  O125  1  0.91666667  0.33333333  0.43954020  1
  O  O126  1  0.91666667  0.58333333  0.43954020  1
  O  O127  1  0.91666667  0.83333333  0.43954020  1
  O  O128  1  0.08333333  0.16666667  0.77287353  1
  O  O129  1  0.08333333  0.41666667  0.77287353  1
  O  O130  1  0.08333333  0.66666667  0.77287353  1
  O  O131  1  0.08333333  0.91666667  0.77287353  1
  O  O132  1  0.33333333  0.16666667  0.77287353  1
  O  O133  1  0.33333333  0.41666667  0.77287353  1
  O  O134  1  0.33333333  0.66666667  0.77287353  1
  O  O135  1  0.33333333  0.91666667  0.77287353  1
  O  O136  1  0.58333333  0.16666667  0.77287353  1
  O  O137  1  0.58333333  0.41666667  0.77287353  1
  O  O138  1  0.58333333  0.66666667  0.77287353  1
  O  O139  1  0.58333333  0.91666667  0.77287353  1
  O  O140  1  0.83333333  0.16666667  0.77287353  1
  O  O141  1  0.83333333  0.41666667  0.77287353  1
  O  O142  1  0.83333333  0.66666667  0.77287353  1
  O  O143  1  0.83333333  0.91666667  0.77287353  1
  O  O144  1  -0.00000000  0.00000000  0.89379314  1
  O  O145  1  0.00000000  0.25000000  0.89379314  1
  O  O146  1  0.00000000  0.50000000  0.89379314  1
  O  O147  1  0.00000000  0.75000000  0.89379314  1
  O  O148  1  0.25000000  0.00000000  0.89379314  1
  O  O149  1  0.25000000  0.25000000  0.89379314  1
  O  O150  1  0.25000000  0.50000000  0.89379314  1
  O  O151  1  0.25000000  0.75000000  0.89379314  1
  O  O152  1  0.50000000  0.00000000  0.89379314  1
  O  O153  1  0.50000000  0.25000000  0.89379314  1
  O  O154  1  0.50000000  0.50000000  0.89379314  1
  O  O155  1  0.50000000  0.75000000  0.89379314  1
  O  O156  1  0.75000000  0.00000000  0.89379314  1
  O  O157  1  0.75000000  0.25000000  0.89379314  1
  O  O158  1  0.75000000  0.50000000  0.89379314  1
  O  O159  1  0.75000000  0.75000000  0.89379314  1
  O  O160  1  0.16666667  0.08333333  1.22712647  1
  O  O161  1  0.16666667  0.33333333  1.22712647  1
  O  O162  1  0.16666667  0.58333333  1.22712647  1
  O  O163  1  0.16666667  0.83333333  1.22712647  1
  O  O164  1  0.41666667  0.08333333  1.22712647  1
  O  O165  1  0.41666667  0.33333333  1.22712647  1
  O  O166  1  0.41666667  0.58333333  1.22712647  1
  O  O167  1  0.41666667  0.83333333  1.22712647  1
  O  O168  1  0.66666667  0.08333333  1.22712647  1
  O  O169  1  0.66666667  0.33333333  1.22712647  1
  O  O170  1  0.66666667  0.58333333  1.22712647  1
  O  O171  1  0.66666667  0.83333333  1.22712647  1
  O  O172  1  0.91666667  0.08333333  1.22712647  1
  O  O173  1  0.91666667  0.33333333  1.22712647  1
  O  O174  1  0.91666667  0.58333333  1.22712647  1
  O  O175  1  0.91666667  0.83333333  1.22712647  1
  O  O176  1  0.08333333  0.16666667  1.56045980  1
  O  O177  1  0.08333333  0.41666667  1.56045980  1
  O  O178  1  0.08333333  0.66666667  1.56045980  1
  O  O179  1  0.08333333  0.91666667  1.56045980  1
  O  O180  1  0.33333333  0.16666667  1.56045980  1
  O  O181  1  0.33333333  0.41666667  1.56045980  1
  O  O182  1  0.33333333  0.66666667  1.56045980  1
  O  O183  1  0.33333333  0.91666667  1.56045980  1
  O  O184  1  0.58333333  0.16666667  1.56045980  1
  O  O185  1  0.58333333  0.41666667  1.56045980  1
  O  O186  1  0.58333333  0.66666667  1.56045980  1
  O  O187  1  0.58333333  0.91666667  1.56045980  1
  O  O188  1  0.83333333  0.16666667  1.56045980  1
  O  O189  1  0.83333333  0.41666667  1.56045980  1
  O  O190  1  0.83333333  0.66666667  1.56045980  1
  O  O191  1  0.83333333  0.91666667  1.56045980  1
