# generated using pymatgen
data_Sr(BiO2)2
_symmetry_space_group_name_H-M   'P 1'
_cell_length_a   19.21705838
_cell_length_b   17.31554949
_cell_length_c   18.18222262
_cell_angle_alpha   90.00000000
_cell_angle_beta   94.13320120
_cell_angle_gamma   90.00000000
_symmetry_Int_Tables_number   1
_chemical_formula_structural   Sr(BiO2)2
_chemical_formula_sum   'Sr48 Bi96 O192'
_cell_volume   6034.47048615
_cell_formula_units_Z   48
loop_
 _symmetry_equiv_pos_site_id
 _symmetry_equiv_pos_as_xyz
  1  'x, y, z'
loop_
 _atom_site_type_symbol
 _atom_site_label
 _atom_site_symmetry_multiplicity
 _atom_site_fract_x
 _atom_site_fract_y
 _atom_site_fract_z
 _atom_site_occupancy
  Sr  Sr0  1  0.23540550  -0.00000000  0.08647005  1
  Sr  Sr1  1  0.23540550  -0.00000000  0.41980338  1
  Sr  Sr2  1  0.23540550  -0.00000000  0.75313671  1
  Sr  Sr3  1  0.23540550  0.25000000  0.08647005  1
  Sr  Sr4  1  0.23540550  0.25000000  0.41980338  1
  Sr  Sr5  1  0.23540550  0.25000000  0.75313671  1
  Sr  Sr6  1  0.23540550  0.50000000  0.08647005  1
  Sr  Sr7  1  0.23540550  0.50000000  0.41980338  1
  Sr  Sr8  1  0.23540550  0.50000000  0.75313671  1
  Sr  Sr9  1  0.23540550  0.75000000  0.08647005  1
  Sr  Sr10  1  0.23540550  0.75000000  0.41980338  1
  Sr  Sr11  1  0.23540550  0.75000000  0.75313671  1
  Sr  Sr12  1  0.73540550  0.12500000  0.08647005  1
  Sr  Sr13  1  0.73540550  0.12500000  0.41980338  1
  Sr  Sr14  1  0.73540550  0.12500000  0.75313671  1
  Sr  Sr15  1  0.73540550  0.37500000  0.08647005  1
  Sr  Sr16  1  0.73540550  0.37500000  0.41980338  1
  Sr  Sr17  1  0.73540550  0.37500000  0.75313671  1
  Sr  Sr18  1  0.73540550  0.62500000  0.08647005  1
  Sr  Sr19  1  0.73540550  0.62500000  0.41980338  1
  Sr  Sr20  1  0.73540550  0.62500000  0.75313671  1
  Sr  Sr21  1  0.73540550  0.87500000  0.08647005  1
  Sr  Sr22  1  0.73540550  0.87500000  0.41980338  1
  Sr  Sr23  1  0.73540550  0.87500000  0.75313671  1
  Sr  Sr24  1  0.76459450  -0.00000000  0.24686329  1
  Sr  Sr25  1  0.76459450  -0.00000000  0.58019662  1
  Sr  Sr26  1  0.76459450  -0.00000000  0.91352995  1
  Sr  Sr27  1  0.76459450  0.25000000  0.24686329  1
  Sr  Sr28  1  0.76459450  0.25000000  0.58019662  1
  Sr  Sr29  1  0.76459450  0.25000000  0.91352995  1
  Sr  Sr30  1  0.76459450  0.50000000  0.24686329  1
  Sr  Sr31  1  0.76459450  0.50000000  0.58019662  1
  Sr  Sr32  1  0.76459450  0.50000000  0.91352995  1
  Sr  Sr33  1  0.76459450  0.75000000  0.24686329  1
  Sr  Sr34  1  0.76459450  0.75000000  0.58019662  1
  Sr  Sr35  1  0.76459450  0.75000000  0.91352995  1
  Sr  Sr36  1  1.26459450  0.12500000  0.24686329  1
  Sr  Sr37  1  1.26459450  0.12500000  0.58019662  1
  Sr  Sr38  1  1.26459450  0.12500000  0.91352995  1
  Sr  Sr39  1  1.26459450  0.37500000  0.24686329  1
  Sr  Sr40  1  1.26459450  0.37500000  0.58019662  1
  Sr  Sr41  1  1.26459450  0.37500000  0.91352995  1
  Sr  Sr42  1  1.26459450  0.62500000  0.24686329  1
  Sr  Sr43  1  1.26459450  0.62500000  0.58019662  1
  Sr  Sr44  1  1.26459450  0.62500000  0.91352995  1
  Sr  Sr45  1  1.26459450  0.87500000  0.24686329  1
  Sr  Sr46  1  1.26459450  0.87500000  0.58019662  1
  Sr  Sr47  1  1.26459450  0.87500000  0.91352995  1
  Bi  Bi48  1  0.42541621  0.00000000  0.24116740  1
  Bi  Bi49  1  0.42541621  0.00000000  0.57450074  1
  Bi  Bi50  1  0.42541621  0.00000000  0.90783407  1
  Bi  Bi51  1  0.42541621  0.25000000  0.24116740  1
  Bi  Bi52  1  0.42541621  0.25000000  0.57450074  1
  Bi  Bi53  1  0.42541621  0.25000000  0.90783407  1
  Bi  Bi54  1  0.42541621  0.50000000  0.24116740  1
  Bi  Bi55  1  0.42541621  0.50000000  0.57450074  1
  Bi  Bi56  1  0.42541621  0.50000000  0.90783407  1
  Bi  Bi57  1  0.42541621  0.75000000  0.24116740  1
  Bi  Bi58  1  0.42541621  0.75000000  0.57450074  1
  Bi  Bi59  1  0.42541621  0.75000000  0.90783407  1
  Bi  Bi60  1  0.92541621  0.12500000  0.24116740  1
  Bi  Bi61  1  0.92541621  0.12500000  0.57450074  1
  Bi  Bi62  1  0.92541621  0.12500000  0.90783407  1
  Bi  Bi63  1  0.92541621  0.37500000  0.24116740  1
  Bi  Bi64  1  0.92541621  0.37500000  0.57450074  1
  Bi  Bi65  1  0.92541621  0.37500000  0.90783407  1
  Bi  Bi66  1  0.92541621  0.62500000  0.24116740  1
  Bi  Bi67  1  0.92541621  0.62500000  0.57450074  1
  Bi  Bi68  1  0.92541621  0.62500000  0.90783407  1
  Bi  Bi69  1  0.92541621  0.87500000  0.24116740  1
  Bi  Bi70  1  0.92541621  0.87500000  0.57450074  1
  Bi  Bi71  1  0.92541621  0.87500000  0.90783407  1
  Bi  Bi72  1  0.57458379  0.00000000  0.09216593  1
  Bi  Bi73  1  0.57458379  0.00000000  0.42549926  1
  Bi  Bi74  1  0.57458379  0.00000000  0.75883260  1
  Bi  Bi75  1  0.57458379  0.25000000  0.09216593  1
  Bi  Bi76  1  0.57458379  0.25000000  0.42549926  1
  Bi  Bi77  1  0.57458379  0.25000000  0.75883260  1
  Bi  Bi78  1  0.57458379  0.50000000  0.09216593  1
  Bi  Bi79  1  0.57458379  0.50000000  0.42549926  1
  Bi  Bi80  1  0.57458379  0.50000000  0.75883260  1
  Bi  Bi81  1  0.57458379  0.75000000  0.09216593  1
  Bi  Bi82  1  0.57458379  0.75000000  0.42549926  1
  Bi  Bi83  1  0.57458379  0.75000000  0.75883260  1
  Bi  Bi84  1  1.07458379  0.12500000  0.09216593  1
  Bi  Bi85  1  1.07458379  0.12500000  0.42549926  1
  Bi  Bi86  1  1.07458379  0.12500000  0.75883260  1
  Bi  Bi87  1  1.07458379  0.37500000  0.09216593  1
  Bi  Bi88  1  1.07458379  0.37500000  0.42549926  1
  Bi  Bi89  1  1.07458379  0.37500000  0.75883260  1
  Bi  Bi90  1  1.07458379  0.62500000  0.09216593  1
  Bi  Bi91  1  1.07458379  0.62500000  0.42549926  1
  Bi  Bi92  1  1.07458379  0.62500000  0.75883260  1
  Bi  Bi93  1  1.07458379  0.87500000  0.09216593  1
  Bi  Bi94  1  1.07458379  0.87500000  0.42549926  1
  Bi  Bi95  1  1.07458379  0.87500000  0.75883260  1
  Bi  Bi96  1  0.09890877  -0.00000000  0.27163821  1
  Bi  Bi97  1  0.09890877  -0.00000000  0.60497155  1
  Bi  Bi98  1  0.09890877  -0.00000000  0.93830488  1
  Bi  Bi99  1  0.09890877  0.25000000  0.27163821  1
  Bi  Bi100  1  0.09890877  0.25000000  0.60497155  1
  Bi  Bi101  1  0.09890877  0.25000000  0.93830488  1
  Bi  Bi102  1  0.09890877  0.50000000  0.27163821  1
  Bi  Bi103  1  0.09890877  0.50000000  0.60497155  1
  Bi  Bi104  1  0.09890877  0.50000000  0.93830488  1
  Bi  Bi105  1  0.09890877  0.75000000  0.27163821  1
  Bi  Bi106  1  0.09890877  0.75000000  0.60497155  1
  Bi  Bi107  1  0.09890877  0.75000000  0.93830488  1
  Bi  Bi108  1  0.59890877  0.12500000  0.27163821  1
  Bi  Bi109  1  0.59890877  0.12500000  0.60497155  1
  Bi  Bi110  1  0.59890877  0.12500000  0.93830488  1
  Bi  Bi111  1  0.59890877  0.37500000  0.27163821  1
  Bi  Bi112  1  0.59890877  0.37500000  0.60497155  1
  Bi  Bi113  1  0.59890877  0.37500000  0.93830488  1
  Bi  Bi114  1  0.59890877  0.62500000  0.27163821  1
  Bi  Bi115  1  0.59890877  0.62500000  0.60497155  1
  Bi  Bi116  1  0.59890877  0.62500000  0.93830488  1
  Bi  Bi117  1  0.59890877  0.87500000  0.27163821  1
  Bi  Bi118  1  0.59890877  0.87500000  0.60497155  1
  Bi  Bi119  1  0.59890877  0.87500000  0.93830488  1
  Bi  Bi120  1  0.90109123  -0.00000000  0.06169512  1
  Bi  Bi121  1  0.90109123  -0.00000000  0.39502845  1
  Bi  Bi122  1  0.90109123  -0.00000000  0.72836179  1
  Bi  Bi123  1  0.90109123  0.25000000  0.06169512  1
  Bi  Bi124  1  0.90109123  0.25000000  0.39502845  1
  Bi  Bi125  1  0.90109123  0.25000000  0.72836179  1
  Bi  Bi126  1  0.90109123  0.50000000  0.06169512  1
  Bi  Bi127  1  0.90109123  0.50000000  0.39502845  1
  Bi  Bi128  1  0.90109123  0.50000000  0.72836179  1
  Bi  Bi129  1  0.90109123  0.75000000  0.06169512  1
  Bi  Bi130  1  0.90109123  0.75000000  0.39502845  1
  Bi  Bi131  1  0.90109123  0.75000000  0.72836179  1
  Bi  Bi132  1  1.40109123  0.12500000  0.06169512  1
  Bi  Bi133  1  1.40109123  0.12500000  0.39502845  1
  Bi  Bi134  1  1.40109123  0.12500000  0.72836179  1
  Bi  Bi135  1  1.40109123  0.37500000  0.06169512  1
  Bi  Bi136  1  1.40109123  0.37500000  0.39502845  1
  Bi  Bi137  1  1.40109123  0.37500000  0.72836179  1
  Bi  Bi138  1  1.40109123  0.62500000  0.06169512  1
  Bi  Bi139  1  1.40109123  0.62500000  0.39502845  1
  Bi  Bi140  1  1.40109123  0.62500000  0.72836179  1
  Bi  Bi141  1  1.40109123  0.87500000  0.06169512  1
  Bi  Bi142  1  1.40109123  0.87500000  0.39502845  1
  Bi  Bi143  1  1.40109123  0.87500000  0.72836179  1
  O  O144  1  0.09004063  0.00000000  0.05766976  1
  O  O145  1  0.09004063  0.00000000  0.39100309  1
  O  O146  1  0.09004063  0.00000000  0.72433642  1
  O  O147  1  0.09004063  0.25000000  0.05766976  1
  O  O148  1  0.09004063  0.25000000  0.39100309  1
  O  O149  1  0.09004063  0.25000000  0.72433642  1
  O  O150  1  0.09004063  0.50000000  0.05766976  1
  O  O151  1  0.09004063  0.50000000  0.39100309  1
  O  O152  1  0.09004063  0.50000000  0.72433642  1
  O  O153  1  0.09004063  0.75000000  0.05766976  1
  O  O154  1  0.09004063  0.75000000  0.39100309  1
  O  O155  1  0.09004063  0.75000000  0.72433642  1
  O  O156  1  0.59004063  0.12500000  0.05766976  1
  O  O157  1  0.59004063  0.12500000  0.39100309  1
  O  O158  1  0.59004063  0.12500000  0.72433642  1
  O  O159  1  0.59004063  0.37500000  0.05766976  1
  O  O160  1  0.59004063  0.37500000  0.39100309  1
  O  O161  1  0.59004063  0.37500000  0.72433642  1
  O  O162  1  0.59004063  0.62500000  0.05766976  1
  O  O163  1  0.59004063  0.62500000  0.39100309  1
  O  O164  1  0.59004063  0.62500000  0.72433642  1
  O  O165  1  0.59004063  0.87500000  0.05766976  1
  O  O166  1  0.59004063  0.87500000  0.39100309  1
  O  O167  1  0.59004063  0.87500000  0.72433642  1
  O  O168  1  0.90995937  -0.00000000  0.27566358  1
  O  O169  1  0.90995937  -0.00000000  0.60899691  1
  O  O170  1  0.90995937  -0.00000000  0.94233024  1
  O  O171  1  0.90995937  0.25000000  0.27566358  1
  O  O172  1  0.90995937  0.25000000  0.60899691  1
  O  O173  1  0.90995937  0.25000000  0.94233024  1
  O  O174  1  0.90995937  0.50000000  0.27566358  1
  O  O175  1  0.90995937  0.50000000  0.60899691  1
  O  O176  1  0.90995937  0.50000000  0.94233024  1
  O  O177  1  0.90995937  0.75000000  0.27566358  1
  O  O178  1  0.90995937  0.75000000  0.60899691  1
  O  O179  1  0.90995937  0.75000000  0.94233024  1
  O  O180  1  1.40995937  0.12500000  0.27566358  1
  O  O181  1  1.40995937  0.12500000  0.60899691  1
  O  O182  1  1.40995937  0.12500000  0.94233024  1
  O  O183  1  1.40995937  0.37500000  0.27566358  1
  O  O184  1  1.40995937  0.37500000  0.60899691  1
  O  O185  1  1.40995937  0.37500000  0.94233024  1
  O  O186  1  1.40995937  0.62500000  0.27566358  1
  O  O187  1  1.40995937  0.62500000  0.60899691  1
  O  O188  1  1.40995937  0.62500000  0.94233024  1
  O  O189  1  1.40995937  0.87500000  0.27566358  1
  O  O190  1  1.40995937  0.87500000  0.60899691  1
  O  O191  1  1.40995937  0.87500000  0.94233024  1
  O  O192  1  0.20499229  -0.00000000  0.28507510  1
  O  O193  1  0.20499229  -0.00000000  0.61840843  1
  O  O194  1  0.20499229  -0.00000000  0.95174177  1
  O  O195  1  0.20499229  0.25000000  0.28507510  1
  O  O196  1  0.20499229  0.25000000  0.61840843  1
  O  O197  1  0.20499229  0.25000000  0.95174177  1
  O  O198  1  0.20499229  0.50000000  0.28507510  1
  O  O199  1  0.20499229  0.50000000  0.61840843  1
  O  O200  1  0.20499229  0.50000000  0.95174177  1
  O  O201  1  0.20499229  0.75000000  0.28507510  1
  O  O202  1  0.20499229  0.75000000  0.61840843  1
  O  O203  1  0.20499229  0.75000000  0.95174177  1
  O  O204  1  0.70499229  0.12500000  0.28507510  1
  O  O205  1  0.70499229  0.12500000  0.61840843  1
  O  O206  1  0.70499229  0.12500000  0.95174177  1
  O  O207  1  0.70499229  0.37500000  0.28507510  1
  O  O208  1  0.70499229  0.37500000  0.61840843  1
  O  O209  1  0.70499229  0.37500000  0.95174177  1
  O  O210  1  0.70499229  0.62500000  0.28507510  1
  O  O211  1  0.70499229  0.62500000  0.61840843  1
  O  O212  1  0.70499229  0.62500000  0.95174177  1
  O  O213  1  0.70499229  0.87500000  0.28507510  1
  O  O214  1  0.70499229  0.87500000  0.61840843  1
  O  O215  1  0.70499229  0.87500000  0.95174177  1
  O  O216  1  0.79500771  -0.00000000  0.04825823  1
  O  O217  1  0.79500771  -0.00000000  0.38159157  1
  O  O218  1  0.79500771  -0.00000000  0.71492490  1
  O  O219  1  0.79500771  0.25000000  0.04825823  1
  O  O220  1  0.79500771  0.25000000  0.38159157  1
  O  O221  1  0.79500771  0.25000000  0.71492490  1
  O  O222  1  0.79500771  0.50000000  0.04825823  1
  O  O223  1  0.79500771  0.50000000  0.38159157  1
  O  O224  1  0.79500771  0.50000000  0.71492490  1
  O  O225  1  0.79500771  0.75000000  0.04825823  1
  O  O226  1  0.79500771  0.75000000  0.38159157  1
  O  O227  1  0.79500771  0.75000000  0.71492490  1
  O  O228  1  1.29500771  0.12500000  0.04825823  1
  O  O229  1  1.29500771  0.12500000  0.38159157  1
  O  O230  1  1.29500771  0.12500000  0.71492490  1
  O  O231  1  1.29500771  0.37500000  0.04825823  1
  O  O232  1  1.29500771  0.37500000  0.38159157  1
  O  O233  1  1.29500771  0.37500000  0.71492490  1
  O  O234  1  1.29500771  0.62500000  0.04825823  1
  O  O235  1  1.29500771  0.62500000  0.38159157  1
  O  O236  1  1.29500771  0.62500000  0.71492490  1
  O  O237  1  1.29500771  0.87500000  0.04825823  1
  O  O238  1  1.29500771  0.87500000  0.38159157  1
  O  O239  1  1.29500771  0.87500000  0.71492490  1
  O  O240  1  0.32469789  -0.00000000  0.19327635  1
  O  O241  1  0.32469789  -0.00000000  0.52660968  1
  O  O242  1  0.32469789  -0.00000000  0.85994301  1
  O  O243  1  0.32469789  0.25000000  0.19327635  1
  O  O244  1  0.32469789  0.25000000  0.52660968  1
  O  O245  1  0.32469789  0.25000000  0.85994301  1
  O  O246  1  0.32469789  0.50000000  0.19327635  1
  O  O247  1  0.32469789  0.50000000  0.52660968  1
  O  O248  1  0.32469789  0.50000000  0.85994301  1
  O  O249  1  0.32469789  0.75000000  0.19327635  1
  O  O250  1  0.32469789  0.75000000  0.52660968  1
  O  O251  1  0.32469789  0.75000000  0.85994301  1
  O  O252  1  0.82469789  0.12500000  0.19327635  1
  O  O253  1  0.82469789  0.12500000  0.52660968  1
  O  O254  1  0.82469789  0.12500000  0.85994301  1
  O  O255  1  0.82469789  0.37500000  0.19327635  1
  O  O256  1  0.82469789  0.37500000  0.52660968  1
  O  O257  1  0.82469789  0.37500000  0.85994301  1
  O  O258  1  0.82469789  0.62500000  0.19327635  1
  O  O259  1  0.82469789  0.62500000  0.52660968  1
  O  O260  1  0.82469789  0.62500000  0.85994301  1
  O  O261  1  0.82469789  0.87500000  0.19327635  1
  O  O262  1  0.82469789  0.87500000  0.52660968  1
  O  O263  1  0.82469789  0.87500000  0.85994301  1
  O  O264  1  0.67530211  -0.00000000  0.14005699  1
  O  O265  1  0.67530211  -0.00000000  0.47339032  1
  O  O266  1  0.67530211  -0.00000000  0.80672365  1
  O  O267  1  0.67530211  0.25000000  0.14005699  1
  O  O268  1  0.67530211  0.25000000  0.47339032  1
  O  O269  1  0.67530211  0.25000000  0.80672365  1
  O  O270  1  0.67530211  0.50000000  0.14005699  1
  O  O271  1  0.67530211  0.50000000  0.47339032  1
  O  O272  1  0.67530211  0.50000000  0.80672365  1
  O  O273  1  0.67530211  0.75000000  0.14005699  1
  O  O274  1  0.67530211  0.75000000  0.47339032  1
  O  O275  1  0.67530211  0.75000000  0.80672365  1
  O  O276  1  1.17530211  0.12500000  0.14005699  1
  O  O277  1  1.17530211  0.12500000  0.47339032  1
  O  O278  1  1.17530211  0.12500000  0.80672365  1
  O  O279  1  1.17530211  0.37500000  0.14005699  1
  O  O280  1  1.17530211  0.37500000  0.47339032  1
  O  O281  1  1.17530211  0.37500000  0.80672365  1
  O  O282  1  1.17530211  0.62500000  0.14005699  1
  O  O283  1  1.17530211  0.62500000  0.47339032  1
  O  O284  1  1.17530211  0.62500000  0.80672365  1
  O  O285  1  1.17530211  0.87500000  0.14005699  1
  O  O286  1  1.17530211  0.87500000  0.47339032  1
  O  O287  1  1.17530211  0.87500000  0.80672365  1
  O  O288  1  0.58796868  -0.00000000  0.30816821  1
  O  O289  1  0.58796868  -0.00000000  0.64150155  1
  O  O290  1  0.58796868  -0.00000000  0.97483488  1
  O  O291  1  0.58796868  0.25000000  0.30816821  1
  O  O292  1  0.58796868  0.25000000  0.64150155  1
  O  O293  1  0.58796868  0.25000000  0.97483488  1
  O  O294  1  0.58796868  0.50000000  0.30816821  1
  O  O295  1  0.58796868  0.50000000  0.64150155  1
  O  O296  1  0.58796868  0.50000000  0.97483488  1
  O  O297  1  0.58796868  0.75000000  0.30816821  1
  O  O298  1  0.58796868  0.75000000  0.64150155  1
  O  O299  1  0.58796868  0.75000000  0.97483488  1
  O  O300  1  1.08796868  0.12500000  0.30816821  1
  O  O301  1  1.08796868  0.12500000  0.64150155  1
  O  O302  1  1.08796868  0.12500000  0.97483488  1
  O  O303  1  1.08796868  0.37500000  0.30816821  1
  O  O304  1  1.08796868  0.37500000  0.64150155  1
  O  O305  1  1.08796868  0.37500000  0.97483488  1
  O  O306  1  1.08796868  0.62500000  0.30816821  1
  O  O307  1  1.08796868  0.62500000  0.64150155  1
  O  O308  1  1.08796868  0.62500000  0.97483488  1
  O  O309  1  1.08796868  0.87500000  0.30816821  1
  O  O310  1  1.08796868  0.87500000  0.64150155  1
  O  O311  1  1.08796868  0.87500000  0.97483488  1
  O  O312  1  0.41203132  -0.00000000  0.02516512  1
  O  O313  1  0.41203132  -0.00000000  0.35849845  1
  O  O314  1  0.41203132  -0.00000000  0.69183179  1
  O  O315  1  0.41203132  0.25000000  0.02516512  1
  O  O316  1  0.41203132  0.25000000  0.35849845  1
  O  O317  1  0.41203132  0.25000000  0.69183179  1
  O  O318  1  0.41203132  0.50000000  0.02516512  1
  O  O319  1  0.41203132  0.50000000  0.35849845  1
  O  O320  1  0.41203132  0.50000000  0.69183179  1
  O  O321  1  0.41203132  0.75000000  0.02516512  1
  O  O322  1  0.41203132  0.75000000  0.35849845  1
  O  O323  1  0.41203132  0.75000000  0.69183179  1
  O  O324  1  0.91203132  0.12500000  0.02516512  1
  O  O325  1  0.91203132  0.12500000  0.35849845  1
  O  O326  1  0.91203132  0.12500000  0.69183179  1
  O  O327  1  0.91203132  0.37500000  0.02516512  1
  O  O328  1  0.91203132  0.37500000  0.35849845  1
  O  O329  1  0.91203132  0.37500000  0.69183179  1
  O  O330  1  0.91203132  0.62500000  0.02516512  1
  O  O331  1  0.91203132  0.62500000  0.35849845  1
  O  O332  1  0.91203132  0.62500000  0.69183179  1
  O  O333  1  0.91203132  0.87500000  0.02516512  1
  O  O334  1  0.91203132  0.87500000  0.35849845  1
  O  O335  1  0.91203132  0.87500000  0.69183179  1
