# generated using pymatgen
data_Na3AsO4
_symmetry_space_group_name_H-M   'P 1'
_cell_length_a   13.96470525
_cell_length_b   12.02544102
_cell_length_c   11.04118897
_cell_angle_alpha   90.00000000
_cell_angle_beta   90.00000000
_cell_angle_gamma   90.00000000
_symmetry_Int_Tables_number   1
_chemical_formula_structural   Na3AsO4
_chemical_formula_sum   'Na48 As16 O64'
_cell_volume   1854.16606810
_cell_formula_units_Z   16
loop_
 _symmetry_equiv_pos_site_id
 _symmetry_equiv_pos_as_xyz
  1  'x, y, z'
loop_
 _atom_site_type_symbol
 _atom_site_label
 _atom_site_symmetry_multiplicity
 _atom_site_fract_x
 _atom_site_fract_y
 _atom_site_fract_z
 _atom_site_occupancy
  Na  Na0  1  0.00000000  0.07625582  0.24584483  1
  Na  Na1  1  0.00000000  0.07625582  0.74584483  1
  Na  Na2  1  0.00000000  0.57625582  0.24584483  1
  Na  Na3  1  0.00000000  0.57625582  0.74584483  1
  Na  Na4  1  0.50000000  0.07625582  0.24584483  1
  Na  Na5  1  0.50000000  0.07625582  0.74584483  1
  Na  Na6  1  0.50000000  0.57625582  0.24584483  1
  Na  Na7  1  0.50000000  0.57625582  0.74584483  1
  Na  Na8  1  0.37754627  0.16214891  0.49686062  1
  Na  Na9  1  0.37754627  0.16214891  0.99686062  1
  Na  Na10  1  0.37754627  0.66214891  0.49686062  1
  Na  Na11  1  0.37754627  0.66214891  0.99686062  1
  Na  Na12  1  0.87754627  0.16214891  0.49686062  1
  Na  Na13  1  0.87754627  0.16214891  0.99686062  1
  Na  Na14  1  0.87754627  0.66214891  0.49686062  1
  Na  Na15  1  0.87754627  0.66214891  0.99686062  1
  Na  Na16  1  0.37245373  0.33785109  0.24686062  1
  Na  Na17  1  0.37245373  0.33785109  0.74686062  1
  Na  Na18  1  0.37245373  0.83785109  0.24686062  1
  Na  Na19  1  0.37245373  0.83785109  0.74686062  1
  Na  Na20  1  0.87245373  0.33785109  0.24686062  1
  Na  Na21  1  0.87245373  0.33785109  0.74686062  1
  Na  Na22  1  0.87245373  0.83785109  0.24686062  1
  Na  Na23  1  0.87245373  0.83785109  0.74686062  1
  Na  Na24  1  0.25000000  0.42374418  0.49584483  1
  Na  Na25  1  0.25000000  0.42374418  0.99584483  1
  Na  Na26  1  0.25000000  0.92374418  0.49584483  1
  Na  Na27  1  0.25000000  0.92374418  0.99584483  1
  Na  Na28  1  0.75000000  0.42374418  0.49584483  1
  Na  Na29  1  0.75000000  0.42374418  0.99584483  1
  Na  Na30  1  0.75000000  0.92374418  0.49584483  1
  Na  Na31  1  0.75000000  0.92374418  0.99584483  1
  Na  Na32  1  0.12754627  0.33785109  0.24686062  1
  Na  Na33  1  0.12754627  0.33785109  0.74686062  1
  Na  Na34  1  0.12754627  0.83785109  0.24686062  1
  Na  Na35  1  0.12754627  0.83785109  0.74686062  1
  Na  Na36  1  0.62754627  0.33785109  0.24686062  1
  Na  Na37  1  0.62754627  0.33785109  0.74686062  1
  Na  Na38  1  0.62754627  0.83785109  0.24686062  1
  Na  Na39  1  0.62754627  0.83785109  0.74686062  1
  Na  Na40  1  0.12245373  0.16214891  0.49686062  1
  Na  Na41  1  0.12245373  0.16214891  0.99686062  1
  Na  Na42  1  0.12245373  0.66214891  0.49686062  1
  Na  Na43  1  0.12245373  0.66214891  0.99686062  1
  Na  Na44  1  0.62245373  0.16214891  0.49686062  1
  Na  Na45  1  0.62245373  0.16214891  0.99686062  1
  Na  Na46  1  0.62245373  0.66214891  0.49686062  1
  Na  Na47  1  0.62245373  0.66214891  0.99686062  1
  As  As48  1  0.00000000  0.41134984  0.00127231  1
  As  As49  1  0.00000000  0.41134984  0.50127231  1
  As  As50  1  0.00000000  0.91134984  0.00127231  1
  As  As51  1  0.00000000  0.91134984  0.50127231  1
  As  As52  1  0.50000000  0.41134984  0.00127231  1
  As  As53  1  0.50000000  0.41134984  0.50127231  1
  As  As54  1  0.50000000  0.91134984  0.00127231  1
  As  As55  1  0.50000000  0.91134984  0.50127231  1
  As  As56  1  0.25000000  0.08865016  0.25127231  1
  As  As57  1  0.25000000  0.08865016  0.75127231  1
  As  As58  1  0.25000000  0.58865016  0.25127231  1
  As  As59  1  0.25000000  0.58865016  0.75127231  1
  As  As60  1  0.75000000  0.08865016  0.25127231  1
  As  As61  1  0.75000000  0.08865016  0.75127231  1
  As  As62  1  0.75000000  0.58865016  0.25127231  1
  As  As63  1  0.75000000  0.58865016  0.75127231  1
  O  O64  1  0.00000000  0.04683507  0.45197137  1
  O  O65  1  0.00000000  0.04683507  0.95197137  1
  O  O66  1  0.00000000  0.54683507  0.45197137  1
  O  O67  1  0.00000000  0.54683507  0.95197137  1
  O  O68  1  0.50000000  0.04683507  0.45197137  1
  O  O69  1  0.50000000  0.04683507  0.95197137  1
  O  O70  1  0.50000000  0.54683507  0.45197137  1
  O  O71  1  0.50000000  0.54683507  0.95197137  1
  O  O72  1  0.00000000  0.40845792  0.15629617  1
  O  O73  1  0.00000000  0.40845792  0.65629617  1
  O  O74  1  0.00000000  0.90845792  0.15629617  1
  O  O75  1  0.00000000  0.90845792  0.65629617  1
  O  O76  1  0.50000000  0.40845792  0.15629617  1
  O  O77  1  0.50000000  0.40845792  0.65629617  1
  O  O78  1  0.50000000  0.90845792  0.15629617  1
  O  O79  1  0.50000000  0.90845792  0.65629617  1
  O  O80  1  0.35119815  0.15586361  0.20051929  1
  O  O81  1  0.35119815  0.15586361  0.70051929  1
  O  O82  1  0.35119815  0.65586361  0.20051929  1
  O  O83  1  0.35119815  0.65586361  0.70051929  1
  O  O84  1  0.85119815  0.15586361  0.20051929  1
  O  O85  1  0.85119815  0.15586361  0.70051929  1
  O  O86  1  0.85119815  0.65586361  0.20051929  1
  O  O87  1  0.85119815  0.65586361  0.70051929  1
  O  O88  1  0.39880185  0.34413639  0.45051929  1
  O  O89  1  0.39880185  0.34413639  0.95051929  1
  O  O90  1  0.39880185  0.84413639  0.45051929  1
  O  O91  1  0.39880185  0.84413639  0.95051929  1
  O  O92  1  0.89880185  0.34413639  0.45051929  1
  O  O93  1  0.89880185  0.34413639  0.95051929  1
  O  O94  1  0.89880185  0.84413639  0.45051929  1
  O  O95  1  0.89880185  0.84413639  0.95051929  1
  O  O96  1  0.25000000  0.09154208  0.40629617  1
  O  O97  1  0.25000000  0.09154208  0.90629617  1
  O  O98  1  0.25000000  0.59154208  0.40629617  1
  O  O99  1  0.25000000  0.59154208  0.90629617  1
  O  O100  1  0.75000000  0.09154208  0.40629617  1
  O  O101  1  0.75000000  0.09154208  0.90629617  1
  O  O102  1  0.75000000  0.59154208  0.40629617  1
  O  O103  1  0.75000000  0.59154208  0.90629617  1
  O  O104  1  0.25000000  0.45316493  0.20197137  1
  O  O105  1  0.25000000  0.45316493  0.70197137  1
  O  O106  1  0.25000000  0.95316493  0.20197137  1
  O  O107  1  0.25000000  0.95316493  0.70197137  1
  O  O108  1  0.75000000  0.45316493  0.20197137  1
  O  O109  1  0.75000000  0.45316493  0.70197137  1
  O  O110  1  0.75000000  0.95316493  0.20197137  1
  O  O111  1  0.75000000  0.95316493  0.70197137  1
  O  O112  1  0.10119815  0.34413639  0.45051929  1
  O  O113  1  0.10119815  0.34413639  0.95051929  1
  O  O114  1  0.10119815  0.84413639  0.45051929  1
  O  O115  1  0.10119815  0.84413639  0.95051929  1
  O  O116  1  0.60119815  0.34413639  0.45051929  1
  O  O117  1  0.60119815  0.34413639  0.95051929  1
  O  O118  1  0.60119815  0.84413639  0.45051929  1
  O  O119  1  0.60119815  0.84413639  0.95051929  1
  O  O120  1  0.14880185  0.15586361  0.20051929  1
  O  O121  1  0.14880185  0.15586361  0.70051929  1
  O  O122  1  0.14880185  0.65586361  0.20051929  1
  O  O123  1  0.14880185  0.65586361  0.70051929  1
  O  O124  1  0.64880185  0.15586361  0.20051929  1
  O  O125  1  0.64880185  0.15586361  0.70051929  1
  O  O126  1  0.64880185  0.65586361  0.20051929  1
  O  O127  1  0.64880185  0.65586361  0.70051929  1
