# generated using pymatgen
data_KNaTiO3
_symmetry_space_group_name_H-M   'P 1'
_cell_length_a   11.49226399
_cell_length_b   10.97084775
_cell_length_c   10.91559175
_cell_angle_alpha   90.00000000
_cell_angle_beta   96.63442895
_cell_angle_gamma   90.00000000
_symmetry_Int_Tables_number   1
_chemical_formula_structural   KNaTiO3
_chemical_formula_sum   'K16 Na16 Ti16 O48'
_cell_volume   1367.02054274
_cell_formula_units_Z   16
loop_
 _symmetry_equiv_pos_site_id
 _symmetry_equiv_pos_as_xyz
  1  'x, y, z'
loop_
 _atom_site_type_symbol
 _atom_site_label
 _atom_site_symmetry_multiplicity
 _atom_site_fract_x
 _atom_site_fract_y
 _atom_site_fract_z
 _atom_site_occupancy
  K  K0  1  0.25000000  0.23817991  0.37500000  1
  K  K1  1  0.25000000  0.23817991  0.87500000  1
  K  K2  1  0.75000000  0.23817991  0.37500000  1
  K  K3  1  0.75000000  0.23817991  0.87500000  1
  K  K4  1  0.50000000  0.73817991  0.37500000  1
  K  K5  1  0.50000000  0.73817991  0.87500000  1
  K  K6  1  1.00000000  0.73817991  0.37500000  1
  K  K7  1  1.00000000  0.73817991  0.87500000  1
  K  K8  1  0.25000000  -0.23817991  0.12500000  1
  K  K9  1  0.25000000  -0.23817991  0.62500000  1
  K  K10  1  0.75000000  -0.23817991  0.12500000  1
  K  K11  1  0.75000000  -0.23817991  0.62500000  1
  K  K12  1  0.50000000  0.26182009  0.12500000  1
  K  K13  1  0.50000000  0.26182009  0.62500000  1
  K  K14  1  1.00000000  0.26182009  0.12500000  1
  K  K15  1  1.00000000  0.26182009  0.62500000  1
  Na  Na16  1  0.25000000  -0.07645731  0.37500000  1
  Na  Na17  1  0.25000000  -0.07645731  0.87500000  1
  Na  Na18  1  0.75000000  -0.07645731  0.37500000  1
  Na  Na19  1  0.75000000  -0.07645731  0.87500000  1
  Na  Na20  1  0.50000000  0.42354269  0.37500000  1
  Na  Na21  1  0.50000000  0.42354269  0.87500000  1
  Na  Na22  1  1.00000000  0.42354269  0.37500000  1
  Na  Na23  1  1.00000000  0.42354269  0.87500000  1
  Na  Na24  1  0.25000000  0.07645731  0.12500000  1
  Na  Na25  1  0.25000000  0.07645731  0.62500000  1
  Na  Na26  1  0.75000000  0.07645731  0.12500000  1
  Na  Na27  1  0.75000000  0.07645731  0.62500000  1
  Na  Na28  1  0.50000000  0.57645731  0.12500000  1
  Na  Na29  1  0.50000000  0.57645731  0.62500000  1
  Na  Na30  1  1.00000000  0.57645731  0.12500000  1
  Na  Na31  1  1.00000000  0.57645731  0.62500000  1
  Ti  Ti32  1  0.25000000  0.44670270  0.12500000  1
  Ti  Ti33  1  0.25000000  0.44670270  0.62500000  1
  Ti  Ti34  1  0.75000000  0.44670270  0.12500000  1
  Ti  Ti35  1  0.75000000  0.44670270  0.62500000  1
  Ti  Ti36  1  0.50000000  0.94670270  0.12500000  1
  Ti  Ti37  1  0.50000000  0.94670270  0.62500000  1
  Ti  Ti38  1  1.00000000  0.94670270  0.12500000  1
  Ti  Ti39  1  1.00000000  0.94670270  0.62500000  1
  Ti  Ti40  1  0.25000000  -0.44670270  0.37500000  1
  Ti  Ti41  1  0.25000000  -0.44670270  0.87500000  1
  Ti  Ti42  1  0.75000000  -0.44670270  0.37500000  1
  Ti  Ti43  1  0.75000000  -0.44670270  0.87500000  1
  Ti  Ti44  1  0.50000000  0.05329730  0.37500000  1
  Ti  Ti45  1  0.50000000  0.05329730  0.87500000  1
  Ti  Ti46  1  1.00000000  0.05329730  0.37500000  1
  Ti  Ti47  1  1.00000000  0.05329730  0.87500000  1
  O  O48  1  0.10899637  -0.02263523  0.49862610  1
  O  O49  1  0.10899637  -0.02263523  0.99862610  1
  O  O50  1  0.60899637  -0.02263523  0.49862610  1
  O  O51  1  0.60899637  -0.02263523  0.99862610  1
  O  O52  1  0.35899637  0.47736477  0.49862610  1
  O  O53  1  0.35899637  0.47736477  0.99862610  1
  O  O54  1  0.85899637  0.47736477  0.49862610  1
  O  O55  1  0.85899637  0.47736477  0.99862610  1
  O  O56  1  0.10899637  0.02263523  0.24862610  1
  O  O57  1  0.10899637  0.02263523  0.74862610  1
  O  O58  1  0.60899637  0.02263523  0.24862610  1
  O  O59  1  0.60899637  0.02263523  0.74862610  1
  O  O60  1  0.35899637  0.52263523  0.24862610  1
  O  O61  1  0.35899637  0.52263523  0.74862610  1
  O  O62  1  0.85899637  0.52263523  0.24862610  1
  O  O63  1  0.85899637  0.52263523  0.74862610  1
  O  O64  1  0.39100363  -0.02263523  0.25137390  1
  O  O65  1  0.39100363  -0.02263523  0.75137390  1
  O  O66  1  0.89100363  -0.02263523  0.25137390  1
  O  O67  1  0.89100363  -0.02263523  0.75137390  1
  O  O68  1  0.64100363  0.47736477  0.25137390  1
  O  O69  1  0.64100363  0.47736477  0.75137390  1
  O  O70  1  1.14100363  0.47736477  0.25137390  1
  O  O71  1  1.14100363  0.47736477  0.75137390  1
  O  O72  1  0.39100363  0.02263523  0.00137390  1
  O  O73  1  0.39100363  0.02263523  0.50137390  1
  O  O74  1  0.89100363  0.02263523  0.00137390  1
  O  O75  1  0.89100363  0.02263523  0.50137390  1
  O  O76  1  0.64100363  0.52263523  0.00137390  1
  O  O77  1  0.64100363  0.52263523  0.50137390  1
  O  O78  1  1.14100363  0.52263523  0.00137390  1
  O  O79  1  1.14100363  0.52263523  0.50137390  1
  O  O80  1  0.25000000  -0.28329184  0.37500000  1
  O  O81  1  0.25000000  -0.28329184  0.87500000  1
  O  O82  1  0.75000000  -0.28329184  0.37500000  1
  O  O83  1  0.75000000  -0.28329184  0.87500000  1
  O  O84  1  0.50000000  0.21670816  0.37500000  1
  O  O85  1  0.50000000  0.21670816  0.87500000  1
  O  O86  1  1.00000000  0.21670816  0.37500000  1
  O  O87  1  1.00000000  0.21670816  0.87500000  1
  O  O88  1  0.25000000  0.28329184  0.12500000  1
  O  O89  1  0.25000000  0.28329184  0.62500000  1
  O  O90  1  0.75000000  0.28329184  0.12500000  1
  O  O91  1  0.75000000  0.28329184  0.62500000  1
  O  O92  1  0.50000000  0.78329184  0.12500000  1
  O  O93  1  0.50000000  0.78329184  0.62500000  1
  O  O94  1  1.00000000  0.78329184  0.12500000  1
  O  O95  1  1.00000000  0.78329184  0.62500000  1
