# generated using pymatgen
data_B2O3
_symmetry_space_group_name_H-M   'P 1'
_cell_length_a   8.70001737
_cell_length_b   8.70001737
_cell_length_c   8.33779764
_cell_angle_alpha   90.00000000
_cell_angle_beta   90.00000000
_cell_angle_gamma   120.00000000
_symmetry_Int_Tables_number   1
_chemical_formula_structural   B2O3
_chemical_formula_sum   'B24 O36'
_cell_volume   546.54033831
_cell_formula_units_Z   12
loop_
 _symmetry_equiv_pos_site_id
 _symmetry_equiv_pos_as_xyz
  1  'x, y, z'
loop_
 _atom_site_type_symbol
 _atom_site_label
 _atom_site_symmetry_multiplicity
 _atom_site_fract_x
 _atom_site_fract_y
 _atom_site_fract_z
 _atom_site_occupancy
  B  B0  1  0.38296003  0.30114412  0.77459062  1
  B  B1  1  0.38296003  0.80114412  0.77459062  1
  B  B2  1  0.88296003  0.30114412  0.77459062  1
  B  B3  1  0.88296003  0.80114412  0.77459062  1
  B  B4  1  0.41818409  0.11703997  0.44125729  1
  B  B5  1  0.41818409  0.61703997  0.44125729  1
  B  B6  1  0.91818409  0.11703997  0.44125729  1
  B  B7  1  0.91818409  0.61703997  0.44125729  1
  B  B8  1  0.19885588  0.08181591  0.10792395  1
  B  B9  1  0.19885588  0.58181591  0.10792395  1
  B  B10  1  0.69885588  0.08181591  0.10792395  1
  B  B11  1  0.69885588  0.58181591  0.10792395  1
  B  B12  1  0.11703997  0.41818409  0.55874271  1
  B  B13  1  0.11703997  0.91818409  0.55874271  1
  B  B14  1  0.61703997  0.41818409  0.55874271  1
  B  B15  1  0.61703997  0.91818409  0.55874271  1
  B  B16  1  0.30114412  0.38296003  0.22540938  1
  B  B17  1  0.30114412  0.88296003  0.22540938  1
  B  B18  1  0.80114412  0.38296003  0.22540938  1
  B  B19  1  0.80114412  0.88296003  0.22540938  1
  B  B20  1  0.08181591  0.19885588  0.89207605  1
  B  B21  1  0.08181591  0.69885588  0.89207605  1
  B  B22  1  0.58181591  0.19885588  0.89207605  1
  B  B23  1  0.58181591  0.69885588  0.89207605  1
  O  O24  1  0.07458274  0.27566612  0.45999569  1
  O  O25  1  0.07458274  0.77566612  0.45999569  1
  O  O26  1  0.57458274  0.27566612  0.45999569  1
  O  O27  1  0.57458274  0.77566612  0.45999569  1
  O  O28  1  0.22433388  0.29891663  0.79332902  1
  O  O29  1  0.22433388  0.79891663  0.79332902  1
  O  O30  1  0.72433388  0.29891663  0.79332902  1
  O  O31  1  0.72433388  0.79891663  0.79332902  1
  O  O32  1  0.20108337  0.42541726  0.12666236  1
  O  O33  1  0.20108337  0.92541726  0.12666236  1
  O  O34  1  0.70108337  0.42541726  0.12666236  1
  O  O35  1  0.70108337  0.92541726  0.12666236  1
  O  O36  1  0.00000000  0.42127809  0.66666667  1
  O  O37  1  -0.00000000  0.92127809  0.66666667  1
  O  O38  1  0.50000000  0.42127809  0.66666667  1
  O  O39  1  0.50000000  0.92127809  0.66666667  1
  O  O40  1  0.42127809  0.00000000  0.33333333  1
  O  O41  1  0.42127809  0.50000000  0.33333333  1
  O  O42  1  0.92127809  0.00000000  0.33333333  1
  O  O43  1  0.92127809  0.50000000  0.33333333  1
  O  O44  1  0.07872191  0.07872191  0.00000000  1
  O  O45  1  0.07872191  0.57872191  0.00000000  1
  O  O46  1  0.57872191  0.07872191  0.00000000  1
  O  O47  1  0.57872191  0.57872191  0.00000000  1
  O  O48  1  0.27566612  0.07458274  0.54000431  1
  O  O49  1  0.27566612  0.57458274  0.54000431  1
  O  O50  1  0.77566612  0.07458274  0.54000431  1
  O  O51  1  0.77566612  0.57458274  0.54000431  1
  O  O52  1  0.29891663  0.22433388  0.20667098  1
  O  O53  1  0.29891663  0.72433388  0.20667098  1
  O  O54  1  0.79891663  0.22433388  0.20667098  1
  O  O55  1  0.79891663  0.72433388  0.20667098  1
  O  O56  1  0.42541726  0.20108337  0.87333764  1
  O  O57  1  0.42541726  0.70108337  0.87333764  1
  O  O58  1  0.92541726  0.20108337  0.87333764  1
  O  O59  1  0.92541726  0.70108337  0.87333764  1
