# generated using pymatgen
data_Li4TiO4
_symmetry_space_group_name_H-M   'P 1'
_cell_length_a   15.84857658
_cell_length_b   14.79317253
_cell_length_c   18.40336079
_cell_angle_alpha   90.00000000
_cell_angle_beta   90.00000000
_cell_angle_gamma   90.00000000
_symmetry_Int_Tables_number   1
_chemical_formula_structural   Li4TiO4
_chemical_formula_sum   'Li192 Ti48 O192'
_cell_volume   4314.68132806
_cell_formula_units_Z   48
loop_
 _symmetry_equiv_pos_site_id
 _symmetry_equiv_pos_as_xyz
  1  'x, y, z'
loop_
 _atom_site_type_symbol
 _atom_site_label
 _atom_site_symmetry_multiplicity
 _atom_site_fract_x
 _atom_site_fract_y
 _atom_site_fract_z
 _atom_site_occupancy
  Li  Li0  1  0.42058133  -0.00000000  0.00000000  1
  Li  Li1  1  0.42058133  -0.00000000  0.33333333  1
  Li  Li2  1  0.42058133  -0.00000000  0.66666667  1
  Li  Li3  1  0.42058133  0.50000000  0.00000000  1
  Li  Li4  1  0.42058133  0.50000000  0.33333333  1
  Li  Li5  1  0.42058133  0.50000000  0.66666667  1
  Li  Li6  1  0.92058133  -0.00000000  0.00000000  1
  Li  Li7  1  0.92058133  -0.00000000  0.33333333  1
  Li  Li8  1  0.92058133  -0.00000000  0.66666667  1
  Li  Li9  1  0.92058133  0.50000000  0.00000000  1
  Li  Li10  1  0.92058133  0.50000000  0.33333333  1
  Li  Li11  1  0.92058133  0.50000000  0.66666667  1
  Li  Li12  1  0.67058133  0.25000000  0.00000000  1
  Li  Li13  1  0.67058133  0.25000000  0.33333333  1
  Li  Li14  1  0.67058133  0.25000000  0.66666667  1
  Li  Li15  1  0.67058133  0.75000000  0.00000000  1
  Li  Li16  1  0.67058133  0.75000000  0.33333333  1
  Li  Li17  1  0.67058133  0.75000000  0.66666667  1
  Li  Li18  1  1.17058133  0.25000000  0.00000000  1
  Li  Li19  1  1.17058133  0.25000000  0.33333333  1
  Li  Li20  1  1.17058133  0.25000000  0.66666667  1
  Li  Li21  1  1.17058133  0.75000000  0.00000000  1
  Li  Li22  1  1.17058133  0.75000000  0.33333333  1
  Li  Li23  1  1.17058133  0.75000000  0.66666667  1
  Li  Li24  1  0.07941867  -0.00000000  0.16666667  1
  Li  Li25  1  0.07941867  -0.00000000  0.50000000  1
  Li  Li26  1  0.07941867  -0.00000000  0.83333333  1
  Li  Li27  1  0.07941867  0.50000000  0.16666667  1
  Li  Li28  1  0.07941867  0.50000000  0.50000000  1
  Li  Li29  1  0.07941867  0.50000000  0.83333333  1
  Li  Li30  1  0.57941867  -0.00000000  0.16666667  1
  Li  Li31  1  0.57941867  -0.00000000  0.50000000  1
  Li  Li32  1  0.57941867  -0.00000000  0.83333333  1
  Li  Li33  1  0.57941867  0.50000000  0.16666667  1
  Li  Li34  1  0.57941867  0.50000000  0.50000000  1
  Li  Li35  1  0.57941867  0.50000000  0.83333333  1
  Li  Li36  1  0.32941867  0.25000000  0.16666667  1
  Li  Li37  1  0.32941867  0.25000000  0.50000000  1
  Li  Li38  1  0.32941867  0.25000000  0.83333333  1
  Li  Li39  1  0.32941867  0.75000000  0.16666667  1
  Li  Li40  1  0.32941867  0.75000000  0.50000000  1
  Li  Li41  1  0.32941867  0.75000000  0.83333333  1
  Li  Li42  1  0.82941867  0.25000000  0.16666667  1
  Li  Li43  1  0.82941867  0.25000000  0.50000000  1
  Li  Li44  1  0.82941867  0.25000000  0.83333333  1
  Li  Li45  1  0.82941867  0.75000000  0.16666667  1
  Li  Li46  1  0.82941867  0.75000000  0.50000000  1
  Li  Li47  1  0.82941867  0.75000000  0.83333333  1
  Li  Li48  1  0.07941867  -0.00000000  0.00000000  1
  Li  Li49  1  0.07941867  -0.00000000  0.33333333  1
  Li  Li50  1  0.07941867  -0.00000000  0.66666667  1
  Li  Li51  1  0.07941867  0.50000000  0.00000000  1
  Li  Li52  1  0.07941867  0.50000000  0.33333333  1
  Li  Li53  1  0.07941867  0.50000000  0.66666667  1
  Li  Li54  1  0.57941867  -0.00000000  0.00000000  1
  Li  Li55  1  0.57941867  -0.00000000  0.33333333  1
  Li  Li56  1  0.57941867  -0.00000000  0.66666667  1
  Li  Li57  1  0.57941867  0.50000000  0.00000000  1
  Li  Li58  1  0.57941867  0.50000000  0.33333333  1
  Li  Li59  1  0.57941867  0.50000000  0.66666667  1
  Li  Li60  1  0.32941867  0.25000000  0.00000000  1
  Li  Li61  1  0.32941867  0.25000000  0.33333333  1
  Li  Li62  1  0.32941867  0.25000000  0.66666667  1
  Li  Li63  1  0.32941867  0.75000000  0.00000000  1
  Li  Li64  1  0.32941867  0.75000000  0.33333333  1
  Li  Li65  1  0.32941867  0.75000000  0.66666667  1
  Li  Li66  1  0.82941867  0.25000000  0.00000000  1
  Li  Li67  1  0.82941867  0.25000000  0.33333333  1
  Li  Li68  1  0.82941867  0.25000000  0.66666667  1
  Li  Li69  1  0.82941867  0.75000000  0.00000000  1
  Li  Li70  1  0.82941867  0.75000000  0.33333333  1
  Li  Li71  1  0.82941867  0.75000000  0.66666667  1
  Li  Li72  1  0.42058133  -0.00000000  0.16666667  1
  Li  Li73  1  0.42058133  -0.00000000  0.50000000  1
  Li  Li74  1  0.42058133  -0.00000000  0.83333333  1
  Li  Li75  1  0.42058133  0.50000000  0.16666667  1
  Li  Li76  1  0.42058133  0.50000000  0.50000000  1
  Li  Li77  1  0.42058133  0.50000000  0.83333333  1
  Li  Li78  1  0.92058133  -0.00000000  0.16666667  1
  Li  Li79  1  0.92058133  -0.00000000  0.50000000  1
  Li  Li80  1  0.92058133  -0.00000000  0.83333333  1
  Li  Li81  1  0.92058133  0.50000000  0.16666667  1
  Li  Li82  1  0.92058133  0.50000000  0.50000000  1
  Li  Li83  1  0.92058133  0.50000000  0.83333333  1
  Li  Li84  1  0.67058133  0.25000000  0.16666667  1
  Li  Li85  1  0.67058133  0.25000000  0.50000000  1
  Li  Li86  1  0.67058133  0.25000000  0.83333333  1
  Li  Li87  1  0.67058133  0.75000000  0.16666667  1
  Li  Li88  1  0.67058133  0.75000000  0.50000000  1
  Li  Li89  1  0.67058133  0.75000000  0.83333333  1
  Li  Li90  1  1.17058133  0.25000000  0.16666667  1
  Li  Li91  1  1.17058133  0.25000000  0.50000000  1
  Li  Li92  1  1.17058133  0.25000000  0.83333333  1
  Li  Li93  1  1.17058133  0.75000000  0.16666667  1
  Li  Li94  1  1.17058133  0.75000000  0.50000000  1
  Li  Li95  1  1.17058133  0.75000000  0.83333333  1
  Li  Li96  1  0.32323020  0.11523955  0.08333333  1
  Li  Li97  1  0.32323020  0.11523955  0.41666667  1
  Li  Li98  1  0.32323020  0.11523955  0.75000000  1
  Li  Li99  1  0.32323020  0.61523955  0.08333333  1
  Li  Li100  1  0.32323020  0.61523955  0.41666667  1
  Li  Li101  1  0.32323020  0.61523955  0.75000000  1
  Li  Li102  1  0.82323020  0.11523955  0.08333333  1
  Li  Li103  1  0.82323020  0.11523955  0.41666667  1
  Li  Li104  1  0.82323020  0.11523955  0.75000000  1
  Li  Li105  1  0.82323020  0.61523955  0.08333333  1
  Li  Li106  1  0.82323020  0.61523955  0.41666667  1
  Li  Li107  1  0.82323020  0.61523955  0.75000000  1
  Li  Li108  1  0.57323020  0.36523955  0.08333333  1
  Li  Li109  1  0.57323020  0.36523955  0.41666667  1
  Li  Li110  1  0.57323020  0.36523955  0.75000000  1
  Li  Li111  1  0.57323020  0.86523955  0.08333333  1
  Li  Li112  1  0.57323020  0.86523955  0.41666667  1
  Li  Li113  1  0.57323020  0.86523955  0.75000000  1
  Li  Li114  1  1.07323020  0.36523955  0.08333333  1
  Li  Li115  1  1.07323020  0.36523955  0.41666667  1
  Li  Li116  1  1.07323020  0.36523955  0.75000000  1
  Li  Li117  1  1.07323020  0.86523955  0.08333333  1
  Li  Li118  1  1.07323020  0.86523955  0.41666667  1
  Li  Li119  1  1.07323020  0.86523955  0.75000000  1
  Li  Li120  1  0.17676980  -0.11523955  0.25000000  1
  Li  Li121  1  0.17676980  -0.11523955  0.58333333  1
  Li  Li122  1  0.17676980  -0.11523955  0.91666667  1
  Li  Li123  1  0.17676980  0.38476045  0.25000000  1
  Li  Li124  1  0.17676980  0.38476045  0.58333333  1
  Li  Li125  1  0.17676980  0.38476045  0.91666667  1
  Li  Li126  1  0.67676980  -0.11523955  0.25000000  1
  Li  Li127  1  0.67676980  -0.11523955  0.58333333  1
  Li  Li128  1  0.67676980  -0.11523955  0.91666667  1
  Li  Li129  1  0.67676980  0.38476045  0.25000000  1
  Li  Li130  1  0.67676980  0.38476045  0.58333333  1
  Li  Li131  1  0.67676980  0.38476045  0.91666667  1
  Li  Li132  1  0.42676980  0.13476045  0.25000000  1
  Li  Li133  1  0.42676980  0.13476045  0.58333333  1
  Li  Li134  1  0.42676980  0.13476045  0.91666667  1
  Li  Li135  1  0.42676980  0.63476045  0.25000000  1
  Li  Li136  1  0.42676980  0.63476045  0.58333333  1
  Li  Li137  1  0.42676980  0.63476045  0.91666667  1
  Li  Li138  1  0.92676980  0.13476045  0.25000000  1
  Li  Li139  1  0.92676980  0.13476045  0.58333333  1
  Li  Li140  1  0.92676980  0.13476045  0.91666667  1
  Li  Li141  1  0.92676980  0.63476045  0.25000000  1
  Li  Li142  1  0.92676980  0.63476045  0.58333333  1
  Li  Li143  1  0.92676980  0.63476045  0.91666667  1
  Li  Li144  1  0.17676980  0.11523955  0.08333333  1
  Li  Li145  1  0.17676980  0.11523955  0.41666667  1
  Li  Li146  1  0.17676980  0.11523955  0.75000000  1
  Li  Li147  1  0.17676980  0.61523955  0.08333333  1
  Li  Li148  1  0.17676980  0.61523955  0.41666667  1
  Li  Li149  1  0.17676980  0.61523955  0.75000000  1
  Li  Li150  1  0.67676980  0.11523955  0.08333333  1
  Li  Li151  1  0.67676980  0.11523955  0.41666667  1
  Li  Li152  1  0.67676980  0.11523955  0.75000000  1
  Li  Li153  1  0.67676980  0.61523955  0.08333333  1
  Li  Li154  1  0.67676980  0.61523955  0.41666667  1
  Li  Li155  1  0.67676980  0.61523955  0.75000000  1
  Li  Li156  1  0.42676980  0.36523955  0.08333333  1
  Li  Li157  1  0.42676980  0.36523955  0.41666667  1
  Li  Li158  1  0.42676980  0.36523955  0.75000000  1
  Li  Li159  1  0.42676980  0.86523955  0.08333333  1
  Li  Li160  1  0.42676980  0.86523955  0.41666667  1
  Li  Li161  1  0.42676980  0.86523955  0.75000000  1
  Li  Li162  1  0.92676980  0.36523955  0.08333333  1
  Li  Li163  1  0.92676980  0.36523955  0.41666667  1
  Li  Li164  1  0.92676980  0.36523955  0.75000000  1
  Li  Li165  1  0.92676980  0.86523955  0.08333333  1
  Li  Li166  1  0.92676980  0.86523955  0.41666667  1
  Li  Li167  1  0.92676980  0.86523955  0.75000000  1
  Li  Li168  1  0.32323020  -0.11523955  0.25000000  1
  Li  Li169  1  0.32323020  -0.11523955  0.58333333  1
  Li  Li170  1  0.32323020  -0.11523955  0.91666667  1
  Li  Li171  1  0.32323020  0.38476045  0.25000000  1
  Li  Li172  1  0.32323020  0.38476045  0.58333333  1
  Li  Li173  1  0.32323020  0.38476045  0.91666667  1
  Li  Li174  1  0.82323020  -0.11523955  0.25000000  1
  Li  Li175  1  0.82323020  -0.11523955  0.58333333  1
  Li  Li176  1  0.82323020  -0.11523955  0.91666667  1
  Li  Li177  1  0.82323020  0.38476045  0.25000000  1
  Li  Li178  1  0.82323020  0.38476045  0.58333333  1
  Li  Li179  1  0.82323020  0.38476045  0.91666667  1
  Li  Li180  1  0.57323020  0.13476045  0.25000000  1
  Li  Li181  1  0.57323020  0.13476045  0.58333333  1
  Li  Li182  1  0.57323020  0.13476045  0.91666667  1
  Li  Li183  1  0.57323020  0.63476045  0.25000000  1
  Li  Li184  1  0.57323020  0.63476045  0.58333333  1
  Li  Li185  1  0.57323020  0.63476045  0.91666667  1
  Li  Li186  1  1.07323020  0.13476045  0.25000000  1
  Li  Li187  1  1.07323020  0.13476045  0.58333333  1
  Li  Li188  1  1.07323020  0.13476045  0.91666667  1
  Li  Li189  1  1.07323020  0.63476045  0.25000000  1
  Li  Li190  1  1.07323020  0.63476045  0.58333333  1
  Li  Li191  1  1.07323020  0.63476045  0.91666667  1
  Ti  Ti192  1  0.25000000  -0.07934335  0.08333333  1
  Ti  Ti193  1  0.25000000  -0.07934335  0.41666667  1
  Ti  Ti194  1  0.25000000  -0.07934335  0.75000000  1
  Ti  Ti195  1  0.25000000  0.42065665  0.08333333  1
  Ti  Ti196  1  0.25000000  0.42065665  0.41666667  1
  Ti  Ti197  1  0.25000000  0.42065665  0.75000000  1
  Ti  Ti198  1  0.75000000  -0.07934335  0.08333333  1
  Ti  Ti199  1  0.75000000  -0.07934335  0.41666667  1
  Ti  Ti200  1  0.75000000  -0.07934335  0.75000000  1
  Ti  Ti201  1  0.75000000  0.42065665  0.08333333  1
  Ti  Ti202  1  0.75000000  0.42065665  0.41666667  1
  Ti  Ti203  1  0.75000000  0.42065665  0.75000000  1
  Ti  Ti204  1  0.50000000  0.17065665  0.08333333  1
  Ti  Ti205  1  0.50000000  0.17065665  0.41666667  1
  Ti  Ti206  1  0.50000000  0.17065665  0.75000000  1
  Ti  Ti207  1  0.50000000  0.67065665  0.08333333  1
  Ti  Ti208  1  0.50000000  0.67065665  0.41666667  1
  Ti  Ti209  1  0.50000000  0.67065665  0.75000000  1
  Ti  Ti210  1  1.00000000  0.17065665  0.08333333  1
  Ti  Ti211  1  1.00000000  0.17065665  0.41666667  1
  Ti  Ti212  1  1.00000000  0.17065665  0.75000000  1
  Ti  Ti213  1  1.00000000  0.67065665  0.08333333  1
  Ti  Ti214  1  1.00000000  0.67065665  0.41666667  1
  Ti  Ti215  1  1.00000000  0.67065665  0.75000000  1
  Ti  Ti216  1  0.25000000  0.07934335  0.25000000  1
  Ti  Ti217  1  0.25000000  0.07934335  0.58333333  1
  Ti  Ti218  1  0.25000000  0.07934335  0.91666667  1
  Ti  Ti219  1  0.25000000  0.57934335  0.25000000  1
  Ti  Ti220  1  0.25000000  0.57934335  0.58333333  1
  Ti  Ti221  1  0.25000000  0.57934335  0.91666667  1
  Ti  Ti222  1  0.75000000  0.07934335  0.25000000  1
  Ti  Ti223  1  0.75000000  0.07934335  0.58333333  1
  Ti  Ti224  1  0.75000000  0.07934335  0.91666667  1
  Ti  Ti225  1  0.75000000  0.57934335  0.25000000  1
  Ti  Ti226  1  0.75000000  0.57934335  0.58333333  1
  Ti  Ti227  1  0.75000000  0.57934335  0.91666667  1
  Ti  Ti228  1  0.50000000  0.32934335  0.25000000  1
  Ti  Ti229  1  0.50000000  0.32934335  0.58333333  1
  Ti  Ti230  1  0.50000000  0.32934335  0.91666667  1
  Ti  Ti231  1  0.50000000  0.82934335  0.25000000  1
  Ti  Ti232  1  0.50000000  0.82934335  0.58333333  1
  Ti  Ti233  1  0.50000000  0.82934335  0.91666667  1
  Ti  Ti234  1  1.00000000  0.32934335  0.25000000  1
  Ti  Ti235  1  1.00000000  0.32934335  0.58333333  1
  Ti  Ti236  1  1.00000000  0.32934335  0.91666667  1
  Ti  Ti237  1  1.00000000  0.82934335  0.25000000  1
  Ti  Ti238  1  1.00000000  0.82934335  0.58333333  1
  Ti  Ti239  1  1.00000000  0.82934335  0.91666667  1
  O  O240  1  0.34967572  -0.01529514  0.08333333  1
  O  O241  1  0.34967572  -0.01529514  0.41666667  1
  O  O242  1  0.34967572  -0.01529514  0.75000000  1
  O  O243  1  0.34967572  0.48470486  0.08333333  1
  O  O244  1  0.34967572  0.48470486  0.41666667  1
  O  O245  1  0.34967572  0.48470486  0.75000000  1
  O  O246  1  0.84967572  -0.01529514  0.08333333  1
  O  O247  1  0.84967572  -0.01529514  0.41666667  1
  O  O248  1  0.84967572  -0.01529514  0.75000000  1
  O  O249  1  0.84967572  0.48470486  0.08333333  1
  O  O250  1  0.84967572  0.48470486  0.41666667  1
  O  O251  1  0.84967572  0.48470486  0.75000000  1
  O  O252  1  0.59967572  0.23470486  0.08333333  1
  O  O253  1  0.59967572  0.23470486  0.41666667  1
  O  O254  1  0.59967572  0.23470486  0.75000000  1
  O  O255  1  0.59967572  0.73470486  0.08333333  1
  O  O256  1  0.59967572  0.73470486  0.41666667  1
  O  O257  1  0.59967572  0.73470486  0.75000000  1
  O  O258  1  1.09967572  0.23470486  0.08333333  1
  O  O259  1  1.09967572  0.23470486  0.41666667  1
  O  O260  1  1.09967572  0.23470486  0.75000000  1
  O  O261  1  1.09967572  0.73470486  0.08333333  1
  O  O262  1  1.09967572  0.73470486  0.41666667  1
  O  O263  1  1.09967572  0.73470486  0.75000000  1
  O  O264  1  0.15032428  0.01529514  0.25000000  1
  O  O265  1  0.15032428  0.01529514  0.58333333  1
  O  O266  1  0.15032428  0.01529514  0.91666667  1
  O  O267  1  0.15032428  0.51529514  0.25000000  1
  O  O268  1  0.15032428  0.51529514  0.58333333  1
  O  O269  1  0.15032428  0.51529514  0.91666667  1
  O  O270  1  0.65032428  0.01529514  0.25000000  1
  O  O271  1  0.65032428  0.01529514  0.58333333  1
  O  O272  1  0.65032428  0.01529514  0.91666667  1
  O  O273  1  0.65032428  0.51529514  0.25000000  1
  O  O274  1  0.65032428  0.51529514  0.58333333  1
  O  O275  1  0.65032428  0.51529514  0.91666667  1
  O  O276  1  0.40032428  0.26529514  0.25000000  1
  O  O277  1  0.40032428  0.26529514  0.58333333  1
  O  O278  1  0.40032428  0.26529514  0.91666667  1
  O  O279  1  0.40032428  0.76529514  0.25000000  1
  O  O280  1  0.40032428  0.76529514  0.58333333  1
  O  O281  1  0.40032428  0.76529514  0.91666667  1
  O  O282  1  0.90032428  0.26529514  0.25000000  1
  O  O283  1  0.90032428  0.26529514  0.58333333  1
  O  O284  1  0.90032428  0.26529514  0.91666667  1
  O  O285  1  0.90032428  0.76529514  0.25000000  1
  O  O286  1  0.90032428  0.76529514  0.58333333  1
  O  O287  1  0.90032428  0.76529514  0.91666667  1
  O  O288  1  0.25000000  -0.14875052  0.00000267  1
  O  O289  1  0.25000000  -0.14875052  0.33333601  1
  O  O290  1  0.25000000  -0.14875052  0.66666934  1
  O  O291  1  0.25000000  0.35124948  0.00000267  1
  O  O292  1  0.25000000  0.35124948  0.33333601  1
  O  O293  1  0.25000000  0.35124948  0.66666934  1
  O  O294  1  0.75000000  -0.14875052  0.00000267  1
  O  O295  1  0.75000000  -0.14875052  0.33333601  1
  O  O296  1  0.75000000  -0.14875052  0.66666934  1
  O  O297  1  0.75000000  0.35124948  0.00000267  1
  O  O298  1  0.75000000  0.35124948  0.33333601  1
  O  O299  1  0.75000000  0.35124948  0.66666934  1
  O  O300  1  0.50000000  0.10124948  0.00000267  1
  O  O301  1  0.50000000  0.10124948  0.33333601  1
  O  O302  1  0.50000000  0.10124948  0.66666934  1
  O  O303  1  0.50000000  0.60124948  0.00000267  1
  O  O304  1  0.50000000  0.60124948  0.33333601  1
  O  O305  1  0.50000000  0.60124948  0.66666934  1
  O  O306  1  1.00000000  0.10124948  0.00000267  1
  O  O307  1  1.00000000  0.10124948  0.33333601  1
  O  O308  1  1.00000000  0.10124948  0.66666934  1
  O  O309  1  1.00000000  0.60124948  0.00000267  1
  O  O310  1  1.00000000  0.60124948  0.33333601  1
  O  O311  1  1.00000000  0.60124948  0.66666934  1
  O  O312  1  0.25000000  0.14875052  0.16666934  1
  O  O313  1  0.25000000  0.14875052  0.50000267  1
  O  O314  1  0.25000000  0.14875052  0.83333601  1
  O  O315  1  0.25000000  0.64875052  0.16666934  1
  O  O316  1  0.25000000  0.64875052  0.50000267  1
  O  O317  1  0.25000000  0.64875052  0.83333601  1
  O  O318  1  0.75000000  0.14875052  0.16666934  1
  O  O319  1  0.75000000  0.14875052  0.50000267  1
  O  O320  1  0.75000000  0.14875052  0.83333601  1
  O  O321  1  0.75000000  0.64875052  0.16666934  1
  O  O322  1  0.75000000  0.64875052  0.50000267  1
  O  O323  1  0.75000000  0.64875052  0.83333601  1
  O  O324  1  0.50000000  0.39875052  0.16666934  1
  O  O325  1  0.50000000  0.39875052  0.50000267  1
  O  O326  1  0.50000000  0.39875052  0.83333601  1
  O  O327  1  0.50000000  0.89875052  0.16666934  1
  O  O328  1  0.50000000  0.89875052  0.50000267  1
  O  O329  1  0.50000000  0.89875052  0.83333601  1
  O  O330  1  1.00000000  0.39875052  0.16666934  1
  O  O331  1  1.00000000  0.39875052  0.50000267  1
  O  O332  1  1.00000000  0.39875052  0.83333601  1
  O  O333  1  1.00000000  0.89875052  0.16666934  1
  O  O334  1  1.00000000  0.89875052  0.50000267  1
  O  O335  1  1.00000000  0.89875052  0.83333601  1
  O  O336  1  0.25000000  -0.14875052  0.16666399  1
  O  O337  1  0.25000000  -0.14875052  0.49999733  1
  O  O338  1  0.25000000  -0.14875052  0.83333066  1
  O  O339  1  0.25000000  0.35124948  0.16666399  1
  O  O340  1  0.25000000  0.35124948  0.49999733  1
  O  O341  1  0.25000000  0.35124948  0.83333066  1
  O  O342  1  0.75000000  -0.14875052  0.16666399  1
  O  O343  1  0.75000000  -0.14875052  0.49999733  1
  O  O344  1  0.75000000  -0.14875052  0.83333066  1
  O  O345  1  0.75000000  0.35124948  0.16666399  1
  O  O346  1  0.75000000  0.35124948  0.49999733  1
  O  O347  1  0.75000000  0.35124948  0.83333066  1
  O  O348  1  0.50000000  0.10124948  0.16666399  1
  O  O349  1  0.50000000  0.10124948  0.49999733  1
  O  O350  1  0.50000000  0.10124948  0.83333066  1
  O  O351  1  0.50000000  0.60124948  0.16666399  1
  O  O352  1  0.50000000  0.60124948  0.49999733  1
  O  O353  1  0.50000000  0.60124948  0.83333066  1
  O  O354  1  1.00000000  0.10124948  0.16666399  1
  O  O355  1  1.00000000  0.10124948  0.49999733  1
  O  O356  1  1.00000000  0.10124948  0.83333066  1
  O  O357  1  1.00000000  0.60124948  0.16666399  1
  O  O358  1  1.00000000  0.60124948  0.49999733  1
  O  O359  1  1.00000000  0.60124948  0.83333066  1
  O  O360  1  0.25000000  0.14875052  0.33333066  1
  O  O361  1  0.25000000  0.14875052  0.66666399  1
  O  O362  1  0.25000000  0.14875052  0.99999733  1
  O  O363  1  0.25000000  0.64875052  0.33333066  1
  O  O364  1  0.25000000  0.64875052  0.66666399  1
  O  O365  1  0.25000000  0.64875052  0.99999733  1
  O  O366  1  0.75000000  0.14875052  0.33333066  1
  O  O367  1  0.75000000  0.14875052  0.66666399  1
  O  O368  1  0.75000000  0.14875052  0.99999733  1
  O  O369  1  0.75000000  0.64875052  0.33333066  1
  O  O370  1  0.75000000  0.64875052  0.66666399  1
  O  O371  1  0.75000000  0.64875052  0.99999733  1
  O  O372  1  0.50000000  0.39875052  0.33333066  1
  O  O373  1  0.50000000  0.39875052  0.66666399  1
  O  O374  1  0.50000000  0.39875052  0.99999733  1
  O  O375  1  0.50000000  0.89875052  0.33333066  1
  O  O376  1  0.50000000  0.89875052  0.66666399  1
  O  O377  1  0.50000000  0.89875052  0.99999733  1
  O  O378  1  1.00000000  0.39875052  0.33333066  1
  O  O379  1  1.00000000  0.39875052  0.66666399  1
  O  O380  1  1.00000000  0.39875052  0.99999733  1
  O  O381  1  1.00000000  0.89875052  0.33333066  1
  O  O382  1  1.00000000  0.89875052  0.66666399  1
  O  O383  1  1.00000000  0.89875052  0.99999733  1
  O  O384  1  0.15032428  -0.01529514  0.08333333  1
  O  O385  1  0.15032428  -0.01529514  0.41666667  1
  O  O386  1  0.15032428  -0.01529514  0.75000000  1
  O  O387  1  0.15032428  0.48470486  0.08333333  1
  O  O388  1  0.15032428  0.48470486  0.41666667  1
  O  O389  1  0.15032428  0.48470486  0.75000000  1
  O  O390  1  0.65032428  -0.01529514  0.08333333  1
  O  O391  1  0.65032428  -0.01529514  0.41666667  1
  O  O392  1  0.65032428  -0.01529514  0.75000000  1
  O  O393  1  0.65032428  0.48470486  0.08333333  1
  O  O394  1  0.65032428  0.48470486  0.41666667  1
  O  O395  1  0.65032428  0.48470486  0.75000000  1
  O  O396  1  0.40032428  0.23470486  0.08333333  1
  O  O397  1  0.40032428  0.23470486  0.41666667  1
  O  O398  1  0.40032428  0.23470486  0.75000000  1
  O  O399  1  0.40032428  0.73470486  0.08333333  1
  O  O400  1  0.40032428  0.73470486  0.41666667  1
  O  O401  1  0.40032428  0.73470486  0.75000000  1
  O  O402  1  0.90032428  0.23470486  0.08333333  1
  O  O403  1  0.90032428  0.23470486  0.41666667  1
  O  O404  1  0.90032428  0.23470486  0.75000000  1
  O  O405  1  0.90032428  0.73470486  0.08333333  1
  O  O406  1  0.90032428  0.73470486  0.41666667  1
  O  O407  1  0.90032428  0.73470486  0.75000000  1
  O  O408  1  0.34967572  0.01529514  0.25000000  1
  O  O409  1  0.34967572  0.01529514  0.58333333  1
  O  O410  1  0.34967572  0.01529514  0.91666667  1
  O  O411  1  0.34967572  0.51529514  0.25000000  1
  O  O412  1  0.34967572  0.51529514  0.58333333  1
  O  O413  1  0.34967572  0.51529514  0.91666667  1
  O  O414  1  0.84967572  0.01529514  0.25000000  1
  O  O415  1  0.84967572  0.01529514  0.58333333  1
  O  O416  1  0.84967572  0.01529514  0.91666667  1
  O  O417  1  0.84967572  0.51529514  0.25000000  1
  O  O418  1  0.84967572  0.51529514  0.58333333  1
  O  O419  1  0.84967572  0.51529514  0.91666667  1
  O  O420  1  0.59967572  0.26529514  0.25000000  1
  O  O421  1  0.59967572  0.26529514  0.58333333  1
  O  O422  1  0.59967572  0.26529514  0.91666667  1
  O  O423  1  0.59967572  0.76529514  0.25000000  1
  O  O424  1  0.59967572  0.76529514  0.58333333  1
  O  O425  1  0.59967572  0.76529514  0.91666667  1
  O  O426  1  1.09967572  0.26529514  0.25000000  1
  O  O427  1  1.09967572  0.26529514  0.58333333  1
  O  O428  1  1.09967572  0.26529514  0.91666667  1
  O  O429  1  1.09967572  0.76529514  0.25000000  1
  O  O430  1  1.09967572  0.76529514  0.58333333  1
  O  O431  1  1.09967572  0.76529514  0.91666667  1
