# generated using pymatgen
data_BiAsO4
_symmetry_space_group_name_H-M   'P 1'
_cell_length_a   13.49468289
_cell_length_b   14.31786131
_cell_length_c   16.57893330
_cell_angle_alpha   90.00000000
_cell_angle_beta   126.69865698
_cell_angle_gamma   90.00000000
_symmetry_Int_Tables_number   1
_chemical_formula_structural   BiAsO4
_chemical_formula_sum   'Bi32 As32 O128'
_cell_volume   2568.37164307
_cell_formula_units_Z   32
loop_
 _symmetry_equiv_pos_site_id
 _symmetry_equiv_pos_as_xyz
  1  'x, y, z'
loop_
 _atom_site_type_symbol
 _atom_site_label
 _atom_site_symmetry_multiplicity
 _atom_site_fract_x
 _atom_site_fract_y
 _atom_site_fract_z
 _atom_site_occupancy
  Bi  Bi0  1  0.40135001  0.31896855  0.10991525  1
  Bi  Bi1  1  0.40135001  0.31896855  0.60991525  1
  Bi  Bi2  1  0.40135001  0.81896855  0.10991525  1
  Bi  Bi3  1  0.40135001  0.81896855  0.60991525  1
  Bi  Bi4  1  0.90135001  0.31896855  0.10991525  1
  Bi  Bi5  1  0.90135001  0.31896855  0.60991525  1
  Bi  Bi6  1  0.90135001  0.81896855  0.10991525  1
  Bi  Bi7  1  0.90135001  0.81896855  0.60991525  1
  Bi  Bi8  1  0.09864999  0.06896855  0.14008475  1
  Bi  Bi9  1  0.09864999  0.06896855  0.64008475  1
  Bi  Bi10  1  0.09864999  0.56896855  0.14008475  1
  Bi  Bi11  1  0.09864999  0.56896855  0.64008475  1
  Bi  Bi12  1  0.59864999  0.06896855  0.14008475  1
  Bi  Bi13  1  0.59864999  0.06896855  0.64008475  1
  Bi  Bi14  1  0.59864999  0.56896855  0.14008475  1
  Bi  Bi15  1  0.59864999  0.56896855  0.64008475  1
  Bi  Bi16  1  0.09864999  0.18103145  0.39008475  1
  Bi  Bi17  1  0.09864999  0.18103145  0.89008475  1
  Bi  Bi18  1  0.09864999  0.68103145  0.39008475  1
  Bi  Bi19  1  0.09864999  0.68103145  0.89008475  1
  Bi  Bi20  1  0.59864999  0.18103145  0.39008475  1
  Bi  Bi21  1  0.59864999  0.18103145  0.89008475  1
  Bi  Bi22  1  0.59864999  0.68103145  0.39008475  1
  Bi  Bi23  1  0.59864999  0.68103145  0.89008475  1
  Bi  Bi24  1  0.40135001  0.43103145  0.35991525  1
  Bi  Bi25  1  0.40135001  0.43103145  0.85991525  1
  Bi  Bi26  1  0.40135001  0.93103145  0.35991525  1
  Bi  Bi27  1  0.40135001  0.93103145  0.85991525  1
  Bi  Bi28  1  0.90135001  0.43103145  0.35991525  1
  Bi  Bi29  1  0.90135001  0.43103145  0.85991525  1
  Bi  Bi30  1  0.90135001  0.93103145  0.35991525  1
  Bi  Bi31  1  0.90135001  0.93103145  0.85991525  1
  As  As32  1  0.15567678  0.33106921  0.09995423  1
  As  As33  1  0.15567678  0.33106921  0.59995423  1
  As  As34  1  0.15567678  0.83106921  0.09995423  1
  As  As35  1  0.15567678  0.83106921  0.59995423  1
  As  As36  1  0.65567678  0.33106921  0.09995423  1
  As  As37  1  0.65567678  0.33106921  0.59995423  1
  As  As38  1  0.65567678  0.83106921  0.09995423  1
  As  As39  1  0.65567678  0.83106921  0.59995423  1
  As  As40  1  0.34432322  0.08106921  0.15004577  1
  As  As41  1  0.34432322  0.08106921  0.65004577  1
  As  As42  1  0.34432322  0.58106921  0.15004577  1
  As  As43  1  0.34432322  0.58106921  0.65004577  1
  As  As44  1  0.84432322  0.08106921  0.15004577  1
  As  As45  1  0.84432322  0.08106921  0.65004577  1
  As  As46  1  0.84432322  0.58106921  0.15004577  1
  As  As47  1  0.84432322  0.58106921  0.65004577  1
  As  As48  1  0.34432322  0.16893079  0.40004577  1
  As  As49  1  0.34432322  0.16893079  0.90004577  1
  As  As50  1  0.34432322  0.66893079  0.40004577  1
  As  As51  1  0.34432322  0.66893079  0.90004577  1
  As  As52  1  0.84432322  0.16893079  0.40004577  1
  As  As53  1  0.84432322  0.16893079  0.90004577  1
  As  As54  1  0.84432322  0.66893079  0.40004577  1
  As  As55  1  0.84432322  0.66893079  0.90004577  1
  As  As56  1  0.15567678  0.41893079  0.34995423  1
  As  As57  1  0.15567678  0.41893079  0.84995423  1
  As  As58  1  0.15567678  0.91893079  0.34995423  1
  As  As59  1  0.15567678  0.91893079  0.84995423  1
  As  As60  1  0.65567678  0.41893079  0.34995423  1
  As  As61  1  0.65567678  0.41893079  0.84995423  1
  As  As62  1  0.65567678  0.91893079  0.34995423  1
  As  As63  1  0.65567678  0.91893079  0.84995423  1
  O  O64  1  0.30742642  0.35391598  0.19583709  1
  O  O65  1  0.30742642  0.35391598  0.69583709  1
  O  O66  1  0.30742642  0.85391598  0.19583709  1
  O  O67  1  0.30742642  0.85391598  0.69583709  1
  O  O68  1  0.80742642  0.35391598  0.19583709  1
  O  O69  1  0.80742642  0.35391598  0.69583709  1
  O  O70  1  0.80742642  0.85391598  0.19583709  1
  O  O71  1  0.80742642  0.85391598  0.69583709  1
  O  O72  1  0.19257358  0.10391598  0.05416291  1
  O  O73  1  0.19257358  0.10391598  0.55416291  1
  O  O74  1  0.19257358  0.60391598  0.05416291  1
  O  O75  1  0.19257358  0.60391598  0.55416291  1
  O  O76  1  0.69257358  0.10391598  0.05416291  1
  O  O77  1  0.69257358  0.10391598  0.55416291  1
  O  O78  1  0.69257358  0.60391598  0.05416291  1
  O  O79  1  0.69257358  0.60391598  0.55416291  1
  O  O80  1  0.19257358  0.14608402  0.30416291  1
  O  O81  1  0.19257358  0.14608402  0.80416291  1
  O  O82  1  0.19257358  0.64608402  0.30416291  1
  O  O83  1  0.19257358  0.64608402  0.80416291  1
  O  O84  1  0.69257358  0.14608402  0.30416291  1
  O  O85  1  0.69257358  0.14608402  0.80416291  1
  O  O86  1  0.69257358  0.64608402  0.30416291  1
  O  O87  1  0.69257358  0.64608402  0.80416291  1
  O  O88  1  0.30742642  0.39608402  0.44583709  1
  O  O89  1  0.30742642  0.39608402  0.94583709  1
  O  O90  1  0.30742642  0.89608402  0.44583709  1
  O  O91  1  0.30742642  0.89608402  0.94583709  1
  O  O92  1  0.80742642  0.39608402  0.44583709  1
  O  O93  1  0.80742642  0.39608402  0.94583709  1
  O  O94  1  0.80742642  0.89608402  0.44583709  1
  O  O95  1  0.80742642  0.89608402  0.94583709  1
  O  O96  1  0.18059896  0.30229572  0.01149469  1
  O  O97  1  0.18059896  0.30229572  0.51149469  1
  O  O98  1  0.18059896  0.80229572  0.01149469  1
  O  O99  1  0.18059896  0.80229572  0.51149469  1
  O  O100  1  0.68059896  0.30229572  0.01149469  1
  O  O101  1  0.68059896  0.30229572  0.51149469  1
  O  O102  1  0.68059896  0.80229572  0.01149469  1
  O  O103  1  0.68059896  0.80229572  0.51149469  1
  O  O104  1  0.31940104  0.05229572  0.23850531  1
  O  O105  1  0.31940104  0.05229572  0.73850531  1
  O  O106  1  0.31940104  0.55229572  0.23850531  1
  O  O107  1  0.31940104  0.55229572  0.73850531  1
  O  O108  1  0.81940104  0.05229572  0.23850531  1
  O  O109  1  0.81940104  0.05229572  0.73850531  1
  O  O110  1  0.81940104  0.55229572  0.23850531  1
  O  O111  1  0.81940104  0.55229572  0.73850531  1
  O  O112  1  0.31940104  0.19770428  0.48850531  1
  O  O113  1  0.31940104  0.19770428  0.98850531  1
  O  O114  1  0.31940104  0.69770428  0.48850531  1
  O  O115  1  0.31940104  0.69770428  0.98850531  1
  O  O116  1  0.81940104  0.19770428  0.48850531  1
  O  O117  1  0.81940104  0.19770428  0.98850531  1
  O  O118  1  0.81940104  0.69770428  0.48850531  1
  O  O119  1  0.81940104  0.69770428  0.98850531  1
  O  O120  1  0.18059896  0.44770428  0.26149469  1
  O  O121  1  0.18059896  0.44770428  0.76149469  1
  O  O122  1  0.18059896  0.94770428  0.26149469  1
  O  O123  1  0.18059896  0.94770428  0.76149469  1
  O  O124  1  0.68059896  0.44770428  0.26149469  1
  O  O125  1  0.68059896  0.44770428  0.76149469  1
  O  O126  1  0.68059896  0.94770428  0.26149469  1
  O  O127  1  0.68059896  0.94770428  0.76149469  1
  O  O128  1  0.08019565  0.00133358  0.36828269  1
  O  O129  1  0.08019565  0.00133358  0.86828269  1
  O  O130  1  0.08019565  0.50133358  0.36828269  1
  O  O131  1  0.08019565  0.50133358  0.86828269  1
  O  O132  1  0.58019565  0.00133358  0.36828269  1
  O  O133  1  0.58019565  0.00133358  0.86828269  1
  O  O134  1  0.58019565  0.50133358  0.36828269  1
  O  O135  1  0.58019565  0.50133358  0.86828269  1
  O  O136  1  0.41980435  0.25133358  0.38171731  1
  O  O137  1  0.41980435  0.25133358  0.88171731  1
  O  O138  1  0.41980435  0.75133358  0.38171731  1
  O  O139  1  0.41980435  0.75133358  0.88171731  1
  O  O140  1  0.91980435  0.25133358  0.38171731  1
  O  O141  1  0.91980435  0.25133358  0.88171731  1
  O  O142  1  0.91980435  0.75133358  0.38171731  1
  O  O143  1  0.91980435  0.75133358  0.88171731  1
  O  O144  1  0.41980435  0.49866642  0.13171731  1
  O  O145  1  0.41980435  0.49866642  0.63171731  1
  O  O146  1  0.41980435  0.99866642  0.13171731  1
  O  O147  1  0.41980435  0.99866642  0.63171731  1
  O  O148  1  0.91980435  0.49866642  0.13171731  1
  O  O149  1  0.91980435  0.49866642  0.63171731  1
  O  O150  1  0.91980435  0.99866642  0.13171731  1
  O  O151  1  0.91980435  0.99866642  0.63171731  1
  O  O152  1  0.08019565  0.24866642  0.11828269  1
  O  O153  1  0.08019565  0.24866642  0.61828269  1
  O  O154  1  0.08019565  0.74866642  0.11828269  1
  O  O155  1  0.08019565  0.74866642  0.61828269  1
  O  O156  1  0.58019565  0.24866642  0.11828269  1
  O  O157  1  0.58019565  0.24866642  0.61828269  1
  O  O158  1  0.58019565  0.74866642  0.11828269  1
  O  O159  1  0.58019565  0.74866642  0.61828269  1
  O  O160  1  0.06229176  0.32207463  0.30379365  1
  O  O161  1  0.06229176  0.32207463  0.80379365  1
  O  O162  1  0.06229176  0.82207463  0.30379365  1
  O  O163  1  0.06229176  0.82207463  0.80379365  1
  O  O164  1  0.56229176  0.32207463  0.30379365  1
  O  O165  1  0.56229176  0.32207463  0.80379365  1
  O  O166  1  0.56229176  0.82207463  0.30379365  1
  O  O167  1  0.56229176  0.82207463  0.80379365  1
  O  O168  1  0.43770824  0.07207463  0.44620635  1
  O  O169  1  0.43770824  0.07207463  0.94620635  1
  O  O170  1  0.43770824  0.57207463  0.44620635  1
  O  O171  1  0.43770824  0.57207463  0.94620635  1
  O  O172  1  0.93770824  0.07207463  0.44620635  1
  O  O173  1  0.93770824  0.07207463  0.94620635  1
  O  O174  1  0.93770824  0.57207463  0.44620635  1
  O  O175  1  0.93770824  0.57207463  0.94620635  1
  O  O176  1  0.43770824  0.17792537  0.19620635  1
  O  O177  1  0.43770824  0.17792537  0.69620635  1
  O  O178  1  0.43770824  0.67792537  0.19620635  1
  O  O179  1  0.43770824  0.67792537  0.69620635  1
  O  O180  1  0.93770824  0.17792537  0.19620635  1
  O  O181  1  0.93770824  0.17792537  0.69620635  1
  O  O182  1  0.93770824  0.67792537  0.19620635  1
  O  O183  1  0.93770824  0.67792537  0.69620635  1
  O  O184  1  0.06229176  0.42792537  0.05379365  1
  O  O185  1  0.06229176  0.42792537  0.55379365  1
  O  O186  1  0.06229176  0.92792537  0.05379365  1
  O  O187  1  0.06229176  0.92792537  0.55379365  1
  O  O188  1  0.56229176  0.42792537  0.05379365  1
  O  O189  1  0.56229176  0.42792537  0.55379365  1
  O  O190  1  0.56229176  0.92792537  0.05379365  1
  O  O191  1  0.56229176  0.92792537  0.55379365  1
