# generated using pymatgen
data_BaCeO3
_symmetry_space_group_name_H-M   'P 1'
_cell_length_a   18.76829109
_cell_length_b   17.60450645
_cell_length_c   18.73752392
_cell_angle_alpha   90.00000000
_cell_angle_beta   90.00000000
_cell_angle_gamma   90.00000000
_symmetry_Int_Tables_number   1
_chemical_formula_structural   BaCeO3
_chemical_formula_sum   'Ba72 Ce72 O216'
_cell_volume   6190.99972707
_cell_formula_units_Z   72
loop_
 _symmetry_equiv_pos_site_id
 _symmetry_equiv_pos_as_xyz
  1  'x, y, z'
loop_
 _atom_site_type_symbol
 _atom_site_label
 _atom_site_symmetry_multiplicity
 _atom_site_fract_x
 _atom_site_fract_y
 _atom_site_fract_z
 _atom_site_occupancy
  Ba  Ba0  1  0.32419431  0.12500000  0.16363884  1
  Ba  Ba1  1  0.32419431  0.12500000  0.49697217  1
  Ba  Ba2  1  0.32419431  0.12500000  0.83030550  1
  Ba  Ba3  1  0.32419431  0.62500000  0.16363884  1
  Ba  Ba4  1  0.32419431  0.62500000  0.49697217  1
  Ba  Ba5  1  0.32419431  0.62500000  0.83030550  1
  Ba  Ba6  1  0.65752764  0.12500000  0.16363884  1
  Ba  Ba7  1  0.65752764  0.12500000  0.49697217  1
  Ba  Ba8  1  0.65752764  0.12500000  0.83030550  1
  Ba  Ba9  1  0.65752764  0.62500000  0.16363884  1
  Ba  Ba10  1  0.65752764  0.62500000  0.49697217  1
  Ba  Ba11  1  0.65752764  0.62500000  0.83030550  1
  Ba  Ba12  1  0.99086098  0.12500000  0.16363884  1
  Ba  Ba13  1  0.99086098  0.12500000  0.49697217  1
  Ba  Ba14  1  0.99086098  0.12500000  0.83030550  1
  Ba  Ba15  1  0.99086098  0.62500000  0.16363884  1
  Ba  Ba16  1  0.99086098  0.62500000  0.49697217  1
  Ba  Ba17  1  0.99086098  0.62500000  0.83030550  1
  Ba  Ba18  1  0.15752764  0.12500000  0.00302783  1
  Ba  Ba19  1  0.15752764  0.12500000  0.33636116  1
  Ba  Ba20  1  0.15752764  0.12500000  0.66969450  1
  Ba  Ba21  1  0.15752764  0.62500000  0.00302783  1
  Ba  Ba22  1  0.15752764  0.62500000  0.33636116  1
  Ba  Ba23  1  0.15752764  0.62500000  0.66969450  1
  Ba  Ba24  1  0.49086098  0.12500000  0.00302783  1
  Ba  Ba25  1  0.49086098  0.12500000  0.33636116  1
  Ba  Ba26  1  0.49086098  0.12500000  0.66969450  1
  Ba  Ba27  1  0.49086098  0.62500000  0.00302783  1
  Ba  Ba28  1  0.49086098  0.62500000  0.33636116  1
  Ba  Ba29  1  0.49086098  0.62500000  0.66969450  1
  Ba  Ba30  1  0.82419431  0.12500000  0.00302783  1
  Ba  Ba31  1  0.82419431  0.12500000  0.33636116  1
  Ba  Ba32  1  0.82419431  0.12500000  0.66969450  1
  Ba  Ba33  1  0.82419431  0.62500000  0.00302783  1
  Ba  Ba34  1  0.82419431  0.62500000  0.33636116  1
  Ba  Ba35  1  0.82419431  0.62500000  0.66969450  1
  Ba  Ba36  1  0.00913902  0.37500000  0.16969450  1
  Ba  Ba37  1  0.00913902  0.37500000  0.50302783  1
  Ba  Ba38  1  0.00913902  0.37500000  0.83636116  1
  Ba  Ba39  1  0.00913902  0.87500000  0.16969450  1
  Ba  Ba40  1  0.00913902  0.87500000  0.50302783  1
  Ba  Ba41  1  0.00913902  0.87500000  0.83636116  1
  Ba  Ba42  1  0.34247236  0.37500000  0.16969450  1
  Ba  Ba43  1  0.34247236  0.37500000  0.50302783  1
  Ba  Ba44  1  0.34247236  0.37500000  0.83636116  1
  Ba  Ba45  1  0.34247236  0.87500000  0.16969450  1
  Ba  Ba46  1  0.34247236  0.87500000  0.50302783  1
  Ba  Ba47  1  0.34247236  0.87500000  0.83636116  1
  Ba  Ba48  1  0.67580569  0.37500000  0.16969450  1
  Ba  Ba49  1  0.67580569  0.37500000  0.50302783  1
  Ba  Ba50  1  0.67580569  0.37500000  0.83636116  1
  Ba  Ba51  1  0.67580569  0.87500000  0.16969450  1
  Ba  Ba52  1  0.67580569  0.87500000  0.50302783  1
  Ba  Ba53  1  0.67580569  0.87500000  0.83636116  1
  Ba  Ba54  1  0.17580569  0.37500000  0.33030550  1
  Ba  Ba55  1  0.17580569  0.37500000  0.66363884  1
  Ba  Ba56  1  0.17580569  0.37500000  0.99697217  1
  Ba  Ba57  1  0.17580569  0.87500000  0.33030550  1
  Ba  Ba58  1  0.17580569  0.87500000  0.66363884  1
  Ba  Ba59  1  0.17580569  0.87500000  0.99697217  1
  Ba  Ba60  1  0.50913902  0.37500000  0.33030550  1
  Ba  Ba61  1  0.50913902  0.37500000  0.66363884  1
  Ba  Ba62  1  0.50913902  0.37500000  0.99697217  1
  Ba  Ba63  1  0.50913902  0.87500000  0.33030550  1
  Ba  Ba64  1  0.50913902  0.87500000  0.66363884  1
  Ba  Ba65  1  0.50913902  0.87500000  0.99697217  1
  Ba  Ba66  1  0.84247236  0.37500000  0.33030550  1
  Ba  Ba67  1  0.84247236  0.37500000  0.66363884  1
  Ba  Ba68  1  0.84247236  0.37500000  0.99697217  1
  Ba  Ba69  1  0.84247236  0.87500000  0.33030550  1
  Ba  Ba70  1  0.84247236  0.87500000  0.66363884  1
  Ba  Ba71  1  0.84247236  0.87500000  0.99697217  1
  Ce  Ce72  1  0.16666667  0.00000000  0.16666667  1
  Ce  Ce73  1  0.16666667  0.00000000  0.50000000  1
  Ce  Ce74  1  0.16666667  0.00000000  0.83333333  1
  Ce  Ce75  1  0.16666667  0.50000000  0.16666667  1
  Ce  Ce76  1  0.16666667  0.50000000  0.50000000  1
  Ce  Ce77  1  0.16666667  0.50000000  0.83333333  1
  Ce  Ce78  1  0.50000000  0.00000000  0.16666667  1
  Ce  Ce79  1  0.50000000  0.00000000  0.50000000  1
  Ce  Ce80  1  0.50000000  0.00000000  0.83333333  1
  Ce  Ce81  1  0.50000000  0.50000000  0.16666667  1
  Ce  Ce82  1  0.50000000  0.50000000  0.50000000  1
  Ce  Ce83  1  0.50000000  0.50000000  0.83333333  1
  Ce  Ce84  1  0.83333333  0.00000000  0.16666667  1
  Ce  Ce85  1  0.83333333  0.00000000  0.50000000  1
  Ce  Ce86  1  0.83333333  0.00000000  0.83333333  1
  Ce  Ce87  1  0.83333333  0.50000000  0.16666667  1
  Ce  Ce88  1  0.83333333  0.50000000  0.50000000  1
  Ce  Ce89  1  0.83333333  0.50000000  0.83333333  1
  Ce  Ce90  1  0.00000000  0.25000000  0.00000000  1
  Ce  Ce91  1  0.00000000  0.25000000  0.33333333  1
  Ce  Ce92  1  0.00000000  0.25000000  0.66666667  1
  Ce  Ce93  1  0.00000000  0.75000000  0.00000000  1
  Ce  Ce94  1  0.00000000  0.75000000  0.33333333  1
  Ce  Ce95  1  0.00000000  0.75000000  0.66666667  1
  Ce  Ce96  1  0.33333333  0.25000000  0.00000000  1
  Ce  Ce97  1  0.33333333  0.25000000  0.33333333  1
  Ce  Ce98  1  0.33333333  0.25000000  0.66666667  1
  Ce  Ce99  1  0.33333333  0.75000000  0.00000000  1
  Ce  Ce100  1  0.33333333  0.75000000  0.33333333  1
  Ce  Ce101  1  0.33333333  0.75000000  0.66666667  1
  Ce  Ce102  1  0.66666667  0.25000000  0.00000000  1
  Ce  Ce103  1  0.66666667  0.25000000  0.33333333  1
  Ce  Ce104  1  0.66666667  0.25000000  0.66666667  1
  Ce  Ce105  1  0.66666667  0.75000000  0.00000000  1
  Ce  Ce106  1  0.66666667  0.75000000  0.33333333  1
  Ce  Ce107  1  0.66666667  0.75000000  0.66666667  1
  Ce  Ce108  1  0.16666667  0.25000000  0.16666667  1
  Ce  Ce109  1  0.16666667  0.25000000  0.50000000  1
  Ce  Ce110  1  0.16666667  0.25000000  0.83333333  1
  Ce  Ce111  1  0.16666667  0.75000000  0.16666667  1
  Ce  Ce112  1  0.16666667  0.75000000  0.50000000  1
  Ce  Ce113  1  0.16666667  0.75000000  0.83333333  1
  Ce  Ce114  1  0.50000000  0.25000000  0.16666667  1
  Ce  Ce115  1  0.50000000  0.25000000  0.50000000  1
  Ce  Ce116  1  0.50000000  0.25000000  0.83333333  1
  Ce  Ce117  1  0.50000000  0.75000000  0.16666667  1
  Ce  Ce118  1  0.50000000  0.75000000  0.50000000  1
  Ce  Ce119  1  0.50000000  0.75000000  0.83333333  1
  Ce  Ce120  1  0.83333333  0.25000000  0.16666667  1
  Ce  Ce121  1  0.83333333  0.25000000  0.50000000  1
  Ce  Ce122  1  0.83333333  0.25000000  0.83333333  1
  Ce  Ce123  1  0.83333333  0.75000000  0.16666667  1
  Ce  Ce124  1  0.83333333  0.75000000  0.50000000  1
  Ce  Ce125  1  0.83333333  0.75000000  0.83333333  1
  Ce  Ce126  1  0.00000000  0.00000000  0.00000000  1
  Ce  Ce127  1  0.00000000  0.00000000  0.33333333  1
  Ce  Ce128  1  0.00000000  0.00000000  0.66666667  1
  Ce  Ce129  1  0.00000000  0.50000000  0.00000000  1
  Ce  Ce130  1  0.00000000  0.50000000  0.33333333  1
  Ce  Ce131  1  0.00000000  0.50000000  0.66666667  1
  Ce  Ce132  1  0.33333333  0.00000000  0.00000000  1
  Ce  Ce133  1  0.33333333  0.00000000  0.33333333  1
  Ce  Ce134  1  0.33333333  0.00000000  0.66666667  1
  Ce  Ce135  1  0.33333333  0.50000000  0.00000000  1
  Ce  Ce136  1  0.33333333  0.50000000  0.33333333  1
  Ce  Ce137  1  0.33333333  0.50000000  0.66666667  1
  Ce  Ce138  1  0.66666667  0.00000000  0.00000000  1
  Ce  Ce139  1  0.66666667  0.00000000  0.33333333  1
  Ce  Ce140  1  0.66666667  0.00000000  0.66666667  1
  Ce  Ce141  1  0.66666667  0.50000000  0.00000000  1
  Ce  Ce142  1  0.66666667  0.50000000  0.33333333  1
  Ce  Ce143  1  0.66666667  0.50000000  0.66666667  1
  O  O144  1  0.17399080  0.12500000  0.19448201  1
  O  O145  1  0.17399080  0.12500000  0.52781534  1
  O  O146  1  0.17399080  0.12500000  0.86114868  1
  O  O147  1  0.17399080  0.62500000  0.19448201  1
  O  O148  1  0.17399080  0.62500000  0.52781534  1
  O  O149  1  0.17399080  0.62500000  0.86114868  1
  O  O150  1  0.50732413  0.12500000  0.19448201  1
  O  O151  1  0.50732413  0.12500000  0.52781534  1
  O  O152  1  0.50732413  0.12500000  0.86114868  1
  O  O153  1  0.50732413  0.62500000  0.19448201  1
  O  O154  1  0.50732413  0.62500000  0.52781534  1
  O  O155  1  0.50732413  0.62500000  0.86114868  1
  O  O156  1  0.84065746  0.12500000  0.19448201  1
  O  O157  1  0.84065746  0.12500000  0.52781534  1
  O  O158  1  0.84065746  0.12500000  0.86114868  1
  O  O159  1  0.84065746  0.62500000  0.19448201  1
  O  O160  1  0.84065746  0.62500000  0.52781534  1
  O  O161  1  0.84065746  0.62500000  0.86114868  1
  O  O162  1  0.00732413  0.12500000  0.30551799  1
  O  O163  1  0.00732413  0.12500000  0.63885132  1
  O  O164  1  0.00732413  0.12500000  0.97218466  1
  O  O165  1  0.00732413  0.62500000  0.30551799  1
  O  O166  1  0.00732413  0.62500000  0.63885132  1
  O  O167  1  0.00732413  0.62500000  0.97218466  1
  O  O168  1  0.34065746  0.12500000  0.30551799  1
  O  O169  1  0.34065746  0.12500000  0.63885132  1
  O  O170  1  0.34065746  0.12500000  0.97218466  1
  O  O171  1  0.34065746  0.62500000  0.30551799  1
  O  O172  1  0.34065746  0.62500000  0.63885132  1
  O  O173  1  0.34065746  0.62500000  0.97218466  1
  O  O174  1  0.67399080  0.12500000  0.30551799  1
  O  O175  1  0.67399080  0.12500000  0.63885132  1
  O  O176  1  0.67399080  0.12500000  0.97218466  1
  O  O177  1  0.67399080  0.62500000  0.30551799  1
  O  O178  1  0.67399080  0.62500000  0.63885132  1
  O  O179  1  0.67399080  0.62500000  0.97218466  1
  O  O180  1  0.15934254  0.37500000  0.13885132  1
  O  O181  1  0.15934254  0.37500000  0.47218466  1
  O  O182  1  0.15934254  0.37500000  0.80551799  1
  O  O183  1  0.15934254  0.87500000  0.13885132  1
  O  O184  1  0.15934254  0.87500000  0.47218466  1
  O  O185  1  0.15934254  0.87500000  0.80551799  1
  O  O186  1  0.49267587  0.37500000  0.13885132  1
  O  O187  1  0.49267587  0.37500000  0.47218466  1
  O  O188  1  0.49267587  0.37500000  0.80551799  1
  O  O189  1  0.49267587  0.87500000  0.13885132  1
  O  O190  1  0.49267587  0.87500000  0.47218466  1
  O  O191  1  0.49267587  0.87500000  0.80551799  1
  O  O192  1  0.82600920  0.37500000  0.13885132  1
  O  O193  1  0.82600920  0.37500000  0.47218466  1
  O  O194  1  0.82600920  0.37500000  0.80551799  1
  O  O195  1  0.82600920  0.87500000  0.13885132  1
  O  O196  1  0.82600920  0.87500000  0.47218466  1
  O  O197  1  0.82600920  0.87500000  0.80551799  1
  O  O198  1  0.32600920  0.37500000  0.02781534  1
  O  O199  1  0.32600920  0.37500000  0.36114868  1
  O  O200  1  0.32600920  0.37500000  0.69448201  1
  O  O201  1  0.32600920  0.87500000  0.02781534  1
  O  O202  1  0.32600920  0.87500000  0.36114868  1
  O  O203  1  0.32600920  0.87500000  0.69448201  1
  O  O204  1  0.65934254  0.37500000  0.02781534  1
  O  O205  1  0.65934254  0.37500000  0.36114868  1
  O  O206  1  0.65934254  0.37500000  0.69448201  1
  O  O207  1  0.65934254  0.87500000  0.02781534  1
  O  O208  1  0.65934254  0.87500000  0.36114868  1
  O  O209  1  0.65934254  0.87500000  0.69448201  1
  O  O210  1  0.99267587  0.37500000  0.02781534  1
  O  O211  1  0.99267587  0.37500000  0.36114868  1
  O  O212  1  0.99267587  0.37500000  0.69448201  1
  O  O213  1  0.99267587  0.87500000  0.02781534  1
  O  O214  1  0.99267587  0.87500000  0.36114868  1
  O  O215  1  0.99267587  0.87500000  0.69448201  1
  O  O216  1  0.23976193  0.02289235  0.07334292  1
  O  O217  1  0.23976193  0.02289235  0.40667625  1
  O  O218  1  0.23976193  0.02289235  0.74000959  1
  O  O219  1  0.23976193  0.52289235  0.07334292  1
  O  O220  1  0.23976193  0.52289235  0.40667625  1
  O  O221  1  0.23976193  0.52289235  0.74000959  1
  O  O222  1  0.57309526  0.02289235  0.07334292  1
  O  O223  1  0.57309526  0.02289235  0.40667625  1
  O  O224  1  0.57309526  0.02289235  0.74000959  1
  O  O225  1  0.57309526  0.52289235  0.07334292  1
  O  O226  1  0.57309526  0.52289235  0.40667625  1
  O  O227  1  0.57309526  0.52289235  0.74000959  1
  O  O228  1  0.90642859  0.02289235  0.07334292  1
  O  O229  1  0.90642859  0.02289235  0.40667625  1
  O  O230  1  0.90642859  0.02289235  0.74000959  1
  O  O231  1  0.90642859  0.52289235  0.07334292  1
  O  O232  1  0.90642859  0.52289235  0.40667625  1
  O  O233  1  0.90642859  0.52289235  0.74000959  1
  O  O234  1  0.07309526  0.22710765  0.09332375  1
  O  O235  1  0.07309526  0.22710765  0.42665708  1
  O  O236  1  0.07309526  0.22710765  0.75999041  1
  O  O237  1  0.07309526  0.72710765  0.09332375  1
  O  O238  1  0.07309526  0.72710765  0.42665708  1
  O  O239  1  0.07309526  0.72710765  0.75999041  1
  O  O240  1  0.40642859  0.22710765  0.09332375  1
  O  O241  1  0.40642859  0.22710765  0.42665708  1
  O  O242  1  0.40642859  0.22710765  0.75999041  1
  O  O243  1  0.40642859  0.72710765  0.09332375  1
  O  O244  1  0.40642859  0.72710765  0.42665708  1
  O  O245  1  0.40642859  0.72710765  0.75999041  1
  O  O246  1  0.73976193  0.22710765  0.09332375  1
  O  O247  1  0.73976193  0.22710765  0.42665708  1
  O  O248  1  0.73976193  0.22710765  0.75999041  1
  O  O249  1  0.73976193  0.72710765  0.09332375  1
  O  O250  1  0.73976193  0.72710765  0.42665708  1
  O  O251  1  0.73976193  0.72710765  0.75999041  1
  O  O252  1  0.09357141  0.27289235  0.25999041  1
  O  O253  1  0.09357141  0.27289235  0.59332375  1
  O  O254  1  0.09357141  0.27289235  0.92665708  1
  O  O255  1  0.09357141  0.77289235  0.25999041  1
  O  O256  1  0.09357141  0.77289235  0.59332375  1
  O  O257  1  0.09357141  0.77289235  0.92665708  1
  O  O258  1  0.42690474  0.27289235  0.25999041  1
  O  O259  1  0.42690474  0.27289235  0.59332375  1
  O  O260  1  0.42690474  0.27289235  0.92665708  1
  O  O261  1  0.42690474  0.77289235  0.25999041  1
  O  O262  1  0.42690474  0.77289235  0.59332375  1
  O  O263  1  0.42690474  0.77289235  0.92665708  1
  O  O264  1  0.76023807  0.27289235  0.25999041  1
  O  O265  1  0.76023807  0.27289235  0.59332375  1
  O  O266  1  0.76023807  0.27289235  0.92665708  1
  O  O267  1  0.76023807  0.77289235  0.25999041  1
  O  O268  1  0.76023807  0.77289235  0.59332375  1
  O  O269  1  0.76023807  0.77289235  0.92665708  1
  O  O270  1  0.26023807  0.47710765  0.24000959  1
  O  O271  1  0.26023807  0.47710765  0.57334292  1
  O  O272  1  0.26023807  0.47710765  0.90667625  1
  O  O273  1  0.26023807  0.97710765  0.24000959  1
  O  O274  1  0.26023807  0.97710765  0.57334292  1
  O  O275  1  0.26023807  0.97710765  0.90667625  1
  O  O276  1  0.59357141  0.47710765  0.24000959  1
  O  O277  1  0.59357141  0.47710765  0.57334292  1
  O  O278  1  0.59357141  0.47710765  0.90667625  1
  O  O279  1  0.59357141  0.97710765  0.24000959  1
  O  O280  1  0.59357141  0.97710765  0.57334292  1
  O  O281  1  0.59357141  0.97710765  0.90667625  1
  O  O282  1  0.92690474  0.47710765  0.24000959  1
  O  O283  1  0.92690474  0.47710765  0.57334292  1
  O  O284  1  0.92690474  0.47710765  0.90667625  1
  O  O285  1  0.92690474  0.97710765  0.24000959  1
  O  O286  1  0.92690474  0.97710765  0.57334292  1
  O  O287  1  0.92690474  0.97710765  0.90667625  1
  O  O288  1  0.09357141  0.47710765  0.25999041  1
  O  O289  1  0.09357141  0.47710765  0.59332375  1
  O  O290  1  0.09357141  0.47710765  0.92665708  1
  O  O291  1  0.09357141  0.97710765  0.25999041  1
  O  O292  1  0.09357141  0.97710765  0.59332375  1
  O  O293  1  0.09357141  0.97710765  0.92665708  1
  O  O294  1  0.42690474  0.47710765  0.25999041  1
  O  O295  1  0.42690474  0.47710765  0.59332375  1
  O  O296  1  0.42690474  0.47710765  0.92665708  1
  O  O297  1  0.42690474  0.97710765  0.25999041  1
  O  O298  1  0.42690474  0.97710765  0.59332375  1
  O  O299  1  0.42690474  0.97710765  0.92665708  1
  O  O300  1  0.76023807  0.47710765  0.25999041  1
  O  O301  1  0.76023807  0.47710765  0.59332375  1
  O  O302  1  0.76023807  0.47710765  0.92665708  1
  O  O303  1  0.76023807  0.97710765  0.25999041  1
  O  O304  1  0.76023807  0.97710765  0.59332375  1
  O  O305  1  0.76023807  0.97710765  0.92665708  1
  O  O306  1  0.26023807  0.27289235  0.24000959  1
  O  O307  1  0.26023807  0.27289235  0.57334292  1
  O  O308  1  0.26023807  0.27289235  0.90667625  1
  O  O309  1  0.26023807  0.77289235  0.24000959  1
  O  O310  1  0.26023807  0.77289235  0.57334292  1
  O  O311  1  0.26023807  0.77289235  0.90667625  1
  O  O312  1  0.59357141  0.27289235  0.24000959  1
  O  O313  1  0.59357141  0.27289235  0.57334292  1
  O  O314  1  0.59357141  0.27289235  0.90667625  1
  O  O315  1  0.59357141  0.77289235  0.24000959  1
  O  O316  1  0.59357141  0.77289235  0.57334292  1
  O  O317  1  0.59357141  0.77289235  0.90667625  1
  O  O318  1  0.92690474  0.27289235  0.24000959  1
  O  O319  1  0.92690474  0.27289235  0.57334292  1
  O  O320  1  0.92690474  0.27289235  0.90667625  1
  O  O321  1  0.92690474  0.77289235  0.24000959  1
  O  O322  1  0.92690474  0.77289235  0.57334292  1
  O  O323  1  0.92690474  0.77289235  0.90667625  1
  O  O324  1  0.23976193  0.22710765  0.07334292  1
  O  O325  1  0.23976193  0.22710765  0.40667625  1
  O  O326  1  0.23976193  0.22710765  0.74000959  1
  O  O327  1  0.23976193  0.72710765  0.07334292  1
  O  O328  1  0.23976193  0.72710765  0.40667625  1
  O  O329  1  0.23976193  0.72710765  0.74000959  1
  O  O330  1  0.57309526  0.22710765  0.07334292  1
  O  O331  1  0.57309526  0.22710765  0.40667625  1
  O  O332  1  0.57309526  0.22710765  0.74000959  1
  O  O333  1  0.57309526  0.72710765  0.07334292  1
  O  O334  1  0.57309526  0.72710765  0.40667625  1
  O  O335  1  0.57309526  0.72710765  0.74000959  1
  O  O336  1  0.90642859  0.22710765  0.07334292  1
  O  O337  1  0.90642859  0.22710765  0.40667625  1
  O  O338  1  0.90642859  0.22710765  0.74000959  1
  O  O339  1  0.90642859  0.72710765  0.07334292  1
  O  O340  1  0.90642859  0.72710765  0.40667625  1
  O  O341  1  0.90642859  0.72710765  0.74000959  1
  O  O342  1  0.07309526  0.02289235  0.09332375  1
  O  O343  1  0.07309526  0.02289235  0.42665708  1
  O  O344  1  0.07309526  0.02289235  0.75999041  1
  O  O345  1  0.07309526  0.52289235  0.09332375  1
  O  O346  1  0.07309526  0.52289235  0.42665708  1
  O  O347  1  0.07309526  0.52289235  0.75999041  1
  O  O348  1  0.40642859  0.02289235  0.09332375  1
  O  O349  1  0.40642859  0.02289235  0.42665708  1
  O  O350  1  0.40642859  0.02289235  0.75999041  1
  O  O351  1  0.40642859  0.52289235  0.09332375  1
  O  O352  1  0.40642859  0.52289235  0.42665708  1
  O  O353  1  0.40642859  0.52289235  0.75999041  1
  O  O354  1  0.73976193  0.02289235  0.09332375  1
  O  O355  1  0.73976193  0.02289235  0.42665708  1
  O  O356  1  0.73976193  0.02289235  0.75999041  1
  O  O357  1  0.73976193  0.52289235  0.09332375  1
  O  O358  1  0.73976193  0.52289235  0.42665708  1
  O  O359  1  0.73976193  0.52289235  0.75999041  1
