# generated using pymatgen
data_Ba4PtO6
_symmetry_space_group_name_H-M   'P 1'
_cell_length_a   10.20903487
_cell_length_b   10.20903487
_cell_length_c   12.67834353
_cell_angle_alpha   90.00000000
_cell_angle_beta   90.00000000
_cell_angle_gamma   120.00000000
_symmetry_Int_Tables_number   1
_chemical_formula_structural   Ba4PtO6
_chemical_formula_sum   'Ba24 Pt6 O36'
_cell_volume   1144.35961056
_cell_formula_units_Z   6
loop_
 _symmetry_equiv_pos_site_id
 _symmetry_equiv_pos_as_xyz
  1  'x, y, z'
loop_
 _atom_site_type_symbol
 _atom_site_label
 _atom_site_symmetry_multiplicity
 _atom_site_fract_x
 _atom_site_fract_y
 _atom_site_fract_z
 _atom_site_occupancy
  Ba  Ba0  1  -0.00000000  0.00000000  0.25000000  1
  Ba  Ba1  1  0.66666667  0.33333333  0.58333333  1
  Ba  Ba2  1  0.33333333  0.66666667  0.91666667  1
  Ba  Ba3  1  0.00000000  0.00000000  0.75000000  1
  Ba  Ba4  1  0.66666667  0.33333333  1.08333333  1
  Ba  Ba5  1  0.33333333  0.66666667  1.41666667  1
  Ba  Ba6  1  -0.29904370  -0.33333333  0.41666667  1
  Ba  Ba7  1  0.36762297  0.00000000  0.75000000  1
  Ba  Ba8  1  0.03428963  0.33333333  1.08333333  1
  Ba  Ba9  1  0.33333333  0.03428963  0.41666667  1
  Ba  Ba10  1  1.00000000  0.36762297  0.75000000  1
  Ba  Ba11  1  0.66666667  0.70095630  1.08333333  1
  Ba  Ba12  1  -0.03428963  0.29904370  0.41666667  1
  Ba  Ba13  1  0.63237703  0.63237703  0.75000000  1
  Ba  Ba14  1  0.29904370  0.96571037  1.08333333  1
  Ba  Ba15  1  0.29904370  0.33333333  0.58333333  1
  Ba  Ba16  1  0.96571037  0.66666667  0.91666667  1
  Ba  Ba17  1  0.63237703  1.00000000  1.25000000  1
  Ba  Ba18  1  -0.33333333  -0.03428963  0.58333333  1
  Ba  Ba19  1  0.33333333  0.29904370  0.91666667  1
  Ba  Ba20  1  -0.00000000  0.63237703  1.25000000  1
  Ba  Ba21  1  0.03428963  -0.29904370  0.58333333  1
  Ba  Ba22  1  0.70095630  0.03428963  0.91666667  1
  Ba  Ba23  1  0.36762297  0.36762297  1.25000000  1
  Pt  Pt24  1  -0.00000000  -0.00000000  -0.00000000  1
  Pt  Pt25  1  0.66666667  0.33333333  0.33333333  1
  Pt  Pt26  1  0.33333333  0.66666667  0.66666667  1
  Pt  Pt27  1  -0.00000000  -0.00000000  0.50000000  1
  Pt  Pt28  1  0.66666667  0.33333333  0.83333333  1
  Pt  Pt29  1  0.33333333  0.66666667  1.16666667  1
  O  O30  1  0.17677971  0.02035716  0.59421128  1
  O  O31  1  0.84344638  0.35369049  0.92754462  1
  O  O32  1  0.51011304  0.68702382  1.26087795  1
  O  O33  1  -0.02035716  0.15642256  0.59421128  1
  O  O34  1  0.64630951  0.48975589  0.92754462  1
  O  O35  1  0.31297618  0.82308922  1.26087795  1
  O  O36  1  -0.15642256  -0.17677971  0.59421128  1
  O  O37  1  0.51024411  0.15655362  0.92754462  1
  O  O38  1  0.17691078  0.48988696  1.26087795  1
  O  O39  1  -0.51024411  -0.35369049  0.57245538  1
  O  O40  1  0.15642256  -0.02035716  0.90578872  1
  O  O41  1  -0.17691078  0.31297618  1.23912205  1
  O  O42  1  0.35369049  -0.15655362  0.57245538  1
  O  O43  1  1.02035716  0.17677971  0.90578872  1
  O  O44  1  0.68702382  0.51011304  1.23912205  1
  O  O45  1  0.15655362  0.51024411  0.57245538  1
  O  O46  1  0.82322029  0.84357744  0.90578872  1
  O  O47  1  0.48988696  1.17691078  1.23912205  1
  O  O48  1  -0.17677971  -0.02035716  0.40578872  1
  O  O49  1  0.48988696  0.31297618  0.73912205  1
  O  O50  1  0.15655362  0.64630951  1.07245538  1
  O  O51  1  0.02035716  -0.15642256  0.40578872  1
  O  O52  1  0.68702382  0.17691078  0.73912205  1
  O  O53  1  0.35369049  0.51024411  1.07245538  1
  O  O54  1  0.15642256  0.17677971  0.40578872  1
  O  O55  1  0.82308922  0.51011304  0.73912205  1
  O  O56  1  0.48975589  0.84344638  1.07245538  1
  O  O57  1  0.51024411  0.35369049  0.42754462  1
  O  O58  1  1.17691078  0.68702382  0.76087795  1
  O  O59  1  0.84357744  1.02035716  1.09421128  1
  O  O60  1  -0.15655362  -0.51024411  0.42754462  1
  O  O61  1  0.51011304  -0.17691078  0.76087795  1
  O  O62  1  0.17677971  0.15642256  1.09421128  1
  O  O63  1  -0.35369049  0.15655362  0.42754462  1
  O  O64  1  0.31297618  0.48988696  0.76087795  1
  O  O65  1  -0.02035716  0.82322029  1.09421128  1
