# generated using pymatgen
data_CaHfO3
_symmetry_space_group_name_H-M   'P 1'
_cell_length_a   17.12225187
_cell_length_b   15.84848125
_cell_length_c   16.57088135
_cell_angle_alpha   90.00000000
_cell_angle_beta   90.00000000
_cell_angle_gamma   90.00000000
_symmetry_Int_Tables_number   1
_chemical_formula_structural   CaHfO3
_chemical_formula_sum   'Ca72 Hf72 O216'
_cell_volume   4496.70233033
_cell_formula_units_Z   72
loop_
 _symmetry_equiv_pos_site_id
 _symmetry_equiv_pos_as_xyz
  1  'x, y, z'
loop_
 _atom_site_type_symbol
 _atom_site_label
 _atom_site_symmetry_multiplicity
 _atom_site_fract_x
 _atom_site_fract_y
 _atom_site_fract_z
 _atom_site_occupancy
  Ca  Ca0  1  0.31633906  0.37500000  0.00446367  1
  Ca  Ca1  1  0.31633906  0.37500000  0.33779700  1
  Ca  Ca2  1  0.31633906  0.37500000  0.67113033  1
  Ca  Ca3  1  0.31633906  0.87500000  0.00446367  1
  Ca  Ca4  1  0.31633906  0.87500000  0.33779700  1
  Ca  Ca5  1  0.31633906  0.87500000  0.67113033  1
  Ca  Ca6  1  0.64967239  0.37500000  0.00446367  1
  Ca  Ca7  1  0.64967239  0.37500000  0.33779700  1
  Ca  Ca8  1  0.64967239  0.37500000  0.67113033  1
  Ca  Ca9  1  0.64967239  0.87500000  0.00446367  1
  Ca  Ca10  1  0.64967239  0.87500000  0.33779700  1
  Ca  Ca11  1  0.64967239  0.87500000  0.67113033  1
  Ca  Ca12  1  0.98300572  0.37500000  0.00446367  1
  Ca  Ca13  1  0.98300572  0.37500000  0.33779700  1
  Ca  Ca14  1  0.98300572  0.37500000  0.67113033  1
  Ca  Ca15  1  0.98300572  0.87500000  0.00446367  1
  Ca  Ca16  1  0.98300572  0.87500000  0.33779700  1
  Ca  Ca17  1  0.98300572  0.87500000  0.67113033  1
  Ca  Ca18  1  0.14967239  0.37500000  0.16220300  1
  Ca  Ca19  1  0.14967239  0.37500000  0.49553633  1
  Ca  Ca20  1  0.14967239  0.37500000  0.82886967  1
  Ca  Ca21  1  0.14967239  0.87500000  0.16220300  1
  Ca  Ca22  1  0.14967239  0.87500000  0.49553633  1
  Ca  Ca23  1  0.14967239  0.87500000  0.82886967  1
  Ca  Ca24  1  0.48300572  0.37500000  0.16220300  1
  Ca  Ca25  1  0.48300572  0.37500000  0.49553633  1
  Ca  Ca26  1  0.48300572  0.37500000  0.82886967  1
  Ca  Ca27  1  0.48300572  0.87500000  0.16220300  1
  Ca  Ca28  1  0.48300572  0.87500000  0.49553633  1
  Ca  Ca29  1  0.48300572  0.87500000  0.82886967  1
  Ca  Ca30  1  0.81633906  0.37500000  0.16220300  1
  Ca  Ca31  1  0.81633906  0.37500000  0.49553633  1
  Ca  Ca32  1  0.81633906  0.37500000  0.82886967  1
  Ca  Ca33  1  0.81633906  0.87500000  0.16220300  1
  Ca  Ca34  1  0.81633906  0.87500000  0.49553633  1
  Ca  Ca35  1  0.81633906  0.87500000  0.82886967  1
  Ca  Ca36  1  0.18366094  0.12500000  0.17113033  1
  Ca  Ca37  1  0.18366094  0.12500000  0.50446367  1
  Ca  Ca38  1  0.18366094  0.12500000  0.83779700  1
  Ca  Ca39  1  0.18366094  0.62500000  0.17113033  1
  Ca  Ca40  1  0.18366094  0.62500000  0.50446367  1
  Ca  Ca41  1  0.18366094  0.62500000  0.83779700  1
  Ca  Ca42  1  0.51699428  0.12500000  0.17113033  1
  Ca  Ca43  1  0.51699428  0.12500000  0.50446367  1
  Ca  Ca44  1  0.51699428  0.12500000  0.83779700  1
  Ca  Ca45  1  0.51699428  0.62500000  0.17113033  1
  Ca  Ca46  1  0.51699428  0.62500000  0.50446367  1
  Ca  Ca47  1  0.51699428  0.62500000  0.83779700  1
  Ca  Ca48  1  0.85032761  0.12500000  0.17113033  1
  Ca  Ca49  1  0.85032761  0.12500000  0.50446367  1
  Ca  Ca50  1  0.85032761  0.12500000  0.83779700  1
  Ca  Ca51  1  0.85032761  0.62500000  0.17113033  1
  Ca  Ca52  1  0.85032761  0.62500000  0.50446367  1
  Ca  Ca53  1  0.85032761  0.62500000  0.83779700  1
  Ca  Ca54  1  0.01699428  0.12500000  0.32886967  1
  Ca  Ca55  1  0.01699428  0.12500000  0.66220300  1
  Ca  Ca56  1  0.01699428  0.12500000  0.99553633  1
  Ca  Ca57  1  0.01699428  0.62500000  0.32886967  1
  Ca  Ca58  1  0.01699428  0.62500000  0.66220300  1
  Ca  Ca59  1  0.01699428  0.62500000  0.99553633  1
  Ca  Ca60  1  0.35032761  0.12500000  0.32886967  1
  Ca  Ca61  1  0.35032761  0.12500000  0.66220300  1
  Ca  Ca62  1  0.35032761  0.12500000  0.99553633  1
  Ca  Ca63  1  0.35032761  0.62500000  0.32886967  1
  Ca  Ca64  1  0.35032761  0.62500000  0.66220300  1
  Ca  Ca65  1  0.35032761  0.62500000  0.99553633  1
  Ca  Ca66  1  0.68366094  0.12500000  0.32886967  1
  Ca  Ca67  1  0.68366094  0.12500000  0.66220300  1
  Ca  Ca68  1  0.68366094  0.12500000  0.99553633  1
  Ca  Ca69  1  0.68366094  0.62500000  0.32886967  1
  Ca  Ca70  1  0.68366094  0.62500000  0.66220300  1
  Ca  Ca71  1  0.68366094  0.62500000  0.99553633  1
  Hf  Hf72  1  0.16666667  0.00000000  0.00000000  1
  Hf  Hf73  1  0.16666667  0.00000000  0.33333333  1
  Hf  Hf74  1  0.16666667  0.00000000  0.66666667  1
  Hf  Hf75  1  0.16666667  0.50000000  0.00000000  1
  Hf  Hf76  1  0.16666667  0.50000000  0.33333333  1
  Hf  Hf77  1  0.16666667  0.50000000  0.66666667  1
  Hf  Hf78  1  0.50000000  0.00000000  0.00000000  1
  Hf  Hf79  1  0.50000000  0.00000000  0.33333333  1
  Hf  Hf80  1  0.50000000  0.00000000  0.66666667  1
  Hf  Hf81  1  0.50000000  0.50000000  0.00000000  1
  Hf  Hf82  1  0.50000000  0.50000000  0.33333333  1
  Hf  Hf83  1  0.50000000  0.50000000  0.66666667  1
  Hf  Hf84  1  0.83333333  0.00000000  0.00000000  1
  Hf  Hf85  1  0.83333333  0.00000000  0.33333333  1
  Hf  Hf86  1  0.83333333  0.00000000  0.66666667  1
  Hf  Hf87  1  0.83333333  0.50000000  0.00000000  1
  Hf  Hf88  1  0.83333333  0.50000000  0.33333333  1
  Hf  Hf89  1  0.83333333  0.50000000  0.66666667  1
  Hf  Hf90  1  0.16666667  0.25000000  0.00000000  1
  Hf  Hf91  1  0.16666667  0.25000000  0.33333333  1
  Hf  Hf92  1  0.16666667  0.25000000  0.66666667  1
  Hf  Hf93  1  0.16666667  0.75000000  0.00000000  1
  Hf  Hf94  1  0.16666667  0.75000000  0.33333333  1
  Hf  Hf95  1  0.16666667  0.75000000  0.66666667  1
  Hf  Hf96  1  0.50000000  0.25000000  0.00000000  1
  Hf  Hf97  1  0.50000000  0.25000000  0.33333333  1
  Hf  Hf98  1  0.50000000  0.25000000  0.66666667  1
  Hf  Hf99  1  0.50000000  0.75000000  0.00000000  1
  Hf  Hf100  1  0.50000000  0.75000000  0.33333333  1
  Hf  Hf101  1  0.50000000  0.75000000  0.66666667  1
  Hf  Hf102  1  0.83333333  0.25000000  0.00000000  1
  Hf  Hf103  1  0.83333333  0.25000000  0.33333333  1
  Hf  Hf104  1  0.83333333  0.25000000  0.66666667  1
  Hf  Hf105  1  0.83333333  0.75000000  0.00000000  1
  Hf  Hf106  1  0.83333333  0.75000000  0.33333333  1
  Hf  Hf107  1  0.83333333  0.75000000  0.66666667  1
  Hf  Hf108  1  0.00000000  0.00000000  0.16666667  1
  Hf  Hf109  1  0.00000000  0.00000000  0.50000000  1
  Hf  Hf110  1  0.00000000  0.00000000  0.83333333  1
  Hf  Hf111  1  0.00000000  0.50000000  0.16666667  1
  Hf  Hf112  1  0.00000000  0.50000000  0.50000000  1
  Hf  Hf113  1  0.00000000  0.50000000  0.83333333  1
  Hf  Hf114  1  0.33333333  0.00000000  0.16666667  1
  Hf  Hf115  1  0.33333333  0.00000000  0.50000000  1
  Hf  Hf116  1  0.33333333  0.00000000  0.83333333  1
  Hf  Hf117  1  0.33333333  0.50000000  0.16666667  1
  Hf  Hf118  1  0.33333333  0.50000000  0.50000000  1
  Hf  Hf119  1  0.33333333  0.50000000  0.83333333  1
  Hf  Hf120  1  0.66666667  0.00000000  0.16666667  1
  Hf  Hf121  1  0.66666667  0.00000000  0.50000000  1
  Hf  Hf122  1  0.66666667  0.00000000  0.83333333  1
  Hf  Hf123  1  0.66666667  0.50000000  0.16666667  1
  Hf  Hf124  1  0.66666667  0.50000000  0.50000000  1
  Hf  Hf125  1  0.66666667  0.50000000  0.83333333  1
  Hf  Hf126  1  0.00000000  0.25000000  0.16666667  1
  Hf  Hf127  1  0.00000000  0.25000000  0.50000000  1
  Hf  Hf128  1  0.00000000  0.25000000  0.83333333  1
  Hf  Hf129  1  0.00000000  0.75000000  0.16666667  1
  Hf  Hf130  1  0.00000000  0.75000000  0.50000000  1
  Hf  Hf131  1  0.00000000  0.75000000  0.83333333  1
  Hf  Hf132  1  0.33333333  0.25000000  0.16666667  1
  Hf  Hf133  1  0.33333333  0.25000000  0.50000000  1
  Hf  Hf134  1  0.33333333  0.25000000  0.83333333  1
  Hf  Hf135  1  0.33333333  0.75000000  0.16666667  1
  Hf  Hf136  1  0.33333333  0.75000000  0.50000000  1
  Hf  Hf137  1  0.33333333  0.75000000  0.83333333  1
  Hf  Hf138  1  0.66666667  0.25000000  0.16666667  1
  Hf  Hf139  1  0.66666667  0.25000000  0.50000000  1
  Hf  Hf140  1  0.66666667  0.25000000  0.83333333  1
  Hf  Hf141  1  0.66666667  0.75000000  0.16666667  1
  Hf  Hf142  1  0.66666667  0.75000000  0.50000000  1
  Hf  Hf143  1  0.66666667  0.75000000  0.83333333  1
  O  O144  1  0.15368364  0.12500000  0.03514644  1
  O  O145  1  0.15368364  0.12500000  0.36847978  1
  O  O146  1  0.15368364  0.12500000  0.70181311  1
  O  O147  1  0.15368364  0.62500000  0.03514644  1
  O  O148  1  0.15368364  0.62500000  0.36847978  1
  O  O149  1  0.15368364  0.62500000  0.70181311  1
  O  O150  1  0.48701697  0.12500000  0.03514644  1
  O  O151  1  0.48701697  0.12500000  0.36847978  1
  O  O152  1  0.48701697  0.12500000  0.70181311  1
  O  O153  1  0.48701697  0.62500000  0.03514644  1
  O  O154  1  0.48701697  0.62500000  0.36847978  1
  O  O155  1  0.48701697  0.62500000  0.70181311  1
  O  O156  1  0.82035031  0.12500000  0.03514644  1
  O  O157  1  0.82035031  0.12500000  0.36847978  1
  O  O158  1  0.82035031  0.12500000  0.70181311  1
  O  O159  1  0.82035031  0.62500000  0.03514644  1
  O  O160  1  0.82035031  0.62500000  0.36847978  1
  O  O161  1  0.82035031  0.62500000  0.70181311  1
  O  O162  1  0.06700148  0.27794057  0.06612769  1
  O  O163  1  0.06700148  0.27794057  0.39946103  1
  O  O164  1  0.06700148  0.27794057  0.73279436  1
  O  O165  1  0.06700148  0.77794057  0.06612769  1
  O  O166  1  0.06700148  0.77794057  0.39946103  1
  O  O167  1  0.06700148  0.77794057  0.73279436  1
  O  O168  1  0.40033482  0.27794057  0.06612769  1
  O  O169  1  0.40033482  0.27794057  0.39946103  1
  O  O170  1  0.40033482  0.27794057  0.73279436  1
  O  O171  1  0.40033482  0.77794057  0.06612769  1
  O  O172  1  0.40033482  0.77794057  0.39946103  1
  O  O173  1  0.40033482  0.77794057  0.73279436  1
  O  O174  1  0.73366815  0.27794057  0.06612769  1
  O  O175  1  0.73366815  0.27794057  0.39946103  1
  O  O176  1  0.73366815  0.27794057  0.73279436  1
  O  O177  1  0.73366815  0.77794057  0.06612769  1
  O  O178  1  0.73366815  0.77794057  0.39946103  1
  O  O179  1  0.73366815  0.77794057  0.73279436  1
  O  O180  1  0.06700148  0.47205943  0.06612769  1
  O  O181  1  0.06700148  0.47205943  0.39946103  1
  O  O182  1  0.06700148  0.47205943  0.73279436  1
  O  O183  1  0.06700148  0.97205943  0.06612769  1
  O  O184  1  0.06700148  0.97205943  0.39946103  1
  O  O185  1  0.06700148  0.97205943  0.73279436  1
  O  O186  1  0.40033482  0.47205943  0.06612769  1
  O  O187  1  0.40033482  0.47205943  0.39946103  1
  O  O188  1  0.40033482  0.47205943  0.73279436  1
  O  O189  1  0.40033482  0.97205943  0.06612769  1
  O  O190  1  0.40033482  0.97205943  0.39946103  1
  O  O191  1  0.40033482  0.97205943  0.73279436  1
  O  O192  1  0.73366815  0.47205943  0.06612769  1
  O  O193  1  0.73366815  0.47205943  0.39946103  1
  O  O194  1  0.73366815  0.47205943  0.73279436  1
  O  O195  1  0.73366815  0.97205943  0.06612769  1
  O  O196  1  0.73366815  0.97205943  0.39946103  1
  O  O197  1  0.73366815  0.97205943  0.73279436  1
  O  O198  1  0.23366815  0.27794057  0.10053897  1
  O  O199  1  0.23366815  0.27794057  0.43387231  1
  O  O200  1  0.23366815  0.27794057  0.76720564  1
  O  O201  1  0.23366815  0.77794057  0.10053897  1
  O  O202  1  0.23366815  0.77794057  0.43387231  1
  O  O203  1  0.23366815  0.77794057  0.76720564  1
  O  O204  1  0.56700148  0.27794057  0.10053897  1
  O  O205  1  0.56700148  0.27794057  0.43387231  1
  O  O206  1  0.56700148  0.27794057  0.76720564  1
  O  O207  1  0.56700148  0.77794057  0.10053897  1
  O  O208  1  0.56700148  0.77794057  0.43387231  1
  O  O209  1  0.56700148  0.77794057  0.76720564  1
  O  O210  1  0.90033482  0.27794057  0.10053897  1
  O  O211  1  0.90033482  0.27794057  0.43387231  1
  O  O212  1  0.90033482  0.27794057  0.76720564  1
  O  O213  1  0.90033482  0.77794057  0.10053897  1
  O  O214  1  0.90033482  0.77794057  0.43387231  1
  O  O215  1  0.90033482  0.77794057  0.76720564  1
  O  O216  1  0.23366815  0.47205943  0.10053897  1
  O  O217  1  0.23366815  0.47205943  0.43387231  1
  O  O218  1  0.23366815  0.47205943  0.76720564  1
  O  O219  1  0.23366815  0.97205943  0.10053897  1
  O  O220  1  0.23366815  0.97205943  0.43387231  1
  O  O221  1  0.23366815  0.97205943  0.76720564  1
  O  O222  1  0.56700148  0.47205943  0.10053897  1
  O  O223  1  0.56700148  0.47205943  0.43387231  1
  O  O224  1  0.56700148  0.47205943  0.76720564  1
  O  O225  1  0.56700148  0.97205943  0.10053897  1
  O  O226  1  0.56700148  0.97205943  0.43387231  1
  O  O227  1  0.56700148  0.97205943  0.76720564  1
  O  O228  1  0.90033482  0.47205943  0.10053897  1
  O  O229  1  0.90033482  0.47205943  0.43387231  1
  O  O230  1  0.90033482  0.47205943  0.76720564  1
  O  O231  1  0.90033482  0.97205943  0.10053897  1
  O  O232  1  0.90033482  0.97205943  0.43387231  1
  O  O233  1  0.90033482  0.97205943  0.76720564  1
  O  O234  1  0.32035031  0.12500000  0.13152022  1
  O  O235  1  0.32035031  0.12500000  0.46485356  1
  O  O236  1  0.32035031  0.12500000  0.79818689  1
  O  O237  1  0.32035031  0.62500000  0.13152022  1
  O  O238  1  0.32035031  0.62500000  0.46485356  1
  O  O239  1  0.32035031  0.62500000  0.79818689  1
  O  O240  1  0.65368364  0.12500000  0.13152022  1
  O  O241  1  0.65368364  0.12500000  0.46485356  1
  O  O242  1  0.65368364  0.12500000  0.79818689  1
  O  O243  1  0.65368364  0.62500000  0.13152022  1
  O  O244  1  0.65368364  0.62500000  0.46485356  1
  O  O245  1  0.65368364  0.62500000  0.79818689  1
  O  O246  1  0.98701697  0.12500000  0.13152022  1
  O  O247  1  0.98701697  0.12500000  0.46485356  1
  O  O248  1  0.98701697  0.12500000  0.79818689  1
  O  O249  1  0.98701697  0.62500000  0.13152022  1
  O  O250  1  0.98701697  0.62500000  0.46485356  1
  O  O251  1  0.98701697  0.62500000  0.79818689  1
  O  O252  1  0.01298303  0.37500000  0.20181311  1
  O  O253  1  0.01298303  0.37500000  0.53514644  1
  O  O254  1  0.01298303  0.37500000  0.86847978  1
  O  O255  1  0.01298303  0.87500000  0.20181311  1
  O  O256  1  0.01298303  0.87500000  0.53514644  1
  O  O257  1  0.01298303  0.87500000  0.86847978  1
  O  O258  1  0.34631636  0.37500000  0.20181311  1
  O  O259  1  0.34631636  0.37500000  0.53514644  1
  O  O260  1  0.34631636  0.37500000  0.86847978  1
  O  O261  1  0.34631636  0.87500000  0.20181311  1
  O  O262  1  0.34631636  0.87500000  0.53514644  1
  O  O263  1  0.34631636  0.87500000  0.86847978  1
  O  O264  1  0.67964969  0.37500000  0.20181311  1
  O  O265  1  0.67964969  0.37500000  0.53514644  1
  O  O266  1  0.67964969  0.37500000  0.86847978  1
  O  O267  1  0.67964969  0.87500000  0.20181311  1
  O  O268  1  0.67964969  0.87500000  0.53514644  1
  O  O269  1  0.67964969  0.87500000  0.86847978  1
  O  O270  1  0.09966518  0.02794057  0.23279436  1
  O  O271  1  0.09966518  0.02794057  0.56612769  1
  O  O272  1  0.09966518  0.02794057  0.89946103  1
  O  O273  1  0.09966518  0.52794057  0.23279436  1
  O  O274  1  0.09966518  0.52794057  0.56612769  1
  O  O275  1  0.09966518  0.52794057  0.89946103  1
  O  O276  1  0.43299852  0.02794057  0.23279436  1
  O  O277  1  0.43299852  0.02794057  0.56612769  1
  O  O278  1  0.43299852  0.02794057  0.89946103  1
  O  O279  1  0.43299852  0.52794057  0.23279436  1
  O  O280  1  0.43299852  0.52794057  0.56612769  1
  O  O281  1  0.43299852  0.52794057  0.89946103  1
  O  O282  1  0.76633185  0.02794057  0.23279436  1
  O  O283  1  0.76633185  0.02794057  0.56612769  1
  O  O284  1  0.76633185  0.02794057  0.89946103  1
  O  O285  1  0.76633185  0.52794057  0.23279436  1
  O  O286  1  0.76633185  0.52794057  0.56612769  1
  O  O287  1  0.76633185  0.52794057  0.89946103  1
  O  O288  1  0.09966518  0.22205943  0.23279436  1
  O  O289  1  0.09966518  0.22205943  0.56612769  1
  O  O290  1  0.09966518  0.22205943  0.89946103  1
  O  O291  1  0.09966518  0.72205943  0.23279436  1
  O  O292  1  0.09966518  0.72205943  0.56612769  1
  O  O293  1  0.09966518  0.72205943  0.89946103  1
  O  O294  1  0.43299852  0.22205943  0.23279436  1
  O  O295  1  0.43299852  0.22205943  0.56612769  1
  O  O296  1  0.43299852  0.22205943  0.89946103  1
  O  O297  1  0.43299852  0.72205943  0.23279436  1
  O  O298  1  0.43299852  0.72205943  0.56612769  1
  O  O299  1  0.43299852  0.72205943  0.89946103  1
  O  O300  1  0.76633185  0.22205943  0.23279436  1
  O  O301  1  0.76633185  0.22205943  0.56612769  1
  O  O302  1  0.76633185  0.22205943  0.89946103  1
  O  O303  1  0.76633185  0.72205943  0.23279436  1
  O  O304  1  0.76633185  0.72205943  0.56612769  1
  O  O305  1  0.76633185  0.72205943  0.89946103  1
  O  O306  1  0.26633185  0.02794057  0.26720564  1
  O  O307  1  0.26633185  0.02794057  0.60053897  1
  O  O308  1  0.26633185  0.02794057  0.93387231  1
  O  O309  1  0.26633185  0.52794057  0.26720564  1
  O  O310  1  0.26633185  0.52794057  0.60053897  1
  O  O311  1  0.26633185  0.52794057  0.93387231  1
  O  O312  1  0.59966518  0.02794057  0.26720564  1
  O  O313  1  0.59966518  0.02794057  0.60053897  1
  O  O314  1  0.59966518  0.02794057  0.93387231  1
  O  O315  1  0.59966518  0.52794057  0.26720564  1
  O  O316  1  0.59966518  0.52794057  0.60053897  1
  O  O317  1  0.59966518  0.52794057  0.93387231  1
  O  O318  1  0.93299852  0.02794057  0.26720564  1
  O  O319  1  0.93299852  0.02794057  0.60053897  1
  O  O320  1  0.93299852  0.02794057  0.93387231  1
  O  O321  1  0.93299852  0.52794057  0.26720564  1
  O  O322  1  0.93299852  0.52794057  0.60053897  1
  O  O323  1  0.93299852  0.52794057  0.93387231  1
  O  O324  1  0.26633185  0.22205943  0.26720564  1
  O  O325  1  0.26633185  0.22205943  0.60053897  1
  O  O326  1  0.26633185  0.22205943  0.93387231  1
  O  O327  1  0.26633185  0.72205943  0.26720564  1
  O  O328  1  0.26633185  0.72205943  0.60053897  1
  O  O329  1  0.26633185  0.72205943  0.93387231  1
  O  O330  1  0.59966518  0.22205943  0.26720564  1
  O  O331  1  0.59966518  0.22205943  0.60053897  1
  O  O332  1  0.59966518  0.22205943  0.93387231  1
  O  O333  1  0.59966518  0.72205943  0.26720564  1
  O  O334  1  0.59966518  0.72205943  0.60053897  1
  O  O335  1  0.59966518  0.72205943  0.93387231  1
  O  O336  1  0.93299852  0.22205943  0.26720564  1
  O  O337  1  0.93299852  0.22205943  0.60053897  1
  O  O338  1  0.93299852  0.22205943  0.93387231  1
  O  O339  1  0.93299852  0.72205943  0.26720564  1
  O  O340  1  0.93299852  0.72205943  0.60053897  1
  O  O341  1  0.93299852  0.72205943  0.93387231  1
  O  O342  1  0.17964969  0.37500000  0.29818689  1
  O  O343  1  0.17964969  0.37500000  0.63152022  1
  O  O344  1  0.17964969  0.37500000  0.96485356  1
  O  O345  1  0.17964969  0.87500000  0.29818689  1
  O  O346  1  0.17964969  0.87500000  0.63152022  1
  O  O347  1  0.17964969  0.87500000  0.96485356  1
  O  O348  1  0.51298303  0.37500000  0.29818689  1
  O  O349  1  0.51298303  0.37500000  0.63152022  1
  O  O350  1  0.51298303  0.37500000  0.96485356  1
  O  O351  1  0.51298303  0.87500000  0.29818689  1
  O  O352  1  0.51298303  0.87500000  0.63152022  1
  O  O353  1  0.51298303  0.87500000  0.96485356  1
  O  O354  1  0.84631636  0.37500000  0.29818689  1
  O  O355  1  0.84631636  0.37500000  0.63152022  1
  O  O356  1  0.84631636  0.37500000  0.96485356  1
  O  O357  1  0.84631636  0.87500000  0.29818689  1
  O  O358  1  0.84631636  0.87500000  0.63152022  1
  O  O359  1  0.84631636  0.87500000  0.96485356  1
