# generated using pymatgen
data_Sr(AsO3)2
_symmetry_space_group_name_H-M   'P 1'
_cell_length_a   9.79663681
_cell_length_b   9.79663681
_cell_length_c   10.87495474
_cell_angle_alpha   90.00000000
_cell_angle_beta   90.00000000
_cell_angle_gamma   120.00000000
_symmetry_Int_Tables_number   1
_chemical_formula_structural   Sr(AsO3)2
_chemical_formula_sum   'Sr8 As16 O48'
_cell_volume   903.88276600
_cell_formula_units_Z   8
loop_
 _symmetry_equiv_pos_site_id
 _symmetry_equiv_pos_as_xyz
  1  'x, y, z'
loop_
 _atom_site_type_symbol
 _atom_site_label
 _atom_site_symmetry_multiplicity
 _atom_site_fract_x
 _atom_site_fract_y
 _atom_site_fract_z
 _atom_site_occupancy
  Sr  Sr0  1  0.00000000  0.00000000  0.75000000  1
  Sr  Sr1  1  0.00000000  0.50000000  0.75000000  1
  Sr  Sr2  1  0.50000000  0.00000000  0.75000000  1
  Sr  Sr3  1  0.50000000  0.50000000  0.75000000  1
  Sr  Sr4  1  0.00000000  0.00000000  0.25000000  1
  Sr  Sr5  1  0.00000000  0.50000000  0.25000000  1
  Sr  Sr6  1  0.50000000  0.00000000  0.25000000  1
  Sr  Sr7  1  0.50000000  0.50000000  0.25000000  1
  As  As8  1  0.16666667  0.33333333  0.50000000  1
  As  As9  1  0.16666667  0.83333333  0.50000000  1
  As  As10  1  0.66666667  0.33333333  0.50000000  1
  As  As11  1  0.66666667  0.83333333  0.50000000  1
  As  As12  1  0.33333333  0.16666667  0.50000000  1
  As  As13  1  0.33333333  0.66666667  0.50000000  1
  As  As14  1  0.83333333  0.16666667  0.50000000  1
  As  As15  1  0.83333333  0.66666667  0.50000000  1
  As  As16  1  0.16666667  0.33333333  0.00000000  1
  As  As17  1  0.16666667  0.83333333  0.00000000  1
  As  As18  1  0.66666667  0.33333333  0.00000000  1
  As  As19  1  0.66666667  0.83333333  0.00000000  1
  As  As20  1  0.33333333  0.16666667  0.00000000  1
  As  As21  1  0.33333333  0.66666667  0.00000000  1
  As  As22  1  0.83333333  0.16666667  0.00000000  1
  As  As23  1  0.83333333  0.66666667  0.00000000  1
  O  O24  1  0.30879821  0.00000000  0.59665415  1
  O  O25  1  0.30879821  0.50000000  0.59665415  1
  O  O26  1  0.80879821  0.00000000  0.59665415  1
  O  O27  1  0.80879821  0.50000000  0.59665415  1
  O  O28  1  -0.00000000  0.30879821  0.59665415  1
  O  O29  1  -0.00000000  0.80879821  0.59665415  1
  O  O30  1  0.50000000  0.30879821  0.59665415  1
  O  O31  1  0.50000000  0.80879821  0.59665415  1
  O  O32  1  0.19120179  0.19120179  0.59665415  1
  O  O33  1  0.19120179  0.69120179  0.59665415  1
  O  O34  1  0.69120179  0.19120179  0.59665415  1
  O  O35  1  0.69120179  0.69120179  0.59665415  1
  O  O36  1  0.30879821  0.00000000  0.90334585  1
  O  O37  1  0.30879821  0.50000000  0.90334585  1
  O  O38  1  0.80879821  0.00000000  0.90334585  1
  O  O39  1  0.80879821  0.50000000  0.90334585  1
  O  O40  1  -0.00000000  0.30879821  0.90334585  1
  O  O41  1  -0.00000000  0.80879821  0.90334585  1
  O  O42  1  0.50000000  0.30879821  0.90334585  1
  O  O43  1  0.50000000  0.80879821  0.90334585  1
  O  O44  1  0.19120179  0.19120179  0.90334585  1
  O  O45  1  0.19120179  0.69120179  0.90334585  1
  O  O46  1  0.69120179  0.19120179  0.90334585  1
  O  O47  1  0.69120179  0.69120179  0.90334585  1
  O  O48  1  0.00000000  0.19120179  0.09665415  1
  O  O49  1  -0.00000000  0.69120179  0.09665415  1
  O  O50  1  0.50000000  0.19120179  0.09665415  1
  O  O51  1  0.50000000  0.69120179  0.09665415  1
  O  O52  1  0.19120179  0.00000000  0.09665415  1
  O  O53  1  0.19120179  0.50000000  0.09665415  1
  O  O54  1  0.69120179  0.00000000  0.09665415  1
  O  O55  1  0.69120179  0.50000000  0.09665415  1
  O  O56  1  0.30879821  0.30879821  0.09665415  1
  O  O57  1  0.30879821  0.80879821  0.09665415  1
  O  O58  1  0.80879821  0.30879821  0.09665415  1
  O  O59  1  0.80879821  0.80879821  0.09665415  1
  O  O60  1  0.19120179  0.00000000  0.40334585  1
  O  O61  1  0.19120179  0.50000000  0.40334585  1
  O  O62  1  0.69120179  0.00000000  0.40334585  1
  O  O63  1  0.69120179  0.50000000  0.40334585  1
  O  O64  1  0.00000000  0.19120179  0.40334585  1
  O  O65  1  -0.00000000  0.69120179  0.40334585  1
  O  O66  1  0.50000000  0.19120179  0.40334585  1
  O  O67  1  0.50000000  0.69120179  0.40334585  1
  O  O68  1  0.30879821  0.30879821  0.40334585  1
  O  O69  1  0.30879821  0.80879821  0.40334585  1
  O  O70  1  0.80879821  0.30879821  0.40334585  1
  O  O71  1  0.80879821  0.80879821  0.40334585  1
