# generated using pymatgen
data_Rb2Si3SnO9
_symmetry_space_group_name_H-M   'P 1'
_cell_length_a   14.00175746
_cell_length_b   14.00175746
_cell_length_c   10.11628200
_cell_angle_alpha   90.00000000
_cell_angle_beta   90.00000000
_cell_angle_gamma   120.00000000
_symmetry_Int_Tables_number   1
_chemical_formula_structural   Rb2Si3SnO9
_chemical_formula_sum   'Rb16 Si24 Sn8 O72'
_cell_volume   1717.57875530
_cell_formula_units_Z   8
loop_
 _symmetry_equiv_pos_site_id
 _symmetry_equiv_pos_as_xyz
  1  'x, y, z'
loop_
 _atom_site_type_symbol
 _atom_site_label
 _atom_site_symmetry_multiplicity
 _atom_site_fract_x
 _atom_site_fract_y
 _atom_site_fract_z
 _atom_site_occupancy
  Rb  Rb0  1  0.33333333  0.16666667  0.55801683  1
  Rb  Rb1  1  0.33333333  0.66666667  0.55801683  1
  Rb  Rb2  1  0.83333333  0.16666667  0.55801683  1
  Rb  Rb3  1  0.83333333  0.66666667  0.55801683  1
  Rb  Rb4  1  0.16666667  0.33333333  0.05801683  1
  Rb  Rb5  1  0.16666667  0.83333333  0.05801683  1
  Rb  Rb6  1  0.66666667  0.33333333  0.05801683  1
  Rb  Rb7  1  0.66666667  0.83333333  0.05801683  1
  Rb  Rb8  1  0.33333333  0.16666667  0.94198317  1
  Rb  Rb9  1  0.33333333  0.66666667  0.94198317  1
  Rb  Rb10  1  0.83333333  0.16666667  0.94198317  1
  Rb  Rb11  1  0.83333333  0.66666667  0.94198317  1
  Rb  Rb12  1  0.16666667  0.33333333  0.44198317  1
  Rb  Rb13  1  0.16666667  0.83333333  0.44198317  1
  Rb  Rb14  1  0.66666667  0.33333333  0.44198317  1
  Rb  Rb15  1  0.66666667  0.83333333  0.44198317  1
  Si  Si16  1  0.37610140  0.06749275  0.25000000  1
  Si  Si17  1  0.37610140  0.56749275  0.25000000  1
  Si  Si18  1  0.87610140  0.06749275  0.25000000  1
  Si  Si19  1  0.87610140  0.56749275  0.25000000  1
  Si  Si20  1  0.30860865  0.37610140  0.75000000  1
  Si  Si21  1  0.30860865  0.87610140  0.75000000  1
  Si  Si22  1  0.80860865  0.37610140  0.75000000  1
  Si  Si23  1  0.80860865  0.87610140  0.75000000  1
  Si  Si24  1  0.06749275  0.19139135  0.75000000  1
  Si  Si25  1  0.06749275  0.69139135  0.75000000  1
  Si  Si26  1  0.56749275  0.19139135  0.75000000  1
  Si  Si27  1  0.56749275  0.69139135  0.75000000  1
  Si  Si28  1  0.43250725  0.30860865  0.25000000  1
  Si  Si29  1  0.43250725  0.80860865  0.25000000  1
  Si  Si30  1  0.93250725  0.30860865  0.25000000  1
  Si  Si31  1  0.93250725  0.80860865  0.25000000  1
  Si  Si32  1  0.19139135  0.12389860  0.25000000  1
  Si  Si33  1  0.19139135  0.62389860  0.25000000  1
  Si  Si34  1  0.69139135  0.12389860  0.25000000  1
  Si  Si35  1  0.69139135  0.62389860  0.25000000  1
  Si  Si36  1  0.12389860  0.43250725  0.75000000  1
  Si  Si37  1  0.12389860  0.93250725  0.75000000  1
  Si  Si38  1  0.62389860  0.43250725  0.75000000  1
  Si  Si39  1  0.62389860  0.93250725  0.75000000  1
  Sn  Sn40  1  0.00000000  0.00000000  0.50000000  1
  Sn  Sn41  1  -0.00000000  0.50000000  0.50000000  1
  Sn  Sn42  1  0.50000000  0.00000000  0.50000000  1
  Sn  Sn43  1  0.50000000  0.50000000  0.50000000  1
  Sn  Sn44  1  0.00000000  0.00000000  0.00000000  1
  Sn  Sn45  1  -0.00000000  0.50000000  0.00000000  1
  Sn  Sn46  1  0.50000000  0.00000000  0.00000000  1
  Sn  Sn47  1  0.50000000  0.50000000  0.00000000  1
  O  O48  1  0.11368027  0.48596014  0.88660415  1
  O  O49  1  0.11368027  0.98596014  0.88660415  1
  O  O50  1  0.61368027  0.48596014  0.88660415  1
  O  O51  1  0.61368027  0.98596014  0.88660415  1
  O  O52  1  0.12772014  0.11368027  0.38660415  1
  O  O53  1  0.12772014  0.61368027  0.38660415  1
  O  O54  1  0.62772014  0.11368027  0.38660415  1
  O  O55  1  0.62772014  0.61368027  0.38660415  1
  O  O56  1  0.48596014  0.37227986  0.38660415  1
  O  O57  1  0.48596014  0.87227986  0.38660415  1
  O  O58  1  0.98596014  0.37227986  0.38660415  1
  O  O59  1  0.98596014  0.87227986  0.38660415  1
  O  O60  1  0.01403986  0.12772014  0.88660415  1
  O  O61  1  0.01403986  0.62772014  0.88660415  1
  O  O62  1  0.51403986  0.12772014  0.88660415  1
  O  O63  1  0.51403986  0.62772014  0.88660415  1
  O  O64  1  0.37227986  0.38631973  0.88660415  1
  O  O65  1  0.37227986  0.88631973  0.88660415  1
  O  O66  1  0.87227986  0.38631973  0.88660415  1
  O  O67  1  0.87227986  0.88631973  0.88660415  1
  O  O68  1  0.38631973  0.01403986  0.38660415  1
  O  O69  1  0.38631973  0.51403986  0.38660415  1
  O  O70  1  0.88631973  0.01403986  0.38660415  1
  O  O71  1  0.88631973  0.51403986  0.38660415  1
  O  O72  1  0.38631973  0.01403986  0.11339585  1
  O  O73  1  0.38631973  0.51403986  0.11339585  1
  O  O74  1  0.88631973  0.01403986  0.11339585  1
  O  O75  1  0.88631973  0.51403986  0.11339585  1
  O  O76  1  0.37227986  0.38631973  0.61339585  1
  O  O77  1  0.37227986  0.88631973  0.61339585  1
  O  O78  1  0.87227986  0.38631973  0.61339585  1
  O  O79  1  0.87227986  0.88631973  0.61339585  1
  O  O80  1  0.01403986  0.12772014  0.61339585  1
  O  O81  1  0.01403986  0.62772014  0.61339585  1
  O  O82  1  0.51403986  0.12772014  0.61339585  1
  O  O83  1  0.51403986  0.62772014  0.61339585  1
  O  O84  1  0.48596014  0.37227986  0.11339585  1
  O  O85  1  0.48596014  0.87227986  0.11339585  1
  O  O86  1  0.98596014  0.37227986  0.11339585  1
  O  O87  1  0.98596014  0.87227986  0.11339585  1
  O  O88  1  0.12772014  0.11368027  0.11339585  1
  O  O89  1  0.12772014  0.61368027  0.11339585  1
  O  O90  1  0.62772014  0.11368027  0.11339585  1
  O  O91  1  0.62772014  0.61368027  0.11339585  1
  O  O92  1  0.11368027  0.48596014  0.61339585  1
  O  O93  1  0.11368027  0.98596014  0.61339585  1
  O  O94  1  0.61368027  0.48596014  0.61339585  1
  O  O95  1  0.61368027  0.98596014  0.61339585  1
  O  O96  1  0.04348451  0.29678821  0.75000000  1
  O  O97  1  0.04348451  0.79678821  0.75000000  1
  O  O98  1  0.54348451  0.29678821  0.75000000  1
  O  O99  1  0.54348451  0.79678821  0.75000000  1
  O  O100  1  0.24669630  0.04348451  0.25000000  1
  O  O101  1  0.24669630  0.54348451  0.25000000  1
  O  O102  1  0.74669630  0.04348451  0.25000000  1
  O  O103  1  0.74669630  0.54348451  0.25000000  1
  O  O104  1  0.29678821  0.25330370  0.25000000  1
  O  O105  1  0.29678821  0.75330370  0.25000000  1
  O  O106  1  0.79678821  0.25330370  0.25000000  1
  O  O107  1  0.79678821  0.75330370  0.25000000  1
  O  O108  1  0.20321179  0.24669630  0.75000000  1
  O  O109  1  0.20321179  0.74669630  0.75000000  1
  O  O110  1  0.70321179  0.24669630  0.75000000  1
  O  O111  1  0.70321179  0.74669630  0.75000000  1
  O  O112  1  0.25330370  0.45651549  0.75000000  1
  O  O113  1  0.25330370  0.95651549  0.75000000  1
  O  O114  1  0.75330370  0.45651549  0.75000000  1
  O  O115  1  0.75330370  0.95651549  0.75000000  1
  O  O116  1  0.45651549  0.20321179  0.25000000  1
  O  O117  1  0.45651549  0.70321179  0.25000000  1
  O  O118  1  0.95651549  0.20321179  0.25000000  1
  O  O119  1  0.95651549  0.70321179  0.25000000  1
