# generated using pymatgen
data_Na4SiO4
_symmetry_space_group_name_H-M   'P 1'
_cell_length_a   16.57445815
_cell_length_b   16.57916346
_cell_length_c   16.72241889
_cell_angle_alpha   81.00897858
_cell_angle_beta   71.65571637
_cell_angle_gamma   67.75652919
_symmetry_Int_Tables_number   1
_chemical_formula_structural   Na4SiO4
_chemical_formula_sum   'Na144 Si36 O144'
_cell_volume   4033.46218475
_cell_formula_units_Z   36
loop_
 _symmetry_equiv_pos_site_id
 _symmetry_equiv_pos_as_xyz
  1  'x, y, z'
loop_
 _atom_site_type_symbol
 _atom_site_label
 _atom_site_symmetry_multiplicity
 _atom_site_fract_x
 _atom_site_fract_y
 _atom_site_fract_z
 _atom_site_occupancy
  Na  Na0  1  0.32707856  0.07762812  0.03157800  1
  Na  Na1  1  0.32707856  0.07762812  0.53157800  1
  Na  Na2  1  0.32707856  0.41096145  0.03157800  1
  Na  Na3  1  0.32707856  0.41096145  0.53157800  1
  Na  Na4  1  0.32707856  0.74429479  0.03157800  1
  Na  Na5  1  0.32707856  0.74429479  0.53157800  1
  Na  Na6  1  0.66041190  0.07762812  0.03157800  1
  Na  Na7  1  0.66041190  0.07762812  0.53157800  1
  Na  Na8  1  0.66041190  0.41096145  0.03157800  1
  Na  Na9  1  0.66041190  0.41096145  0.53157800  1
  Na  Na10  1  0.66041190  0.74429479  0.03157800  1
  Na  Na11  1  0.66041190  0.74429479  0.53157800  1
  Na  Na12  1  0.99374523  0.07762812  0.03157800  1
  Na  Na13  1  0.99374523  0.07762812  0.53157800  1
  Na  Na14  1  0.99374523  0.41096145  0.03157800  1
  Na  Na15  1  0.99374523  0.41096145  0.53157800  1
  Na  Na16  1  0.99374523  0.74429479  0.03157800  1
  Na  Na17  1  0.99374523  0.74429479  0.53157800  1
  Na  Na18  1  0.15065201  0.24544634  0.05370905  1
  Na  Na19  1  0.15065201  0.24544634  0.55370905  1
  Na  Na20  1  0.15065201  0.57877968  0.05370905  1
  Na  Na21  1  0.15065201  0.57877968  0.55370905  1
  Na  Na22  1  0.15065201  0.91211301  0.05370905  1
  Na  Na23  1  0.15065201  0.91211301  0.55370905  1
  Na  Na24  1  0.48398534  0.24544634  0.05370905  1
  Na  Na25  1  0.48398534  0.24544634  0.55370905  1
  Na  Na26  1  0.48398534  0.57877968  0.05370905  1
  Na  Na27  1  0.48398534  0.57877968  0.55370905  1
  Na  Na28  1  0.48398534  0.91211301  0.05370905  1
  Na  Na29  1  0.48398534  0.91211301  0.55370905  1
  Na  Na30  1  0.81731868  0.24544634  0.05370905  1
  Na  Na31  1  0.81731868  0.24544634  0.55370905  1
  Na  Na32  1  0.81731868  0.57877968  0.05370905  1
  Na  Na33  1  0.81731868  0.57877968  0.55370905  1
  Na  Na34  1  0.81731868  0.91211301  0.05370905  1
  Na  Na35  1  0.81731868  0.91211301  0.55370905  1
  Na  Na36  1  0.29962579  0.25526669  0.16380072  1
  Na  Na37  1  0.29962579  0.25526669  0.66380072  1
  Na  Na38  1  0.29962579  0.58860002  0.16380072  1
  Na  Na39  1  0.29962579  0.58860002  0.66380072  1
  Na  Na40  1  0.29962579  0.92193336  0.16380072  1
  Na  Na41  1  0.29962579  0.92193336  0.66380072  1
  Na  Na42  1  0.63295912  0.25526669  0.16380072  1
  Na  Na43  1  0.63295912  0.25526669  0.66380072  1
  Na  Na44  1  0.63295912  0.58860002  0.16380072  1
  Na  Na45  1  0.63295912  0.58860002  0.66380072  1
  Na  Na46  1  0.63295912  0.92193336  0.16380072  1
  Na  Na47  1  0.63295912  0.92193336  0.66380072  1
  Na  Na48  1  0.96629246  0.25526669  0.16380072  1
  Na  Na49  1  0.96629246  0.25526669  0.66380072  1
  Na  Na50  1  0.96629246  0.58860002  0.16380072  1
  Na  Na51  1  0.96629246  0.58860002  0.66380072  1
  Na  Na52  1  0.96629246  0.92193336  0.16380072  1
  Na  Na53  1  0.96629246  0.92193336  0.66380072  1
  Na  Na54  1  0.08777748  0.24779930  0.25824995  1
  Na  Na55  1  0.08777748  0.24779930  0.75824995  1
  Na  Na56  1  0.08777748  0.58113264  0.25824995  1
  Na  Na57  1  0.08777748  0.58113264  0.75824995  1
  Na  Na58  1  0.08777748  0.91446597  0.25824995  1
  Na  Na59  1  0.08777748  0.91446597  0.75824995  1
  Na  Na60  1  0.42111081  0.24779930  0.25824995  1
  Na  Na61  1  0.42111081  0.24779930  0.75824995  1
  Na  Na62  1  0.42111081  0.58113264  0.25824995  1
  Na  Na63  1  0.42111081  0.58113264  0.75824995  1
  Na  Na64  1  0.42111081  0.91446597  0.25824995  1
  Na  Na65  1  0.42111081  0.91446597  0.75824995  1
  Na  Na66  1  0.75444415  0.24779930  0.25824995  1
  Na  Na67  1  0.75444415  0.24779930  0.75824995  1
  Na  Na68  1  0.75444415  0.58113264  0.25824995  1
  Na  Na69  1  0.75444415  0.58113264  0.75824995  1
  Na  Na70  1  0.75444415  0.91446597  0.25824995  1
  Na  Na71  1  0.75444415  0.91446597  0.75824995  1
  Na  Na72  1  0.24555585  0.08553403  0.24175005  1
  Na  Na73  1  0.24555585  0.08553403  0.74175005  1
  Na  Na74  1  0.24555585  0.41886736  0.24175005  1
  Na  Na75  1  0.24555585  0.41886736  0.74175005  1
  Na  Na76  1  0.24555585  0.75220070  0.24175005  1
  Na  Na77  1  0.24555585  0.75220070  0.74175005  1
  Na  Na78  1  0.57888919  0.08553403  0.24175005  1
  Na  Na79  1  0.57888919  0.08553403  0.74175005  1
  Na  Na80  1  0.57888919  0.41886736  0.24175005  1
  Na  Na81  1  0.57888919  0.41886736  0.74175005  1
  Na  Na82  1  0.57888919  0.75220070  0.24175005  1
  Na  Na83  1  0.57888919  0.75220070  0.74175005  1
  Na  Na84  1  0.91222252  0.08553403  0.24175005  1
  Na  Na85  1  0.91222252  0.08553403  0.74175005  1
  Na  Na86  1  0.91222252  0.41886736  0.24175005  1
  Na  Na87  1  0.91222252  0.41886736  0.74175005  1
  Na  Na88  1  0.91222252  0.75220070  0.24175005  1
  Na  Na89  1  0.91222252  0.75220070  0.74175005  1
  Na  Na90  1  0.18268132  0.08788699  0.44629095  1
  Na  Na91  1  0.18268132  0.08788699  0.94629095  1
  Na  Na92  1  0.18268132  0.42122032  0.44629095  1
  Na  Na93  1  0.18268132  0.42122032  0.94629095  1
  Na  Na94  1  0.18268132  0.75455366  0.44629095  1
  Na  Na95  1  0.18268132  0.75455366  0.94629095  1
  Na  Na96  1  0.51601466  0.08788699  0.44629095  1
  Na  Na97  1  0.51601466  0.08788699  0.94629095  1
  Na  Na98  1  0.51601466  0.42122032  0.44629095  1
  Na  Na99  1  0.51601466  0.42122032  0.94629095  1
  Na  Na100  1  0.51601466  0.75455366  0.44629095  1
  Na  Na101  1  0.51601466  0.75455366  0.94629095  1
  Na  Na102  1  0.84934799  0.08788699  0.44629095  1
  Na  Na103  1  0.84934799  0.08788699  0.94629095  1
  Na  Na104  1  0.84934799  0.42122032  0.44629095  1
  Na  Na105  1  0.84934799  0.42122032  0.94629095  1
  Na  Na106  1  0.84934799  0.75455366  0.44629095  1
  Na  Na107  1  0.84934799  0.75455366  0.94629095  1
  Na  Na108  1  0.00625477  0.25570521  0.46842200  1
  Na  Na109  1  0.00625477  0.25570521  0.96842200  1
  Na  Na110  1  0.00625477  0.58903855  0.46842200  1
  Na  Na111  1  0.00625477  0.58903855  0.96842200  1
  Na  Na112  1  0.00625477  0.92237188  0.46842200  1
  Na  Na113  1  0.00625477  0.92237188  0.96842200  1
  Na  Na114  1  0.33958810  0.25570521  0.46842200  1
  Na  Na115  1  0.33958810  0.25570521  0.96842200  1
  Na  Na116  1  0.33958810  0.58903855  0.46842200  1
  Na  Na117  1  0.33958810  0.58903855  0.96842200  1
  Na  Na118  1  0.33958810  0.92237188  0.46842200  1
  Na  Na119  1  0.33958810  0.92237188  0.96842200  1
  Na  Na120  1  0.67292144  0.25570521  0.46842200  1
  Na  Na121  1  0.67292144  0.25570521  0.96842200  1
  Na  Na122  1  0.67292144  0.58903855  0.46842200  1
  Na  Na123  1  0.67292144  0.58903855  0.96842200  1
  Na  Na124  1  0.67292144  0.92237188  0.46842200  1
  Na  Na125  1  0.67292144  0.92237188  0.96842200  1
  Na  Na126  1  0.03370754  0.07806664  0.33619928  1
  Na  Na127  1  0.03370754  0.07806664  0.83619928  1
  Na  Na128  1  0.03370754  0.41139998  0.33619928  1
  Na  Na129  1  0.03370754  0.41139998  0.83619928  1
  Na  Na130  1  0.03370754  0.74473331  0.33619928  1
  Na  Na131  1  0.03370754  0.74473331  0.83619928  1
  Na  Na132  1  0.36704088  0.07806664  0.33619928  1
  Na  Na133  1  0.36704088  0.07806664  0.83619928  1
  Na  Na134  1  0.36704088  0.41139998  0.33619928  1
  Na  Na135  1  0.36704088  0.41139998  0.83619928  1
  Na  Na136  1  0.36704088  0.74473331  0.33619928  1
  Na  Na137  1  0.36704088  0.74473331  0.83619928  1
  Na  Na138  1  0.70037421  0.07806664  0.33619928  1
  Na  Na139  1  0.70037421  0.07806664  0.83619928  1
  Na  Na140  1  0.70037421  0.41139998  0.33619928  1
  Na  Na141  1  0.70037421  0.41139998  0.83619928  1
  Na  Na142  1  0.70037421  0.74473331  0.33619928  1
  Na  Na143  1  0.70037421  0.74473331  0.83619928  1
  Si  Si144  1  0.11424591  0.07440305  0.12626865  1
  Si  Si145  1  0.11424591  0.07440305  0.62626865  1
  Si  Si146  1  0.11424591  0.40773638  0.12626865  1
  Si  Si147  1  0.11424591  0.40773638  0.62626865  1
  Si  Si148  1  0.11424591  0.74106971  0.12626865  1
  Si  Si149  1  0.11424591  0.74106971  0.62626865  1
  Si  Si150  1  0.44757924  0.07440305  0.12626865  1
  Si  Si151  1  0.44757924  0.07440305  0.62626865  1
  Si  Si152  1  0.44757924  0.40773638  0.12626865  1
  Si  Si153  1  0.44757924  0.40773638  0.62626865  1
  Si  Si154  1  0.44757924  0.74106971  0.12626865  1
  Si  Si155  1  0.44757924  0.74106971  0.62626865  1
  Si  Si156  1  0.78091258  0.07440305  0.12626865  1
  Si  Si157  1  0.78091258  0.07440305  0.62626865  1
  Si  Si158  1  0.78091258  0.40773638  0.12626865  1
  Si  Si159  1  0.78091258  0.40773638  0.62626865  1
  Si  Si160  1  0.78091258  0.74106971  0.12626865  1
  Si  Si161  1  0.78091258  0.74106971  0.62626865  1
  Si  Si162  1  0.21908742  0.25893029  0.37373135  1
  Si  Si163  1  0.21908742  0.25893029  0.87373135  1
  Si  Si164  1  0.21908742  0.59226362  0.37373135  1
  Si  Si165  1  0.21908742  0.59226362  0.87373135  1
  Si  Si166  1  0.21908742  0.92559695  0.37373135  1
  Si  Si167  1  0.21908742  0.92559695  0.87373135  1
  Si  Si168  1  0.55242076  0.25893029  0.37373135  1
  Si  Si169  1  0.55242076  0.25893029  0.87373135  1
  Si  Si170  1  0.55242076  0.59226362  0.37373135  1
  Si  Si171  1  0.55242076  0.59226362  0.87373135  1
  Si  Si172  1  0.55242076  0.92559695  0.37373135  1
  Si  Si173  1  0.55242076  0.92559695  0.87373135  1
  Si  Si174  1  0.88575409  0.25893029  0.37373135  1
  Si  Si175  1  0.88575409  0.25893029  0.87373135  1
  Si  Si176  1  0.88575409  0.59226362  0.37373135  1
  Si  Si177  1  0.88575409  0.59226362  0.87373135  1
  Si  Si178  1  0.88575409  0.92559695  0.37373135  1
  Si  Si179  1  0.88575409  0.92559695  0.87373135  1
  O  O180  1  0.11575411  0.32031216  0.42717256  1
  O  O181  1  0.11575411  0.32031216  0.92717256  1
  O  O182  1  0.11575411  0.65364549  0.42717256  1
  O  O183  1  0.11575411  0.65364549  0.92717256  1
  O  O184  1  0.11575411  0.98697882  0.42717256  1
  O  O185  1  0.11575411  0.98697882  0.92717256  1
  O  O186  1  0.44908745  0.32031216  0.42717256  1
  O  O187  1  0.44908745  0.32031216  0.92717256  1
  O  O188  1  0.44908745  0.65364549  0.42717256  1
  O  O189  1  0.44908745  0.65364549  0.92717256  1
  O  O190  1  0.44908745  0.98697882  0.42717256  1
  O  O191  1  0.44908745  0.98697882  0.92717256  1
  O  O192  1  0.78242078  0.32031216  0.42717256  1
  O  O193  1  0.78242078  0.32031216  0.92717256  1
  O  O194  1  0.78242078  0.65364549  0.42717256  1
  O  O195  1  0.78242078  0.65364549  0.92717256  1
  O  O196  1  0.78242078  0.98697882  0.42717256  1
  O  O197  1  0.78242078  0.98697882  0.92717256  1
  O  O198  1  0.26405429  0.17801507  0.43719293  1
  O  O199  1  0.26405429  0.17801507  0.93719293  1
  O  O200  1  0.26405429  0.51134841  0.43719293  1
  O  O201  1  0.26405429  0.51134841  0.93719293  1
  O  O202  1  0.26405429  0.84468174  0.43719293  1
  O  O203  1  0.26405429  0.84468174  0.93719293  1
  O  O204  1  0.59738763  0.17801507  0.43719293  1
  O  O205  1  0.59738763  0.17801507  0.93719293  1
  O  O206  1  0.59738763  0.51134841  0.43719293  1
  O  O207  1  0.59738763  0.51134841  0.93719293  1
  O  O208  1  0.59738763  0.84468174  0.43719293  1
  O  O209  1  0.59738763  0.84468174  0.93719293  1
  O  O210  1  0.93072096  0.17801507  0.43719293  1
  O  O211  1  0.93072096  0.17801507  0.93719293  1
  O  O212  1  0.93072096  0.51134841  0.43719293  1
  O  O213  1  0.93072096  0.51134841  0.93719293  1
  O  O214  1  0.93072096  0.84468174  0.43719293  1
  O  O215  1  0.93072096  0.84468174  0.93719293  1
  O  O216  1  0.06927904  0.15531826  0.06280707  1
  O  O217  1  0.06927904  0.15531826  0.56280707  1
  O  O218  1  0.06927904  0.48865159  0.06280707  1
  O  O219  1  0.06927904  0.48865159  0.56280707  1
  O  O220  1  0.06927904  0.82198493  0.06280707  1
  O  O221  1  0.06927904  0.82198493  0.56280707  1
  O  O222  1  0.40261237  0.15531826  0.06280707  1
  O  O223  1  0.40261237  0.15531826  0.56280707  1
  O  O224  1  0.40261237  0.48865159  0.06280707  1
  O  O225  1  0.40261237  0.48865159  0.56280707  1
  O  O226  1  0.40261237  0.82198493  0.06280707  1
  O  O227  1  0.40261237  0.82198493  0.56280707  1
  O  O228  1  0.73594571  0.15531826  0.06280707  1
  O  O229  1  0.73594571  0.15531826  0.56280707  1
  O  O230  1  0.73594571  0.48865159  0.06280707  1
  O  O231  1  0.73594571  0.48865159  0.56280707  1
  O  O232  1  0.73594571  0.82198493  0.06280707  1
  O  O233  1  0.73594571  0.82198493  0.56280707  1
  O  O234  1  0.28344136  0.32042061  0.34719892  1
  O  O235  1  0.28344136  0.32042061  0.84719892  1
  O  O236  1  0.28344136  0.65375394  0.34719892  1
  O  O237  1  0.28344136  0.65375394  0.84719892  1
  O  O238  1  0.28344136  0.98708727  0.34719892  1
  O  O239  1  0.28344136  0.98708727  0.84719892  1
  O  O240  1  0.61677470  0.32042061  0.34719892  1
  O  O241  1  0.61677470  0.32042061  0.84719892  1
  O  O242  1  0.61677470  0.65375394  0.34719892  1
  O  O243  1  0.61677470  0.65375394  0.84719892  1
  O  O244  1  0.61677470  0.98708727  0.34719892  1
  O  O245  1  0.61677470  0.98708727  0.84719892  1
  O  O246  1  0.95010803  0.32042061  0.34719892  1
  O  O247  1  0.95010803  0.32042061  0.84719892  1
  O  O248  1  0.95010803  0.65375394  0.34719892  1
  O  O249  1  0.95010803  0.65375394  0.84719892  1
  O  O250  1  0.95010803  0.98708727  0.34719892  1
  O  O251  1  0.95010803  0.98708727  0.84719892  1
  O  O252  1  0.04989197  0.01291273  0.15280108  1
  O  O253  1  0.04989197  0.01291273  0.65280108  1
  O  O254  1  0.04989197  0.34624606  0.15280108  1
  O  O255  1  0.04989197  0.34624606  0.65280108  1
  O  O256  1  0.04989197  0.67957939  0.15280108  1
  O  O257  1  0.04989197  0.67957939  0.65280108  1
  O  O258  1  0.38322530  0.01291273  0.15280108  1
  O  O259  1  0.38322530  0.01291273  0.65280108  1
  O  O260  1  0.38322530  0.34624606  0.15280108  1
  O  O261  1  0.38322530  0.34624606  0.65280108  1
  O  O262  1  0.38322530  0.67957939  0.15280108  1
  O  O263  1  0.38322530  0.67957939  0.65280108  1
  O  O264  1  0.71655864  0.01291273  0.15280108  1
  O  O265  1  0.71655864  0.01291273  0.65280108  1
  O  O266  1  0.71655864  0.34624606  0.15280108  1
  O  O267  1  0.71655864  0.34624606  0.65280108  1
  O  O268  1  0.71655864  0.67957939  0.15280108  1
  O  O269  1  0.71655864  0.67957939  0.65280108  1
  O  O270  1  0.21724341  0.21636552  0.29207042  1
  O  O271  1  0.21724341  0.21636552  0.79207042  1
  O  O272  1  0.21724341  0.54969885  0.29207042  1
  O  O273  1  0.21724341  0.54969885  0.79207042  1
  O  O274  1  0.21724341  0.88303218  0.29207042  1
  O  O275  1  0.21724341  0.88303218  0.79207042  1
  O  O276  1  0.55057674  0.21636552  0.29207042  1
  O  O277  1  0.55057674  0.21636552  0.79207042  1
  O  O278  1  0.55057674  0.54969885  0.29207042  1
  O  O279  1  0.55057674  0.54969885  0.79207042  1
  O  O280  1  0.55057674  0.88303218  0.29207042  1
  O  O281  1  0.55057674  0.88303218  0.79207042  1
  O  O282  1  0.88391007  0.21636552  0.29207042  1
  O  O283  1  0.88391007  0.21636552  0.79207042  1
  O  O284  1  0.88391007  0.54969885  0.29207042  1
  O  O285  1  0.88391007  0.54969885  0.79207042  1
  O  O286  1  0.88391007  0.88303218  0.29207042  1
  O  O287  1  0.88391007  0.88303218  0.79207042  1
  O  O288  1  0.21757922  0.01302118  0.07282744  1
  O  O289  1  0.21757922  0.01302118  0.57282744  1
  O  O290  1  0.21757922  0.34635451  0.07282744  1
  O  O291  1  0.21757922  0.34635451  0.57282744  1
  O  O292  1  0.21757922  0.67968784  0.07282744  1
  O  O293  1  0.21757922  0.67968784  0.57282744  1
  O  O294  1  0.55091255  0.01302118  0.07282744  1
  O  O295  1  0.55091255  0.01302118  0.57282744  1
  O  O296  1  0.55091255  0.34635451  0.07282744  1
  O  O297  1  0.55091255  0.34635451  0.57282744  1
  O  O298  1  0.55091255  0.67968784  0.07282744  1
  O  O299  1  0.55091255  0.67968784  0.57282744  1
  O  O300  1  0.88424589  0.01302118  0.07282744  1
  O  O301  1  0.88424589  0.01302118  0.57282744  1
  O  O302  1  0.88424589  0.34635451  0.07282744  1
  O  O303  1  0.88424589  0.34635451  0.57282744  1
  O  O304  1  0.88424589  0.67968784  0.07282744  1
  O  O305  1  0.88424589  0.67968784  0.57282744  1
  O  O306  1  0.11608993  0.11696782  0.20792958  1
  O  O307  1  0.11608993  0.11696782  0.70792958  1
  O  O308  1  0.11608993  0.45030115  0.20792958  1
  O  O309  1  0.11608993  0.45030115  0.70792958  1
  O  O310  1  0.11608993  0.78363448  0.20792958  1
  O  O311  1  0.11608993  0.78363448  0.70792958  1
  O  O312  1  0.44942326  0.11696782  0.20792958  1
  O  O313  1  0.44942326  0.11696782  0.70792958  1
  O  O314  1  0.44942326  0.45030115  0.20792958  1
  O  O315  1  0.44942326  0.45030115  0.70792958  1
  O  O316  1  0.44942326  0.78363448  0.20792958  1
  O  O317  1  0.44942326  0.78363448  0.70792958  1
  O  O318  1  0.78275659  0.11696782  0.20792958  1
  O  O319  1  0.78275659  0.11696782  0.70792958  1
  O  O320  1  0.78275659  0.45030115  0.20792958  1
  O  O321  1  0.78275659  0.45030115  0.70792958  1
  O  O322  1  0.78275659  0.78363448  0.20792958  1
  O  O323  1  0.78275659  0.78363448  0.70792958  1
