# generated using pymatgen
data_KNbWO6
_symmetry_space_group_name_H-M   'P 1'
_cell_length_a   22.18831771
_cell_length_b   20.67538848
_cell_length_c   15.01694070
_cell_angle_alpha   90.00000000
_cell_angle_beta   90.00000000
_cell_angle_gamma   90.00000000
_symmetry_Int_Tables_number   1
_chemical_formula_structural   KNbWO6
_chemical_formula_sum   'K48 Nb48 W48 O288'
_cell_volume   6889.05290510
_cell_formula_units_Z   48
loop_
 _symmetry_equiv_pos_site_id
 _symmetry_equiv_pos_as_xyz
  1  'x, y, z'
loop_
 _atom_site_type_symbol
 _atom_site_label
 _atom_site_symmetry_multiplicity
 _atom_site_fract_x
 _atom_site_fract_y
 _atom_site_fract_z
 _atom_site_occupancy
  K  K0  1  0.08333333  0.33298725  -0.05945057  1
  K  K1  1  0.08333333  0.33298725  0.44054943  1
  K  K2  1  0.08333333  0.83298725  -0.05945057  1
  K  K3  1  0.08333333  0.83298725  0.44054943  1
  K  K4  1  0.41666667  0.33298725  -0.05945057  1
  K  K5  1  0.41666667  0.33298725  0.44054943  1
  K  K6  1  0.41666667  0.83298725  -0.05945057  1
  K  K7  1  0.41666667  0.83298725  0.44054943  1
  K  K8  1  0.75000000  0.33298725  -0.05945057  1
  K  K9  1  0.75000000  0.33298725  0.44054943  1
  K  K10  1  0.75000000  0.83298725  -0.05945057  1
  K  K11  1  0.75000000  0.83298725  0.44054943  1
  K  K12  1  0.25000000  0.58298725  0.19054943  1
  K  K13  1  0.25000000  0.58298725  0.69054943  1
  K  K14  1  0.25000000  1.08298725  0.19054943  1
  K  K15  1  0.25000000  1.08298725  0.69054943  1
  K  K16  1  0.58333333  0.58298725  0.19054943  1
  K  K17  1  0.58333333  0.58298725  0.69054943  1
  K  K18  1  0.58333333  1.08298725  0.19054943  1
  K  K19  1  0.58333333  1.08298725  0.69054943  1
  K  K20  1  0.91666667  0.58298725  0.19054943  1
  K  K21  1  0.91666667  0.58298725  0.69054943  1
  K  K22  1  0.91666667  1.08298725  0.19054943  1
  K  K23  1  0.91666667  1.08298725  0.69054943  1
  K  K24  1  0.08333333  -0.08298725  0.19054943  1
  K  K25  1  0.08333333  -0.08298725  0.69054943  1
  K  K26  1  0.08333333  0.41701275  0.19054943  1
  K  K27  1  0.08333333  0.41701275  0.69054943  1
  K  K28  1  0.41666667  -0.08298725  0.19054943  1
  K  K29  1  0.41666667  -0.08298725  0.69054943  1
  K  K30  1  0.41666667  0.41701275  0.19054943  1
  K  K31  1  0.41666667  0.41701275  0.69054943  1
  K  K32  1  0.75000000  -0.08298725  0.19054943  1
  K  K33  1  0.75000000  -0.08298725  0.69054943  1
  K  K34  1  0.75000000  0.41701275  0.19054943  1
  K  K35  1  0.75000000  0.41701275  0.69054943  1
  K  K36  1  0.25000000  0.16701275  0.44054943  1
  K  K37  1  0.25000000  0.16701275  0.94054943  1
  K  K38  1  0.25000000  0.66701275  0.44054943  1
  K  K39  1  0.25000000  0.66701275  0.94054943  1
  K  K40  1  0.58333333  0.16701275  0.44054943  1
  K  K41  1  0.58333333  0.16701275  0.94054943  1
  K  K42  1  0.58333333  0.66701275  0.44054943  1
  K  K43  1  0.58333333  0.66701275  0.94054943  1
  K  K44  1  0.91666667  0.16701275  0.44054943  1
  K  K45  1  0.91666667  0.16701275  0.94054943  1
  K  K46  1  0.91666667  0.66701275  0.44054943  1
  K  K47  1  0.91666667  0.66701275  0.94054943  1
  Nb  Nb48  1  0.00000000  0.25000000  0.24811944  1
  Nb  Nb49  1  0.00000000  0.25000000  0.74811944  1
  Nb  Nb50  1  0.00000000  0.75000000  0.24811944  1
  Nb  Nb51  1  0.00000000  0.75000000  0.74811944  1
  Nb  Nb52  1  0.33333333  0.25000000  0.24811944  1
  Nb  Nb53  1  0.33333333  0.25000000  0.74811944  1
  Nb  Nb54  1  0.33333333  0.75000000  0.24811944  1
  Nb  Nb55  1  0.33333333  0.75000000  0.74811944  1
  Nb  Nb56  1  0.66666667  0.25000000  0.24811944  1
  Nb  Nb57  1  0.66666667  0.25000000  0.74811944  1
  Nb  Nb58  1  0.66666667  0.75000000  0.24811944  1
  Nb  Nb59  1  0.66666667  0.75000000  0.74811944  1
  Nb  Nb60  1  0.16666667  0.50000000  0.49811944  1
  Nb  Nb61  1  0.16666667  0.50000000  0.99811944  1
  Nb  Nb62  1  0.16666667  1.00000000  0.49811944  1
  Nb  Nb63  1  0.16666667  1.00000000  0.99811944  1
  Nb  Nb64  1  0.50000000  0.50000000  0.49811944  1
  Nb  Nb65  1  0.50000000  0.50000000  0.99811944  1
  Nb  Nb66  1  0.50000000  1.00000000  0.49811944  1
  Nb  Nb67  1  0.50000000  1.00000000  0.99811944  1
  Nb  Nb68  1  0.83333333  0.50000000  0.49811944  1
  Nb  Nb69  1  0.83333333  0.50000000  0.99811944  1
  Nb  Nb70  1  0.83333333  1.00000000  0.49811944  1
  Nb  Nb71  1  0.83333333  1.00000000  0.99811944  1
  Nb  Nb72  1  -0.00000000  0.00000000  0.49811944  1
  Nb  Nb73  1  -0.00000000  0.00000000  0.99811944  1
  Nb  Nb74  1  -0.00000000  0.50000000  0.49811944  1
  Nb  Nb75  1  -0.00000000  0.50000000  0.99811944  1
  Nb  Nb76  1  0.33333333  0.00000000  0.49811944  1
  Nb  Nb77  1  0.33333333  0.00000000  0.99811944  1
  Nb  Nb78  1  0.33333333  0.50000000  0.49811944  1
  Nb  Nb79  1  0.33333333  0.50000000  0.99811944  1
  Nb  Nb80  1  0.66666667  0.00000000  0.49811944  1
  Nb  Nb81  1  0.66666667  0.00000000  0.99811944  1
  Nb  Nb82  1  0.66666667  0.50000000  0.49811944  1
  Nb  Nb83  1  0.66666667  0.50000000  0.99811944  1
  Nb  Nb84  1  0.16666667  0.25000000  0.74811944  1
  Nb  Nb85  1  0.16666667  0.25000000  1.24811944  1
  Nb  Nb86  1  0.16666667  0.75000000  0.74811944  1
  Nb  Nb87  1  0.16666667  0.75000000  1.24811944  1
  Nb  Nb88  1  0.50000000  0.25000000  0.74811944  1
  Nb  Nb89  1  0.50000000  0.25000000  1.24811944  1
  Nb  Nb90  1  0.50000000  0.75000000  0.74811944  1
  Nb  Nb91  1  0.50000000  0.75000000  1.24811944  1
  Nb  Nb92  1  0.83333333  0.25000000  0.74811944  1
  Nb  Nb93  1  0.83333333  0.25000000  1.24811944  1
  Nb  Nb94  1  0.83333333  0.75000000  0.74811944  1
  Nb  Nb95  1  0.83333333  0.75000000  1.24811944  1
  W  W96  1  0.08333333  0.12516762  0.36523467  1
  W  W97  1  0.08333333  0.12516762  0.86523467  1
  W  W98  1  0.08333333  0.62516762  0.36523467  1
  W  W99  1  0.08333333  0.62516762  0.86523467  1
  W  W100  1  0.41666667  0.12516762  0.36523467  1
  W  W101  1  0.41666667  0.12516762  0.86523467  1
  W  W102  1  0.41666667  0.62516762  0.36523467  1
  W  W103  1  0.41666667  0.62516762  0.86523467  1
  W  W104  1  0.75000000  0.12516762  0.36523467  1
  W  W105  1  0.75000000  0.12516762  0.86523467  1
  W  W106  1  0.75000000  0.62516762  0.36523467  1
  W  W107  1  0.75000000  0.62516762  0.86523467  1
  W  W108  1  0.25000000  0.37516762  0.61523467  1
  W  W109  1  0.25000000  0.37516762  1.11523467  1
  W  W110  1  0.25000000  0.87516762  0.61523467  1
  W  W111  1  0.25000000  0.87516762  1.11523467  1
  W  W112  1  0.58333333  0.37516762  0.61523467  1
  W  W113  1  0.58333333  0.37516762  1.11523467  1
  W  W114  1  0.58333333  0.87516762  0.61523467  1
  W  W115  1  0.58333333  0.87516762  1.11523467  1
  W  W116  1  0.91666667  0.37516762  0.61523467  1
  W  W117  1  0.91666667  0.37516762  1.11523467  1
  W  W118  1  0.91666667  0.87516762  0.61523467  1
  W  W119  1  0.91666667  0.87516762  1.11523467  1
  W  W120  1  0.08333333  0.12483238  0.11523467  1
  W  W121  1  0.08333333  0.12483238  0.61523467  1
  W  W122  1  0.08333333  0.62483238  0.11523467  1
  W  W123  1  0.08333333  0.62483238  0.61523467  1
  W  W124  1  0.41666667  0.12483238  0.11523467  1
  W  W125  1  0.41666667  0.12483238  0.61523467  1
  W  W126  1  0.41666667  0.62483238  0.11523467  1
  W  W127  1  0.41666667  0.62483238  0.61523467  1
  W  W128  1  0.75000000  0.12483238  0.11523467  1
  W  W129  1  0.75000000  0.12483238  0.61523467  1
  W  W130  1  0.75000000  0.62483238  0.11523467  1
  W  W131  1  0.75000000  0.62483238  0.61523467  1
  W  W132  1  0.25000000  0.37483238  0.36523467  1
  W  W133  1  0.25000000  0.37483238  0.86523467  1
  W  W134  1  0.25000000  0.87483238  0.36523467  1
  W  W135  1  0.25000000  0.87483238  0.86523467  1
  W  W136  1  0.58333333  0.37483238  0.36523467  1
  W  W137  1  0.58333333  0.37483238  0.86523467  1
  W  W138  1  0.58333333  0.87483238  0.36523467  1
  W  W139  1  0.58333333  0.87483238  0.86523467  1
  W  W140  1  0.91666667  0.37483238  0.36523467  1
  W  W141  1  0.91666667  0.37483238  0.86523467  1
  W  W142  1  0.91666667  0.87483238  0.36523467  1
  W  W143  1  0.91666667  0.87483238  0.86523467  1
  O  O144  1  0.25000000  0.03356757  0.01020160  1
  O  O145  1  0.25000000  0.03356757  0.51020160  1
  O  O146  1  0.25000000  0.53356757  0.01020160  1
  O  O147  1  0.25000000  0.53356757  0.51020160  1
  O  O148  1  0.58333333  0.03356757  0.01020160  1
  O  O149  1  0.58333333  0.03356757  0.51020160  1
  O  O150  1  0.58333333  0.53356757  0.01020160  1
  O  O151  1  0.58333333  0.53356757  0.51020160  1
  O  O152  1  0.91666667  0.03356757  0.01020160  1
  O  O153  1  0.91666667  0.03356757  0.51020160  1
  O  O154  1  0.91666667  0.53356757  0.01020160  1
  O  O155  1  0.91666667  0.53356757  0.51020160  1
  O  O156  1  0.41666667  0.28356757  0.26020160  1
  O  O157  1  0.41666667  0.28356757  0.76020160  1
  O  O158  1  0.41666667  0.78356757  0.26020160  1
  O  O159  1  0.41666667  0.78356757  0.76020160  1
  O  O160  1  0.75000000  0.28356757  0.26020160  1
  O  O161  1  0.75000000  0.28356757  0.76020160  1
  O  O162  1  0.75000000  0.78356757  0.26020160  1
  O  O163  1  0.75000000  0.78356757  0.76020160  1
  O  O164  1  1.08333333  0.28356757  0.26020160  1
  O  O165  1  1.08333333  0.28356757  0.76020160  1
  O  O166  1  1.08333333  0.78356757  0.26020160  1
  O  O167  1  1.08333333  0.78356757  0.76020160  1
  O  O168  1  0.08333333  0.09435558  0.25356115  1
  O  O169  1  0.08333333  0.09435558  0.75356115  1
  O  O170  1  0.08333333  0.59435558  0.25356115  1
  O  O171  1  0.08333333  0.59435558  0.75356115  1
  O  O172  1  0.41666667  0.09435558  0.25356115  1
  O  O173  1  0.41666667  0.09435558  0.75356115  1
  O  O174  1  0.41666667  0.59435558  0.25356115  1
  O  O175  1  0.41666667  0.59435558  0.75356115  1
  O  O176  1  0.75000000  0.09435558  0.25356115  1
  O  O177  1  0.75000000  0.09435558  0.75356115  1
  O  O178  1  0.75000000  0.59435558  0.25356115  1
  O  O179  1  0.75000000  0.59435558  0.75356115  1
  O  O180  1  0.25000000  0.34435558  0.50356115  1
  O  O181  1  0.25000000  0.34435558  1.00356115  1
  O  O182  1  0.25000000  0.84435558  0.50356115  1
  O  O183  1  0.25000000  0.84435558  1.00356115  1
  O  O184  1  0.58333333  0.34435558  0.50356115  1
  O  O185  1  0.58333333  0.34435558  1.00356115  1
  O  O186  1  0.58333333  0.84435558  0.50356115  1
  O  O187  1  0.58333333  0.84435558  1.00356115  1
  O  O188  1  0.91666667  0.34435558  0.50356115  1
  O  O189  1  0.91666667  0.34435558  1.00356115  1
  O  O190  1  0.91666667  0.84435558  0.50356115  1
  O  O191  1  0.91666667  0.84435558  1.00356115  1
  O  O192  1  0.14318051  0.18523387  0.16296686  1
  O  O193  1  0.14318051  0.18523387  0.66296686  1
  O  O194  1  0.14318051  0.68523387  0.16296686  1
  O  O195  1  0.14318051  0.68523387  0.66296686  1
  O  O196  1  0.47651384  0.18523387  0.16296686  1
  O  O197  1  0.47651384  0.18523387  0.66296686  1
  O  O198  1  0.47651384  0.68523387  0.16296686  1
  O  O199  1  0.47651384  0.68523387  0.66296686  1
  O  O200  1  0.80984718  0.18523387  0.16296686  1
  O  O201  1  0.80984718  0.18523387  0.66296686  1
  O  O202  1  0.80984718  0.68523387  0.16296686  1
  O  O203  1  0.80984718  0.68523387  0.66296686  1
  O  O204  1  0.30984718  0.43523387  0.41296686  1
  O  O205  1  0.30984718  0.43523387  0.91296686  1
  O  O206  1  0.30984718  0.93523387  0.41296686  1
  O  O207  1  0.30984718  0.93523387  0.91296686  1
  O  O208  1  0.64318051  0.43523387  0.41296686  1
  O  O209  1  0.64318051  0.43523387  0.91296686  1
  O  O210  1  0.64318051  0.93523387  0.41296686  1
  O  O211  1  0.64318051  0.93523387  0.91296686  1
  O  O212  1  0.97651384  0.43523387  0.41296686  1
  O  O213  1  0.97651384  0.43523387  0.91296686  1
  O  O214  1  0.97651384  0.93523387  0.41296686  1
  O  O215  1  0.97651384  0.93523387  0.91296686  1
  O  O216  1  0.18920703  -0.06405276  0.09979988  1
  O  O217  1  0.18920703  -0.06405276  0.59979988  1
  O  O218  1  0.18920703  0.43594724  0.09979988  1
  O  O219  1  0.18920703  0.43594724  0.59979988  1
  O  O220  1  0.52254036  -0.06405276  0.09979988  1
  O  O221  1  0.52254036  -0.06405276  0.59979988  1
  O  O222  1  0.52254036  0.43594724  0.09979988  1
  O  O223  1  0.52254036  0.43594724  0.59979988  1
  O  O224  1  0.85587369  -0.06405276  0.09979988  1
  O  O225  1  0.85587369  -0.06405276  0.59979988  1
  O  O226  1  0.85587369  0.43594724  0.09979988  1
  O  O227  1  0.85587369  0.43594724  0.59979988  1
  O  O228  1  0.35587369  0.18594724  0.34979988  1
  O  O229  1  0.35587369  0.18594724  0.84979988  1
  O  O230  1  0.35587369  0.68594724  0.34979988  1
  O  O231  1  0.35587369  0.68594724  0.84979988  1
  O  O232  1  0.68920703  0.18594724  0.34979988  1
  O  O233  1  0.68920703  0.18594724  0.84979988  1
  O  O234  1  0.68920703  0.68594724  0.34979988  1
  O  O235  1  0.68920703  0.68594724  0.84979988  1
  O  O236  1  1.02254036  0.18594724  0.34979988  1
  O  O237  1  1.02254036  0.18594724  0.84979988  1
  O  O238  1  1.02254036  0.68594724  0.34979988  1
  O  O239  1  1.02254036  0.68594724  0.84979988  1
  O  O240  1  0.14412631  0.18594724  -0.15020012  1
  O  O241  1  0.14412631  0.18594724  0.34979988  1
  O  O242  1  0.14412631  0.68594724  -0.15020012  1
  O  O243  1  0.14412631  0.68594724  0.34979988  1
  O  O244  1  0.47745964  0.18594724  -0.15020012  1
  O  O245  1  0.47745964  0.18594724  0.34979988  1
  O  O246  1  0.47745964  0.68594724  -0.15020012  1
  O  O247  1  0.47745964  0.68594724  0.34979988  1
  O  O248  1  0.81079297  0.18594724  -0.15020012  1
  O  O249  1  0.81079297  0.18594724  0.34979988  1
  O  O250  1  0.81079297  0.68594724  -0.15020012  1
  O  O251  1  0.81079297  0.68594724  0.34979988  1
  O  O252  1  0.31079297  0.43594724  0.09979988  1
  O  O253  1  0.31079297  0.43594724  0.59979988  1
  O  O254  1  0.31079297  0.93594724  0.09979988  1
  O  O255  1  0.31079297  0.93594724  0.59979988  1
  O  O256  1  0.64412631  0.43594724  0.09979988  1
  O  O257  1  0.64412631  0.43594724  0.59979988  1
  O  O258  1  0.64412631  0.93594724  0.09979988  1
  O  O259  1  0.64412631  0.93594724  0.59979988  1
  O  O260  1  0.97745964  0.43594724  0.09979988  1
  O  O261  1  0.97745964  0.43594724  0.59979988  1
  O  O262  1  0.97745964  0.93594724  0.09979988  1
  O  O263  1  0.97745964  0.93594724  0.59979988  1
  O  O264  1  0.02348616  0.18523387  0.16296686  1
  O  O265  1  0.02348616  0.18523387  0.66296686  1
  O  O266  1  0.02348616  0.68523387  0.16296686  1
  O  O267  1  0.02348616  0.68523387  0.66296686  1
  O  O268  1  0.35681949  0.18523387  0.16296686  1
  O  O269  1  0.35681949  0.18523387  0.66296686  1
  O  O270  1  0.35681949  0.68523387  0.16296686  1
  O  O271  1  0.35681949  0.68523387  0.66296686  1
  O  O272  1  0.69015282  0.18523387  0.16296686  1
  O  O273  1  0.69015282  0.18523387  0.66296686  1
  O  O274  1  0.69015282  0.68523387  0.16296686  1
  O  O275  1  0.69015282  0.68523387  0.66296686  1
  O  O276  1  0.19015282  0.43523387  0.41296686  1
  O  O277  1  0.19015282  0.43523387  0.91296686  1
  O  O278  1  0.19015282  0.93523387  0.41296686  1
  O  O279  1  0.19015282  0.93523387  0.91296686  1
  O  O280  1  0.52348616  0.43523387  0.41296686  1
  O  O281  1  0.52348616  0.43523387  0.91296686  1
  O  O282  1  0.52348616  0.93523387  0.41296686  1
  O  O283  1  0.52348616  0.93523387  0.91296686  1
  O  O284  1  0.85681949  0.43523387  0.41296686  1
  O  O285  1  0.85681949  0.43523387  0.91296686  1
  O  O286  1  0.85681949  0.93523387  0.41296686  1
  O  O287  1  0.85681949  0.93523387  0.91296686  1
  O  O288  1  -0.08333333  0.21643243  0.26020160  1
  O  O289  1  -0.08333333  0.21643243  0.76020160  1
  O  O290  1  -0.08333333  0.71643243  0.26020160  1
  O  O291  1  -0.08333333  0.71643243  0.76020160  1
  O  O292  1  0.25000000  0.21643243  0.26020160  1
  O  O293  1  0.25000000  0.21643243  0.76020160  1
  O  O294  1  0.25000000  0.71643243  0.26020160  1
  O  O295  1  0.25000000  0.71643243  0.76020160  1
  O  O296  1  0.58333333  0.21643243  0.26020160  1
  O  O297  1  0.58333333  0.21643243  0.76020160  1
  O  O298  1  0.58333333  0.71643243  0.26020160  1
  O  O299  1  0.58333333  0.71643243  0.76020160  1
  O  O300  1  0.08333333  0.46643243  0.51020160  1
  O  O301  1  0.08333333  0.46643243  1.01020160  1
  O  O302  1  0.08333333  0.96643243  0.51020160  1
  O  O303  1  0.08333333  0.96643243  1.01020160  1
  O  O304  1  0.41666667  0.46643243  0.51020160  1
  O  O305  1  0.41666667  0.46643243  1.01020160  1
  O  O306  1  0.41666667  0.96643243  0.51020160  1
  O  O307  1  0.41666667  0.96643243  1.01020160  1
  O  O308  1  0.75000000  0.46643243  0.51020160  1
  O  O309  1  0.75000000  0.46643243  1.01020160  1
  O  O310  1  0.75000000  0.96643243  0.51020160  1
  O  O311  1  0.75000000  0.96643243  1.01020160  1
  O  O312  1  0.08333333  0.15564442  0.00356115  1
  O  O313  1  0.08333333  0.15564442  0.50356115  1
  O  O314  1  0.08333333  0.65564442  0.00356115  1
  O  O315  1  0.08333333  0.65564442  0.50356115  1
  O  O316  1  0.41666667  0.15564442  0.00356115  1
  O  O317  1  0.41666667  0.15564442  0.50356115  1
  O  O318  1  0.41666667  0.65564442  0.00356115  1
  O  O319  1  0.41666667  0.65564442  0.50356115  1
  O  O320  1  0.75000000  0.15564442  0.00356115  1
  O  O321  1  0.75000000  0.15564442  0.50356115  1
  O  O322  1  0.75000000  0.65564442  0.00356115  1
  O  O323  1  0.75000000  0.65564442  0.50356115  1
  O  O324  1  0.25000000  0.40564442  0.25356115  1
  O  O325  1  0.25000000  0.40564442  0.75356115  1
  O  O326  1  0.25000000  0.90564442  0.25356115  1
  O  O327  1  0.25000000  0.90564442  0.75356115  1
  O  O328  1  0.58333333  0.40564442  0.25356115  1
  O  O329  1  0.58333333  0.40564442  0.75356115  1
  O  O330  1  0.58333333  0.90564442  0.25356115  1
  O  O331  1  0.58333333  0.90564442  0.75356115  1
  O  O332  1  0.91666667  0.40564442  0.25356115  1
  O  O333  1  0.91666667  0.40564442  0.75356115  1
  O  O334  1  0.91666667  0.90564442  0.25356115  1
  O  O335  1  0.91666667  0.90564442  0.75356115  1
  O  O336  1  0.02254036  0.06405276  0.09979988  1
  O  O337  1  0.02254036  0.06405276  0.59979988  1
  O  O338  1  0.02254036  0.56405276  0.09979988  1
  O  O339  1  0.02254036  0.56405276  0.59979988  1
  O  O340  1  0.35587369  0.06405276  0.09979988  1
  O  O341  1  0.35587369  0.06405276  0.59979988  1
  O  O342  1  0.35587369  0.56405276  0.09979988  1
  O  O343  1  0.35587369  0.56405276  0.59979988  1
  O  O344  1  0.68920703  0.06405276  0.09979988  1
  O  O345  1  0.68920703  0.06405276  0.59979988  1
  O  O346  1  0.68920703  0.56405276  0.09979988  1
  O  O347  1  0.68920703  0.56405276  0.59979988  1
  O  O348  1  0.18920703  0.31405276  0.34979988  1
  O  O349  1  0.18920703  0.31405276  0.84979988  1
  O  O350  1  0.18920703  0.81405276  0.34979988  1
  O  O351  1  0.18920703  0.81405276  0.84979988  1
  O  O352  1  0.52254036  0.31405276  0.34979988  1
  O  O353  1  0.52254036  0.31405276  0.84979988  1
  O  O354  1  0.52254036  0.81405276  0.34979988  1
  O  O355  1  0.52254036  0.81405276  0.84979988  1
  O  O356  1  0.85587369  0.31405276  0.34979988  1
  O  O357  1  0.85587369  0.31405276  0.84979988  1
  O  O358  1  0.85587369  0.81405276  0.34979988  1
  O  O359  1  0.85587369  0.81405276  0.84979988  1
  O  O360  1  -0.02348616  0.31476613  0.16296686  1
  O  O361  1  -0.02348616  0.31476613  0.66296686  1
  O  O362  1  -0.02348616  0.81476613  0.16296686  1
  O  O363  1  -0.02348616  0.81476613  0.66296686  1
  O  O364  1  0.30984718  0.31476613  0.16296686  1
  O  O365  1  0.30984718  0.31476613  0.66296686  1
  O  O366  1  0.30984718  0.81476613  0.16296686  1
  O  O367  1  0.30984718  0.81476613  0.66296686  1
  O  O368  1  0.64318051  0.31476613  0.16296686  1
  O  O369  1  0.64318051  0.31476613  0.66296686  1
  O  O370  1  0.64318051  0.81476613  0.16296686  1
  O  O371  1  0.64318051  0.81476613  0.66296686  1
  O  O372  1  0.14318051  0.56476613  0.41296686  1
  O  O373  1  0.14318051  0.56476613  0.91296686  1
  O  O374  1  0.14318051  1.06476613  0.41296686  1
  O  O375  1  0.14318051  1.06476613  0.91296686  1
  O  O376  1  0.47651384  0.56476613  0.41296686  1
  O  O377  1  0.47651384  0.56476613  0.91296686  1
  O  O378  1  0.47651384  1.06476613  0.41296686  1
  O  O379  1  0.47651384  1.06476613  0.91296686  1
  O  O380  1  0.80984718  0.56476613  0.41296686  1
  O  O381  1  0.80984718  0.56476613  0.91296686  1
  O  O382  1  0.80984718  1.06476613  0.41296686  1
  O  O383  1  0.80984718  1.06476613  0.91296686  1
  O  O384  1  0.02348616  0.06476613  0.41296686  1
  O  O385  1  0.02348616  0.06476613  0.91296686  1
  O  O386  1  0.02348616  0.56476613  0.41296686  1
  O  O387  1  0.02348616  0.56476613  0.91296686  1
  O  O388  1  0.35681949  0.06476613  0.41296686  1
  O  O389  1  0.35681949  0.06476613  0.91296686  1
  O  O390  1  0.35681949  0.56476613  0.41296686  1
  O  O391  1  0.35681949  0.56476613  0.91296686  1
  O  O392  1  0.69015282  0.06476613  0.41296686  1
  O  O393  1  0.69015282  0.06476613  0.91296686  1
  O  O394  1  0.69015282  0.56476613  0.41296686  1
  O  O395  1  0.69015282  0.56476613  0.91296686  1
  O  O396  1  0.19015282  0.31476613  0.66296686  1
  O  O397  1  0.19015282  0.31476613  1.16296686  1
  O  O398  1  0.19015282  0.81476613  0.66296686  1
  O  O399  1  0.19015282  0.81476613  1.16296686  1
  O  O400  1  0.52348616  0.31476613  0.66296686  1
  O  O401  1  0.52348616  0.31476613  1.16296686  1
  O  O402  1  0.52348616  0.81476613  0.66296686  1
  O  O403  1  0.52348616  0.81476613  1.16296686  1
  O  O404  1  0.85681949  0.31476613  0.66296686  1
  O  O405  1  0.85681949  0.31476613  1.16296686  1
  O  O406  1  0.85681949  0.81476613  0.66296686  1
  O  O407  1  0.85681949  0.81476613  1.16296686  1
  O  O408  1  0.14412631  0.06405276  0.09979988  1
  O  O409  1  0.14412631  0.06405276  0.59979988  1
  O  O410  1  0.14412631  0.56405276  0.09979988  1
  O  O411  1  0.14412631  0.56405276  0.59979988  1
  O  O412  1  0.47745964  0.06405276  0.09979988  1
  O  O413  1  0.47745964  0.06405276  0.59979988  1
  O  O414  1  0.47745964  0.56405276  0.09979988  1
  O  O415  1  0.47745964  0.56405276  0.59979988  1
  O  O416  1  0.81079297  0.06405276  0.09979988  1
  O  O417  1  0.81079297  0.06405276  0.59979988  1
  O  O418  1  0.81079297  0.56405276  0.09979988  1
  O  O419  1  0.81079297  0.56405276  0.59979988  1
  O  O420  1  0.31079297  0.31405276  0.34979988  1
  O  O421  1  0.31079297  0.31405276  0.84979988  1
  O  O422  1  0.31079297  0.81405276  0.34979988  1
  O  O423  1  0.31079297  0.81405276  0.84979988  1
  O  O424  1  0.64412631  0.31405276  0.34979988  1
  O  O425  1  0.64412631  0.31405276  0.84979988  1
  O  O426  1  0.64412631  0.81405276  0.34979988  1
  O  O427  1  0.64412631  0.81405276  0.84979988  1
  O  O428  1  0.97745964  0.31405276  0.34979988  1
  O  O429  1  0.97745964  0.31405276  0.84979988  1
  O  O430  1  0.97745964  0.81405276  0.34979988  1
  O  O431  1  0.97745964  0.81405276  0.84979988  1
