# generated using pymatgen
data_Na5NbO5
_symmetry_space_group_name_H-M   'P 1'
_cell_length_a   12.48701866
_cell_length_b   10.12723586
_cell_length_c   9.95547226
_cell_angle_alpha   90.00000000
_cell_angle_beta   106.59716868
_cell_angle_gamma   90.00000000
_symmetry_Int_Tables_number   1
_chemical_formula_structural   Na5NbO5
_chemical_formula_sum   'Na40 Nb8 O40'
_cell_volume   1206.50650487
_cell_formula_units_Z   8
loop_
 _symmetry_equiv_pos_site_id
 _symmetry_equiv_pos_as_xyz
  1  'x, y, z'
loop_
 _atom_site_type_symbol
 _atom_site_label
 _atom_site_symmetry_multiplicity
 _atom_site_fract_x
 _atom_site_fract_y
 _atom_site_fract_z
 _atom_site_occupancy
  Na  Na0  1  0.41896039  -0.15864983  0.92302311  1
  Na  Na1  1  0.91896039  -0.15864983  0.92302311  1
  Na  Na2  1  0.66896039  0.34135017  0.92302311  1
  Na  Na3  1  1.16896039  0.34135017  0.92302311  1
  Na  Na4  1  0.08103961  -0.15864983  0.57697689  1
  Na  Na5  1  0.58103961  -0.15864983  0.57697689  1
  Na  Na6  1  0.33103961  0.34135017  0.57697689  1
  Na  Na7  1  0.83103961  0.34135017  0.57697689  1
  Na  Na8  1  0.33541497  0.11471091  0.05064481  1
  Na  Na9  1  0.83541497  0.11471091  0.05064481  1
  Na  Na10  1  0.58541497  0.61471091  0.05064481  1
  Na  Na11  1  1.08541497  0.61471091  0.05064481  1
  Na  Na12  1  0.16458503  0.11471091  0.44935519  1
  Na  Na13  1  0.66458503  0.11471091  0.44935519  1
  Na  Na14  1  0.41458503  0.61471091  0.44935519  1
  Na  Na15  1  0.91458503  0.61471091  0.44935519  1
  Na  Na16  1  0.16458503  -0.11471091  0.94935519  1
  Na  Na17  1  0.66458503  -0.11471091  0.94935519  1
  Na  Na18  1  0.41458503  0.38528909  0.94935519  1
  Na  Na19  1  0.91458503  0.38528909  0.94935519  1
  Na  Na20  1  0.33541497  -0.11471091  0.55064481  1
  Na  Na21  1  0.83541497  -0.11471091  0.55064481  1
  Na  Na22  1  0.58541497  0.38528909  0.55064481  1
  Na  Na23  1  1.08541497  0.38528909  0.55064481  1
  Na  Na24  1  0.25000000  0.16707012  0.75000000  1
  Na  Na25  1  0.75000000  0.16707012  0.75000000  1
  Na  Na26  1  0.50000000  0.66707012  0.75000000  1
  Na  Na27  1  1.00000000  0.66707012  0.75000000  1
  Na  Na28  1  0.25000000  -0.16707012  0.25000000  1
  Na  Na29  1  0.75000000  -0.16707012  0.25000000  1
  Na  Na30  1  0.50000000  0.33292988  0.25000000  1
  Na  Na31  1  1.00000000  0.33292988  0.25000000  1
  Na  Na32  1  0.41896039  0.15864983  0.42302311  1
  Na  Na33  1  0.91896039  0.15864983  0.42302311  1
  Na  Na34  1  0.66896039  0.65864983  0.42302311  1
  Na  Na35  1  1.16896039  0.65864983  0.42302311  1
  Na  Na36  1  0.08103961  0.15864983  0.07697689  1
  Na  Na37  1  0.58103961  0.15864983  0.07697689  1
  Na  Na38  1  0.33103961  0.65864983  0.07697689  1
  Na  Na39  1  0.83103961  0.65864983  0.07697689  1
  Nb  Nb40  1  0.25000000  -0.40855415  0.75000000  1
  Nb  Nb41  1  0.75000000  -0.40855415  0.75000000  1
  Nb  Nb42  1  0.50000000  0.09144585  0.75000000  1
  Nb  Nb43  1  1.00000000  0.09144585  0.75000000  1
  Nb  Nb44  1  0.25000000  0.40855415  0.25000000  1
  Nb  Nb45  1  0.75000000  0.40855415  0.25000000  1
  Nb  Nb46  1  0.50000000  0.90855415  0.25000000  1
  Nb  Nb47  1  1.00000000  0.90855415  0.25000000  1
  O  O48  1  0.25000000  -0.40294779  0.25000000  1
  O  O49  1  0.75000000  -0.40294779  0.25000000  1
  O  O50  1  0.50000000  0.09705221  0.25000000  1
  O  O51  1  1.00000000  0.09705221  0.25000000  1
  O  O52  1  0.25000000  0.40294779  0.75000000  1
  O  O53  1  0.75000000  0.40294779  0.75000000  1
  O  O54  1  0.50000000  0.90294779  0.75000000  1
  O  O55  1  1.00000000  0.90294779  0.75000000  1
  O  O56  1  0.18225972  0.32958697  0.38318346  1
  O  O57  1  0.68225972  0.32958697  0.38318346  1
  O  O58  1  0.43225972  0.82958697  0.38318346  1
  O  O59  1  0.93225972  0.82958697  0.38318346  1
  O  O60  1  0.31774028  0.32958697  0.11681654  1
  O  O61  1  0.81774028  0.32958697  0.11681654  1
  O  O62  1  0.56774028  0.82958697  0.11681654  1
  O  O63  1  1.06774028  0.82958697  0.11681654  1
  O  O64  1  0.14985074  0.10772448  0.89749587  1
  O  O65  1  0.64985074  0.10772448  0.89749587  1
  O  O66  1  0.39985074  0.60772448  0.89749587  1
  O  O67  1  0.89985074  0.60772448  0.89749587  1
  O  O68  1  0.35014926  0.10772448  0.60250413  1
  O  O69  1  0.85014926  0.10772448  0.60250413  1
  O  O70  1  0.60014926  0.60772448  0.60250413  1
  O  O71  1  1.10014926  0.60772448  0.60250413  1
  O  O72  1  0.35014926  -0.10772448  0.10250413  1
  O  O73  1  0.85014926  -0.10772448  0.10250413  1
  O  O74  1  0.60014926  0.39227552  0.10250413  1
  O  O75  1  1.10014926  0.39227552  0.10250413  1
  O  O76  1  0.14985074  -0.10772448  0.39749587  1
  O  O77  1  0.64985074  -0.10772448  0.39749587  1
  O  O78  1  0.39985074  0.39227552  0.39749587  1
  O  O79  1  0.89985074  0.39227552  0.39749587  1
  O  O80  1  0.31774028  -0.32958697  0.61681654  1
  O  O81  1  0.81774028  -0.32958697  0.61681654  1
  O  O82  1  0.56774028  0.17041303  0.61681654  1
  O  O83  1  1.06774028  0.17041303  0.61681654  1
  O  O84  1  0.18225972  -0.32958697  0.88318346  1
  O  O85  1  0.68225972  -0.32958697  0.88318346  1
  O  O86  1  0.43225972  0.17041303  0.88318346  1
  O  O87  1  0.93225972  0.17041303  0.88318346  1
