# generated using pymatgen
data_RbLaO2
_symmetry_space_group_name_H-M   'P 1'
_cell_length_a   18.55648925
_cell_length_b   18.55648925
_cell_length_c   19.40420193
_cell_angle_alpha   90.00000000
_cell_angle_beta   90.00000000
_cell_angle_gamma   120.00000000
_symmetry_Int_Tables_number   1
_chemical_formula_structural   RbLaO2
_chemical_formula_sum   'Rb75 La75 O150'
_cell_volume   5786.52782469
_cell_formula_units_Z   75
loop_
 _symmetry_equiv_pos_site_id
 _symmetry_equiv_pos_as_xyz
  1  'x, y, z'
loop_
 _atom_site_type_symbol
 _atom_site_label
 _atom_site_symmetry_multiplicity
 _atom_site_fract_x
 _atom_site_fract_y
 _atom_site_fract_z
 _atom_site_occupancy
  Rb  Rb0  1  -0.00000000  -0.00000000  -0.00000000  1
  Rb  Rb1  1  0.00000000  0.20000000  -0.00000000  1
  Rb  Rb2  1  0.00000000  0.40000000  -0.00000000  1
  Rb  Rb3  1  0.00000000  0.60000000  -0.00000000  1
  Rb  Rb4  1  0.00000000  0.80000000  -0.00000000  1
  Rb  Rb5  1  0.20000000  -0.00000000  -0.00000000  1
  Rb  Rb6  1  0.20000000  0.20000000  -0.00000000  1
  Rb  Rb7  1  0.20000000  0.40000000  -0.00000000  1
  Rb  Rb8  1  0.20000000  0.60000000  -0.00000000  1
  Rb  Rb9  1  0.20000000  0.80000000  -0.00000000  1
  Rb  Rb10  1  0.40000000  -0.00000000  -0.00000000  1
  Rb  Rb11  1  0.40000000  0.20000000  -0.00000000  1
  Rb  Rb12  1  0.40000000  0.40000000  -0.00000000  1
  Rb  Rb13  1  0.40000000  0.60000000  -0.00000000  1
  Rb  Rb14  1  0.40000000  0.80000000  -0.00000000  1
  Rb  Rb15  1  0.60000000  -0.00000000  -0.00000000  1
  Rb  Rb16  1  0.60000000  0.20000000  -0.00000000  1
  Rb  Rb17  1  0.60000000  0.40000000  -0.00000000  1
  Rb  Rb18  1  0.60000000  0.60000000  -0.00000000  1
  Rb  Rb19  1  0.60000000  0.80000000  -0.00000000  1
  Rb  Rb20  1  0.80000000  -0.00000000  -0.00000000  1
  Rb  Rb21  1  0.80000000  0.20000000  -0.00000000  1
  Rb  Rb22  1  0.80000000  0.40000000  -0.00000000  1
  Rb  Rb23  1  0.80000000  0.60000000  -0.00000000  1
  Rb  Rb24  1  0.80000000  0.80000000  -0.00000000  1
  Rb  Rb25  1  0.13333333  0.06666667  0.33333333  1
  Rb  Rb26  1  0.13333333  0.26666667  0.33333333  1
  Rb  Rb27  1  0.13333333  0.46666667  0.33333333  1
  Rb  Rb28  1  0.13333333  0.66666667  0.33333333  1
  Rb  Rb29  1  0.13333333  0.86666667  0.33333333  1
  Rb  Rb30  1  0.33333333  0.06666667  0.33333333  1
  Rb  Rb31  1  0.33333333  0.26666667  0.33333333  1
  Rb  Rb32  1  0.33333333  0.46666667  0.33333333  1
  Rb  Rb33  1  0.33333333  0.66666667  0.33333333  1
  Rb  Rb34  1  0.33333333  0.86666667  0.33333333  1
  Rb  Rb35  1  0.53333333  0.06666667  0.33333333  1
  Rb  Rb36  1  0.53333333  0.26666667  0.33333333  1
  Rb  Rb37  1  0.53333333  0.46666667  0.33333333  1
  Rb  Rb38  1  0.53333333  0.66666667  0.33333333  1
  Rb  Rb39  1  0.53333333  0.86666667  0.33333333  1
  Rb  Rb40  1  0.73333333  0.06666667  0.33333333  1
  Rb  Rb41  1  0.73333333  0.26666667  0.33333333  1
  Rb  Rb42  1  0.73333333  0.46666667  0.33333333  1
  Rb  Rb43  1  0.73333333  0.66666667  0.33333333  1
  Rb  Rb44  1  0.73333333  0.86666667  0.33333333  1
  Rb  Rb45  1  0.93333333  0.06666667  0.33333333  1
  Rb  Rb46  1  0.93333333  0.26666667  0.33333333  1
  Rb  Rb47  1  0.93333333  0.46666667  0.33333333  1
  Rb  Rb48  1  0.93333333  0.66666667  0.33333333  1
  Rb  Rb49  1  0.93333333  0.86666667  0.33333333  1
  Rb  Rb50  1  0.06666667  0.13333333  0.66666667  1
  Rb  Rb51  1  0.06666667  0.33333333  0.66666667  1
  Rb  Rb52  1  0.06666667  0.53333333  0.66666667  1
  Rb  Rb53  1  0.06666667  0.73333333  0.66666667  1
  Rb  Rb54  1  0.06666667  0.93333333  0.66666667  1
  Rb  Rb55  1  0.26666667  0.13333333  0.66666667  1
  Rb  Rb56  1  0.26666667  0.33333333  0.66666667  1
  Rb  Rb57  1  0.26666667  0.53333333  0.66666667  1
  Rb  Rb58  1  0.26666667  0.73333333  0.66666667  1
  Rb  Rb59  1  0.26666667  0.93333333  0.66666667  1
  Rb  Rb60  1  0.46666667  0.13333333  0.66666667  1
  Rb  Rb61  1  0.46666667  0.33333333  0.66666667  1
  Rb  Rb62  1  0.46666667  0.53333333  0.66666667  1
  Rb  Rb63  1  0.46666667  0.73333333  0.66666667  1
  Rb  Rb64  1  0.46666667  0.93333333  0.66666667  1
  Rb  Rb65  1  0.66666667  0.13333333  0.66666667  1
  Rb  Rb66  1  0.66666667  0.33333333  0.66666667  1
  Rb  Rb67  1  0.66666667  0.53333333  0.66666667  1
  Rb  Rb68  1  0.66666667  0.73333333  0.66666667  1
  Rb  Rb69  1  0.66666667  0.93333333  0.66666667  1
  Rb  Rb70  1  0.86666667  0.13333333  0.66666667  1
  Rb  Rb71  1  0.86666667  0.33333333  0.66666667  1
  Rb  Rb72  1  0.86666667  0.53333333  0.66666667  1
  Rb  Rb73  1  0.86666667  0.73333333  0.66666667  1
  Rb  Rb74  1  0.86666667  0.93333333  0.66666667  1
  La  La75  1  -0.00000000  -0.00000000  0.50000000  1
  La  La76  1  -0.00000000  0.20000000  0.50000000  1
  La  La77  1  -0.00000000  0.40000000  0.50000000  1
  La  La78  1  -0.00000000  0.60000000  0.50000000  1
  La  La79  1  -0.00000000  0.80000000  0.50000000  1
  La  La80  1  0.20000000  -0.00000000  0.50000000  1
  La  La81  1  0.20000000  0.20000000  0.50000000  1
  La  La82  1  0.20000000  0.40000000  0.50000000  1
  La  La83  1  0.20000000  0.60000000  0.50000000  1
  La  La84  1  0.20000000  0.80000000  0.50000000  1
  La  La85  1  0.40000000  -0.00000000  0.50000000  1
  La  La86  1  0.40000000  0.20000000  0.50000000  1
  La  La87  1  0.40000000  0.40000000  0.50000000  1
  La  La88  1  0.40000000  0.60000000  0.50000000  1
  La  La89  1  0.40000000  0.80000000  0.50000000  1
  La  La90  1  0.60000000  -0.00000000  0.50000000  1
  La  La91  1  0.60000000  0.20000000  0.50000000  1
  La  La92  1  0.60000000  0.40000000  0.50000000  1
  La  La93  1  0.60000000  0.60000000  0.50000000  1
  La  La94  1  0.60000000  0.80000000  0.50000000  1
  La  La95  1  0.80000000  -0.00000000  0.50000000  1
  La  La96  1  0.80000000  0.20000000  0.50000000  1
  La  La97  1  0.80000000  0.40000000  0.50000000  1
  La  La98  1  0.80000000  0.60000000  0.50000000  1
  La  La99  1  0.80000000  0.80000000  0.50000000  1
  La  La100  1  0.13333333  0.06666667  0.83333333  1
  La  La101  1  0.13333333  0.26666667  0.83333333  1
  La  La102  1  0.13333333  0.46666667  0.83333333  1
  La  La103  1  0.13333333  0.66666667  0.83333333  1
  La  La104  1  0.13333333  0.86666667  0.83333333  1
  La  La105  1  0.33333333  0.06666667  0.83333333  1
  La  La106  1  0.33333333  0.26666667  0.83333333  1
  La  La107  1  0.33333333  0.46666667  0.83333333  1
  La  La108  1  0.33333333  0.66666667  0.83333333  1
  La  La109  1  0.33333333  0.86666667  0.83333333  1
  La  La110  1  0.53333333  0.06666667  0.83333333  1
  La  La111  1  0.53333333  0.26666667  0.83333333  1
  La  La112  1  0.53333333  0.46666667  0.83333333  1
  La  La113  1  0.53333333  0.66666667  0.83333333  1
  La  La114  1  0.53333333  0.86666667  0.83333333  1
  La  La115  1  0.73333333  0.06666667  0.83333333  1
  La  La116  1  0.73333333  0.26666667  0.83333333  1
  La  La117  1  0.73333333  0.46666667  0.83333333  1
  La  La118  1  0.73333333  0.66666667  0.83333333  1
  La  La119  1  0.73333333  0.86666667  0.83333333  1
  La  La120  1  0.93333333  0.06666667  0.83333333  1
  La  La121  1  0.93333333  0.26666667  0.83333333  1
  La  La122  1  0.93333333  0.46666667  0.83333333  1
  La  La123  1  0.93333333  0.66666667  0.83333333  1
  La  La124  1  0.93333333  0.86666667  0.83333333  1
  La  La125  1  0.06666667  0.13333333  1.16666667  1
  La  La126  1  0.06666667  0.33333333  1.16666667  1
  La  La127  1  0.06666667  0.53333333  1.16666667  1
  La  La128  1  0.06666667  0.73333333  1.16666667  1
  La  La129  1  0.06666667  0.93333333  1.16666667  1
  La  La130  1  0.26666667  0.13333333  1.16666667  1
  La  La131  1  0.26666667  0.33333333  1.16666667  1
  La  La132  1  0.26666667  0.53333333  1.16666667  1
  La  La133  1  0.26666667  0.73333333  1.16666667  1
  La  La134  1  0.26666667  0.93333333  1.16666667  1
  La  La135  1  0.46666667  0.13333333  1.16666667  1
  La  La136  1  0.46666667  0.33333333  1.16666667  1
  La  La137  1  0.46666667  0.53333333  1.16666667  1
  La  La138  1  0.46666667  0.73333333  1.16666667  1
  La  La139  1  0.46666667  0.93333333  1.16666667  1
  La  La140  1  0.66666667  0.13333333  1.16666667  1
  La  La141  1  0.66666667  0.33333333  1.16666667  1
  La  La142  1  0.66666667  0.53333333  1.16666667  1
  La  La143  1  0.66666667  0.73333333  1.16666667  1
  La  La144  1  0.66666667  0.93333333  1.16666667  1
  La  La145  1  0.86666667  0.13333333  1.16666667  1
  La  La146  1  0.86666667  0.33333333  1.16666667  1
  La  La147  1  0.86666667  0.53333333  1.16666667  1
  La  La148  1  0.86666667  0.73333333  1.16666667  1
  La  La149  1  0.86666667  0.93333333  1.16666667  1
  O  O150  1  0.00000000  0.00000000  0.77268775  1
  O  O151  1  0.00000000  0.20000000  0.77268775  1
  O  O152  1  0.00000000  0.40000000  0.77268775  1
  O  O153  1  0.00000000  0.60000000  0.77268775  1
  O  O154  1  0.00000000  0.80000000  0.77268775  1
  O  O155  1  0.20000000  0.00000000  0.77268775  1
  O  O156  1  0.20000000  0.20000000  0.77268775  1
  O  O157  1  0.20000000  0.40000000  0.77268775  1
  O  O158  1  0.20000000  0.60000000  0.77268775  1
  O  O159  1  0.20000000  0.80000000  0.77268775  1
  O  O160  1  0.40000000  0.00000000  0.77268775  1
  O  O161  1  0.40000000  0.20000000  0.77268775  1
  O  O162  1  0.40000000  0.40000000  0.77268775  1
  O  O163  1  0.40000000  0.60000000  0.77268775  1
  O  O164  1  0.40000000  0.80000000  0.77268775  1
  O  O165  1  0.60000000  0.00000000  0.77268775  1
  O  O166  1  0.60000000  0.20000000  0.77268775  1
  O  O167  1  0.60000000  0.40000000  0.77268775  1
  O  O168  1  0.60000000  0.60000000  0.77268775  1
  O  O169  1  0.60000000  0.80000000  0.77268775  1
  O  O170  1  0.80000000  0.00000000  0.77268775  1
  O  O171  1  0.80000000  0.20000000  0.77268775  1
  O  O172  1  0.80000000  0.40000000  0.77268775  1
  O  O173  1  0.80000000  0.60000000  0.77268775  1
  O  O174  1  0.80000000  0.80000000  0.77268775  1
  O  O175  1  0.13333333  0.06666667  1.10602108  1
  O  O176  1  0.13333333  0.26666667  1.10602108  1
  O  O177  1  0.13333333  0.46666667  1.10602108  1
  O  O178  1  0.13333333  0.66666667  1.10602108  1
  O  O179  1  0.13333333  0.86666667  1.10602108  1
  O  O180  1  0.33333333  0.06666667  1.10602108  1
  O  O181  1  0.33333333  0.26666667  1.10602108  1
  O  O182  1  0.33333333  0.46666667  1.10602108  1
  O  O183  1  0.33333333  0.66666667  1.10602108  1
  O  O184  1  0.33333333  0.86666667  1.10602108  1
  O  O185  1  0.53333333  0.06666667  1.10602108  1
  O  O186  1  0.53333333  0.26666667  1.10602108  1
  O  O187  1  0.53333333  0.46666667  1.10602108  1
  O  O188  1  0.53333333  0.66666667  1.10602108  1
  O  O189  1  0.53333333  0.86666667  1.10602108  1
  O  O190  1  0.73333333  0.06666667  1.10602108  1
  O  O191  1  0.73333333  0.26666667  1.10602108  1
  O  O192  1  0.73333333  0.46666667  1.10602108  1
  O  O193  1  0.73333333  0.66666667  1.10602108  1
  O  O194  1  0.73333333  0.86666667  1.10602108  1
  O  O195  1  0.93333333  0.06666667  1.10602108  1
  O  O196  1  0.93333333  0.26666667  1.10602108  1
  O  O197  1  0.93333333  0.46666667  1.10602108  1
  O  O198  1  0.93333333  0.66666667  1.10602108  1
  O  O199  1  0.93333333  0.86666667  1.10602108  1
  O  O200  1  0.06666667  0.13333333  1.43935442  1
  O  O201  1  0.06666667  0.33333333  1.43935442  1
  O  O202  1  0.06666667  0.53333333  1.43935442  1
  O  O203  1  0.06666667  0.73333333  1.43935442  1
  O  O204  1  0.06666667  0.93333333  1.43935442  1
  O  O205  1  0.26666667  0.13333333  1.43935442  1
  O  O206  1  0.26666667  0.33333333  1.43935442  1
  O  O207  1  0.26666667  0.53333333  1.43935442  1
  O  O208  1  0.26666667  0.73333333  1.43935442  1
  O  O209  1  0.26666667  0.93333333  1.43935442  1
  O  O210  1  0.46666667  0.13333333  1.43935442  1
  O  O211  1  0.46666667  0.33333333  1.43935442  1
  O  O212  1  0.46666667  0.53333333  1.43935442  1
  O  O213  1  0.46666667  0.73333333  1.43935442  1
  O  O214  1  0.46666667  0.93333333  1.43935442  1
  O  O215  1  0.66666667  0.13333333  1.43935442  1
  O  O216  1  0.66666667  0.33333333  1.43935442  1
  O  O217  1  0.66666667  0.53333333  1.43935442  1
  O  O218  1  0.66666667  0.73333333  1.43935442  1
  O  O219  1  0.66666667  0.93333333  1.43935442  1
  O  O220  1  0.86666667  0.13333333  1.43935442  1
  O  O221  1  0.86666667  0.33333333  1.43935442  1
  O  O222  1  0.86666667  0.53333333  1.43935442  1
  O  O223  1  0.86666667  0.73333333  1.43935442  1
  O  O224  1  0.86666667  0.93333333  1.43935442  1
  O  O225  1  0.00000000  -0.00000000  0.22731225  1
  O  O226  1  0.00000000  0.20000000  0.22731225  1
  O  O227  1  0.00000000  0.40000000  0.22731225  1
  O  O228  1  0.00000000  0.60000000  0.22731225  1
  O  O229  1  0.00000000  0.80000000  0.22731225  1
  O  O230  1  0.20000000  -0.00000000  0.22731225  1
  O  O231  1  0.20000000  0.20000000  0.22731225  1
  O  O232  1  0.20000000  0.40000000  0.22731225  1
  O  O233  1  0.20000000  0.60000000  0.22731225  1
  O  O234  1  0.20000000  0.80000000  0.22731225  1
  O  O235  1  0.40000000  -0.00000000  0.22731225  1
  O  O236  1  0.40000000  0.20000000  0.22731225  1
  O  O237  1  0.40000000  0.40000000  0.22731225  1
  O  O238  1  0.40000000  0.60000000  0.22731225  1
  O  O239  1  0.40000000  0.80000000  0.22731225  1
  O  O240  1  0.60000000  -0.00000000  0.22731225  1
  O  O241  1  0.60000000  0.20000000  0.22731225  1
  O  O242  1  0.60000000  0.40000000  0.22731225  1
  O  O243  1  0.60000000  0.60000000  0.22731225  1
  O  O244  1  0.60000000  0.80000000  0.22731225  1
  O  O245  1  0.80000000  -0.00000000  0.22731225  1
  O  O246  1  0.80000000  0.20000000  0.22731225  1
  O  O247  1  0.80000000  0.40000000  0.22731225  1
  O  O248  1  0.80000000  0.60000000  0.22731225  1
  O  O249  1  0.80000000  0.80000000  0.22731225  1
  O  O250  1  0.13333333  0.06666667  0.56064558  1
  O  O251  1  0.13333333  0.26666667  0.56064558  1
  O  O252  1  0.13333333  0.46666667  0.56064558  1
  O  O253  1  0.13333333  0.66666667  0.56064558  1
  O  O254  1  0.13333333  0.86666667  0.56064558  1
  O  O255  1  0.33333333  0.06666667  0.56064558  1
  O  O256  1  0.33333333  0.26666667  0.56064558  1
  O  O257  1  0.33333333  0.46666667  0.56064558  1
  O  O258  1  0.33333333  0.66666667  0.56064558  1
  O  O259  1  0.33333333  0.86666667  0.56064558  1
  O  O260  1  0.53333333  0.06666667  0.56064558  1
  O  O261  1  0.53333333  0.26666667  0.56064558  1
  O  O262  1  0.53333333  0.46666667  0.56064558  1
  O  O263  1  0.53333333  0.66666667  0.56064558  1
  O  O264  1  0.53333333  0.86666667  0.56064558  1
  O  O265  1  0.73333333  0.06666667  0.56064558  1
  O  O266  1  0.73333333  0.26666667  0.56064558  1
  O  O267  1  0.73333333  0.46666667  0.56064558  1
  O  O268  1  0.73333333  0.66666667  0.56064558  1
  O  O269  1  0.73333333  0.86666667  0.56064558  1
  O  O270  1  0.93333333  0.06666667  0.56064558  1
  O  O271  1  0.93333333  0.26666667  0.56064558  1
  O  O272  1  0.93333333  0.46666667  0.56064558  1
  O  O273  1  0.93333333  0.66666667  0.56064558  1
  O  O274  1  0.93333333  0.86666667  0.56064558  1
  O  O275  1  0.06666667  0.13333333  0.89397892  1
  O  O276  1  0.06666667  0.33333333  0.89397892  1
  O  O277  1  0.06666667  0.53333333  0.89397892  1
  O  O278  1  0.06666667  0.73333333  0.89397892  1
  O  O279  1  0.06666667  0.93333333  0.89397892  1
  O  O280  1  0.26666667  0.13333333  0.89397892  1
  O  O281  1  0.26666667  0.33333333  0.89397892  1
  O  O282  1  0.26666667  0.53333333  0.89397892  1
  O  O283  1  0.26666667  0.73333333  0.89397892  1
  O  O284  1  0.26666667  0.93333333  0.89397892  1
  O  O285  1  0.46666667  0.13333333  0.89397892  1
  O  O286  1  0.46666667  0.33333333  0.89397892  1
  O  O287  1  0.46666667  0.53333333  0.89397892  1
  O  O288  1  0.46666667  0.73333333  0.89397892  1
  O  O289  1  0.46666667  0.93333333  0.89397892  1
  O  O290  1  0.66666667  0.13333333  0.89397892  1
  O  O291  1  0.66666667  0.33333333  0.89397892  1
  O  O292  1  0.66666667  0.53333333  0.89397892  1
  O  O293  1  0.66666667  0.73333333  0.89397892  1
  O  O294  1  0.66666667  0.93333333  0.89397892  1
  O  O295  1  0.86666667  0.13333333  0.89397892  1
  O  O296  1  0.86666667  0.33333333  0.89397892  1
  O  O297  1  0.86666667  0.53333333  0.89397892  1
  O  O298  1  0.86666667  0.73333333  0.89397892  1
  O  O299  1  0.86666667  0.93333333  0.89397892  1
