# generated using pymatgen
data_CsY(WO4)2
_symmetry_space_group_name_H-M   'P 1'
_cell_length_a   21.46740827
_cell_length_b   21.12876842
_cell_length_c   15.03670198
_cell_angle_alpha   90.00000000
_cell_angle_beta   130.27691040
_cell_angle_gamma   90.00000000
_symmetry_Int_Tables_number   1
_chemical_formula_structural   CsY(WO4)2
_chemical_formula_sum   'Cs32 Y32 W64 O256'
_cell_volume   5203.43899761
_cell_formula_units_Z   32
loop_
 _symmetry_equiv_pos_site_id
 _symmetry_equiv_pos_as_xyz
  1  'x, y, z'
loop_
 _atom_site_type_symbol
 _atom_site_label
 _atom_site_symmetry_multiplicity
 _atom_site_fract_x
 _atom_site_fract_y
 _atom_site_fract_z
 _atom_site_occupancy
  Cs  Cs0  1  0.25000000  -0.15113638  0.37500000  1
  Cs  Cs1  1  0.25000000  -0.15113638  0.87500000  1
  Cs  Cs2  1  0.25000000  0.34886362  0.37500000  1
  Cs  Cs3  1  0.25000000  0.34886362  0.87500000  1
  Cs  Cs4  1  0.75000000  -0.15113638  0.37500000  1
  Cs  Cs5  1  0.75000000  -0.15113638  0.87500000  1
  Cs  Cs6  1  0.75000000  0.34886362  0.37500000  1
  Cs  Cs7  1  0.75000000  0.34886362  0.87500000  1
  Cs  Cs8  1  0.50000000  0.09886362  0.37500000  1
  Cs  Cs9  1  0.50000000  0.09886362  0.87500000  1
  Cs  Cs10  1  0.50000000  0.59886362  0.37500000  1
  Cs  Cs11  1  0.50000000  0.59886362  0.87500000  1
  Cs  Cs12  1  1.00000000  0.09886362  0.37500000  1
  Cs  Cs13  1  1.00000000  0.09886362  0.87500000  1
  Cs  Cs14  1  1.00000000  0.59886362  0.37500000  1
  Cs  Cs15  1  1.00000000  0.59886362  0.87500000  1
  Cs  Cs16  1  0.25000000  0.15113638  0.12500000  1
  Cs  Cs17  1  0.25000000  0.15113638  0.62500000  1
  Cs  Cs18  1  0.25000000  0.65113638  0.12500000  1
  Cs  Cs19  1  0.25000000  0.65113638  0.62500000  1
  Cs  Cs20  1  0.75000000  0.15113638  0.12500000  1
  Cs  Cs21  1  0.75000000  0.15113638  0.62500000  1
  Cs  Cs22  1  0.75000000  0.65113638  0.12500000  1
  Cs  Cs23  1  0.75000000  0.65113638  0.62500000  1
  Cs  Cs24  1  0.50000000  0.40113638  0.12500000  1
  Cs  Cs25  1  0.50000000  0.40113638  0.62500000  1
  Cs  Cs26  1  0.50000000  0.90113638  0.12500000  1
  Cs  Cs27  1  0.50000000  0.90113638  0.62500000  1
  Cs  Cs28  1  1.00000000  0.40113638  0.12500000  1
  Cs  Cs29  1  1.00000000  0.40113638  0.62500000  1
  Cs  Cs30  1  1.00000000  0.90113638  0.12500000  1
  Cs  Cs31  1  1.00000000  0.90113638  0.62500000  1
  Y  Y32  1  0.25000000  0.13633379  0.37500000  1
  Y  Y33  1  0.25000000  0.13633379  0.87500000  1
  Y  Y34  1  0.25000000  0.63633379  0.37500000  1
  Y  Y35  1  0.25000000  0.63633379  0.87500000  1
  Y  Y36  1  0.75000000  0.13633379  0.37500000  1
  Y  Y37  1  0.75000000  0.13633379  0.87500000  1
  Y  Y38  1  0.75000000  0.63633379  0.37500000  1
  Y  Y39  1  0.75000000  0.63633379  0.87500000  1
  Y  Y40  1  0.50000000  0.38633379  0.37500000  1
  Y  Y41  1  0.50000000  0.38633379  0.87500000  1
  Y  Y42  1  0.50000000  0.88633379  0.37500000  1
  Y  Y43  1  0.50000000  0.88633379  0.87500000  1
  Y  Y44  1  1.00000000  0.38633379  0.37500000  1
  Y  Y45  1  1.00000000  0.38633379  0.87500000  1
  Y  Y46  1  1.00000000  0.88633379  0.37500000  1
  Y  Y47  1  1.00000000  0.88633379  0.87500000  1
  Y  Y48  1  0.25000000  -0.13633379  0.12500000  1
  Y  Y49  1  0.25000000  -0.13633379  0.62500000  1
  Y  Y50  1  0.25000000  0.36366621  0.12500000  1
  Y  Y51  1  0.25000000  0.36366621  0.62500000  1
  Y  Y52  1  0.75000000  -0.13633379  0.12500000  1
  Y  Y53  1  0.75000000  -0.13633379  0.62500000  1
  Y  Y54  1  0.75000000  0.36366621  0.12500000  1
  Y  Y55  1  0.75000000  0.36366621  0.62500000  1
  Y  Y56  1  0.50000000  0.11366621  0.12500000  1
  Y  Y57  1  0.50000000  0.11366621  0.62500000  1
  Y  Y58  1  0.50000000  0.61366621  0.12500000  1
  Y  Y59  1  0.50000000  0.61366621  0.62500000  1
  Y  Y60  1  1.00000000  0.11366621  0.12500000  1
  Y  Y61  1  1.00000000  0.11366621  0.62500000  1
  Y  Y62  1  1.00000000  0.61366621  0.12500000  1
  Y  Y63  1  1.00000000  0.61366621  0.62500000  1
  W  W64  1  0.15307140  0.00204902  0.38758539  1
  W  W65  1  0.15307140  0.00204902  0.88758539  1
  W  W66  1  0.15307140  0.50204902  0.38758539  1
  W  W67  1  0.15307140  0.50204902  0.88758539  1
  W  W68  1  0.65307140  0.00204902  0.38758539  1
  W  W69  1  0.65307140  0.00204902  0.88758539  1
  W  W70  1  0.65307140  0.50204902  0.38758539  1
  W  W71  1  0.65307140  0.50204902  0.88758539  1
  W  W72  1  0.40307140  0.25204902  0.38758539  1
  W  W73  1  0.40307140  0.25204902  0.88758539  1
  W  W74  1  0.40307140  0.75204902  0.38758539  1
  W  W75  1  0.40307140  0.75204902  0.88758539  1
  W  W76  1  0.90307140  0.25204902  0.38758539  1
  W  W77  1  0.90307140  0.25204902  0.88758539  1
  W  W78  1  0.90307140  0.75204902  0.38758539  1
  W  W79  1  0.90307140  0.75204902  0.88758539  1
  W  W80  1  0.34692860  -0.00204902  0.11241461  1
  W  W81  1  0.34692860  -0.00204902  0.61241461  1
  W  W82  1  0.34692860  0.49795098  0.11241461  1
  W  W83  1  0.34692860  0.49795098  0.61241461  1
  W  W84  1  0.84692860  -0.00204902  0.11241461  1
  W  W85  1  0.84692860  -0.00204902  0.61241461  1
  W  W86  1  0.84692860  0.49795098  0.11241461  1
  W  W87  1  0.84692860  0.49795098  0.61241461  1
  W  W88  1  0.59692860  0.24795098  0.11241461  1
  W  W89  1  0.59692860  0.24795098  0.61241461  1
  W  W90  1  0.59692860  0.74795098  0.11241461  1
  W  W91  1  0.59692860  0.74795098  0.61241461  1
  W  W92  1  1.09692860  0.24795098  0.11241461  1
  W  W93  1  1.09692860  0.24795098  0.61241461  1
  W  W94  1  1.09692860  0.74795098  0.11241461  1
  W  W95  1  1.09692860  0.74795098  0.61241461  1
  W  W96  1  0.34692860  0.00204902  0.36241461  1
  W  W97  1  0.34692860  0.00204902  0.86241461  1
  W  W98  1  0.34692860  0.50204902  0.36241461  1
  W  W99  1  0.34692860  0.50204902  0.86241461  1
  W  W100  1  0.84692860  0.00204902  0.36241461  1
  W  W101  1  0.84692860  0.00204902  0.86241461  1
  W  W102  1  0.84692860  0.50204902  0.36241461  1
  W  W103  1  0.84692860  0.50204902  0.86241461  1
  W  W104  1  0.59692860  0.25204902  0.36241461  1
  W  W105  1  0.59692860  0.25204902  0.86241461  1
  W  W106  1  0.59692860  0.75204902  0.36241461  1
  W  W107  1  0.59692860  0.75204902  0.86241461  1
  W  W108  1  1.09692860  0.25204902  0.36241461  1
  W  W109  1  1.09692860  0.25204902  0.86241461  1
  W  W110  1  1.09692860  0.75204902  0.36241461  1
  W  W111  1  1.09692860  0.75204902  0.86241461  1
  W  W112  1  0.15307140  -0.00204902  0.13758539  1
  W  W113  1  0.15307140  -0.00204902  0.63758539  1
  W  W114  1  0.15307140  0.49795098  0.13758539  1
  W  W115  1  0.15307140  0.49795098  0.63758539  1
  W  W116  1  0.65307140  -0.00204902  0.13758539  1
  W  W117  1  0.65307140  -0.00204902  0.63758539  1
  W  W118  1  0.65307140  0.49795098  0.13758539  1
  W  W119  1  0.65307140  0.49795098  0.63758539  1
  W  W120  1  0.40307140  0.24795098  0.13758539  1
  W  W121  1  0.40307140  0.24795098  0.63758539  1
  W  W122  1  0.40307140  0.74795098  0.13758539  1
  W  W123  1  0.40307140  0.74795098  0.63758539  1
  W  W124  1  0.90307140  0.24795098  0.13758539  1
  W  W125  1  0.90307140  0.24795098  0.63758539  1
  W  W126  1  0.90307140  0.74795098  0.13758539  1
  W  W127  1  0.90307140  0.74795098  0.63758539  1
  O  O128  1  0.15673892  -0.03279883  0.28134820  1
  O  O129  1  0.15673892  -0.03279883  0.78134820  1
  O  O130  1  0.15673892  0.46720117  0.28134820  1
  O  O131  1  0.15673892  0.46720117  0.78134820  1
  O  O132  1  0.65673892  -0.03279883  0.28134820  1
  O  O133  1  0.65673892  -0.03279883  0.78134820  1
  O  O134  1  0.65673892  0.46720117  0.28134820  1
  O  O135  1  0.65673892  0.46720117  0.78134820  1
  O  O136  1  0.40673892  0.21720117  0.28134820  1
  O  O137  1  0.40673892  0.21720117  0.78134820  1
  O  O138  1  0.40673892  0.71720117  0.28134820  1
  O  O139  1  0.40673892  0.71720117  0.78134820  1
  O  O140  1  0.90673892  0.21720117  0.28134820  1
  O  O141  1  0.90673892  0.21720117  0.78134820  1
  O  O142  1  0.90673892  0.71720117  0.28134820  1
  O  O143  1  0.90673892  0.71720117  0.78134820  1
  O  O144  1  0.34326108  0.03279883  0.21865180  1
  O  O145  1  0.34326108  0.03279883  0.71865180  1
  O  O146  1  0.34326108  0.53279883  0.21865180  1
  O  O147  1  0.34326108  0.53279883  0.71865180  1
  O  O148  1  0.84326108  0.03279883  0.21865180  1
  O  O149  1  0.84326108  0.03279883  0.71865180  1
  O  O150  1  0.84326108  0.53279883  0.21865180  1
  O  O151  1  0.84326108  0.53279883  0.71865180  1
  O  O152  1  0.59326108  0.28279883  0.21865180  1
  O  O153  1  0.59326108  0.28279883  0.71865180  1
  O  O154  1  0.59326108  0.78279883  0.21865180  1
  O  O155  1  0.59326108  0.78279883  0.71865180  1
  O  O156  1  1.09326108  0.28279883  0.21865180  1
  O  O157  1  1.09326108  0.28279883  0.71865180  1
  O  O158  1  1.09326108  0.78279883  0.21865180  1
  O  O159  1  1.09326108  0.78279883  0.71865180  1
  O  O160  1  0.34326108  -0.03279883  0.46865180  1
  O  O161  1  0.34326108  -0.03279883  0.96865180  1
  O  O162  1  0.34326108  0.46720117  0.46865180  1
  O  O163  1  0.34326108  0.46720117  0.96865180  1
  O  O164  1  0.84326108  -0.03279883  0.46865180  1
  O  O165  1  0.84326108  -0.03279883  0.96865180  1
  O  O166  1  0.84326108  0.46720117  0.46865180  1
  O  O167  1  0.84326108  0.46720117  0.96865180  1
  O  O168  1  0.59326108  0.21720117  0.46865180  1
  O  O169  1  0.59326108  0.21720117  0.96865180  1
  O  O170  1  0.59326108  0.71720117  0.46865180  1
  O  O171  1  0.59326108  0.71720117  0.96865180  1
  O  O172  1  1.09326108  0.21720117  0.46865180  1
  O  O173  1  1.09326108  0.21720117  0.96865180  1
  O  O174  1  1.09326108  0.71720117  0.46865180  1
  O  O175  1  1.09326108  0.71720117  0.96865180  1
  O  O176  1  0.15673892  0.03279883  0.03134820  1
  O  O177  1  0.15673892  0.03279883  0.53134820  1
  O  O178  1  0.15673892  0.53279883  0.03134820  1
  O  O179  1  0.15673892  0.53279883  0.53134820  1
  O  O180  1  0.65673892  0.03279883  0.03134820  1
  O  O181  1  0.65673892  0.03279883  0.53134820  1
  O  O182  1  0.65673892  0.53279883  0.03134820  1
  O  O183  1  0.65673892  0.53279883  0.53134820  1
  O  O184  1  0.40673892  0.28279883  0.03134820  1
  O  O185  1  0.40673892  0.28279883  0.53134820  1
  O  O186  1  0.40673892  0.78279883  0.03134820  1
  O  O187  1  0.40673892  0.78279883  0.53134820  1
  O  O188  1  0.90673892  0.28279883  0.03134820  1
  O  O189  1  0.90673892  0.28279883  0.53134820  1
  O  O190  1  0.90673892  0.78279883  0.03134820  1
  O  O191  1  0.90673892  0.78279883  0.53134820  1
  O  O192  1  0.38987244  0.07850409  0.43677418  1
  O  O193  1  0.38987244  0.07850409  0.93677418  1
  O  O194  1  0.38987244  0.57850409  0.43677418  1
  O  O195  1  0.38987244  0.57850409  0.93677418  1
  O  O196  1  0.88987244  0.07850409  0.43677418  1
  O  O197  1  0.88987244  0.07850409  0.93677418  1
  O  O198  1  0.88987244  0.57850409  0.43677418  1
  O  O199  1  0.88987244  0.57850409  0.93677418  1
  O  O200  1  0.63987244  0.32850409  0.43677418  1
  O  O201  1  0.63987244  0.32850409  0.93677418  1
  O  O202  1  0.63987244  0.82850409  0.43677418  1
  O  O203  1  0.63987244  0.82850409  0.93677418  1
  O  O204  1  1.13987244  0.32850409  0.43677418  1
  O  O205  1  1.13987244  0.32850409  0.93677418  1
  O  O206  1  1.13987244  0.82850409  0.43677418  1
  O  O207  1  1.13987244  0.82850409  0.93677418  1
  O  O208  1  0.11012756  -0.07850409  0.06322582  1
  O  O209  1  0.11012756  -0.07850409  0.56322582  1
  O  O210  1  0.11012756  0.42149591  0.06322582  1
  O  O211  1  0.11012756  0.42149591  0.56322582  1
  O  O212  1  0.61012756  -0.07850409  0.06322582  1
  O  O213  1  0.61012756  -0.07850409  0.56322582  1
  O  O214  1  0.61012756  0.42149591  0.06322582  1
  O  O215  1  0.61012756  0.42149591  0.56322582  1
  O  O216  1  0.36012756  0.17149591  0.06322582  1
  O  O217  1  0.36012756  0.17149591  0.56322582  1
  O  O218  1  0.36012756  0.67149591  0.06322582  1
  O  O219  1  0.36012756  0.67149591  0.56322582  1
  O  O220  1  0.86012756  0.17149591  0.06322582  1
  O  O221  1  0.86012756  0.17149591  0.56322582  1
  O  O222  1  0.86012756  0.67149591  0.06322582  1
  O  O223  1  0.86012756  0.67149591  0.56322582  1
  O  O224  1  0.11012756  0.07850409  0.31322582  1
  O  O225  1  0.11012756  0.07850409  0.81322582  1
  O  O226  1  0.11012756  0.57850409  0.31322582  1
  O  O227  1  0.11012756  0.57850409  0.81322582  1
  O  O228  1  0.61012756  0.07850409  0.31322582  1
  O  O229  1  0.61012756  0.07850409  0.81322582  1
  O  O230  1  0.61012756  0.57850409  0.31322582  1
  O  O231  1  0.61012756  0.57850409  0.81322582  1
  O  O232  1  0.36012756  0.32850409  0.31322582  1
  O  O233  1  0.36012756  0.32850409  0.81322582  1
  O  O234  1  0.36012756  0.82850409  0.31322582  1
  O  O235  1  0.36012756  0.82850409  0.81322582  1
  O  O236  1  0.86012756  0.32850409  0.31322582  1
  O  O237  1  0.86012756  0.32850409  0.81322582  1
  O  O238  1  0.86012756  0.82850409  0.31322582  1
  O  O239  1  0.86012756  0.82850409  0.81322582  1
  O  O240  1  0.38987244  -0.07850409  0.18677418  1
  O  O241  1  0.38987244  -0.07850409  0.68677418  1
  O  O242  1  0.38987244  0.42149591  0.18677418  1
  O  O243  1  0.38987244  0.42149591  0.68677418  1
  O  O244  1  0.88987244  -0.07850409  0.18677418  1
  O  O245  1  0.88987244  -0.07850409  0.68677418  1
  O  O246  1  0.88987244  0.42149591  0.18677418  1
  O  O247  1  0.88987244  0.42149591  0.68677418  1
  O  O248  1  0.63987244  0.17149591  0.18677418  1
  O  O249  1  0.63987244  0.17149591  0.68677418  1
  O  O250  1  0.63987244  0.67149591  0.18677418  1
  O  O251  1  0.63987244  0.67149591  0.68677418  1
  O  O252  1  1.13987244  0.17149591  0.18677418  1
  O  O253  1  1.13987244  0.17149591  0.68677418  1
  O  O254  1  1.13987244  0.67149591  0.18677418  1
  O  O255  1  1.13987244  0.67149591  0.68677418  1
  O  O256  1  0.26020588  0.05411979  0.48325931  1
  O  O257  1  0.26020588  0.05411979  0.98325931  1
  O  O258  1  0.26020588  0.55411979  0.48325931  1
  O  O259  1  0.26020588  0.55411979  0.98325931  1
  O  O260  1  0.76020588  0.05411979  0.48325931  1
  O  O261  1  0.76020588  0.05411979  0.98325931  1
  O  O262  1  0.76020588  0.55411979  0.48325931  1
  O  O263  1  0.76020588  0.55411979  0.98325931  1
  O  O264  1  0.51020588  0.30411979  0.48325931  1
  O  O265  1  0.51020588  0.30411979  0.98325931  1
  O  O266  1  0.51020588  0.80411979  0.48325931  1
  O  O267  1  0.51020588  0.80411979  0.98325931  1
  O  O268  1  1.01020588  0.30411979  0.48325931  1
  O  O269  1  1.01020588  0.30411979  0.98325931  1
  O  O270  1  1.01020588  0.80411979  0.48325931  1
  O  O271  1  1.01020588  0.80411979  0.98325931  1
  O  O272  1  0.23979412  -0.05411979  0.01674069  1
  O  O273  1  0.23979412  -0.05411979  0.51674069  1
  O  O274  1  0.23979412  0.44588021  0.01674069  1
  O  O275  1  0.23979412  0.44588021  0.51674069  1
  O  O276  1  0.73979412  -0.05411979  0.01674069  1
  O  O277  1  0.73979412  -0.05411979  0.51674069  1
  O  O278  1  0.73979412  0.44588021  0.01674069  1
  O  O279  1  0.73979412  0.44588021  0.51674069  1
  O  O280  1  0.48979412  0.19588021  0.01674069  1
  O  O281  1  0.48979412  0.19588021  0.51674069  1
  O  O282  1  0.48979412  0.69588021  0.01674069  1
  O  O283  1  0.48979412  0.69588021  0.51674069  1
  O  O284  1  0.98979412  0.19588021  0.01674069  1
  O  O285  1  0.98979412  0.19588021  0.51674069  1
  O  O286  1  0.98979412  0.69588021  0.01674069  1
  O  O287  1  0.98979412  0.69588021  0.51674069  1
  O  O288  1  0.23979412  0.05411979  0.26674069  1
  O  O289  1  0.23979412  0.05411979  0.76674069  1
  O  O290  1  0.23979412  0.55411979  0.26674069  1
  O  O291  1  0.23979412  0.55411979  0.76674069  1
  O  O292  1  0.73979412  0.05411979  0.26674069  1
  O  O293  1  0.73979412  0.05411979  0.76674069  1
  O  O294  1  0.73979412  0.55411979  0.26674069  1
  O  O295  1  0.73979412  0.55411979  0.76674069  1
  O  O296  1  0.48979412  0.30411979  0.26674069  1
  O  O297  1  0.48979412  0.30411979  0.76674069  1
  O  O298  1  0.48979412  0.80411979  0.26674069  1
  O  O299  1  0.48979412  0.80411979  0.76674069  1
  O  O300  1  0.98979412  0.30411979  0.26674069  1
  O  O301  1  0.98979412  0.30411979  0.76674069  1
  O  O302  1  0.98979412  0.80411979  0.26674069  1
  O  O303  1  0.98979412  0.80411979  0.76674069  1
  O  O304  1  0.26020588  -0.05411979  0.23325931  1
  O  O305  1  0.26020588  -0.05411979  0.73325931  1
  O  O306  1  0.26020588  0.44588021  0.23325931  1
  O  O307  1  0.26020588  0.44588021  0.73325931  1
  O  O308  1  0.76020588  -0.05411979  0.23325931  1
  O  O309  1  0.76020588  -0.05411979  0.73325931  1
  O  O310  1  0.76020588  0.44588021  0.23325931  1
  O  O311  1  0.76020588  0.44588021  0.73325931  1
  O  O312  1  0.51020588  0.19588021  0.23325931  1
  O  O313  1  0.51020588  0.19588021  0.73325931  1
  O  O314  1  0.51020588  0.69588021  0.23325931  1
  O  O315  1  0.51020588  0.69588021  0.73325931  1
  O  O316  1  1.01020588  0.19588021  0.23325931  1
  O  O317  1  1.01020588  0.19588021  0.73325931  1
  O  O318  1  1.01020588  0.69588021  0.23325931  1
  O  O319  1  1.01020588  0.69588021  0.73325931  1
  O  O320  1  0.06675057  -0.04172975  0.35076079  1
  O  O321  1  0.06675057  -0.04172975  0.85076079  1
  O  O322  1  0.06675057  0.45827025  0.35076079  1
  O  O323  1  0.06675057  0.45827025  0.85076079  1
  O  O324  1  0.56675057  -0.04172975  0.35076079  1
  O  O325  1  0.56675057  -0.04172975  0.85076079  1
  O  O326  1  0.56675057  0.45827025  0.35076079  1
  O  O327  1  0.56675057  0.45827025  0.85076079  1
  O  O328  1  0.31675057  0.20827025  0.35076079  1
  O  O329  1  0.31675057  0.20827025  0.85076079  1
  O  O330  1  0.31675057  0.70827025  0.35076079  1
  O  O331  1  0.31675057  0.70827025  0.85076079  1
  O  O332  1  0.81675057  0.20827025  0.35076079  1
  O  O333  1  0.81675057  0.20827025  0.85076079  1
  O  O334  1  0.81675057  0.70827025  0.35076079  1
  O  O335  1  0.81675057  0.70827025  0.85076079  1
  O  O336  1  0.43324943  0.04172975  0.14923921  1
  O  O337  1  0.43324943  0.04172975  0.64923921  1
  O  O338  1  0.43324943  0.54172975  0.14923921  1
  O  O339  1  0.43324943  0.54172975  0.64923921  1
  O  O340  1  0.93324943  0.04172975  0.14923921  1
  O  O341  1  0.93324943  0.04172975  0.64923921  1
  O  O342  1  0.93324943  0.54172975  0.14923921  1
  O  O343  1  0.93324943  0.54172975  0.64923921  1
  O  O344  1  0.68324943  0.29172975  0.14923921  1
  O  O345  1  0.68324943  0.29172975  0.64923921  1
  O  O346  1  0.68324943  0.79172975  0.14923921  1
  O  O347  1  0.68324943  0.79172975  0.64923921  1
  O  O348  1  1.18324943  0.29172975  0.14923921  1
  O  O349  1  1.18324943  0.29172975  0.64923921  1
  O  O350  1  1.18324943  0.79172975  0.14923921  1
  O  O351  1  1.18324943  0.79172975  0.64923921  1
  O  O352  1  0.43324943  -0.04172975  0.39923921  1
  O  O353  1  0.43324943  -0.04172975  0.89923921  1
  O  O354  1  0.43324943  0.45827025  0.39923921  1
  O  O355  1  0.43324943  0.45827025  0.89923921  1
  O  O356  1  0.93324943  -0.04172975  0.39923921  1
  O  O357  1  0.93324943  -0.04172975  0.89923921  1
  O  O358  1  0.93324943  0.45827025  0.39923921  1
  O  O359  1  0.93324943  0.45827025  0.89923921  1
  O  O360  1  0.68324943  0.20827025  0.39923921  1
  O  O361  1  0.68324943  0.20827025  0.89923921  1
  O  O362  1  0.68324943  0.70827025  0.39923921  1
  O  O363  1  0.68324943  0.70827025  0.89923921  1
  O  O364  1  1.18324943  0.20827025  0.39923921  1
  O  O365  1  1.18324943  0.20827025  0.89923921  1
  O  O366  1  1.18324943  0.70827025  0.39923921  1
  O  O367  1  1.18324943  0.70827025  0.89923921  1
  O  O368  1  0.06675057  0.04172975  0.10076079  1
  O  O369  1  0.06675057  0.04172975  0.60076079  1
  O  O370  1  0.06675057  0.54172975  0.10076079  1
  O  O371  1  0.06675057  0.54172975  0.60076079  1
  O  O372  1  0.56675057  0.04172975  0.10076079  1
  O  O373  1  0.56675057  0.04172975  0.60076079  1
  O  O374  1  0.56675057  0.54172975  0.10076079  1
  O  O375  1  0.56675057  0.54172975  0.60076079  1
  O  O376  1  0.31675057  0.29172975  0.10076079  1
  O  O377  1  0.31675057  0.29172975  0.60076079  1
  O  O378  1  0.31675057  0.79172975  0.10076079  1
  O  O379  1  0.31675057  0.79172975  0.60076079  1
  O  O380  1  0.81675057  0.29172975  0.10076079  1
  O  O381  1  0.81675057  0.29172975  0.60076079  1
  O  O382  1  0.81675057  0.79172975  0.10076079  1
  O  O383  1  0.81675057  0.79172975  0.60076079  1
