# generated using pymatgen
data_Sr2NbInO6
_symmetry_space_group_name_H-M   'P 1'
_cell_length_a   17.20244319
_cell_length_b   17.44938297
_cell_length_c   19.92848190
_cell_angle_alpha   90.00000000
_cell_angle_beta   125.19914983
_cell_angle_gamma   90.00000000
_symmetry_Int_Tables_number   1
_chemical_formula_structural   Sr2NbInO6
_chemical_formula_sum   'Sr72 Nb36 In36 O216'
_cell_volume   4888.18959919
_cell_formula_units_Z   36
loop_
 _symmetry_equiv_pos_site_id
 _symmetry_equiv_pos_as_xyz
  1  'x, y, z'
loop_
 _atom_site_type_symbol
 _atom_site_label
 _atom_site_symmetry_multiplicity
 _atom_site_fract_x
 _atom_site_fract_y
 _atom_site_fract_z
 _atom_site_occupancy
  Sr  Sr0  1  0.08015363  0.01297814  0.37457588  1
  Sr  Sr1  1  0.08015363  0.01297814  0.87457588  1
  Sr  Sr2  1  0.08015363  0.34631147  0.37457588  1
  Sr  Sr3  1  0.08015363  0.34631147  0.87457588  1
  Sr  Sr4  1  0.08015363  0.67964480  0.37457588  1
  Sr  Sr5  1  0.08015363  0.67964480  0.87457588  1
  Sr  Sr6  1  0.41348696  0.01297814  0.37457588  1
  Sr  Sr7  1  0.41348696  0.01297814  0.87457588  1
  Sr  Sr8  1  0.41348696  0.34631147  0.37457588  1
  Sr  Sr9  1  0.41348696  0.34631147  0.87457588  1
  Sr  Sr10  1  0.41348696  0.67964480  0.37457588  1
  Sr  Sr11  1  0.41348696  0.67964480  0.87457588  1
  Sr  Sr12  1  0.74682030  0.01297814  0.37457588  1
  Sr  Sr13  1  0.74682030  0.01297814  0.87457588  1
  Sr  Sr14  1  0.74682030  0.34631147  0.37457588  1
  Sr  Sr15  1  0.74682030  0.34631147  0.87457588  1
  Sr  Sr16  1  0.74682030  0.67964480  0.37457588  1
  Sr  Sr17  1  0.74682030  0.67964480  0.87457588  1
  Sr  Sr18  1  0.25317970  0.17964480  0.37542412  1
  Sr  Sr19  1  0.25317970  0.17964480  0.87542412  1
  Sr  Sr20  1  0.25317970  0.51297814  0.37542412  1
  Sr  Sr21  1  0.25317970  0.51297814  0.87542412  1
  Sr  Sr22  1  0.25317970  0.84631147  0.37542412  1
  Sr  Sr23  1  0.25317970  0.84631147  0.87542412  1
  Sr  Sr24  1  0.58651304  0.17964480  0.37542412  1
  Sr  Sr25  1  0.58651304  0.17964480  0.87542412  1
  Sr  Sr26  1  0.58651304  0.51297814  0.37542412  1
  Sr  Sr27  1  0.58651304  0.51297814  0.87542412  1
  Sr  Sr28  1  0.58651304  0.84631147  0.37542412  1
  Sr  Sr29  1  0.58651304  0.84631147  0.87542412  1
  Sr  Sr30  1  0.91984637  0.17964480  0.37542412  1
  Sr  Sr31  1  0.91984637  0.17964480  0.87542412  1
  Sr  Sr32  1  0.91984637  0.51297814  0.37542412  1
  Sr  Sr33  1  0.91984637  0.51297814  0.87542412  1
  Sr  Sr34  1  0.91984637  0.84631147  0.37542412  1
  Sr  Sr35  1  0.91984637  0.84631147  0.87542412  1
  Sr  Sr36  1  0.08015363  0.15368853  0.12457588  1
  Sr  Sr37  1  0.08015363  0.15368853  0.62457588  1
  Sr  Sr38  1  0.08015363  0.48702186  0.12457588  1
  Sr  Sr39  1  0.08015363  0.48702186  0.62457588  1
  Sr  Sr40  1  0.08015363  0.82035520  0.12457588  1
  Sr  Sr41  1  0.08015363  0.82035520  0.62457588  1
  Sr  Sr42  1  0.41348696  0.15368853  0.12457588  1
  Sr  Sr43  1  0.41348696  0.15368853  0.62457588  1
  Sr  Sr44  1  0.41348696  0.48702186  0.12457588  1
  Sr  Sr45  1  0.41348696  0.48702186  0.62457588  1
  Sr  Sr46  1  0.41348696  0.82035520  0.12457588  1
  Sr  Sr47  1  0.41348696  0.82035520  0.62457588  1
  Sr  Sr48  1  0.74682030  0.15368853  0.12457588  1
  Sr  Sr49  1  0.74682030  0.15368853  0.62457588  1
  Sr  Sr50  1  0.74682030  0.48702186  0.12457588  1
  Sr  Sr51  1  0.74682030  0.48702186  0.62457588  1
  Sr  Sr52  1  0.74682030  0.82035520  0.12457588  1
  Sr  Sr53  1  0.74682030  0.82035520  0.62457588  1
  Sr  Sr54  1  0.25317970  0.32035520  0.12542412  1
  Sr  Sr55  1  0.25317970  0.32035520  0.62542412  1
  Sr  Sr56  1  0.25317970  0.65368853  0.12542412  1
  Sr  Sr57  1  0.25317970  0.65368853  0.62542412  1
  Sr  Sr58  1  0.25317970  0.98702186  0.12542412  1
  Sr  Sr59  1  0.25317970  0.98702186  0.62542412  1
  Sr  Sr60  1  0.58651304  0.32035520  0.12542412  1
  Sr  Sr61  1  0.58651304  0.32035520  0.62542412  1
  Sr  Sr62  1  0.58651304  0.65368853  0.12542412  1
  Sr  Sr63  1  0.58651304  0.65368853  0.62542412  1
  Sr  Sr64  1  0.58651304  0.98702186  0.12542412  1
  Sr  Sr65  1  0.58651304  0.98702186  0.62542412  1
  Sr  Sr66  1  0.91984637  0.32035520  0.12542412  1
  Sr  Sr67  1  0.91984637  0.32035520  0.62542412  1
  Sr  Sr68  1  0.91984637  0.65368853  0.12542412  1
  Sr  Sr69  1  0.91984637  0.65368853  0.62542412  1
  Sr  Sr70  1  0.91984637  0.98702186  0.12542412  1
  Sr  Sr71  1  0.91984637  0.98702186  0.62542412  1
  Nb  Nb72  1  0.16666667  0.16666667  0.00000000  1
  Nb  Nb73  1  0.16666667  0.16666667  0.50000000  1
  Nb  Nb74  1  0.16666667  0.50000000  0.00000000  1
  Nb  Nb75  1  0.16666667  0.50000000  0.50000000  1
  Nb  Nb76  1  0.16666667  0.83333333  0.00000000  1
  Nb  Nb77  1  0.16666667  0.83333333  0.50000000  1
  Nb  Nb78  1  0.50000000  0.16666667  0.00000000  1
  Nb  Nb79  1  0.50000000  0.16666667  0.50000000  1
  Nb  Nb80  1  0.50000000  0.50000000  0.00000000  1
  Nb  Nb81  1  0.50000000  0.50000000  0.50000000  1
  Nb  Nb82  1  0.50000000  0.83333333  0.00000000  1
  Nb  Nb83  1  0.50000000  0.83333333  0.50000000  1
  Nb  Nb84  1  0.83333333  0.16666667  0.00000000  1
  Nb  Nb85  1  0.83333333  0.16666667  0.50000000  1
  Nb  Nb86  1  0.83333333  0.50000000  0.00000000  1
  Nb  Nb87  1  0.83333333  0.50000000  0.50000000  1
  Nb  Nb88  1  0.83333333  0.83333333  0.00000000  1
  Nb  Nb89  1  0.83333333  0.83333333  0.50000000  1
  Nb  Nb90  1  0.16666667  0.00000000  0.25000000  1
  Nb  Nb91  1  0.16666667  0.00000000  0.75000000  1
  Nb  Nb92  1  0.16666667  0.33333333  0.25000000  1
  Nb  Nb93  1  0.16666667  0.33333333  0.75000000  1
  Nb  Nb94  1  0.16666667  0.66666667  0.25000000  1
  Nb  Nb95  1  0.16666667  0.66666667  0.75000000  1
  Nb  Nb96  1  0.50000000  0.00000000  0.25000000  1
  Nb  Nb97  1  0.50000000  0.00000000  0.75000000  1
  Nb  Nb98  1  0.50000000  0.33333333  0.25000000  1
  Nb  Nb99  1  0.50000000  0.33333333  0.75000000  1
  Nb  Nb100  1  0.50000000  0.66666667  0.25000000  1
  Nb  Nb101  1  0.50000000  0.66666667  0.75000000  1
  Nb  Nb102  1  0.83333333  0.00000000  0.25000000  1
  Nb  Nb103  1  0.83333333  0.00000000  0.75000000  1
  Nb  Nb104  1  0.83333333  0.33333333  0.25000000  1
  Nb  Nb105  1  0.83333333  0.33333333  0.75000000  1
  Nb  Nb106  1  0.83333333  0.66666667  0.25000000  1
  Nb  Nb107  1  0.83333333  0.66666667  0.75000000  1
  In  In108  1  -0.00000000  0.16666667  0.25000000  1
  In  In109  1  -0.00000000  0.16666667  0.75000000  1
  In  In110  1  -0.00000000  0.50000000  0.25000000  1
  In  In111  1  -0.00000000  0.50000000  0.75000000  1
  In  In112  1  -0.00000000  0.83333333  0.25000000  1
  In  In113  1  -0.00000000  0.83333333  0.75000000  1
  In  In114  1  0.33333333  0.16666667  0.25000000  1
  In  In115  1  0.33333333  0.16666667  0.75000000  1
  In  In116  1  0.33333333  0.50000000  0.25000000  1
  In  In117  1  0.33333333  0.50000000  0.75000000  1
  In  In118  1  0.33333333  0.83333333  0.25000000  1
  In  In119  1  0.33333333  0.83333333  0.75000000  1
  In  In120  1  0.66666667  0.16666667  0.25000000  1
  In  In121  1  0.66666667  0.16666667  0.75000000  1
  In  In122  1  0.66666667  0.50000000  0.25000000  1
  In  In123  1  0.66666667  0.50000000  0.75000000  1
  In  In124  1  0.66666667  0.83333333  0.25000000  1
  In  In125  1  0.66666667  0.83333333  0.75000000  1
  In  In126  1  0.00000000  0.00000000  0.00000000  1
  In  In127  1  -0.00000000  0.00000000  0.50000000  1
  In  In128  1  0.00000000  0.33333333  0.00000000  1
  In  In129  1  -0.00000000  0.33333333  0.50000000  1
  In  In130  1  0.00000000  0.66666667  0.00000000  1
  In  In131  1  -0.00000000  0.66666667  0.50000000  1
  In  In132  1  0.33333333  0.00000000  0.00000000  1
  In  In133  1  0.33333333  0.00000000  0.50000000  1
  In  In134  1  0.33333333  0.33333333  0.00000000  1
  In  In135  1  0.33333333  0.33333333  0.50000000  1
  In  In136  1  0.33333333  0.66666667  0.00000000  1
  In  In137  1  0.33333333  0.66666667  0.50000000  1
  In  In138  1  0.66666667  0.00000000  0.00000000  1
  In  In139  1  0.66666667  0.00000000  0.50000000  1
  In  In140  1  0.66666667  0.33333333  0.00000000  1
  In  In141  1  0.66666667  0.33333333  0.50000000  1
  In  In142  1  0.66666667  0.66666667  0.00000000  1
  In  In143  1  0.66666667  0.66666667  0.50000000  1
  O  O144  1  0.21985025  0.17419366  0.11946319  1
  O  O145  1  0.21985025  0.17419366  0.61946319  1
  O  O146  1  0.21985025  0.50752700  0.11946319  1
  O  O147  1  0.21985025  0.50752700  0.61946319  1
  O  O148  1  0.21985025  0.84086033  0.11946319  1
  O  O149  1  0.21985025  0.84086033  0.61946319  1
  O  O150  1  0.55318358  0.17419366  0.11946319  1
  O  O151  1  0.55318358  0.17419366  0.61946319  1
  O  O152  1  0.55318358  0.50752700  0.11946319  1
  O  O153  1  0.55318358  0.50752700  0.61946319  1
  O  O154  1  0.55318358  0.84086033  0.11946319  1
  O  O155  1  0.55318358  0.84086033  0.61946319  1
  O  O156  1  0.88651691  0.17419366  0.11946319  1
  O  O157  1  0.88651691  0.17419366  0.61946319  1
  O  O158  1  0.88651691  0.50752700  0.11946319  1
  O  O159  1  0.88651691  0.50752700  0.61946319  1
  O  O160  1  0.88651691  0.84086033  0.11946319  1
  O  O161  1  0.88651691  0.84086033  0.61946319  1
  O  O162  1  0.11348309  0.00752700  0.13053681  1
  O  O163  1  0.11348309  0.00752700  0.63053681  1
  O  O164  1  0.11348309  0.34086033  0.13053681  1
  O  O165  1  0.11348309  0.34086033  0.63053681  1
  O  O166  1  0.11348309  0.67419366  0.13053681  1
  O  O167  1  0.11348309  0.67419366  0.63053681  1
  O  O168  1  0.44681642  0.00752700  0.13053681  1
  O  O169  1  0.44681642  0.00752700  0.63053681  1
  O  O170  1  0.44681642  0.34086033  0.13053681  1
  O  O171  1  0.44681642  0.34086033  0.63053681  1
  O  O172  1  0.44681642  0.67419366  0.13053681  1
  O  O173  1  0.44681642  0.67419366  0.63053681  1
  O  O174  1  0.78014975  0.00752700  0.13053681  1
  O  O175  1  0.78014975  0.00752700  0.63053681  1
  O  O176  1  0.78014975  0.34086033  0.13053681  1
  O  O177  1  0.78014975  0.34086033  0.63053681  1
  O  O178  1  0.78014975  0.67419366  0.13053681  1
  O  O179  1  0.78014975  0.67419366  0.63053681  1
  O  O180  1  0.11348309  0.15913967  0.38053681  1
  O  O181  1  0.11348309  0.15913967  0.88053681  1
  O  O182  1  0.11348309  0.49247300  0.38053681  1
  O  O183  1  0.11348309  0.49247300  0.88053681  1
  O  O184  1  0.11348309  0.82580634  0.38053681  1
  O  O185  1  0.11348309  0.82580634  0.88053681  1
  O  O186  1  0.44681642  0.15913967  0.38053681  1
  O  O187  1  0.44681642  0.15913967  0.88053681  1
  O  O188  1  0.44681642  0.49247300  0.38053681  1
  O  O189  1  0.44681642  0.49247300  0.88053681  1
  O  O190  1  0.44681642  0.82580634  0.38053681  1
  O  O191  1  0.44681642  0.82580634  0.88053681  1
  O  O192  1  0.78014975  0.15913967  0.38053681  1
  O  O193  1  0.78014975  0.15913967  0.88053681  1
  O  O194  1  0.78014975  0.49247300  0.38053681  1
  O  O195  1  0.78014975  0.49247300  0.88053681  1
  O  O196  1  0.78014975  0.82580634  0.38053681  1
  O  O197  1  0.78014975  0.82580634  0.88053681  1
  O  O198  1  0.21985025  0.32580634  0.36946319  1
  O  O199  1  0.21985025  0.32580634  0.86946319  1
  O  O200  1  0.21985025  0.65913967  0.36946319  1
  O  O201  1  0.21985025  0.65913967  0.86946319  1
  O  O202  1  0.21985025  0.99247300  0.36946319  1
  O  O203  1  0.21985025  0.99247300  0.86946319  1
  O  O204  1  0.55318358  0.32580634  0.36946319  1
  O  O205  1  0.55318358  0.32580634  0.86946319  1
  O  O206  1  0.55318358  0.65913967  0.36946319  1
  O  O207  1  0.55318358  0.65913967  0.86946319  1
  O  O208  1  0.55318358  0.99247300  0.36946319  1
  O  O209  1  0.55318358  0.99247300  0.86946319  1
  O  O210  1  0.88651691  0.32580634  0.36946319  1
  O  O211  1  0.88651691  0.32580634  0.86946319  1
  O  O212  1  0.88651691  0.65913967  0.36946319  1
  O  O213  1  0.88651691  0.65913967  0.86946319  1
  O  O214  1  0.88651691  0.99247300  0.36946319  1
  O  O215  1  0.88651691  0.99247300  0.86946319  1
  O  O216  1  0.27279834  0.26647615  0.26994208  1
  O  O217  1  0.27279834  0.26647615  0.76994208  1
  O  O218  1  0.27279834  0.59980948  0.26994208  1
  O  O219  1  0.27279834  0.59980948  0.76994208  1
  O  O220  1  0.27279834  0.93314281  0.26994208  1
  O  O221  1  0.27279834  0.93314281  0.76994208  1
  O  O222  1  0.60613167  0.26647615  0.26994208  1
  O  O223  1  0.60613167  0.26647615  0.76994208  1
  O  O224  1  0.60613167  0.59980948  0.26994208  1
  O  O225  1  0.60613167  0.59980948  0.76994208  1
  O  O226  1  0.60613167  0.93314281  0.26994208  1
  O  O227  1  0.60613167  0.93314281  0.76994208  1
  O  O228  1  0.93946500  0.26647615  0.26994208  1
  O  O229  1  0.93946500  0.26647615  0.76994208  1
  O  O230  1  0.93946500  0.59980948  0.26994208  1
  O  O231  1  0.93946500  0.59980948  0.76994208  1
  O  O232  1  0.93946500  0.93314281  0.26994208  1
  O  O233  1  0.93946500  0.93314281  0.76994208  1
  O  O234  1  0.06053500  0.09980948  0.48005792  1
  O  O235  1  0.06053500  0.09980948  0.98005792  1
  O  O236  1  0.06053500  0.43314281  0.48005792  1
  O  O237  1  0.06053500  0.43314281  0.98005792  1
  O  O238  1  0.06053500  0.76647615  0.48005792  1
  O  O239  1  0.06053500  0.76647615  0.98005792  1
  O  O240  1  0.39386833  0.09980948  0.48005792  1
  O  O241  1  0.39386833  0.09980948  0.98005792  1
  O  O242  1  0.39386833  0.43314281  0.48005792  1
  O  O243  1  0.39386833  0.43314281  0.98005792  1
  O  O244  1  0.39386833  0.76647615  0.48005792  1
  O  O245  1  0.39386833  0.76647615  0.98005792  1
  O  O246  1  0.72720166  0.09980948  0.48005792  1
  O  O247  1  0.72720166  0.09980948  0.98005792  1
  O  O248  1  0.72720166  0.43314281  0.48005792  1
  O  O249  1  0.72720166  0.43314281  0.98005792  1
  O  O250  1  0.72720166  0.76647615  0.48005792  1
  O  O251  1  0.72720166  0.76647615  0.98005792  1
  O  O252  1  0.06053500  0.06685719  0.23005792  1
  O  O253  1  0.06053500  0.06685719  0.73005792  1
  O  O254  1  0.06053500  0.40019052  0.23005792  1
  O  O255  1  0.06053500  0.40019052  0.73005792  1
  O  O256  1  0.06053500  0.73352385  0.23005792  1
  O  O257  1  0.06053500  0.73352385  0.73005792  1
  O  O258  1  0.39386833  0.06685719  0.23005792  1
  O  O259  1  0.39386833  0.06685719  0.73005792  1
  O  O260  1  0.39386833  0.40019052  0.23005792  1
  O  O261  1  0.39386833  0.40019052  0.73005792  1
  O  O262  1  0.39386833  0.73352385  0.23005792  1
  O  O263  1  0.39386833  0.73352385  0.73005792  1
  O  O264  1  0.72720166  0.06685719  0.23005792  1
  O  O265  1  0.72720166  0.06685719  0.73005792  1
  O  O266  1  0.72720166  0.40019052  0.23005792  1
  O  O267  1  0.72720166  0.40019052  0.73005792  1
  O  O268  1  0.72720166  0.73352385  0.23005792  1
  O  O269  1  0.72720166  0.73352385  0.73005792  1
  O  O270  1  0.27279834  0.23352385  0.01994208  1
  O  O271  1  0.27279834  0.23352385  0.51994208  1
  O  O272  1  0.27279834  0.56685719  0.01994208  1
  O  O273  1  0.27279834  0.56685719  0.51994208  1
  O  O274  1  0.27279834  0.90019052  0.01994208  1
  O  O275  1  0.27279834  0.90019052  0.51994208  1
  O  O276  1  0.60613167  0.23352385  0.01994208  1
  O  O277  1  0.60613167  0.23352385  0.51994208  1
  O  O278  1  0.60613167  0.56685719  0.01994208  1
  O  O279  1  0.60613167  0.56685719  0.51994208  1
  O  O280  1  0.60613167  0.90019052  0.01994208  1
  O  O281  1  0.60613167  0.90019052  0.51994208  1
  O  O282  1  0.93946500  0.23352385  0.01994208  1
  O  O283  1  0.93946500  0.23352385  0.51994208  1
  O  O284  1  0.93946500  0.56685719  0.01994208  1
  O  O285  1  0.93946500  0.56685719  0.51994208  1
  O  O286  1  0.93946500  0.90019052  0.01994208  1
  O  O287  1  0.93946500  0.90019052  0.51994208  1
  O  O288  1  0.24756374  0.07402405  0.02199348  1
  O  O289  1  0.24756374  0.07402405  0.52199348  1
  O  O290  1  0.24756374  0.40735739  0.02199348  1
  O  O291  1  0.24756374  0.40735739  0.52199348  1
  O  O292  1  0.24756374  0.74069072  0.02199348  1
  O  O293  1  0.24756374  0.74069072  0.52199348  1
  O  O294  1  0.58089707  0.07402405  0.02199348  1
  O  O295  1  0.58089707  0.07402405  0.52199348  1
  O  O296  1  0.58089707  0.40735739  0.02199348  1
  O  O297  1  0.58089707  0.40735739  0.52199348  1
  O  O298  1  0.58089707  0.74069072  0.02199348  1
  O  O299  1  0.58089707  0.74069072  0.52199348  1
  O  O300  1  0.91423040  0.07402405  0.02199348  1
  O  O301  1  0.91423040  0.07402405  0.52199348  1
  O  O302  1  0.91423040  0.40735739  0.02199348  1
  O  O303  1  0.91423040  0.40735739  0.52199348  1
  O  O304  1  0.91423040  0.74069072  0.02199348  1
  O  O305  1  0.91423040  0.74069072  0.52199348  1
  O  O306  1  0.08576960  0.24069072  0.22800652  1
  O  O307  1  0.08576960  0.24069072  0.72800652  1
  O  O308  1  0.08576960  0.57402405  0.22800652  1
  O  O309  1  0.08576960  0.57402405  0.72800652  1
  O  O310  1  0.08576960  0.90735739  0.22800652  1
  O  O311  1  0.08576960  0.90735739  0.72800652  1
  O  O312  1  0.41910293  0.24069072  0.22800652  1
  O  O313  1  0.41910293  0.24069072  0.72800652  1
  O  O314  1  0.41910293  0.57402405  0.22800652  1
  O  O315  1  0.41910293  0.57402405  0.72800652  1
  O  O316  1  0.41910293  0.90735739  0.22800652  1
  O  O317  1  0.41910293  0.90735739  0.72800652  1
  O  O318  1  0.75243626  0.24069072  0.22800652  1
  O  O319  1  0.75243626  0.24069072  0.72800652  1
  O  O320  1  0.75243626  0.57402405  0.22800652  1
  O  O321  1  0.75243626  0.57402405  0.72800652  1
  O  O322  1  0.75243626  0.90735739  0.22800652  1
  O  O323  1  0.75243626  0.90735739  0.72800652  1
  O  O324  1  0.08576960  0.25930928  0.47800652  1
  O  O325  1  0.08576960  0.25930928  0.97800652  1
  O  O326  1  0.08576960  0.59264261  0.47800652  1
  O  O327  1  0.08576960  0.59264261  0.97800652  1
  O  O328  1  0.08576960  0.92597595  0.47800652  1
  O  O329  1  0.08576960  0.92597595  0.97800652  1
  O  O330  1  0.41910293  0.25930928  0.47800652  1
  O  O331  1  0.41910293  0.25930928  0.97800652  1
  O  O332  1  0.41910293  0.59264261  0.47800652  1
  O  O333  1  0.41910293  0.59264261  0.97800652  1
  O  O334  1  0.41910293  0.92597595  0.47800652  1
  O  O335  1  0.41910293  0.92597595  0.97800652  1
  O  O336  1  0.75243626  0.25930928  0.47800652  1
  O  O337  1  0.75243626  0.25930928  0.97800652  1
  O  O338  1  0.75243626  0.59264261  0.47800652  1
  O  O339  1  0.75243626  0.59264261  0.97800652  1
  O  O340  1  0.75243626  0.92597595  0.47800652  1
  O  O341  1  0.75243626  0.92597595  0.97800652  1
  O  O342  1  0.24756374  0.09264261  0.27199348  1
  O  O343  1  0.24756374  0.09264261  0.77199348  1
  O  O344  1  0.24756374  0.42597595  0.27199348  1
  O  O345  1  0.24756374  0.42597595  0.77199348  1
  O  O346  1  0.24756374  0.75930928  0.27199348  1
  O  O347  1  0.24756374  0.75930928  0.77199348  1
  O  O348  1  0.58089707  0.09264261  0.27199348  1
  O  O349  1  0.58089707  0.09264261  0.77199348  1
  O  O350  1  0.58089707  0.42597595  0.27199348  1
  O  O351  1  0.58089707  0.42597595  0.77199348  1
  O  O352  1  0.58089707  0.75930928  0.27199348  1
  O  O353  1  0.58089707  0.75930928  0.77199348  1
  O  O354  1  0.91423040  0.09264261  0.27199348  1
  O  O355  1  0.91423040  0.09264261  0.77199348  1
  O  O356  1  0.91423040  0.42597595  0.27199348  1
  O  O357  1  0.91423040  0.42597595  0.77199348  1
  O  O358  1  0.91423040  0.75930928  0.27199348  1
  O  O359  1  0.91423040  0.75930928  0.77199348  1
