# generated using pymatgen
data_Na3BO3
_symmetry_space_group_name_H-M   'P 1'
_cell_length_a   16.89518007
_cell_length_b   14.66010566
_cell_length_c   19.02740973
_cell_angle_alpha   90.00000000
_cell_angle_beta   123.29355408
_cell_angle_gamma   90.00000000
_symmetry_Int_Tables_number   1
_chemical_formula_structural   Na3BO3
_chemical_formula_sum   'Na144 B48 O144'
_cell_volume   3939.28931336
_cell_formula_units_Z   48
loop_
 _symmetry_equiv_pos_site_id
 _symmetry_equiv_pos_as_xyz
  1  'x, y, z'
loop_
 _atom_site_type_symbol
 _atom_site_label
 _atom_site_symmetry_multiplicity
 _atom_site_fract_x
 _atom_site_fract_y
 _atom_site_fract_z
 _atom_site_occupancy
  Na  Na0  1  0.31742069  0.32528052  0.28521320  1
  Na  Na1  1  0.31742069  0.32528052  0.78521320  1
  Na  Na2  1  0.31742069  0.82528052  0.28521320  1
  Na  Na3  1  0.31742069  0.82528052  0.78521320  1
  Na  Na4  1  0.65075402  0.32528052  0.28521320  1
  Na  Na5  1  0.65075402  0.32528052  0.78521320  1
  Na  Na6  1  0.65075402  0.82528052  0.28521320  1
  Na  Na7  1  0.65075402  0.82528052  0.78521320  1
  Na  Na8  1  0.98408736  0.32528052  0.28521320  1
  Na  Na9  1  0.98408736  0.32528052  0.78521320  1
  Na  Na10  1  0.98408736  0.82528052  0.28521320  1
  Na  Na11  1  0.98408736  0.82528052  0.78521320  1
  Na  Na12  1  0.01591264  0.07528052  0.46478680  1
  Na  Na13  1  0.01591264  0.07528052  0.96478680  1
  Na  Na14  1  0.01591264  0.57528052  0.46478680  1
  Na  Na15  1  0.01591264  0.57528052  0.96478680  1
  Na  Na16  1  0.34924598  0.07528052  0.46478680  1
  Na  Na17  1  0.34924598  0.07528052  0.96478680  1
  Na  Na18  1  0.34924598  0.57528052  0.46478680  1
  Na  Na19  1  0.34924598  0.57528052  0.96478680  1
  Na  Na20  1  0.68257931  0.07528052  0.46478680  1
  Na  Na21  1  0.68257931  0.07528052  0.96478680  1
  Na  Na22  1  0.68257931  0.57528052  0.46478680  1
  Na  Na23  1  0.68257931  0.57528052  0.96478680  1
  Na  Na24  1  0.01591264  0.17471948  0.21478680  1
  Na  Na25  1  0.01591264  0.17471948  0.71478680  1
  Na  Na26  1  0.01591264  0.67471948  0.21478680  1
  Na  Na27  1  0.01591264  0.67471948  0.71478680  1
  Na  Na28  1  0.34924598  0.17471948  0.21478680  1
  Na  Na29  1  0.34924598  0.17471948  0.71478680  1
  Na  Na30  1  0.34924598  0.67471948  0.21478680  1
  Na  Na31  1  0.34924598  0.67471948  0.71478680  1
  Na  Na32  1  0.68257931  0.17471948  0.21478680  1
  Na  Na33  1  0.68257931  0.17471948  0.71478680  1
  Na  Na34  1  0.68257931  0.67471948  0.21478680  1
  Na  Na35  1  0.68257931  0.67471948  0.71478680  1
  Na  Na36  1  0.31742069  0.42471948  0.03521320  1
  Na  Na37  1  0.31742069  0.42471948  0.53521320  1
  Na  Na38  1  0.31742069  0.92471948  0.03521320  1
  Na  Na39  1  0.31742069  0.92471948  0.53521320  1
  Na  Na40  1  0.65075402  0.42471948  0.03521320  1
  Na  Na41  1  0.65075402  0.42471948  0.53521320  1
  Na  Na42  1  0.65075402  0.92471948  0.03521320  1
  Na  Na43  1  0.65075402  0.92471948  0.53521320  1
  Na  Na44  1  0.98408736  0.42471948  0.03521320  1
  Na  Na45  1  0.98408736  0.42471948  0.53521320  1
  Na  Na46  1  0.98408736  0.92471948  0.03521320  1
  Na  Na47  1  0.98408736  0.92471948  0.53521320  1
  Na  Na48  1  0.26403929  0.01369526  0.27229343  1
  Na  Na49  1  0.26403929  0.01369526  0.77229343  1
  Na  Na50  1  0.26403929  0.51369526  0.27229343  1
  Na  Na51  1  0.26403929  0.51369526  0.77229343  1
  Na  Na52  1  0.59737262  0.01369526  0.27229343  1
  Na  Na53  1  0.59737262  0.01369526  0.77229343  1
  Na  Na54  1  0.59737262  0.51369526  0.27229343  1
  Na  Na55  1  0.59737262  0.51369526  0.77229343  1
  Na  Na56  1  0.93070596  0.01369526  0.27229343  1
  Na  Na57  1  0.93070596  0.01369526  0.77229343  1
  Na  Na58  1  0.93070596  0.51369526  0.27229343  1
  Na  Na59  1  0.93070596  0.51369526  0.77229343  1
  Na  Na60  1  0.06929404  0.26369526  0.47770657  1
  Na  Na61  1  0.06929404  0.26369526  0.97770657  1
  Na  Na62  1  0.06929404  0.76369526  0.47770657  1
  Na  Na63  1  0.06929404  0.76369526  0.97770657  1
  Na  Na64  1  0.40262738  0.26369526  0.47770657  1
  Na  Na65  1  0.40262738  0.26369526  0.97770657  1
  Na  Na66  1  0.40262738  0.76369526  0.47770657  1
  Na  Na67  1  0.40262738  0.76369526  0.97770657  1
  Na  Na68  1  0.73596071  0.26369526  0.47770657  1
  Na  Na69  1  0.73596071  0.26369526  0.97770657  1
  Na  Na70  1  0.73596071  0.76369526  0.47770657  1
  Na  Na71  1  0.73596071  0.76369526  0.97770657  1
  Na  Na72  1  0.06929404  0.48630474  0.22770657  1
  Na  Na73  1  0.06929404  0.48630474  0.72770657  1
  Na  Na74  1  0.06929404  0.98630474  0.22770657  1
  Na  Na75  1  0.06929404  0.98630474  0.72770657  1
  Na  Na76  1  0.40262738  0.48630474  0.22770657  1
  Na  Na77  1  0.40262738  0.48630474  0.72770657  1
  Na  Na78  1  0.40262738  0.98630474  0.22770657  1
  Na  Na79  1  0.40262738  0.98630474  0.72770657  1
  Na  Na80  1  0.73596071  0.48630474  0.22770657  1
  Na  Na81  1  0.73596071  0.48630474  0.72770657  1
  Na  Na82  1  0.73596071  0.98630474  0.22770657  1
  Na  Na83  1  0.73596071  0.98630474  0.72770657  1
  Na  Na84  1  0.26403929  0.23630474  0.02229343  1
  Na  Na85  1  0.26403929  0.23630474  0.52229343  1
  Na  Na86  1  0.26403929  0.73630474  0.02229343  1
  Na  Na87  1  0.26403929  0.73630474  0.52229343  1
  Na  Na88  1  0.59737262  0.23630474  0.02229343  1
  Na  Na89  1  0.59737262  0.23630474  0.52229343  1
  Na  Na90  1  0.59737262  0.73630474  0.02229343  1
  Na  Na91  1  0.59737262  0.73630474  0.52229343  1
  Na  Na92  1  0.93070596  0.23630474  0.02229343  1
  Na  Na93  1  0.93070596  0.23630474  0.52229343  1
  Na  Na94  1  0.93070596  0.73630474  0.02229343  1
  Na  Na95  1  0.93070596  0.73630474  0.52229343  1
  Na  Na96  1  0.13354366  0.13997810  0.13765963  1
  Na  Na97  1  0.13354366  0.13997810  0.63765963  1
  Na  Na98  1  0.13354366  0.63997810  0.13765963  1
  Na  Na99  1  0.13354366  0.63997810  0.63765963  1
  Na  Na100  1  0.46687699  0.13997810  0.13765963  1
  Na  Na101  1  0.46687699  0.13997810  0.63765963  1
  Na  Na102  1  0.46687699  0.63997810  0.13765963  1
  Na  Na103  1  0.46687699  0.63997810  0.63765963  1
  Na  Na104  1  0.80021032  0.13997810  0.13765963  1
  Na  Na105  1  0.80021032  0.13997810  0.63765963  1
  Na  Na106  1  0.80021032  0.63997810  0.13765963  1
  Na  Na107  1  0.80021032  0.63997810  0.63765963  1
  Na  Na108  1  0.19978968  0.38997810  0.11234037  1
  Na  Na109  1  0.19978968  0.38997810  0.61234037  1
  Na  Na110  1  0.19978968  0.88997810  0.11234037  1
  Na  Na111  1  0.19978968  0.88997810  0.61234037  1
  Na  Na112  1  0.53312301  0.38997810  0.11234037  1
  Na  Na113  1  0.53312301  0.38997810  0.61234037  1
  Na  Na114  1  0.53312301  0.88997810  0.11234037  1
  Na  Na115  1  0.53312301  0.88997810  0.61234037  1
  Na  Na116  1  0.86645634  0.38997810  0.11234037  1
  Na  Na117  1  0.86645634  0.38997810  0.61234037  1
  Na  Na118  1  0.86645634  0.88997810  0.11234037  1
  Na  Na119  1  0.86645634  0.88997810  0.61234037  1
  Na  Na120  1  0.19978968  0.36002190  0.36234037  1
  Na  Na121  1  0.19978968  0.36002190  0.86234037  1
  Na  Na122  1  0.19978968  0.86002190  0.36234037  1
  Na  Na123  1  0.19978968  0.86002190  0.86234037  1
  Na  Na124  1  0.53312301  0.36002190  0.36234037  1
  Na  Na125  1  0.53312301  0.36002190  0.86234037  1
  Na  Na126  1  0.53312301  0.86002190  0.36234037  1
  Na  Na127  1  0.53312301  0.86002190  0.86234037  1
  Na  Na128  1  0.86645634  0.36002190  0.36234037  1
  Na  Na129  1  0.86645634  0.36002190  0.86234037  1
  Na  Na130  1  0.86645634  0.86002190  0.36234037  1
  Na  Na131  1  0.86645634  0.86002190  0.86234037  1
  Na  Na132  1  0.13354366  0.11002190  0.38765963  1
  Na  Na133  1  0.13354366  0.11002190  0.88765963  1
  Na  Na134  1  0.13354366  0.61002190  0.38765963  1
  Na  Na135  1  0.13354366  0.61002190  0.88765963  1
  Na  Na136  1  0.46687699  0.11002190  0.38765963  1
  Na  Na137  1  0.46687699  0.11002190  0.88765963  1
  Na  Na138  1  0.46687699  0.61002190  0.38765963  1
  Na  Na139  1  0.46687699  0.61002190  0.88765963  1
  Na  Na140  1  0.80021032  0.11002190  0.38765963  1
  Na  Na141  1  0.80021032  0.11002190  0.88765963  1
  Na  Na142  1  0.80021032  0.61002190  0.38765963  1
  Na  Na143  1  0.80021032  0.61002190  0.88765963  1
  B  B144  1  0.09295775  0.41958124  0.42325736  1
  B  B145  1  0.09295775  0.41958124  0.92325736  1
  B  B146  1  0.09295775  0.91958124  0.42325736  1
  B  B147  1  0.09295775  0.91958124  0.92325736  1
  B  B148  1  0.42629109  0.41958124  0.42325736  1
  B  B149  1  0.42629109  0.41958124  0.92325736  1
  B  B150  1  0.42629109  0.91958124  0.42325736  1
  B  B151  1  0.42629109  0.91958124  0.92325736  1
  B  B152  1  0.75962442  0.41958124  0.42325736  1
  B  B153  1  0.75962442  0.41958124  0.92325736  1
  B  B154  1  0.75962442  0.91958124  0.42325736  1
  B  B155  1  0.75962442  0.91958124  0.92325736  1
  B  B156  1  0.09295775  0.33041876  0.17325736  1
  B  B157  1  0.09295775  0.33041876  0.67325736  1
  B  B158  1  0.09295775  0.83041876  0.17325736  1
  B  B159  1  0.09295775  0.83041876  0.67325736  1
  B  B160  1  0.42629109  0.33041876  0.17325736  1
  B  B161  1  0.42629109  0.33041876  0.67325736  1
  B  B162  1  0.42629109  0.83041876  0.17325736  1
  B  B163  1  0.42629109  0.83041876  0.67325736  1
  B  B164  1  0.75962442  0.33041876  0.17325736  1
  B  B165  1  0.75962442  0.33041876  0.67325736  1
  B  B166  1  0.75962442  0.83041876  0.17325736  1
  B  B167  1  0.75962442  0.83041876  0.67325736  1
  B  B168  1  0.24037558  0.08041876  0.07674264  1
  B  B169  1  0.24037558  0.08041876  0.57674264  1
  B  B170  1  0.24037558  0.58041876  0.07674264  1
  B  B171  1  0.24037558  0.58041876  0.57674264  1
  B  B172  1  0.57370891  0.08041876  0.07674264  1
  B  B173  1  0.57370891  0.08041876  0.57674264  1
  B  B174  1  0.57370891  0.58041876  0.07674264  1
  B  B175  1  0.57370891  0.58041876  0.57674264  1
  B  B176  1  0.90704225  0.08041876  0.07674264  1
  B  B177  1  0.90704225  0.08041876  0.57674264  1
  B  B178  1  0.90704225  0.58041876  0.07674264  1
  B  B179  1  0.90704225  0.58041876  0.57674264  1
  B  B180  1  0.24037558  0.16958124  0.32674264  1
  B  B181  1  0.24037558  0.16958124  0.82674264  1
  B  B182  1  0.24037558  0.66958124  0.32674264  1
  B  B183  1  0.24037558  0.66958124  0.82674264  1
  B  B184  1  0.57370891  0.16958124  0.32674264  1
  B  B185  1  0.57370891  0.16958124  0.82674264  1
  B  B186  1  0.57370891  0.66958124  0.32674264  1
  B  B187  1  0.57370891  0.66958124  0.82674264  1
  B  B188  1  0.90704225  0.16958124  0.32674264  1
  B  B189  1  0.90704225  0.16958124  0.82674264  1
  B  B190  1  0.90704225  0.66958124  0.32674264  1
  B  B191  1  0.90704225  0.66958124  0.82674264  1
  O  O192  1  0.25001016  0.04185275  0.14798574  1
  O  O193  1  0.25001016  0.04185275  0.64798574  1
  O  O194  1  0.25001016  0.54185275  0.14798574  1
  O  O195  1  0.25001016  0.54185275  0.64798574  1
  O  O196  1  0.58334350  0.04185275  0.14798574  1
  O  O197  1  0.58334350  0.04185275  0.64798574  1
  O  O198  1  0.58334350  0.54185275  0.14798574  1
  O  O199  1  0.58334350  0.54185275  0.64798574  1
  O  O200  1  0.91667683  0.04185275  0.14798574  1
  O  O201  1  0.91667683  0.04185275  0.64798574  1
  O  O202  1  0.91667683  0.54185275  0.14798574  1
  O  O203  1  0.91667683  0.54185275  0.64798574  1
  O  O204  1  0.17231515  0.36643764  0.47734242  1
  O  O205  1  0.17231515  0.36643764  0.97734242  1
  O  O206  1  0.17231515  0.86643764  0.47734242  1
  O  O207  1  0.17231515  0.86643764  0.97734242  1
  O  O208  1  0.50564849  0.36643764  0.47734242  1
  O  O209  1  0.50564849  0.36643764  0.97734242  1
  O  O210  1  0.50564849  0.86643764  0.47734242  1
  O  O211  1  0.50564849  0.86643764  0.97734242  1
  O  O212  1  0.83898182  0.36643764  0.47734242  1
  O  O213  1  0.83898182  0.36643764  0.97734242  1
  O  O214  1  0.83898182  0.86643764  0.47734242  1
  O  O215  1  0.83898182  0.86643764  0.97734242  1
  O  O216  1  0.17231515  0.38356236  0.22734242  1
  O  O217  1  0.17231515  0.38356236  0.72734242  1
  O  O218  1  0.17231515  0.88356236  0.22734242  1
  O  O219  1  0.17231515  0.88356236  0.72734242  1
  O  O220  1  0.50564849  0.38356236  0.22734242  1
  O  O221  1  0.50564849  0.38356236  0.72734242  1
  O  O222  1  0.50564849  0.88356236  0.22734242  1
  O  O223  1  0.50564849  0.88356236  0.72734242  1
  O  O224  1  0.83898182  0.38356236  0.22734242  1
  O  O225  1  0.83898182  0.38356236  0.72734242  1
  O  O226  1  0.83898182  0.88356236  0.22734242  1
  O  O227  1  0.83898182  0.88356236  0.72734242  1
  O  O228  1  0.16101818  0.11643764  0.27265758  1
  O  O229  1  0.16101818  0.11643764  0.77265758  1
  O  O230  1  0.16101818  0.61643764  0.27265758  1
  O  O231  1  0.16101818  0.61643764  0.77265758  1
  O  O232  1  0.49435151  0.11643764  0.27265758  1
  O  O233  1  0.49435151  0.11643764  0.77265758  1
  O  O234  1  0.49435151  0.61643764  0.27265758  1
  O  O235  1  0.49435151  0.61643764  0.77265758  1
  O  O236  1  0.82768485  0.11643764  0.27265758  1
  O  O237  1  0.82768485  0.11643764  0.77265758  1
  O  O238  1  0.82768485  0.61643764  0.27265758  1
  O  O239  1  0.82768485  0.61643764  0.77265758  1
  O  O240  1  0.31471147  0.17582115  0.31470978  1
  O  O241  1  0.31471147  0.17582115  0.81470978  1
  O  O242  1  0.31471147  0.67582115  0.31470978  1
  O  O243  1  0.31471147  0.67582115  0.81470978  1
  O  O244  1  0.64804480  0.17582115  0.31470978  1
  O  O245  1  0.64804480  0.17582115  0.81470978  1
  O  O246  1  0.64804480  0.67582115  0.31470978  1
  O  O247  1  0.64804480  0.67582115  0.81470978  1
  O  O248  1  0.98137814  0.17582115  0.31470978  1
  O  O249  1  0.98137814  0.17582115  0.81470978  1
  O  O250  1  0.98137814  0.67582115  0.31470978  1
  O  O251  1  0.98137814  0.67582115  0.81470978  1
  O  O252  1  0.01862186  0.42582115  0.43529022  1
  O  O253  1  0.01862186  0.42582115  0.93529022  1
  O  O254  1  0.01862186  0.92582115  0.43529022  1
  O  O255  1  0.01862186  0.92582115  0.93529022  1
  O  O256  1  0.35195520  0.42582115  0.43529022  1
  O  O257  1  0.35195520  0.42582115  0.93529022  1
  O  O258  1  0.35195520  0.92582115  0.43529022  1
  O  O259  1  0.35195520  0.92582115  0.93529022  1
  O  O260  1  0.68528853  0.42582115  0.43529022  1
  O  O261  1  0.68528853  0.42582115  0.93529022  1
  O  O262  1  0.68528853  0.92582115  0.43529022  1
  O  O263  1  0.68528853  0.92582115  0.93529022  1
  O  O264  1  0.01862186  0.32417885  0.18529022  1
  O  O265  1  0.01862186  0.32417885  0.68529022  1
  O  O266  1  0.01862186  0.82417885  0.18529022  1
  O  O267  1  0.01862186  0.82417885  0.68529022  1
  O  O268  1  0.35195520  0.32417885  0.18529022  1
  O  O269  1  0.35195520  0.32417885  0.68529022  1
  O  O270  1  0.35195520  0.82417885  0.18529022  1
  O  O271  1  0.35195520  0.82417885  0.68529022  1
  O  O272  1  0.68528853  0.32417885  0.18529022  1
  O  O273  1  0.68528853  0.32417885  0.68529022  1
  O  O274  1  0.68528853  0.82417885  0.18529022  1
  O  O275  1  0.68528853  0.82417885  0.68529022  1
  O  O276  1  0.31471147  0.07417885  0.06470978  1
  O  O277  1  0.31471147  0.07417885  0.56470978  1
  O  O278  1  0.31471147  0.57417885  0.06470978  1
  O  O279  1  0.31471147  0.57417885  0.56470978  1
  O  O280  1  0.64804480  0.07417885  0.06470978  1
  O  O281  1  0.64804480  0.07417885  0.56470978  1
  O  O282  1  0.64804480  0.57417885  0.06470978  1
  O  O283  1  0.64804480  0.57417885  0.56470978  1
  O  O284  1  0.98137814  0.07417885  0.06470978  1
  O  O285  1  0.98137814  0.07417885  0.56470978  1
  O  O286  1  0.98137814  0.57417885  0.06470978  1
  O  O287  1  0.98137814  0.57417885  0.56470978  1
  O  O288  1  0.08332317  0.29185275  0.10201426  1
  O  O289  1  0.08332317  0.29185275  0.60201426  1
  O  O290  1  0.08332317  0.79185275  0.10201426  1
  O  O291  1  0.08332317  0.79185275  0.60201426  1
  O  O292  1  0.41665650  0.29185275  0.10201426  1
  O  O293  1  0.41665650  0.29185275  0.60201426  1
  O  O294  1  0.41665650  0.79185275  0.10201426  1
  O  O295  1  0.41665650  0.79185275  0.60201426  1
  O  O296  1  0.74998984  0.29185275  0.10201426  1
  O  O297  1  0.74998984  0.29185275  0.60201426  1
  O  O298  1  0.74998984  0.79185275  0.10201426  1
  O  O299  1  0.74998984  0.79185275  0.60201426  1
  O  O300  1  0.08332317  0.45814725  0.35201426  1
  O  O301  1  0.08332317  0.45814725  0.85201426  1
  O  O302  1  0.08332317  0.95814725  0.35201426  1
  O  O303  1  0.08332317  0.95814725  0.85201426  1
  O  O304  1  0.41665650  0.45814725  0.35201426  1
  O  O305  1  0.41665650  0.45814725  0.85201426  1
  O  O306  1  0.41665650  0.95814725  0.35201426  1
  O  O307  1  0.41665650  0.95814725  0.85201426  1
  O  O308  1  0.74998984  0.45814725  0.35201426  1
  O  O309  1  0.74998984  0.45814725  0.85201426  1
  O  O310  1  0.74998984  0.95814725  0.35201426  1
  O  O311  1  0.74998984  0.95814725  0.85201426  1
  O  O312  1  0.25001016  0.20814725  0.39798574  1
  O  O313  1  0.25001016  0.20814725  0.89798574  1
  O  O314  1  0.25001016  0.70814725  0.39798574  1
  O  O315  1  0.25001016  0.70814725  0.89798574  1
  O  O316  1  0.58334350  0.20814725  0.39798574  1
  O  O317  1  0.58334350  0.20814725  0.89798574  1
  O  O318  1  0.58334350  0.70814725  0.39798574  1
  O  O319  1  0.58334350  0.70814725  0.89798574  1
  O  O320  1  0.91667683  0.20814725  0.39798574  1
  O  O321  1  0.91667683  0.20814725  0.89798574  1
  O  O322  1  0.91667683  0.70814725  0.39798574  1
  O  O323  1  0.91667683  0.70814725  0.89798574  1
  O  O324  1  0.16101818  0.13356236  0.02265758  1
  O  O325  1  0.16101818  0.13356236  0.52265758  1
  O  O326  1  0.16101818  0.63356236  0.02265758  1
  O  O327  1  0.16101818  0.63356236  0.52265758  1
  O  O328  1  0.49435151  0.13356236  0.02265758  1
  O  O329  1  0.49435151  0.13356236  0.52265758  1
  O  O330  1  0.49435151  0.63356236  0.02265758  1
  O  O331  1  0.49435151  0.63356236  0.52265758  1
  O  O332  1  0.82768485  0.13356236  0.02265758  1
  O  O333  1  0.82768485  0.13356236  0.52265758  1
  O  O334  1  0.82768485  0.63356236  0.02265758  1
  O  O335  1  0.82768485  0.63356236  0.52265758  1
