# generated using pymatgen
data_Sr5(AuO4)2
_symmetry_space_group_name_H-M   'P 1'
_cell_length_a   11.69930666
_cell_length_b   11.69930666
_cell_length_c   12.99001932
_cell_angle_alpha   90.00000000
_cell_angle_beta   90.00000000
_cell_angle_gamma   90.00000000
_symmetry_Int_Tables_number   1
_chemical_formula_structural   Sr5(AuO4)2
_chemical_formula_sum   'Sr40 Au16 O64'
_cell_volume   1777.99299965
_cell_formula_units_Z   8
loop_
 _symmetry_equiv_pos_site_id
 _symmetry_equiv_pos_as_xyz
  1  'x, y, z'
loop_
 _atom_site_type_symbol
 _atom_site_label
 _atom_site_symmetry_multiplicity
 _atom_site_fract_x
 _atom_site_fract_y
 _atom_site_fract_z
 _atom_site_occupancy
  Sr  Sr0  1  0.27755187  -0.00000000  0.00000000  1
  Sr  Sr1  1  0.27755187  -0.00000000  0.50000000  1
  Sr  Sr2  1  0.77755187  0.50000000  0.00000000  1
  Sr  Sr3  1  0.77755187  0.50000000  0.50000000  1
  Sr  Sr4  1  0.77755187  0.00000000  0.25000000  1
  Sr  Sr5  1  0.77755187  0.00000000  0.75000000  1
  Sr  Sr6  1  1.27755187  0.50000000  0.25000000  1
  Sr  Sr7  1  1.27755187  0.50000000  0.75000000  1
  Sr  Sr8  1  0.22244813  -0.00000000  0.25000000  1
  Sr  Sr9  1  0.22244813  -0.00000000  0.75000000  1
  Sr  Sr10  1  0.72244813  0.50000000  0.25000000  1
  Sr  Sr11  1  0.72244813  0.50000000  0.75000000  1
  Sr  Sr12  1  0.72244813  -0.00000000  0.50000000  1
  Sr  Sr13  1  0.72244813  -0.00000000  1.00000000  1
  Sr  Sr14  1  1.22244813  0.50000000  0.50000000  1
  Sr  Sr15  1  1.22244813  0.50000000  1.00000000  1
  Sr  Sr16  1  0.00000000  0.22244813  0.25000000  1
  Sr  Sr17  1  0.00000000  0.22244813  0.75000000  1
  Sr  Sr18  1  0.50000000  0.72244813  0.25000000  1
  Sr  Sr19  1  0.50000000  0.72244813  0.75000000  1
  Sr  Sr20  1  0.50000000  0.22244813  0.50000000  1
  Sr  Sr21  1  0.50000000  0.22244813  1.00000000  1
  Sr  Sr22  1  1.00000000  0.72244813  0.50000000  1
  Sr  Sr23  1  1.00000000  0.72244813  1.00000000  1
  Sr  Sr24  1  -0.00000000  -0.22244813  0.25000000  1
  Sr  Sr25  1  -0.00000000  -0.22244813  0.75000000  1
  Sr  Sr26  1  0.50000000  0.27755187  0.25000000  1
  Sr  Sr27  1  0.50000000  0.27755187  0.75000000  1
  Sr  Sr28  1  0.50000000  -0.22244813  0.50000000  1
  Sr  Sr29  1  0.50000000  -0.22244813  1.00000000  1
  Sr  Sr30  1  1.00000000  0.27755187  0.50000000  1
  Sr  Sr31  1  1.00000000  0.27755187  1.00000000  1
  Sr  Sr32  1  0.00000000  0.00000000  -0.00000000  1
  Sr  Sr33  1  0.00000000  0.00000000  0.50000000  1
  Sr  Sr34  1  0.50000000  0.50000000  -0.00000000  1
  Sr  Sr35  1  0.50000000  0.50000000  0.50000000  1
  Sr  Sr36  1  0.50000000  0.00000000  0.25000000  1
  Sr  Sr37  1  0.50000000  0.00000000  0.75000000  1
  Sr  Sr38  1  1.00000000  0.50000000  0.25000000  1
  Sr  Sr39  1  1.00000000  0.50000000  0.75000000  1
  Au  Au40  1  0.25000000  -0.25000000  0.12500000  1
  Au  Au41  1  0.25000000  -0.25000000  0.62500000  1
  Au  Au42  1  0.75000000  0.25000000  0.12500000  1
  Au  Au43  1  0.75000000  0.25000000  0.62500000  1
  Au  Au44  1  0.75000000  -0.25000000  0.37500000  1
  Au  Au45  1  0.75000000  -0.25000000  0.87500000  1
  Au  Au46  1  1.25000000  0.25000000  0.37500000  1
  Au  Au47  1  1.25000000  0.25000000  0.87500000  1
  Au  Au48  1  0.25000000  0.25000000  0.12500000  1
  Au  Au49  1  0.25000000  0.25000000  0.62500000  1
  Au  Au50  1  0.75000000  0.75000000  0.12500000  1
  Au  Au51  1  0.75000000  0.75000000  0.62500000  1
  Au  Au52  1  0.75000000  0.25000000  0.37500000  1
  Au  Au53  1  0.75000000  0.25000000  0.87500000  1
  Au  Au54  1  1.25000000  0.75000000  0.37500000  1
  Au  Au55  1  1.25000000  0.75000000  0.87500000  1
  O  O56  1  0.37210475  -0.12789525  0.13080590  1
  O  O57  1  0.37210475  -0.12789525  0.63080590  1
  O  O58  1  0.87210475  0.37210475  0.13080590  1
  O  O59  1  0.87210475  0.37210475  0.63080590  1
  O  O60  1  0.87210475  -0.12789525  0.38080590  1
  O  O61  1  0.87210475  -0.12789525  0.88080590  1
  O  O62  1  1.37210475  0.37210475  0.38080590  1
  O  O63  1  1.37210475  0.37210475  0.88080590  1
  O  O64  1  0.12789525  -0.37210475  0.13080590  1
  O  O65  1  0.12789525  -0.37210475  0.63080590  1
  O  O66  1  0.62789525  0.12789525  0.13080590  1
  O  O67  1  0.62789525  0.12789525  0.63080590  1
  O  O68  1  0.62789525  -0.37210475  0.38080590  1
  O  O69  1  0.62789525  -0.37210475  0.88080590  1
  O  O70  1  1.12789525  0.12789525  0.38080590  1
  O  O71  1  1.12789525  0.12789525  0.88080590  1
  O  O72  1  0.12789525  -0.12789525  0.11919410  1
  O  O73  1  0.12789525  -0.12789525  0.61919410  1
  O  O74  1  0.62789525  0.37210475  0.11919410  1
  O  O75  1  0.62789525  0.37210475  0.61919410  1
  O  O76  1  0.62789525  -0.12789525  0.36919410  1
  O  O77  1  0.62789525  -0.12789525  0.86919410  1
  O  O78  1  1.12789525  0.37210475  0.36919410  1
  O  O79  1  1.12789525  0.37210475  0.86919410  1
  O  O80  1  0.37210475  -0.37210475  0.11919410  1
  O  O81  1  0.37210475  -0.37210475  0.61919410  1
  O  O82  1  0.87210475  0.12789525  0.11919410  1
  O  O83  1  0.87210475  0.12789525  0.61919410  1
  O  O84  1  0.87210475  -0.37210475  0.36919410  1
  O  O85  1  0.87210475  -0.37210475  0.86919410  1
  O  O86  1  1.37210475  0.12789525  0.36919410  1
  O  O87  1  1.37210475  0.12789525  0.86919410  1
  O  O88  1  0.37210475  0.12789525  0.13080590  1
  O  O89  1  0.37210475  0.12789525  0.63080590  1
  O  O90  1  0.87210475  0.62789525  0.13080590  1
  O  O91  1  0.87210475  0.62789525  0.63080590  1
  O  O92  1  0.87210475  0.12789525  0.38080590  1
  O  O93  1  0.87210475  0.12789525  0.88080590  1
  O  O94  1  1.37210475  0.62789525  0.38080590  1
  O  O95  1  1.37210475  0.62789525  0.88080590  1
  O  O96  1  0.12789525  0.37210475  0.13080590  1
  O  O97  1  0.12789525  0.37210475  0.63080590  1
  O  O98  1  0.62789525  0.87210475  0.13080590  1
  O  O99  1  0.62789525  0.87210475  0.63080590  1
  O  O100  1  0.62789525  0.37210475  0.38080590  1
  O  O101  1  0.62789525  0.37210475  0.88080590  1
  O  O102  1  1.12789525  0.87210475  0.38080590  1
  O  O103  1  1.12789525  0.87210475  0.88080590  1
  O  O104  1  0.12789525  0.12789525  0.11919410  1
  O  O105  1  0.12789525  0.12789525  0.61919410  1
  O  O106  1  0.62789525  0.62789525  0.11919410  1
  O  O107  1  0.62789525  0.62789525  0.61919410  1
  O  O108  1  0.62789525  0.12789525  0.36919410  1
  O  O109  1  0.62789525  0.12789525  0.86919410  1
  O  O110  1  1.12789525  0.62789525  0.36919410  1
  O  O111  1  1.12789525  0.62789525  0.86919410  1
  O  O112  1  0.37210475  0.37210475  0.11919410  1
  O  O113  1  0.37210475  0.37210475  0.61919410  1
  O  O114  1  0.87210475  0.87210475  0.11919410  1
  O  O115  1  0.87210475  0.87210475  0.61919410  1
  O  O116  1  0.87210475  0.37210475  0.36919410  1
  O  O117  1  0.87210475  0.37210475  0.86919410  1
  O  O118  1  1.37210475  0.87210475  0.36919410  1
  O  O119  1  1.37210475  0.87210475  0.86919410  1
