# generated using pymatgen
data_Ba3MgSb2O9
_symmetry_space_group_name_H-M   'P 1'
_cell_length_a   17.55051032
_cell_length_b   17.55051032
_cell_length_c   14.47119796
_cell_angle_alpha   90.00000000
_cell_angle_beta   90.00000000
_cell_angle_gamma   120.00000000
_symmetry_Int_Tables_number   1
_chemical_formula_structural   Ba3MgSb2O9
_chemical_formula_sum   'Ba54 Mg18 Sb36 O162'
_cell_volume   3860.24273683
_cell_formula_units_Z   18
loop_
 _symmetry_equiv_pos_site_id
 _symmetry_equiv_pos_as_xyz
  1  'x, y, z'
loop_
 _atom_site_type_symbol
 _atom_site_label
 _atom_site_symmetry_multiplicity
 _atom_site_fract_x
 _atom_site_fract_y
 _atom_site_fract_z
 _atom_site_occupancy
  Ba  Ba0  1  0.22222222  0.11111111  0.08812249  1
  Ba  Ba1  1  0.22222222  0.44444444  0.08812249  1
  Ba  Ba2  1  0.22222222  0.77777778  0.08812249  1
  Ba  Ba3  1  0.55555556  0.11111111  0.08812249  1
  Ba  Ba4  1  0.55555556  0.44444444  0.08812249  1
  Ba  Ba5  1  0.55555556  0.77777778  0.08812249  1
  Ba  Ba6  1  0.88888889  0.11111111  0.08812249  1
  Ba  Ba7  1  0.88888889  0.44444444  0.08812249  1
  Ba  Ba8  1  0.88888889  0.77777778  0.08812249  1
  Ba  Ba9  1  0.11111111  0.22222222  0.58812249  1
  Ba  Ba10  1  0.11111111  0.55555556  0.58812249  1
  Ba  Ba11  1  0.11111111  0.88888889  0.58812249  1
  Ba  Ba12  1  0.44444444  0.22222222  0.58812249  1
  Ba  Ba13  1  0.44444444  0.55555556  0.58812249  1
  Ba  Ba14  1  0.44444444  0.88888889  0.58812249  1
  Ba  Ba15  1  0.77777778  0.22222222  0.58812249  1
  Ba  Ba16  1  0.77777778  0.55555556  0.58812249  1
  Ba  Ba17  1  0.77777778  0.88888889  0.58812249  1
  Ba  Ba18  1  0.11111111  0.22222222  0.91187751  1
  Ba  Ba19  1  0.11111111  0.55555556  0.91187751  1
  Ba  Ba20  1  0.11111111  0.88888889  0.91187751  1
  Ba  Ba21  1  0.44444444  0.22222222  0.91187751  1
  Ba  Ba22  1  0.44444444  0.55555556  0.91187751  1
  Ba  Ba23  1  0.44444444  0.88888889  0.91187751  1
  Ba  Ba24  1  0.77777778  0.22222222  0.91187751  1
  Ba  Ba25  1  0.77777778  0.55555556  0.91187751  1
  Ba  Ba26  1  0.77777778  0.88888889  0.91187751  1
  Ba  Ba27  1  0.22222222  0.11111111  0.41187751  1
  Ba  Ba28  1  0.22222222  0.44444444  0.41187751  1
  Ba  Ba29  1  0.22222222  0.77777778  0.41187751  1
  Ba  Ba30  1  0.55555556  0.11111111  0.41187751  1
  Ba  Ba31  1  0.55555556  0.44444444  0.41187751  1
  Ba  Ba32  1  0.55555556  0.77777778  0.41187751  1
  Ba  Ba33  1  0.88888889  0.11111111  0.41187751  1
  Ba  Ba34  1  0.88888889  0.44444444  0.41187751  1
  Ba  Ba35  1  0.88888889  0.77777778  0.41187751  1
  Ba  Ba36  1  0.00000000  0.00000000  0.25000000  1
  Ba  Ba37  1  -0.00000000  0.33333333  0.25000000  1
  Ba  Ba38  1  -0.00000000  0.66666667  0.25000000  1
  Ba  Ba39  1  0.33333333  0.00000000  0.25000000  1
  Ba  Ba40  1  0.33333333  0.33333333  0.25000000  1
  Ba  Ba41  1  0.33333333  0.66666667  0.25000000  1
  Ba  Ba42  1  0.66666667  0.00000000  0.25000000  1
  Ba  Ba43  1  0.66666667  0.33333333  0.25000000  1
  Ba  Ba44  1  0.66666667  0.66666667  0.25000000  1
  Ba  Ba45  1  0.00000000  0.00000000  0.75000000  1
  Ba  Ba46  1  -0.00000000  0.33333333  0.75000000  1
  Ba  Ba47  1  -0.00000000  0.66666667  0.75000000  1
  Ba  Ba48  1  0.33333333  0.00000000  0.75000000  1
  Ba  Ba49  1  0.33333333  0.33333333  0.75000000  1
  Ba  Ba50  1  0.33333333  0.66666667  0.75000000  1
  Ba  Ba51  1  0.66666667  0.00000000  0.75000000  1
  Ba  Ba52  1  0.66666667  0.33333333  0.75000000  1
  Ba  Ba53  1  0.66666667  0.66666667  0.75000000  1
  Mg  Mg54  1  0.00000000  0.00000000  0.50000000  1
  Mg  Mg55  1  -0.00000000  0.33333333  0.50000000  1
  Mg  Mg56  1  -0.00000000  0.66666667  0.50000000  1
  Mg  Mg57  1  0.33333333  0.00000000  0.50000000  1
  Mg  Mg58  1  0.33333333  0.33333333  0.50000000  1
  Mg  Mg59  1  0.33333333  0.66666667  0.50000000  1
  Mg  Mg60  1  0.66666667  0.00000000  0.50000000  1
  Mg  Mg61  1  0.66666667  0.33333333  0.50000000  1
  Mg  Mg62  1  0.66666667  0.66666667  0.50000000  1
  Mg  Mg63  1  0.00000000  0.00000000  0.00000000  1
  Mg  Mg64  1  -0.00000000  0.33333333  0.00000000  1
  Mg  Mg65  1  -0.00000000  0.66666667  0.00000000  1
  Mg  Mg66  1  0.33333333  0.00000000  0.00000000  1
  Mg  Mg67  1  0.33333333  0.33333333  0.00000000  1
  Mg  Mg68  1  0.33333333  0.66666667  0.00000000  1
  Mg  Mg69  1  0.66666667  0.00000000  0.00000000  1
  Mg  Mg70  1  0.66666667  0.33333333  0.00000000  1
  Mg  Mg71  1  0.66666667  0.66666667  0.00000000  1
  Sb  Sb72  1  0.11111111  0.22222222  0.15130761  1
  Sb  Sb73  1  0.11111111  0.55555556  0.15130761  1
  Sb  Sb74  1  0.11111111  0.88888889  0.15130761  1
  Sb  Sb75  1  0.44444444  0.22222222  0.15130761  1
  Sb  Sb76  1  0.44444444  0.55555556  0.15130761  1
  Sb  Sb77  1  0.44444444  0.88888889  0.15130761  1
  Sb  Sb78  1  0.77777778  0.22222222  0.15130761  1
  Sb  Sb79  1  0.77777778  0.55555556  0.15130761  1
  Sb  Sb80  1  0.77777778  0.88888889  0.15130761  1
  Sb  Sb81  1  0.22222222  0.11111111  0.65130761  1
  Sb  Sb82  1  0.22222222  0.44444444  0.65130761  1
  Sb  Sb83  1  0.22222222  0.77777778  0.65130761  1
  Sb  Sb84  1  0.55555556  0.11111111  0.65130761  1
  Sb  Sb85  1  0.55555556  0.44444444  0.65130761  1
  Sb  Sb86  1  0.55555556  0.77777778  0.65130761  1
  Sb  Sb87  1  0.88888889  0.11111111  0.65130761  1
  Sb  Sb88  1  0.88888889  0.44444444  0.65130761  1
  Sb  Sb89  1  0.88888889  0.77777778  0.65130761  1
  Sb  Sb90  1  0.11111111  0.22222222  0.34869239  1
  Sb  Sb91  1  0.11111111  0.55555556  0.34869239  1
  Sb  Sb92  1  0.11111111  0.88888889  0.34869239  1
  Sb  Sb93  1  0.44444444  0.22222222  0.34869239  1
  Sb  Sb94  1  0.44444444  0.55555556  0.34869239  1
  Sb  Sb95  1  0.44444444  0.88888889  0.34869239  1
  Sb  Sb96  1  0.77777778  0.22222222  0.34869239  1
  Sb  Sb97  1  0.77777778  0.55555556  0.34869239  1
  Sb  Sb98  1  0.77777778  0.88888889  0.34869239  1
  Sb  Sb99  1  0.22222222  0.11111111  0.84869239  1
  Sb  Sb100  1  0.22222222  0.44444444  0.84869239  1
  Sb  Sb101  1  0.22222222  0.77777778  0.84869239  1
  Sb  Sb102  1  0.55555556  0.11111111  0.84869239  1
  Sb  Sb103  1  0.55555556  0.44444444  0.84869239  1
  Sb  Sb104  1  0.55555556  0.77777778  0.84869239  1
  Sb  Sb105  1  0.88888889  0.11111111  0.84869239  1
  Sb  Sb106  1  0.88888889  0.44444444  0.84869239  1
  Sb  Sb107  1  0.88888889  0.77777778  0.84869239  1
  O  O108  1  0.27730312  0.22127291  0.58333463  1
  O  O109  1  0.27730312  0.55460624  0.58333463  1
  O  O110  1  0.27730312  0.88793958  0.58333463  1
  O  O111  1  0.61063646  0.22127291  0.58333463  1
  O  O112  1  0.61063646  0.55460624  0.58333463  1
  O  O113  1  0.61063646  0.88793958  0.58333463  1
  O  O114  1  0.94396979  0.22127291  0.58333463  1
  O  O115  1  0.94396979  0.55460624  0.58333463  1
  O  O116  1  0.94396979  0.88793958  0.58333463  1
  O  O117  1  0.11206042  0.05603021  0.58333463  1
  O  O118  1  0.11206042  0.38936354  0.58333463  1
  O  O119  1  0.11206042  0.72269688  0.58333463  1
  O  O120  1  0.44539376  0.05603021  0.58333463  1
  O  O121  1  0.44539376  0.38936354  0.58333463  1
  O  O122  1  0.44539376  0.72269688  0.58333463  1
  O  O123  1  0.77872709  0.05603021  0.58333463  1
  O  O124  1  0.77872709  0.38936354  0.58333463  1
  O  O125  1  0.77872709  0.72269688  0.58333463  1
  O  O126  1  0.27730312  0.05603021  0.58333463  1
  O  O127  1  0.27730312  0.38936354  0.58333463  1
  O  O128  1  0.27730312  0.72269688  0.58333463  1
  O  O129  1  0.61063646  0.05603021  0.58333463  1
  O  O130  1  0.61063646  0.38936354  0.58333463  1
  O  O131  1  0.61063646  0.72269688  0.58333463  1
  O  O132  1  0.94396979  0.05603021  0.58333463  1
  O  O133  1  0.94396979  0.38936354  0.58333463  1
  O  O134  1  0.94396979  0.72269688  0.58333463  1
  O  O135  1  0.05603021  0.27730312  0.08333463  1
  O  O136  1  0.05603021  0.61063646  0.08333463  1
  O  O137  1  0.05603021  0.94396979  0.08333463  1
  O  O138  1  0.38936354  0.27730312  0.08333463  1
  O  O139  1  0.38936354  0.61063646  0.08333463  1
  O  O140  1  0.38936354  0.94396979  0.08333463  1
  O  O141  1  0.72269688  0.27730312  0.08333463  1
  O  O142  1  0.72269688  0.61063646  0.08333463  1
  O  O143  1  0.72269688  0.94396979  0.08333463  1
  O  O144  1  0.22127291  0.27730312  0.41666537  1
  O  O145  1  0.22127291  0.61063646  0.41666537  1
  O  O146  1  0.22127291  0.94396979  0.41666537  1
  O  O147  1  0.55460624  0.27730312  0.41666537  1
  O  O148  1  0.55460624  0.61063646  0.41666537  1
  O  O149  1  0.55460624  0.94396979  0.41666537  1
  O  O150  1  0.88793958  0.27730312  0.41666537  1
  O  O151  1  0.88793958  0.61063646  0.41666537  1
  O  O152  1  0.88793958  0.94396979  0.41666537  1
  O  O153  1  0.05603021  0.11206042  0.08333463  1
  O  O154  1  0.05603021  0.44539376  0.08333463  1
  O  O155  1  0.05603021  0.77872709  0.08333463  1
  O  O156  1  0.38936354  0.11206042  0.08333463  1
  O  O157  1  0.38936354  0.44539376  0.08333463  1
  O  O158  1  0.38936354  0.77872709  0.08333463  1
  O  O159  1  0.72269688  0.11206042  0.08333463  1
  O  O160  1  0.72269688  0.44539376  0.08333463  1
  O  O161  1  0.72269688  0.77872709  0.08333463  1
  O  O162  1  0.22127291  0.27730312  0.08333463  1
  O  O163  1  0.22127291  0.61063646  0.08333463  1
  O  O164  1  0.22127291  0.94396979  0.08333463  1
  O  O165  1  0.55460624  0.27730312  0.08333463  1
  O  O166  1  0.55460624  0.61063646  0.08333463  1
  O  O167  1  0.55460624  0.94396979  0.08333463  1
  O  O168  1  0.88793958  0.27730312  0.08333463  1
  O  O169  1  0.88793958  0.61063646  0.08333463  1
  O  O170  1  0.88793958  0.94396979  0.08333463  1
  O  O171  1  0.27730312  0.22127291  0.91666537  1
  O  O172  1  0.27730312  0.55460624  0.91666537  1
  O  O173  1  0.27730312  0.88793958  0.91666537  1
  O  O174  1  0.61063646  0.22127291  0.91666537  1
  O  O175  1  0.61063646  0.55460624  0.91666537  1
  O  O176  1  0.61063646  0.88793958  0.91666537  1
  O  O177  1  0.94396979  0.22127291  0.91666537  1
  O  O178  1  0.94396979  0.55460624  0.91666537  1
  O  O179  1  0.94396979  0.88793958  0.91666537  1
  O  O180  1  0.27730312  0.05603021  0.91666537  1
  O  O181  1  0.27730312  0.38936354  0.91666537  1
  O  O182  1  0.27730312  0.72269688  0.91666537  1
  O  O183  1  0.61063646  0.05603021  0.91666537  1
  O  O184  1  0.61063646  0.38936354  0.91666537  1
  O  O185  1  0.61063646  0.72269688  0.91666537  1
  O  O186  1  0.94396979  0.05603021  0.91666537  1
  O  O187  1  0.94396979  0.38936354  0.91666537  1
  O  O188  1  0.94396979  0.72269688  0.91666537  1
  O  O189  1  0.05603021  0.27730312  0.41666537  1
  O  O190  1  0.05603021  0.61063646  0.41666537  1
  O  O191  1  0.05603021  0.94396979  0.41666537  1
  O  O192  1  0.38936354  0.27730312  0.41666537  1
  O  O193  1  0.38936354  0.61063646  0.41666537  1
  O  O194  1  0.38936354  0.94396979  0.41666537  1
  O  O195  1  0.72269688  0.27730312  0.41666537  1
  O  O196  1  0.72269688  0.61063646  0.41666537  1
  O  O197  1  0.72269688  0.94396979  0.41666537  1
  O  O198  1  0.05603021  0.11206042  0.41666537  1
  O  O199  1  0.05603021  0.44539376  0.41666537  1
  O  O200  1  0.05603021  0.77872709  0.41666537  1
  O  O201  1  0.38936354  0.11206042  0.41666537  1
  O  O202  1  0.38936354  0.44539376  0.41666537  1
  O  O203  1  0.38936354  0.77872709  0.41666537  1
  O  O204  1  0.72269688  0.11206042  0.41666537  1
  O  O205  1  0.72269688  0.44539376  0.41666537  1
  O  O206  1  0.72269688  0.77872709  0.41666537  1
  O  O207  1  0.11206042  0.05603021  0.91666537  1
  O  O208  1  0.11206042  0.38936354  0.91666537  1
  O  O209  1  0.11206042  0.72269688  0.91666537  1
  O  O210  1  0.44539376  0.05603021  0.91666537  1
  O  O211  1  0.44539376  0.38936354  0.91666537  1
  O  O212  1  0.44539376  0.72269688  0.91666537  1
  O  O213  1  0.77872709  0.05603021  0.91666537  1
  O  O214  1  0.77872709  0.38936354  0.91666537  1
  O  O215  1  0.77872709  0.72269688  0.91666537  1
  O  O216  1  0.32194704  0.16097352  0.75000000  1
  O  O217  1  0.32194704  0.49430686  0.75000000  1
  O  O218  1  0.32194704  0.82764019  0.75000000  1
  O  O219  1  0.65528038  0.16097352  0.75000000  1
  O  O220  1  0.65528038  0.49430686  0.75000000  1
  O  O221  1  0.65528038  0.82764019  0.75000000  1
  O  O222  1  0.98861371  0.16097352  0.75000000  1
  O  O223  1  0.98861371  0.49430686  0.75000000  1
  O  O224  1  0.98861371  0.82764019  0.75000000  1
  O  O225  1  0.16097352  0.32194704  0.25000000  1
  O  O226  1  0.16097352  0.65528038  0.25000000  1
  O  O227  1  0.16097352  0.98861371  0.25000000  1
  O  O228  1  0.49430686  0.32194704  0.25000000  1
  O  O229  1  0.49430686  0.65528038  0.25000000  1
  O  O230  1  0.49430686  0.98861371  0.25000000  1
  O  O231  1  0.82764019  0.32194704  0.25000000  1
  O  O232  1  0.82764019  0.65528038  0.25000000  1
  O  O233  1  0.82764019  0.98861371  0.25000000  1
  O  O234  1  0.16097352  0.17235981  0.25000000  1
  O  O235  1  0.16097352  0.50569314  0.25000000  1
  O  O236  1  0.16097352  0.83902648  0.25000000  1
  O  O237  1  0.49430686  0.17235981  0.25000000  1
  O  O238  1  0.49430686  0.50569314  0.25000000  1
  O  O239  1  0.49430686  0.83902648  0.25000000  1
  O  O240  1  0.82764019  0.17235981  0.25000000  1
  O  O241  1  0.82764019  0.50569314  0.25000000  1
  O  O242  1  0.82764019  0.83902648  0.25000000  1
  O  O243  1  0.17235981  0.16097352  0.75000000  1
  O  O244  1  0.17235981  0.49430686  0.75000000  1
  O  O245  1  0.17235981  0.82764019  0.75000000  1
  O  O246  1  0.50569314  0.16097352  0.75000000  1
  O  O247  1  0.50569314  0.49430686  0.75000000  1
  O  O248  1  0.50569314  0.82764019  0.75000000  1
  O  O249  1  0.83902648  0.16097352  0.75000000  1
  O  O250  1  0.83902648  0.49430686  0.75000000  1
  O  O251  1  0.83902648  0.82764019  0.75000000  1
  O  O252  1  0.17235981  0.01138629  0.75000000  1
  O  O253  1  0.17235981  0.34471962  0.75000000  1
  O  O254  1  0.17235981  0.67805296  0.75000000  1
  O  O255  1  0.50569314  0.01138629  0.75000000  1
  O  O256  1  0.50569314  0.34471962  0.75000000  1
  O  O257  1  0.50569314  0.67805296  0.75000000  1
  O  O258  1  0.83902648  0.01138629  0.75000000  1
  O  O259  1  0.83902648  0.34471962  0.75000000  1
  O  O260  1  0.83902648  0.67805296  0.75000000  1
  O  O261  1  0.01138629  0.17235981  0.25000000  1
  O  O262  1  0.01138629  0.50569314  0.25000000  1
  O  O263  1  0.01138629  0.83902648  0.25000000  1
  O  O264  1  0.34471962  0.17235981  0.25000000  1
  O  O265  1  0.34471962  0.50569314  0.25000000  1
  O  O266  1  0.34471962  0.83902648  0.25000000  1
  O  O267  1  0.67805296  0.17235981  0.25000000  1
  O  O268  1  0.67805296  0.50569314  0.25000000  1
  O  O269  1  0.67805296  0.83902648  0.25000000  1
