# generated using pymatgen
data_Ca(AgO2)2
_symmetry_space_group_name_H-M   'P 1'
_cell_length_a   11.81899766
_cell_length_b   11.81899766
_cell_length_c   9.99791047
_cell_angle_alpha   90.00000000
_cell_angle_beta   90.00000000
_cell_angle_gamma   90.00000000
_symmetry_Int_Tables_number   1
_chemical_formula_structural   Ca(AgO2)2
_chemical_formula_sum   'Ca16 Ag32 O64'
_cell_volume   1396.59517360
_cell_formula_units_Z   16
loop_
 _symmetry_equiv_pos_site_id
 _symmetry_equiv_pos_as_xyz
  1  'x, y, z'
loop_
 _atom_site_type_symbol
 _atom_site_label
 _atom_site_symmetry_multiplicity
 _atom_site_fract_x
 _atom_site_fract_y
 _atom_site_fract_z
 _atom_site_occupancy
  Ca  Ca0  1  0.25000000  0.50000000  0.25000000  1
  Ca  Ca1  1  0.75000000  0.50000000  0.25000000  1
  Ca  Ca2  1  0.25000000  0.00000000  0.25000000  1
  Ca  Ca3  1  0.75000000  0.00000000  0.25000000  1
  Ca  Ca4  1  0.50000000  0.25000000  0.75000000  1
  Ca  Ca5  1  1.00000000  0.25000000  0.75000000  1
  Ca  Ca6  1  0.50000000  -0.25000000  0.75000000  1
  Ca  Ca7  1  1.00000000  -0.25000000  0.75000000  1
  Ca  Ca8  1  0.00000000  0.50000000  0.00000000  1
  Ca  Ca9  1  0.50000000  0.50000000  0.00000000  1
  Ca  Ca10  1  0.00000000  0.00000000  0.00000000  1
  Ca  Ca11  1  0.50000000  0.00000000  0.00000000  1
  Ca  Ca12  1  0.25000000  0.25000000  0.50000000  1
  Ca  Ca13  1  0.75000000  0.25000000  0.50000000  1
  Ca  Ca14  1  0.25000000  -0.25000000  0.50000000  1
  Ca  Ca15  1  0.75000000  -0.25000000  0.50000000  1
  Ag  Ag16  1  0.25000000  0.37500000  -0.12500000  1
  Ag  Ag17  1  0.75000000  0.37500000  -0.12500000  1
  Ag  Ag18  1  0.25000000  -0.12500000  -0.12500000  1
  Ag  Ag19  1  0.75000000  -0.12500000  -0.12500000  1
  Ag  Ag20  1  0.50000000  0.12500000  0.37500000  1
  Ag  Ag21  1  1.00000000  0.12500000  0.37500000  1
  Ag  Ag22  1  0.50000000  -0.37500000  0.37500000  1
  Ag  Ag23  1  1.00000000  -0.37500000  0.37500000  1
  Ag  Ag24  1  0.00000000  0.37500000  0.37500000  1
  Ag  Ag25  1  0.50000000  0.37500000  0.37500000  1
  Ag  Ag26  1  0.00000000  -0.12500000  0.37500000  1
  Ag  Ag27  1  0.50000000  -0.12500000  0.37500000  1
  Ag  Ag28  1  0.25000000  0.12500000  0.87500000  1
  Ag  Ag29  1  0.75000000  0.12500000  0.87500000  1
  Ag  Ag30  1  0.25000000  -0.37500000  0.87500000  1
  Ag  Ag31  1  0.75000000  -0.37500000  0.87500000  1
  Ag  Ag32  1  0.12500000  0.50000000  0.62500000  1
  Ag  Ag33  1  0.62500000  0.50000000  0.62500000  1
  Ag  Ag34  1  0.12500000  0.00000000  0.62500000  1
  Ag  Ag35  1  0.62500000  0.00000000  0.62500000  1
  Ag  Ag36  1  0.37500000  0.25000000  1.12500000  1
  Ag  Ag37  1  0.87500000  0.25000000  1.12500000  1
  Ag  Ag38  1  0.37500000  -0.25000000  1.12500000  1
  Ag  Ag39  1  0.87500000  -0.25000000  1.12500000  1
  Ag  Ag40  1  0.12500000  0.25000000  0.12500000  1
  Ag  Ag41  1  0.62500000  0.25000000  0.12500000  1
  Ag  Ag42  1  0.12500000  -0.25000000  0.12500000  1
  Ag  Ag43  1  0.62500000  -0.25000000  0.12500000  1
  Ag  Ag44  1  0.37500000  0.00000000  0.62500000  1
  Ag  Ag45  1  0.87500000  0.00000000  0.62500000  1
  Ag  Ag46  1  0.37500000  -0.50000000  0.62500000  1
  Ag  Ag47  1  0.87500000  -0.50000000  0.62500000  1
  O  O48  1  -0.07490536  0.10180517  0.19815477  1
  O  O49  1  0.42509464  0.10180517  0.19815477  1
  O  O50  1  -0.07490536  -0.39819483  0.19815477  1
  O  O51  1  0.42509464  -0.39819483  0.19815477  1
  O  O52  1  0.17509464  -0.14819483  0.69815477  1
  O  O53  1  0.67509464  -0.14819483  0.69815477  1
  O  O54  1  0.17509464  -0.64819483  0.69815477  1
  O  O55  1  0.67509464  -0.64819483  0.69815477  1
  O  O56  1  0.14819483  0.17509464  0.30184523  1
  O  O57  1  0.64819483  0.17509464  0.30184523  1
  O  O58  1  0.14819483  -0.32490536  0.30184523  1
  O  O59  1  0.64819483  -0.32490536  0.30184523  1
  O  O60  1  0.39819483  -0.07490536  0.80184523  1
  O  O61  1  0.89819483  -0.07490536  0.80184523  1
  O  O62  1  0.39819483  -0.57490536  0.80184523  1
  O  O63  1  0.89819483  -0.57490536  0.80184523  1
  O  O64  1  -0.14819483  0.32490536  0.30184523  1
  O  O65  1  0.35180517  0.32490536  0.30184523  1
  O  O66  1  -0.14819483  -0.17509464  0.30184523  1
  O  O67  1  0.35180517  -0.17509464  0.30184523  1
  O  O68  1  0.10180517  0.07490536  0.80184523  1
  O  O69  1  0.60180517  0.07490536  0.80184523  1
  O  O70  1  0.10180517  -0.42509464  0.80184523  1
  O  O71  1  0.60180517  -0.42509464  0.80184523  1
  O  O72  1  -0.07490536  0.35180517  0.55184523  1
  O  O73  1  0.42509464  0.35180517  0.55184523  1
  O  O74  1  -0.07490536  -0.14819483  0.55184523  1
  O  O75  1  0.42509464  -0.14819483  0.55184523  1
  O  O76  1  0.17509464  0.10180517  1.05184523  1
  O  O77  1  0.67509464  0.10180517  1.05184523  1
  O  O78  1  0.17509464  -0.39819483  1.05184523  1
  O  O79  1  0.67509464  -0.39819483  1.05184523  1
  O  O80  1  0.14819483  0.42509464  0.44815477  1
  O  O81  1  0.64819483  0.42509464  0.44815477  1
  O  O82  1  0.14819483  -0.07490536  0.44815477  1
  O  O83  1  0.64819483  -0.07490536  0.44815477  1
  O  O84  1  0.39819483  0.17509464  0.94815477  1
  O  O85  1  0.89819483  0.17509464  0.94815477  1
  O  O86  1  0.39819483  -0.32490536  0.94815477  1
  O  O87  1  0.89819483  -0.32490536  0.94815477  1
  O  O88  1  0.10180517  0.32490536  -0.05184523  1
  O  O89  1  0.60180517  0.32490536  -0.05184523  1
  O  O90  1  0.10180517  -0.17509464  -0.05184523  1
  O  O91  1  0.60180517  -0.17509464  -0.05184523  1
  O  O92  1  0.35180517  0.07490536  0.44815477  1
  O  O93  1  0.85180517  0.07490536  0.44815477  1
  O  O94  1  0.35180517  -0.42509464  0.44815477  1
  O  O95  1  0.85180517  -0.42509464  0.44815477  1
  O  O96  1  0.07490536  0.39819483  0.19815477  1
  O  O97  1  0.57490536  0.39819483  0.19815477  1
  O  O98  1  0.07490536  -0.10180517  0.19815477  1
  O  O99  1  0.57490536  -0.10180517  0.19815477  1
  O  O100  1  0.32490536  0.14819483  0.69815477  1
  O  O101  1  0.82490536  0.14819483  0.69815477  1
  O  O102  1  0.32490536  -0.35180517  0.69815477  1
  O  O103  1  0.82490536  -0.35180517  0.69815477  1
  O  O104  1  0.32490536  0.39819483  0.05184523  1
  O  O105  1  0.82490536  0.39819483  0.05184523  1
  O  O106  1  0.32490536  -0.10180517  0.05184523  1
  O  O107  1  0.82490536  -0.10180517  0.05184523  1
  O  O108  1  0.57490536  0.14819483  0.55184523  1
  O  O109  1  1.07490536  0.14819483  0.55184523  1
  O  O110  1  0.57490536  -0.35180517  0.55184523  1
  O  O111  1  1.07490536  -0.35180517  0.55184523  1
