# generated using pymatgen
data_RbAsO2
_symmetry_space_group_name_H-M   'P 1'
_cell_length_a   14.76294923
_cell_length_b   15.48738795
_cell_length_c   16.52689019
_cell_angle_alpha   90.00000000
_cell_angle_beta   90.00000000
_cell_angle_gamma   90.00000000
_symmetry_Int_Tables_number   1
_chemical_formula_structural   RbAsO2
_chemical_formula_sum   'Rb48 As48 O96'
_cell_volume   3778.70027149
_cell_formula_units_Z   48
loop_
 _symmetry_equiv_pos_site_id
 _symmetry_equiv_pos_as_xyz
  1  'x, y, z'
loop_
 _atom_site_type_symbol
 _atom_site_label
 _atom_site_symmetry_multiplicity
 _atom_site_fract_x
 _atom_site_fract_y
 _atom_site_fract_z
 _atom_site_occupancy
  Rb  Rb0  1  0.18068755  0.20102133  0.08333333  1
  Rb  Rb1  1  0.18068755  0.20102133  0.41666667  1
  Rb  Rb2  1  0.18068755  0.20102133  0.75000000  1
  Rb  Rb3  1  0.18068755  0.70102133  0.08333333  1
  Rb  Rb4  1  0.18068755  0.70102133  0.41666667  1
  Rb  Rb5  1  0.18068755  0.70102133  0.75000000  1
  Rb  Rb6  1  0.68068755  0.20102133  0.08333333  1
  Rb  Rb7  1  0.68068755  0.20102133  0.41666667  1
  Rb  Rb8  1  0.68068755  0.20102133  0.75000000  1
  Rb  Rb9  1  0.68068755  0.70102133  0.08333333  1
  Rb  Rb10  1  0.68068755  0.70102133  0.41666667  1
  Rb  Rb11  1  0.68068755  0.70102133  0.75000000  1
  Rb  Rb12  1  0.31931245  0.29897867  0.25000000  1
  Rb  Rb13  1  0.31931245  0.29897867  0.58333333  1
  Rb  Rb14  1  0.31931245  0.29897867  0.91666667  1
  Rb  Rb15  1  0.31931245  0.79897867  0.25000000  1
  Rb  Rb16  1  0.31931245  0.79897867  0.58333333  1
  Rb  Rb17  1  0.31931245  0.79897867  0.91666667  1
  Rb  Rb18  1  0.81931245  0.29897867  0.25000000  1
  Rb  Rb19  1  0.81931245  0.29897867  0.58333333  1
  Rb  Rb20  1  0.81931245  0.29897867  0.91666667  1
  Rb  Rb21  1  0.81931245  0.79897867  0.25000000  1
  Rb  Rb22  1  0.81931245  0.79897867  0.58333333  1
  Rb  Rb23  1  0.81931245  0.79897867  0.91666667  1
  Rb  Rb24  1  0.18068755  0.04897867  0.25000000  1
  Rb  Rb25  1  0.18068755  0.04897867  0.58333333  1
  Rb  Rb26  1  0.18068755  0.04897867  0.91666667  1
  Rb  Rb27  1  0.18068755  0.54897867  0.25000000  1
  Rb  Rb28  1  0.18068755  0.54897867  0.58333333  1
  Rb  Rb29  1  0.18068755  0.54897867  0.91666667  1
  Rb  Rb30  1  0.68068755  0.04897867  0.25000000  1
  Rb  Rb31  1  0.68068755  0.04897867  0.58333333  1
  Rb  Rb32  1  0.68068755  0.04897867  0.91666667  1
  Rb  Rb33  1  0.68068755  0.54897867  0.25000000  1
  Rb  Rb34  1  0.68068755  0.54897867  0.58333333  1
  Rb  Rb35  1  0.68068755  0.54897867  0.91666667  1
  Rb  Rb36  1  0.31931245  0.45102133  0.08333333  1
  Rb  Rb37  1  0.31931245  0.45102133  0.41666667  1
  Rb  Rb38  1  0.31931245  0.45102133  0.75000000  1
  Rb  Rb39  1  0.31931245  0.95102133  0.08333333  1
  Rb  Rb40  1  0.31931245  0.95102133  0.41666667  1
  Rb  Rb41  1  0.31931245  0.95102133  0.75000000  1
  Rb  Rb42  1  0.81931245  0.45102133  0.08333333  1
  Rb  Rb43  1  0.81931245  0.45102133  0.41666667  1
  Rb  Rb44  1  0.81931245  0.45102133  0.75000000  1
  Rb  Rb45  1  0.81931245  0.95102133  0.08333333  1
  Rb  Rb46  1  0.81931245  0.95102133  0.41666667  1
  Rb  Rb47  1  0.81931245  0.95102133  0.75000000  1
  As  As48  1  0.42719674  0.18351891  0.08333333  1
  As  As49  1  0.42719674  0.18351891  0.41666667  1
  As  As50  1  0.42719674  0.18351891  0.75000000  1
  As  As51  1  0.42719674  0.68351891  0.08333333  1
  As  As52  1  0.42719674  0.68351891  0.41666667  1
  As  As53  1  0.42719674  0.68351891  0.75000000  1
  As  As54  1  0.92719674  0.18351891  0.08333333  1
  As  As55  1  0.92719674  0.18351891  0.41666667  1
  As  As56  1  0.92719674  0.18351891  0.75000000  1
  As  As57  1  0.92719674  0.68351891  0.08333333  1
  As  As58  1  0.92719674  0.68351891  0.41666667  1
  As  As59  1  0.92719674  0.68351891  0.75000000  1
  As  As60  1  0.42719674  0.06648109  0.25000000  1
  As  As61  1  0.42719674  0.06648109  0.58333333  1
  As  As62  1  0.42719674  0.06648109  0.91666667  1
  As  As63  1  0.42719674  0.56648109  0.25000000  1
  As  As64  1  0.42719674  0.56648109  0.58333333  1
  As  As65  1  0.42719674  0.56648109  0.91666667  1
  As  As66  1  0.92719674  0.06648109  0.25000000  1
  As  As67  1  0.92719674  0.06648109  0.58333333  1
  As  As68  1  0.92719674  0.06648109  0.91666667  1
  As  As69  1  0.92719674  0.56648109  0.25000000  1
  As  As70  1  0.92719674  0.56648109  0.58333333  1
  As  As71  1  0.92719674  0.56648109  0.91666667  1
  As  As72  1  0.07280326  0.31648109  0.25000000  1
  As  As73  1  0.07280326  0.31648109  0.58333333  1
  As  As74  1  0.07280326  0.31648109  0.91666667  1
  As  As75  1  0.07280326  0.81648109  0.25000000  1
  As  As76  1  0.07280326  0.81648109  0.58333333  1
  As  As77  1  0.07280326  0.81648109  0.91666667  1
  As  As78  1  0.57280326  0.31648109  0.25000000  1
  As  As79  1  0.57280326  0.31648109  0.58333333  1
  As  As80  1  0.57280326  0.31648109  0.91666667  1
  As  As81  1  0.57280326  0.81648109  0.25000000  1
  As  As82  1  0.57280326  0.81648109  0.58333333  1
  As  As83  1  0.57280326  0.81648109  0.91666667  1
  As  As84  1  0.07280326  0.43351891  0.08333333  1
  As  As85  1  0.07280326  0.43351891  0.41666667  1
  As  As86  1  0.07280326  0.43351891  0.75000000  1
  As  As87  1  0.07280326  0.93351891  0.08333333  1
  As  As88  1  0.07280326  0.93351891  0.41666667  1
  As  As89  1  0.07280326  0.93351891  0.75000000  1
  As  As90  1  0.57280326  0.43351891  0.08333333  1
  As  As91  1  0.57280326  0.43351891  0.41666667  1
  As  As92  1  0.57280326  0.43351891  0.75000000  1
  As  As93  1  0.57280326  0.93351891  0.08333333  1
  As  As94  1  0.57280326  0.93351891  0.41666667  1
  As  As95  1  0.57280326  0.93351891  0.75000000  1
  O  O96  1  0.13296953  0.37500000  0.16666667  1
  O  O97  1  0.13296953  0.37500000  0.50000000  1
  O  O98  1  0.13296953  0.37500000  0.83333333  1
  O  O99  1  0.13296953  0.87500000  0.16666667  1
  O  O100  1  0.13296953  0.87500000  0.50000000  1
  O  O101  1  0.13296953  0.87500000  0.83333333  1
  O  O102  1  0.63296953  0.37500000  0.16666667  1
  O  O103  1  0.63296953  0.37500000  0.50000000  1
  O  O104  1  0.63296953  0.37500000  0.83333333  1
  O  O105  1  0.63296953  0.87500000  0.16666667  1
  O  O106  1  0.63296953  0.87500000  0.50000000  1
  O  O107  1  0.63296953  0.87500000  0.83333333  1
  O  O108  1  0.36703047  0.12500000  0.00000000  1
  O  O109  1  0.36703047  0.12500000  0.33333333  1
  O  O110  1  0.36703047  0.12500000  0.66666667  1
  O  O111  1  0.36703047  0.62500000  0.00000000  1
  O  O112  1  0.36703047  0.62500000  0.33333333  1
  O  O113  1  0.36703047  0.62500000  0.66666667  1
  O  O114  1  0.86703047  0.12500000  0.00000000  1
  O  O115  1  0.86703047  0.12500000  0.33333333  1
  O  O116  1  0.86703047  0.12500000  0.66666667  1
  O  O117  1  0.86703047  0.62500000  0.00000000  1
  O  O118  1  0.86703047  0.62500000  0.33333333  1
  O  O119  1  0.86703047  0.62500000  0.66666667  1
  O  O120  1  0.36703047  0.12500000  0.16666667  1
  O  O121  1  0.36703047  0.12500000  0.50000000  1
  O  O122  1  0.36703047  0.12500000  0.83333333  1
  O  O123  1  0.36703047  0.62500000  0.16666667  1
  O  O124  1  0.36703047  0.62500000  0.50000000  1
  O  O125  1  0.36703047  0.62500000  0.83333333  1
  O  O126  1  0.86703047  0.12500000  0.16666667  1
  O  O127  1  0.86703047  0.12500000  0.50000000  1
  O  O128  1  0.86703047  0.12500000  0.83333333  1
  O  O129  1  0.86703047  0.62500000  0.16666667  1
  O  O130  1  0.86703047  0.62500000  0.50000000  1
  O  O131  1  0.86703047  0.62500000  0.83333333  1
  O  O132  1  0.13296953  0.37500000  0.00000000  1
  O  O133  1  0.13296953  0.37500000  0.33333333  1
  O  O134  1  0.13296953  0.37500000  0.66666667  1
  O  O135  1  0.13296953  0.87500000  0.00000000  1
  O  O136  1  0.13296953  0.87500000  0.33333333  1
  O  O137  1  0.13296953  0.87500000  0.66666667  1
  O  O138  1  0.63296953  0.37500000  0.00000000  1
  O  O139  1  0.63296953  0.37500000  0.33333333  1
  O  O140  1  0.63296953  0.37500000  0.66666667  1
  O  O141  1  0.63296953  0.87500000  0.00000000  1
  O  O142  1  0.63296953  0.87500000  0.33333333  1
  O  O143  1  0.63296953  0.87500000  0.66666667  1
  O  O144  1  0.36193094  0.27476221  0.08333333  1
  O  O145  1  0.36193094  0.27476221  0.41666667  1
  O  O146  1  0.36193094  0.27476221  0.75000000  1
  O  O147  1  0.36193094  0.77476221  0.08333333  1
  O  O148  1  0.36193094  0.77476221  0.41666667  1
  O  O149  1  0.36193094  0.77476221  0.75000000  1
  O  O150  1  0.86193094  0.27476221  0.08333333  1
  O  O151  1  0.86193094  0.27476221  0.41666667  1
  O  O152  1  0.86193094  0.27476221  0.75000000  1
  O  O153  1  0.86193094  0.77476221  0.08333333  1
  O  O154  1  0.86193094  0.77476221  0.41666667  1
  O  O155  1  0.86193094  0.77476221  0.75000000  1
  O  O156  1  0.13806906  0.02476221  0.08333333  1
  O  O157  1  0.13806906  0.02476221  0.41666667  1
  O  O158  1  0.13806906  0.02476221  0.75000000  1
  O  O159  1  0.13806906  0.52476221  0.08333333  1
  O  O160  1  0.13806906  0.52476221  0.41666667  1
  O  O161  1  0.13806906  0.52476221  0.75000000  1
  O  O162  1  0.63806906  0.02476221  0.08333333  1
  O  O163  1  0.63806906  0.02476221  0.41666667  1
  O  O164  1  0.63806906  0.02476221  0.75000000  1
  O  O165  1  0.63806906  0.52476221  0.08333333  1
  O  O166  1  0.63806906  0.52476221  0.41666667  1
  O  O167  1  0.63806906  0.52476221  0.75000000  1
  O  O168  1  0.36193094  0.47523779  0.25000000  1
  O  O169  1  0.36193094  0.47523779  0.58333333  1
  O  O170  1  0.36193094  0.47523779  0.91666667  1
  O  O171  1  0.36193094  0.97523779  0.25000000  1
  O  O172  1  0.36193094  0.97523779  0.58333333  1
  O  O173  1  0.36193094  0.97523779  0.91666667  1
  O  O174  1  0.86193094  0.47523779  0.25000000  1
  O  O175  1  0.86193094  0.47523779  0.58333333  1
  O  O176  1  0.86193094  0.47523779  0.91666667  1
  O  O177  1  0.86193094  0.97523779  0.25000000  1
  O  O178  1  0.86193094  0.97523779  0.58333333  1
  O  O179  1  0.86193094  0.97523779  0.91666667  1
  O  O180  1  0.13806906  0.22523779  0.25000000  1
  O  O181  1  0.13806906  0.22523779  0.58333333  1
  O  O182  1  0.13806906  0.22523779  0.91666667  1
  O  O183  1  0.13806906  0.72523779  0.25000000  1
  O  O184  1  0.13806906  0.72523779  0.58333333  1
  O  O185  1  0.13806906  0.72523779  0.91666667  1
  O  O186  1  0.63806906  0.22523779  0.25000000  1
  O  O187  1  0.63806906  0.22523779  0.58333333  1
  O  O188  1  0.63806906  0.22523779  0.91666667  1
  O  O189  1  0.63806906  0.72523779  0.25000000  1
  O  O190  1  0.63806906  0.72523779  0.58333333  1
  O  O191  1  0.63806906  0.72523779  0.91666667  1
