# generated using pymatgen
data_Zn(GaO2)2
_symmetry_space_group_name_H-M   'P 1'
_cell_length_a   16.60758118
_cell_length_b   16.60758118
_cell_length_c   16.60758118
_cell_angle_alpha   90.00000000
_cell_angle_beta   90.00000000
_cell_angle_gamma   90.00000000
_symmetry_Int_Tables_number   1
_chemical_formula_structural   Zn(GaO2)2
_chemical_formula_sum   'Zn64 Ga128 O256'
_cell_volume   4580.56607227
_cell_formula_units_Z   64
loop_
 _symmetry_equiv_pos_site_id
 _symmetry_equiv_pos_as_xyz
  1  'x, y, z'
loop_
 _atom_site_type_symbol
 _atom_site_label
 _atom_site_symmetry_multiplicity
 _atom_site_fract_x
 _atom_site_fract_y
 _atom_site_fract_z
 _atom_site_occupancy
  Zn  Zn0  1  0.00000000  0.00000000  0.00000000  1
  Zn  Zn1  1  0.00000000  0.00000000  0.50000000  1
  Zn  Zn2  1  0.00000000  0.50000000  0.00000000  1
  Zn  Zn3  1  0.00000000  0.50000000  0.50000000  1
  Zn  Zn4  1  0.50000000  0.00000000  0.00000000  1
  Zn  Zn5  1  0.50000000  0.00000000  0.50000000  1
  Zn  Zn6  1  0.50000000  0.50000000  0.00000000  1
  Zn  Zn7  1  0.50000000  0.50000000  0.50000000  1
  Zn  Zn8  1  0.25000000  0.25000000  0.00000000  1
  Zn  Zn9  1  0.25000000  0.25000000  0.50000000  1
  Zn  Zn10  1  0.25000000  0.75000000  0.00000000  1
  Zn  Zn11  1  0.25000000  0.75000000  0.50000000  1
  Zn  Zn12  1  0.75000000  0.25000000  0.00000000  1
  Zn  Zn13  1  0.75000000  0.25000000  0.50000000  1
  Zn  Zn14  1  0.75000000  0.75000000  0.00000000  1
  Zn  Zn15  1  0.75000000  0.75000000  0.50000000  1
  Zn  Zn16  1  0.25000000  0.00000000  0.25000000  1
  Zn  Zn17  1  0.25000000  0.00000000  0.75000000  1
  Zn  Zn18  1  0.25000000  0.50000000  0.25000000  1
  Zn  Zn19  1  0.25000000  0.50000000  0.75000000  1
  Zn  Zn20  1  0.75000000  0.00000000  0.25000000  1
  Zn  Zn21  1  0.75000000  0.00000000  0.75000000  1
  Zn  Zn22  1  0.75000000  0.50000000  0.25000000  1
  Zn  Zn23  1  0.75000000  0.50000000  0.75000000  1
  Zn  Zn24  1  0.00000000  0.25000000  0.25000000  1
  Zn  Zn25  1  0.00000000  0.25000000  0.75000000  1
  Zn  Zn26  1  0.00000000  0.75000000  0.25000000  1
  Zn  Zn27  1  0.00000000  0.75000000  0.75000000  1
  Zn  Zn28  1  0.50000000  0.25000000  0.25000000  1
  Zn  Zn29  1  0.50000000  0.25000000  0.75000000  1
  Zn  Zn30  1  0.50000000  0.75000000  0.25000000  1
  Zn  Zn31  1  0.50000000  0.75000000  0.75000000  1
  Zn  Zn32  1  0.12500000  0.12500000  0.12500000  1
  Zn  Zn33  1  0.12500000  0.12500000  0.62500000  1
  Zn  Zn34  1  0.12500000  0.62500000  0.12500000  1
  Zn  Zn35  1  0.12500000  0.62500000  0.62500000  1
  Zn  Zn36  1  0.62500000  0.12500000  0.12500000  1
  Zn  Zn37  1  0.62500000  0.12500000  0.62500000  1
  Zn  Zn38  1  0.62500000  0.62500000  0.12500000  1
  Zn  Zn39  1  0.62500000  0.62500000  0.62500000  1
  Zn  Zn40  1  0.37500000  0.37500000  0.12500000  1
  Zn  Zn41  1  0.37500000  0.37500000  0.62500000  1
  Zn  Zn42  1  0.37500000  0.87500000  0.12500000  1
  Zn  Zn43  1  0.37500000  0.87500000  0.62500000  1
  Zn  Zn44  1  0.87500000  0.37500000  0.12500000  1
  Zn  Zn45  1  0.87500000  0.37500000  0.62500000  1
  Zn  Zn46  1  0.87500000  0.87500000  0.12500000  1
  Zn  Zn47  1  0.87500000  0.87500000  0.62500000  1
  Zn  Zn48  1  0.37500000  0.12500000  0.37500000  1
  Zn  Zn49  1  0.37500000  0.12500000  0.87500000  1
  Zn  Zn50  1  0.37500000  0.62500000  0.37500000  1
  Zn  Zn51  1  0.37500000  0.62500000  0.87500000  1
  Zn  Zn52  1  0.87500000  0.12500000  0.37500000  1
  Zn  Zn53  1  0.87500000  0.12500000  0.87500000  1
  Zn  Zn54  1  0.87500000  0.62500000  0.37500000  1
  Zn  Zn55  1  0.87500000  0.62500000  0.87500000  1
  Zn  Zn56  1  0.12500000  0.37500000  0.37500000  1
  Zn  Zn57  1  0.12500000  0.37500000  0.87500000  1
  Zn  Zn58  1  0.12500000  0.87500000  0.37500000  1
  Zn  Zn59  1  0.12500000  0.87500000  0.87500000  1
  Zn  Zn60  1  0.62500000  0.37500000  0.37500000  1
  Zn  Zn61  1  0.62500000  0.37500000  0.87500000  1
  Zn  Zn62  1  0.62500000  0.87500000  0.37500000  1
  Zn  Zn63  1  0.62500000  0.87500000  0.87500000  1
  Ga  Ga64  1  0.18750000  0.18750000  0.31250000  1
  Ga  Ga65  1  0.18750000  0.18750000  0.81250000  1
  Ga  Ga66  1  0.18750000  0.68750000  0.31250000  1
  Ga  Ga67  1  0.18750000  0.68750000  0.81250000  1
  Ga  Ga68  1  0.68750000  0.18750000  0.31250000  1
  Ga  Ga69  1  0.68750000  0.18750000  0.81250000  1
  Ga  Ga70  1  0.68750000  0.68750000  0.31250000  1
  Ga  Ga71  1  0.68750000  0.68750000  0.81250000  1
  Ga  Ga72  1  0.43750000  0.43750000  0.31250000  1
  Ga  Ga73  1  0.43750000  0.43750000  0.81250000  1
  Ga  Ga74  1  0.43750000  0.93750000  0.31250000  1
  Ga  Ga75  1  0.43750000  0.93750000  0.81250000  1
  Ga  Ga76  1  0.93750000  0.43750000  0.31250000  1
  Ga  Ga77  1  0.93750000  0.43750000  0.81250000  1
  Ga  Ga78  1  0.93750000  0.93750000  0.31250000  1
  Ga  Ga79  1  0.93750000  0.93750000  0.81250000  1
  Ga  Ga80  1  0.43750000  0.18750000  0.56250000  1
  Ga  Ga81  1  0.43750000  0.18750000  1.06250000  1
  Ga  Ga82  1  0.43750000  0.68750000  0.56250000  1
  Ga  Ga83  1  0.43750000  0.68750000  1.06250000  1
  Ga  Ga84  1  0.93750000  0.18750000  0.56250000  1
  Ga  Ga85  1  0.93750000  0.18750000  1.06250000  1
  Ga  Ga86  1  0.93750000  0.68750000  0.56250000  1
  Ga  Ga87  1  0.93750000  0.68750000  1.06250000  1
  Ga  Ga88  1  0.18750000  0.43750000  0.56250000  1
  Ga  Ga89  1  0.18750000  0.43750000  1.06250000  1
  Ga  Ga90  1  0.18750000  0.93750000  0.56250000  1
  Ga  Ga91  1  0.18750000  0.93750000  1.06250000  1
  Ga  Ga92  1  0.68750000  0.43750000  0.56250000  1
  Ga  Ga93  1  0.68750000  0.43750000  1.06250000  1
  Ga  Ga94  1  0.68750000  0.93750000  0.56250000  1
  Ga  Ga95  1  0.68750000  0.93750000  1.06250000  1
  Ga  Ga96  1  0.18750000  0.31250000  0.18750000  1
  Ga  Ga97  1  0.18750000  0.31250000  0.68750000  1
  Ga  Ga98  1  0.18750000  0.81250000  0.18750000  1
  Ga  Ga99  1  0.18750000  0.81250000  0.68750000  1
  Ga  Ga100  1  0.68750000  0.31250000  0.18750000  1
  Ga  Ga101  1  0.68750000  0.31250000  0.68750000  1
  Ga  Ga102  1  0.68750000  0.81250000  0.18750000  1
  Ga  Ga103  1  0.68750000  0.81250000  0.68750000  1
  Ga  Ga104  1  0.43750000  0.56250000  0.18750000  1
  Ga  Ga105  1  0.43750000  0.56250000  0.68750000  1
  Ga  Ga106  1  0.43750000  1.06250000  0.18750000  1
  Ga  Ga107  1  0.43750000  1.06250000  0.68750000  1
  Ga  Ga108  1  0.93750000  0.56250000  0.18750000  1
  Ga  Ga109  1  0.93750000  0.56250000  0.68750000  1
  Ga  Ga110  1  0.93750000  1.06250000  0.18750000  1
  Ga  Ga111  1  0.93750000  1.06250000  0.68750000  1
  Ga  Ga112  1  0.43750000  0.31250000  0.43750000  1
  Ga  Ga113  1  0.43750000  0.31250000  0.93750000  1
  Ga  Ga114  1  0.43750000  0.81250000  0.43750000  1
  Ga  Ga115  1  0.43750000  0.81250000  0.93750000  1
  Ga  Ga116  1  0.93750000  0.31250000  0.43750000  1
  Ga  Ga117  1  0.93750000  0.31250000  0.93750000  1
  Ga  Ga118  1  0.93750000  0.81250000  0.43750000  1
  Ga  Ga119  1  0.93750000  0.81250000  0.93750000  1
  Ga  Ga120  1  0.18750000  0.56250000  0.43750000  1
  Ga  Ga121  1  0.18750000  0.56250000  0.93750000  1
  Ga  Ga122  1  0.18750000  1.06250000  0.43750000  1
  Ga  Ga123  1  0.18750000  1.06250000  0.93750000  1
  Ga  Ga124  1  0.68750000  0.56250000  0.43750000  1
  Ga  Ga125  1  0.68750000  0.56250000  0.93750000  1
  Ga  Ga126  1  0.68750000  1.06250000  0.43750000  1
  Ga  Ga127  1  0.68750000  1.06250000  0.93750000  1
  Ga  Ga128  1  0.31250000  0.18750000  0.18750000  1
  Ga  Ga129  1  0.31250000  0.18750000  0.68750000  1
  Ga  Ga130  1  0.31250000  0.68750000  0.18750000  1
  Ga  Ga131  1  0.31250000  0.68750000  0.68750000  1
  Ga  Ga132  1  0.81250000  0.18750000  0.18750000  1
  Ga  Ga133  1  0.81250000  0.18750000  0.68750000  1
  Ga  Ga134  1  0.81250000  0.68750000  0.18750000  1
  Ga  Ga135  1  0.81250000  0.68750000  0.68750000  1
  Ga  Ga136  1  0.56250000  0.43750000  0.18750000  1
  Ga  Ga137  1  0.56250000  0.43750000  0.68750000  1
  Ga  Ga138  1  0.56250000  0.93750000  0.18750000  1
  Ga  Ga139  1  0.56250000  0.93750000  0.68750000  1
  Ga  Ga140  1  1.06250000  0.43750000  0.18750000  1
  Ga  Ga141  1  1.06250000  0.43750000  0.68750000  1
  Ga  Ga142  1  1.06250000  0.93750000  0.18750000  1
  Ga  Ga143  1  1.06250000  0.93750000  0.68750000  1
  Ga  Ga144  1  0.56250000  0.18750000  0.43750000  1
  Ga  Ga145  1  0.56250000  0.18750000  0.93750000  1
  Ga  Ga146  1  0.56250000  0.68750000  0.43750000  1
  Ga  Ga147  1  0.56250000  0.68750000  0.93750000  1
  Ga  Ga148  1  1.06250000  0.18750000  0.43750000  1
  Ga  Ga149  1  1.06250000  0.18750000  0.93750000  1
  Ga  Ga150  1  1.06250000  0.68750000  0.43750000  1
  Ga  Ga151  1  1.06250000  0.68750000  0.93750000  1
  Ga  Ga152  1  0.31250000  0.43750000  0.43750000  1
  Ga  Ga153  1  0.31250000  0.43750000  0.93750000  1
  Ga  Ga154  1  0.31250000  0.93750000  0.43750000  1
  Ga  Ga155  1  0.31250000  0.93750000  0.93750000  1
  Ga  Ga156  1  0.81250000  0.43750000  0.43750000  1
  Ga  Ga157  1  0.81250000  0.43750000  0.93750000  1
  Ga  Ga158  1  0.81250000  0.93750000  0.43750000  1
  Ga  Ga159  1  0.81250000  0.93750000  0.93750000  1
  Ga  Ga160  1  0.31250000  0.31250000  0.31250000  1
  Ga  Ga161  1  0.31250000  0.31250000  0.81250000  1
  Ga  Ga162  1  0.31250000  0.81250000  0.31250000  1
  Ga  Ga163  1  0.31250000  0.81250000  0.81250000  1
  Ga  Ga164  1  0.81250000  0.31250000  0.31250000  1
  Ga  Ga165  1  0.81250000  0.31250000  0.81250000  1
  Ga  Ga166  1  0.81250000  0.81250000  0.31250000  1
  Ga  Ga167  1  0.81250000  0.81250000  0.81250000  1
  Ga  Ga168  1  0.56250000  0.56250000  0.31250000  1
  Ga  Ga169  1  0.56250000  0.56250000  0.81250000  1
  Ga  Ga170  1  0.56250000  1.06250000  0.31250000  1
  Ga  Ga171  1  0.56250000  1.06250000  0.81250000  1
  Ga  Ga172  1  1.06250000  0.56250000  0.31250000  1
  Ga  Ga173  1  1.06250000  0.56250000  0.81250000  1
  Ga  Ga174  1  1.06250000  1.06250000  0.31250000  1
  Ga  Ga175  1  1.06250000  1.06250000  0.81250000  1
  Ga  Ga176  1  0.56250000  0.31250000  0.56250000  1
  Ga  Ga177  1  0.56250000  0.31250000  1.06250000  1
  Ga  Ga178  1  0.56250000  0.81250000  0.56250000  1
  Ga  Ga179  1  0.56250000  0.81250000  1.06250000  1
  Ga  Ga180  1  1.06250000  0.31250000  0.56250000  1
  Ga  Ga181  1  1.06250000  0.31250000  1.06250000  1
  Ga  Ga182  1  1.06250000  0.81250000  0.56250000  1
  Ga  Ga183  1  1.06250000  0.81250000  1.06250000  1
  Ga  Ga184  1  0.31250000  0.56250000  0.56250000  1
  Ga  Ga185  1  0.31250000  0.56250000  1.06250000  1
  Ga  Ga186  1  0.31250000  1.06250000  0.56250000  1
  Ga  Ga187  1  0.31250000  1.06250000  1.06250000  1
  Ga  Ga188  1  0.81250000  0.56250000  0.56250000  1
  Ga  Ga189  1  0.81250000  0.56250000  1.06250000  1
  Ga  Ga190  1  0.81250000  1.06250000  0.56250000  1
  Ga  Ga191  1  0.81250000  1.06250000  1.06250000  1
  O  O192  1  0.30743866  0.19256134  0.30743866  1
  O  O193  1  0.30743866  0.19256134  0.80743866  1
  O  O194  1  0.30743866  0.69256134  0.30743866  1
  O  O195  1  0.30743866  0.69256134  0.80743866  1
  O  O196  1  0.80743866  0.19256134  0.30743866  1
  O  O197  1  0.80743866  0.19256134  0.80743866  1
  O  O198  1  0.80743866  0.69256134  0.30743866  1
  O  O199  1  0.80743866  0.69256134  0.80743866  1
  O  O200  1  0.55743866  0.44256134  0.30743866  1
  O  O201  1  0.55743866  0.44256134  0.80743866  1
  O  O202  1  0.55743866  0.94256134  0.30743866  1
  O  O203  1  0.55743866  0.94256134  0.80743866  1
  O  O204  1  1.05743866  0.44256134  0.30743866  1
  O  O205  1  1.05743866  0.44256134  0.80743866  1
  O  O206  1  1.05743866  0.94256134  0.30743866  1
  O  O207  1  1.05743866  0.94256134  0.80743866  1
  O  O208  1  0.55743866  0.19256134  0.55743866  1
  O  O209  1  0.55743866  0.19256134  1.05743866  1
  O  O210  1  0.55743866  0.69256134  0.55743866  1
  O  O211  1  0.55743866  0.69256134  1.05743866  1
  O  O212  1  1.05743866  0.19256134  0.55743866  1
  O  O213  1  1.05743866  0.19256134  1.05743866  1
  O  O214  1  1.05743866  0.69256134  0.55743866  1
  O  O215  1  1.05743866  0.69256134  1.05743866  1
  O  O216  1  0.30743866  0.44256134  0.55743866  1
  O  O217  1  0.30743866  0.44256134  1.05743866  1
  O  O218  1  0.30743866  0.94256134  0.55743866  1
  O  O219  1  0.30743866  0.94256134  1.05743866  1
  O  O220  1  0.80743866  0.44256134  0.55743866  1
  O  O221  1  0.80743866  0.44256134  1.05743866  1
  O  O222  1  0.80743866  0.94256134  0.55743866  1
  O  O223  1  0.80743866  0.94256134  1.05743866  1
  O  O224  1  0.31756134  0.31756134  0.43243866  1
  O  O225  1  0.31756134  0.31756134  0.93243866  1
  O  O226  1  0.31756134  0.81756134  0.43243866  1
  O  O227  1  0.31756134  0.81756134  0.93243866  1
  O  O228  1  0.81756134  0.31756134  0.43243866  1
  O  O229  1  0.81756134  0.31756134  0.93243866  1
  O  O230  1  0.81756134  0.81756134  0.43243866  1
  O  O231  1  0.81756134  0.81756134  0.93243866  1
  O  O232  1  0.56756134  0.56756134  0.43243866  1
  O  O233  1  0.56756134  0.56756134  0.93243866  1
  O  O234  1  0.56756134  1.06756134  0.43243866  1
  O  O235  1  0.56756134  1.06756134  0.93243866  1
  O  O236  1  1.06756134  0.56756134  0.43243866  1
  O  O237  1  1.06756134  0.56756134  0.93243866  1
  O  O238  1  1.06756134  1.06756134  0.43243866  1
  O  O239  1  1.06756134  1.06756134  0.93243866  1
  O  O240  1  0.56756134  0.31756134  0.68243866  1
  O  O241  1  0.56756134  0.31756134  1.18243866  1
  O  O242  1  0.56756134  0.81756134  0.68243866  1
  O  O243  1  0.56756134  0.81756134  1.18243866  1
  O  O244  1  1.06756134  0.31756134  0.68243866  1
  O  O245  1  1.06756134  0.31756134  1.18243866  1
  O  O246  1  1.06756134  0.81756134  0.68243866  1
  O  O247  1  1.06756134  0.81756134  1.18243866  1
  O  O248  1  0.31756134  0.56756134  0.68243866  1
  O  O249  1  0.31756134  0.56756134  1.18243866  1
  O  O250  1  0.31756134  1.06756134  0.68243866  1
  O  O251  1  0.31756134  1.06756134  1.18243866  1
  O  O252  1  0.81756134  0.56756134  0.68243866  1
  O  O253  1  0.81756134  0.56756134  1.18243866  1
  O  O254  1  0.81756134  1.06756134  0.68243866  1
  O  O255  1  0.81756134  1.06756134  1.18243866  1
  O  O256  1  0.43243866  0.43243866  0.43243866  1
  O  O257  1  0.43243866  0.43243866  0.93243866  1
  O  O258  1  0.43243866  0.93243866  0.43243866  1
  O  O259  1  0.43243866  0.93243866  0.93243866  1
  O  O260  1  0.93243866  0.43243866  0.43243866  1
  O  O261  1  0.93243866  0.43243866  0.93243866  1
  O  O262  1  0.93243866  0.93243866  0.43243866  1
  O  O263  1  0.93243866  0.93243866  0.93243866  1
  O  O264  1  0.68243866  0.68243866  0.43243866  1
  O  O265  1  0.68243866  0.68243866  0.93243866  1
  O  O266  1  0.68243866  1.18243866  0.43243866  1
  O  O267  1  0.68243866  1.18243866  0.93243866  1
  O  O268  1  1.18243866  0.68243866  0.43243866  1
  O  O269  1  1.18243866  0.68243866  0.93243866  1
  O  O270  1  1.18243866  1.18243866  0.43243866  1
  O  O271  1  1.18243866  1.18243866  0.93243866  1
  O  O272  1  0.68243866  0.43243866  0.68243866  1
  O  O273  1  0.68243866  0.43243866  1.18243866  1
  O  O274  1  0.68243866  0.93243866  0.68243866  1
  O  O275  1  0.68243866  0.93243866  1.18243866  1
  O  O276  1  1.18243866  0.43243866  0.68243866  1
  O  O277  1  1.18243866  0.43243866  1.18243866  1
  O  O278  1  1.18243866  0.93243866  0.68243866  1
  O  O279  1  1.18243866  0.93243866  1.18243866  1
  O  O280  1  0.43243866  0.68243866  0.68243866  1
  O  O281  1  0.43243866  0.68243866  1.18243866  1
  O  O282  1  0.43243866  1.18243866  0.68243866  1
  O  O283  1  0.43243866  1.18243866  1.18243866  1
  O  O284  1  0.93243866  0.68243866  0.68243866  1
  O  O285  1  0.93243866  0.68243866  1.18243866  1
  O  O286  1  0.93243866  1.18243866  0.68243866  1
  O  O287  1  0.93243866  1.18243866  1.18243866  1
  O  O288  1  0.43243866  0.31756134  0.31756134  1
  O  O289  1  0.43243866  0.31756134  0.81756134  1
  O  O290  1  0.43243866  0.81756134  0.31756134  1
  O  O291  1  0.43243866  0.81756134  0.81756134  1
  O  O292  1  0.93243866  0.31756134  0.31756134  1
  O  O293  1  0.93243866  0.31756134  0.81756134  1
  O  O294  1  0.93243866  0.81756134  0.31756134  1
  O  O295  1  0.93243866  0.81756134  0.81756134  1
  O  O296  1  0.68243866  0.56756134  0.31756134  1
  O  O297  1  0.68243866  0.56756134  0.81756134  1
  O  O298  1  0.68243866  1.06756134  0.31756134  1
  O  O299  1  0.68243866  1.06756134  0.81756134  1
  O  O300  1  1.18243866  0.56756134  0.31756134  1
  O  O301  1  1.18243866  0.56756134  0.81756134  1
  O  O302  1  1.18243866  1.06756134  0.31756134  1
  O  O303  1  1.18243866  1.06756134  0.81756134  1
  O  O304  1  0.68243866  0.31756134  0.56756134  1
  O  O305  1  0.68243866  0.31756134  1.06756134  1
  O  O306  1  0.68243866  0.81756134  0.56756134  1
  O  O307  1  0.68243866  0.81756134  1.06756134  1
  O  O308  1  1.18243866  0.31756134  0.56756134  1
  O  O309  1  1.18243866  0.31756134  1.06756134  1
  O  O310  1  1.18243866  0.81756134  0.56756134  1
  O  O311  1  1.18243866  0.81756134  1.06756134  1
  O  O312  1  0.43243866  0.56756134  0.56756134  1
  O  O313  1  0.43243866  0.56756134  1.06756134  1
  O  O314  1  0.43243866  1.06756134  0.56756134  1
  O  O315  1  0.43243866  1.06756134  1.06756134  1
  O  O316  1  0.93243866  0.56756134  0.56756134  1
  O  O317  1  0.93243866  0.56756134  1.06756134  1
  O  O318  1  0.93243866  1.06756134  0.56756134  1
  O  O319  1  0.93243866  1.06756134  1.06756134  1
  O  O320  1  0.19256134  0.19256134  0.19256134  1
  O  O321  1  0.19256134  0.19256134  0.69256134  1
  O  O322  1  0.19256134  0.69256134  0.19256134  1
  O  O323  1  0.19256134  0.69256134  0.69256134  1
  O  O324  1  0.69256134  0.19256134  0.19256134  1
  O  O325  1  0.69256134  0.19256134  0.69256134  1
  O  O326  1  0.69256134  0.69256134  0.19256134  1
  O  O327  1  0.69256134  0.69256134  0.69256134  1
  O  O328  1  0.44256134  0.44256134  0.19256134  1
  O  O329  1  0.44256134  0.44256134  0.69256134  1
  O  O330  1  0.44256134  0.94256134  0.19256134  1
  O  O331  1  0.44256134  0.94256134  0.69256134  1
  O  O332  1  0.94256134  0.44256134  0.19256134  1
  O  O333  1  0.94256134  0.44256134  0.69256134  1
  O  O334  1  0.94256134  0.94256134  0.19256134  1
  O  O335  1  0.94256134  0.94256134  0.69256134  1
  O  O336  1  0.44256134  0.19256134  0.44256134  1
  O  O337  1  0.44256134  0.19256134  0.94256134  1
  O  O338  1  0.44256134  0.69256134  0.44256134  1
  O  O339  1  0.44256134  0.69256134  0.94256134  1
  O  O340  1  0.94256134  0.19256134  0.44256134  1
  O  O341  1  0.94256134  0.19256134  0.94256134  1
  O  O342  1  0.94256134  0.69256134  0.44256134  1
  O  O343  1  0.94256134  0.69256134  0.94256134  1
  O  O344  1  0.19256134  0.44256134  0.44256134  1
  O  O345  1  0.19256134  0.44256134  0.94256134  1
  O  O346  1  0.19256134  0.94256134  0.44256134  1
  O  O347  1  0.19256134  0.94256134  0.94256134  1
  O  O348  1  0.69256134  0.44256134  0.44256134  1
  O  O349  1  0.69256134  0.44256134  0.94256134  1
  O  O350  1  0.69256134  0.94256134  0.44256134  1
  O  O351  1  0.69256134  0.94256134  0.94256134  1
  O  O352  1  0.19256134  0.30743866  0.30743866  1
  O  O353  1  0.19256134  0.30743866  0.80743866  1
  O  O354  1  0.19256134  0.80743866  0.30743866  1
  O  O355  1  0.19256134  0.80743866  0.80743866  1
  O  O356  1  0.69256134  0.30743866  0.30743866  1
  O  O357  1  0.69256134  0.30743866  0.80743866  1
  O  O358  1  0.69256134  0.80743866  0.30743866  1
  O  O359  1  0.69256134  0.80743866  0.80743866  1
  O  O360  1  0.44256134  0.55743866  0.30743866  1
  O  O361  1  0.44256134  0.55743866  0.80743866  1
  O  O362  1  0.44256134  1.05743866  0.30743866  1
  O  O363  1  0.44256134  1.05743866  0.80743866  1
  O  O364  1  0.94256134  0.55743866  0.30743866  1
  O  O365  1  0.94256134  0.55743866  0.80743866  1
  O  O366  1  0.94256134  1.05743866  0.30743866  1
  O  O367  1  0.94256134  1.05743866  0.80743866  1
  O  O368  1  0.44256134  0.30743866  0.55743866  1
  O  O369  1  0.44256134  0.30743866  1.05743866  1
  O  O370  1  0.44256134  0.80743866  0.55743866  1
  O  O371  1  0.44256134  0.80743866  1.05743866  1
  O  O372  1  0.94256134  0.30743866  0.55743866  1
  O  O373  1  0.94256134  0.30743866  1.05743866  1
  O  O374  1  0.94256134  0.80743866  0.55743866  1
  O  O375  1  0.94256134  0.80743866  1.05743866  1
  O  O376  1  0.19256134  0.55743866  0.55743866  1
  O  O377  1  0.19256134  0.55743866  1.05743866  1
  O  O378  1  0.19256134  1.05743866  0.55743866  1
  O  O379  1  0.19256134  1.05743866  1.05743866  1
  O  O380  1  0.69256134  0.55743866  0.55743866  1
  O  O381  1  0.69256134  0.55743866  1.05743866  1
  O  O382  1  0.69256134  1.05743866  0.55743866  1
  O  O383  1  0.69256134  1.05743866  1.05743866  1
  O  O384  1  0.31756134  0.43243866  0.31756134  1
  O  O385  1  0.31756134  0.43243866  0.81756134  1
  O  O386  1  0.31756134  0.93243866  0.31756134  1
  O  O387  1  0.31756134  0.93243866  0.81756134  1
  O  O388  1  0.81756134  0.43243866  0.31756134  1
  O  O389  1  0.81756134  0.43243866  0.81756134  1
  O  O390  1  0.81756134  0.93243866  0.31756134  1
  O  O391  1  0.81756134  0.93243866  0.81756134  1
  O  O392  1  0.56756134  0.68243866  0.31756134  1
  O  O393  1  0.56756134  0.68243866  0.81756134  1
  O  O394  1  0.56756134  1.18243866  0.31756134  1
  O  O395  1  0.56756134  1.18243866  0.81756134  1
  O  O396  1  1.06756134  0.68243866  0.31756134  1
  O  O397  1  1.06756134  0.68243866  0.81756134  1
  O  O398  1  1.06756134  1.18243866  0.31756134  1
  O  O399  1  1.06756134  1.18243866  0.81756134  1
  O  O400  1  0.56756134  0.43243866  0.56756134  1
  O  O401  1  0.56756134  0.43243866  1.06756134  1
  O  O402  1  0.56756134  0.93243866  0.56756134  1
  O  O403  1  0.56756134  0.93243866  1.06756134  1
  O  O404  1  1.06756134  0.43243866  0.56756134  1
  O  O405  1  1.06756134  0.43243866  1.06756134  1
  O  O406  1  1.06756134  0.93243866  0.56756134  1
  O  O407  1  1.06756134  0.93243866  1.06756134  1
  O  O408  1  0.31756134  0.68243866  0.56756134  1
  O  O409  1  0.31756134  0.68243866  1.06756134  1
  O  O410  1  0.31756134  1.18243866  0.56756134  1
  O  O411  1  0.31756134  1.18243866  1.06756134  1
  O  O412  1  0.81756134  0.68243866  0.56756134  1
  O  O413  1  0.81756134  0.68243866  1.06756134  1
  O  O414  1  0.81756134  1.18243866  0.56756134  1
  O  O415  1  0.81756134  1.18243866  1.06756134  1
  O  O416  1  0.30743866  0.30743866  0.19256134  1
  O  O417  1  0.30743866  0.30743866  0.69256134  1
  O  O418  1  0.30743866  0.80743866  0.19256134  1
  O  O419  1  0.30743866  0.80743866  0.69256134  1
  O  O420  1  0.80743866  0.30743866  0.19256134  1
  O  O421  1  0.80743866  0.30743866  0.69256134  1
  O  O422  1  0.80743866  0.80743866  0.19256134  1
  O  O423  1  0.80743866  0.80743866  0.69256134  1
  O  O424  1  0.55743866  0.55743866  0.19256134  1
  O  O425  1  0.55743866  0.55743866  0.69256134  1
  O  O426  1  0.55743866  1.05743866  0.19256134  1
  O  O427  1  0.55743866  1.05743866  0.69256134  1
  O  O428  1  1.05743866  0.55743866  0.19256134  1
  O  O429  1  1.05743866  0.55743866  0.69256134  1
  O  O430  1  1.05743866  1.05743866  0.19256134  1
  O  O431  1  1.05743866  1.05743866  0.69256134  1
  O  O432  1  0.55743866  0.30743866  0.44256134  1
  O  O433  1  0.55743866  0.30743866  0.94256134  1
  O  O434  1  0.55743866  0.80743866  0.44256134  1
  O  O435  1  0.55743866  0.80743866  0.94256134  1
  O  O436  1  1.05743866  0.30743866  0.44256134  1
  O  O437  1  1.05743866  0.30743866  0.94256134  1
  O  O438  1  1.05743866  0.80743866  0.44256134  1
  O  O439  1  1.05743866  0.80743866  0.94256134  1
  O  O440  1  0.30743866  0.55743866  0.44256134  1
  O  O441  1  0.30743866  0.55743866  0.94256134  1
  O  O442  1  0.30743866  1.05743866  0.44256134  1
  O  O443  1  0.30743866  1.05743866  0.94256134  1
  O  O444  1  0.80743866  0.55743866  0.44256134  1
  O  O445  1  0.80743866  0.55743866  0.94256134  1
  O  O446  1  0.80743866  1.05743866  0.44256134  1
  O  O447  1  0.80743866  1.05743866  0.94256134  1
