# generated using pymatgen
data_Ca2Sn3O8
_symmetry_space_group_name_H-M   'P 1'
_cell_length_a   11.32977844
_cell_length_b   12.70127181
_cell_length_c   10.68957267
_cell_angle_alpha   90.00000000
_cell_angle_beta   110.50615363
_cell_angle_gamma   90.00000000
_symmetry_Int_Tables_number   1
_chemical_formula_structural   Ca2Sn3O8
_chemical_formula_sum   'Ca16 Sn24 O64'
_cell_volume   1440.78492212
_cell_formula_units_Z   8
loop_
 _symmetry_equiv_pos_site_id
 _symmetry_equiv_pos_as_xyz
  1  'x, y, z'
loop_
 _atom_site_type_symbol
 _atom_site_label
 _atom_site_symmetry_multiplicity
 _atom_site_fract_x
 _atom_site_fract_y
 _atom_site_fract_z
 _atom_site_occupancy
  Ca  Ca0  1  0.71947247  -0.00000000  0.32665303  1
  Ca  Ca1  1  0.71947247  -0.00000000  0.82665303  1
  Ca  Ca2  1  0.71947247  0.50000000  0.32665303  1
  Ca  Ca3  1  0.71947247  0.50000000  0.82665303  1
  Ca  Ca4  1  1.21947247  0.25000000  0.32665303  1
  Ca  Ca5  1  1.21947247  0.25000000  0.82665303  1
  Ca  Ca6  1  1.21947247  0.75000000  0.32665303  1
  Ca  Ca7  1  1.21947247  0.75000000  0.82665303  1
  Ca  Ca8  1  0.28052753  -0.00000000  0.17334697  1
  Ca  Ca9  1  0.28052753  -0.00000000  0.67334697  1
  Ca  Ca10  1  0.28052753  0.50000000  0.17334697  1
  Ca  Ca11  1  0.28052753  0.50000000  0.67334697  1
  Ca  Ca12  1  0.78052753  0.25000000  0.17334697  1
  Ca  Ca13  1  0.78052753  0.25000000  0.67334697  1
  Ca  Ca14  1  0.78052753  0.75000000  0.17334697  1
  Ca  Ca15  1  0.78052753  0.75000000  0.67334697  1
  Sn  Sn16  1  0.00000000  -0.00000000  0.25000000  1
  Sn  Sn17  1  0.00000000  -0.00000000  0.75000000  1
  Sn  Sn18  1  0.00000000  0.50000000  0.25000000  1
  Sn  Sn19  1  0.00000000  0.50000000  0.75000000  1
  Sn  Sn20  1  0.50000000  0.25000000  0.25000000  1
  Sn  Sn21  1  0.50000000  0.25000000  0.75000000  1
  Sn  Sn22  1  0.50000000  0.75000000  0.25000000  1
  Sn  Sn23  1  0.50000000  0.75000000  0.75000000  1
  Sn  Sn24  1  0.50000000  0.11910518  0.00000000  1
  Sn  Sn25  1  0.50000000  0.11910518  0.50000000  1
  Sn  Sn26  1  0.50000000  0.61910518  0.00000000  1
  Sn  Sn27  1  0.50000000  0.61910518  0.50000000  1
  Sn  Sn28  1  1.00000000  0.36910518  0.00000000  1
  Sn  Sn29  1  1.00000000  0.36910518  0.50000000  1
  Sn  Sn30  1  1.00000000  0.86910518  0.00000000  1
  Sn  Sn31  1  1.00000000  0.86910518  0.50000000  1
  Sn  Sn32  1  0.50000000  -0.11910518  0.00000000  1
  Sn  Sn33  1  0.50000000  -0.11910518  0.50000000  1
  Sn  Sn34  1  0.50000000  0.38089482  0.00000000  1
  Sn  Sn35  1  0.50000000  0.38089482  0.50000000  1
  Sn  Sn36  1  1.00000000  0.13089482  0.00000000  1
  Sn  Sn37  1  1.00000000  0.13089482  0.50000000  1
  Sn  Sn38  1  1.00000000  0.63089482  0.00000000  1
  Sn  Sn39  1  1.00000000  0.63089482  0.50000000  1
  O  O40  1  0.39093357  -0.00000000  0.03038470  1
  O  O41  1  0.39093357  -0.00000000  0.53038470  1
  O  O42  1  0.39093357  0.50000000  0.03038470  1
  O  O43  1  0.39093357  0.50000000  0.53038470  1
  O  O44  1  0.89093357  0.25000000  0.03038470  1
  O  O45  1  0.89093357  0.25000000  0.53038470  1
  O  O46  1  0.89093357  0.75000000  0.03038470  1
  O  O47  1  0.89093357  0.75000000  0.53038470  1
  O  O48  1  0.60906643  -0.00000000  0.46961530  1
  O  O49  1  0.60906643  -0.00000000  0.96961530  1
  O  O50  1  0.60906643  0.50000000  0.46961530  1
  O  O51  1  0.60906643  0.50000000  0.96961530  1
  O  O52  1  1.10906643  0.25000000  0.46961530  1
  O  O53  1  1.10906643  0.25000000  0.96961530  1
  O  O54  1  1.10906643  0.75000000  0.46961530  1
  O  O55  1  1.10906643  0.75000000  0.96961530  1
  O  O56  1  0.89735090  -0.00000000  0.04276031  1
  O  O57  1  0.89735090  -0.00000000  0.54276031  1
  O  O58  1  0.89735090  0.50000000  0.04276031  1
  O  O59  1  0.89735090  0.50000000  0.54276031  1
  O  O60  1  1.39735090  0.25000000  0.04276031  1
  O  O61  1  1.39735090  0.25000000  0.54276031  1
  O  O62  1  1.39735090  0.75000000  0.04276031  1
  O  O63  1  1.39735090  0.75000000  0.54276031  1
  O  O64  1  0.10264910  -0.00000000  0.45723969  1
  O  O65  1  0.10264910  -0.00000000  0.95723969  1
  O  O66  1  0.10264910  0.50000000  0.45723969  1
  O  O67  1  0.10264910  0.50000000  0.95723969  1
  O  O68  1  0.60264910  0.25000000  0.45723969  1
  O  O69  1  0.60264910  0.25000000  0.95723969  1
  O  O70  1  0.60264910  0.75000000  0.45723969  1
  O  O71  1  0.60264910  0.75000000  0.95723969  1
  O  O72  1  0.61067987  -0.13948549  0.19914060  1
  O  O73  1  0.61067987  -0.13948549  0.69914060  1
  O  O74  1  0.61067987  0.36051451  0.19914060  1
  O  O75  1  0.61067987  0.36051451  0.69914060  1
  O  O76  1  1.11067987  0.11051451  0.19914060  1
  O  O77  1  1.11067987  0.11051451  0.69914060  1
  O  O78  1  1.11067987  0.61051451  0.19914060  1
  O  O79  1  1.11067987  0.61051451  0.69914060  1
  O  O80  1  0.61067987  0.13948549  0.19914060  1
  O  O81  1  0.61067987  0.13948549  0.69914060  1
  O  O82  1  0.61067987  0.63948549  0.19914060  1
  O  O83  1  0.61067987  0.63948549  0.69914060  1
  O  O84  1  1.11067987  0.38948549  0.19914060  1
  O  O85  1  1.11067987  0.38948549  0.69914060  1
  O  O86  1  1.11067987  0.88948549  0.19914060  1
  O  O87  1  1.11067987  0.88948549  0.69914060  1
  O  O88  1  0.38932013  -0.13948549  0.30085940  1
  O  O89  1  0.38932013  -0.13948549  0.80085940  1
  O  O90  1  0.38932013  0.36051451  0.30085940  1
  O  O91  1  0.38932013  0.36051451  0.80085940  1
  O  O92  1  0.88932013  0.11051451  0.30085940  1
  O  O93  1  0.88932013  0.11051451  0.80085940  1
  O  O94  1  0.88932013  0.61051451  0.30085940  1
  O  O95  1  0.88932013  0.61051451  0.80085940  1
  O  O96  1  0.38932013  0.13948549  0.30085940  1
  O  O97  1  0.38932013  0.13948549  0.80085940  1
  O  O98  1  0.38932013  0.63948549  0.30085940  1
  O  O99  1  0.38932013  0.63948549  0.80085940  1
  O  O100  1  0.88932013  0.38948549  0.30085940  1
  O  O101  1  0.88932013  0.38948549  0.80085940  1
  O  O102  1  0.88932013  0.88948549  0.30085940  1
  O  O103  1  0.88932013  0.88948549  0.80085940  1
