# generated using pymatgen
data_RbYO2
_symmetry_space_group_name_H-M   'P 1'
_cell_length_a   20.77225882
_cell_length_b   20.77225882
_cell_length_c   19.33970086
_cell_angle_alpha   90.00000000
_cell_angle_beta   90.00000000
_cell_angle_gamma   120.00000000
_symmetry_Int_Tables_number   1
_chemical_formula_structural   RbYO2
_chemical_formula_sum   'Rb108 Y108 O216'
_cell_volume   7226.82992512
_cell_formula_units_Z   108
loop_
 _symmetry_equiv_pos_site_id
 _symmetry_equiv_pos_as_xyz
  1  'x, y, z'
loop_
 _atom_site_type_symbol
 _atom_site_label
 _atom_site_symmetry_multiplicity
 _atom_site_fract_x
 _atom_site_fract_y
 _atom_site_fract_z
 _atom_site_occupancy
  Rb  Rb0  1  -0.00000000  -0.00000000  -0.00000000  1
  Rb  Rb1  1  0.00000000  0.16666667  -0.00000000  1
  Rb  Rb2  1  0.00000000  0.33333333  -0.00000000  1
  Rb  Rb3  1  0.00000000  0.50000000  -0.00000000  1
  Rb  Rb4  1  0.00000000  0.66666667  -0.00000000  1
  Rb  Rb5  1  0.00000000  0.83333333  -0.00000000  1
  Rb  Rb6  1  0.16666667  -0.00000000  -0.00000000  1
  Rb  Rb7  1  0.16666667  0.16666667  -0.00000000  1
  Rb  Rb8  1  0.16666667  0.33333333  -0.00000000  1
  Rb  Rb9  1  0.16666667  0.50000000  -0.00000000  1
  Rb  Rb10  1  0.16666667  0.66666667  -0.00000000  1
  Rb  Rb11  1  0.16666667  0.83333333  -0.00000000  1
  Rb  Rb12  1  0.33333333  -0.00000000  -0.00000000  1
  Rb  Rb13  1  0.33333333  0.16666667  -0.00000000  1
  Rb  Rb14  1  0.33333333  0.33333333  -0.00000000  1
  Rb  Rb15  1  0.33333333  0.50000000  -0.00000000  1
  Rb  Rb16  1  0.33333333  0.66666667  -0.00000000  1
  Rb  Rb17  1  0.33333333  0.83333333  -0.00000000  1
  Rb  Rb18  1  0.50000000  -0.00000000  -0.00000000  1
  Rb  Rb19  1  0.50000000  0.16666667  -0.00000000  1
  Rb  Rb20  1  0.50000000  0.33333333  -0.00000000  1
  Rb  Rb21  1  0.50000000  0.50000000  -0.00000000  1
  Rb  Rb22  1  0.50000000  0.66666667  -0.00000000  1
  Rb  Rb23  1  0.50000000  0.83333333  -0.00000000  1
  Rb  Rb24  1  0.66666667  -0.00000000  -0.00000000  1
  Rb  Rb25  1  0.66666667  0.16666667  -0.00000000  1
  Rb  Rb26  1  0.66666667  0.33333333  -0.00000000  1
  Rb  Rb27  1  0.66666667  0.50000000  -0.00000000  1
  Rb  Rb28  1  0.66666667  0.66666667  -0.00000000  1
  Rb  Rb29  1  0.66666667  0.83333333  -0.00000000  1
  Rb  Rb30  1  0.83333333  -0.00000000  -0.00000000  1
  Rb  Rb31  1  0.83333333  0.16666667  -0.00000000  1
  Rb  Rb32  1  0.83333333  0.33333333  -0.00000000  1
  Rb  Rb33  1  0.83333333  0.50000000  -0.00000000  1
  Rb  Rb34  1  0.83333333  0.66666667  -0.00000000  1
  Rb  Rb35  1  0.83333333  0.83333333  -0.00000000  1
  Rb  Rb36  1  0.11111111  0.05555556  0.33333333  1
  Rb  Rb37  1  0.11111111  0.22222222  0.33333333  1
  Rb  Rb38  1  0.11111111  0.38888889  0.33333333  1
  Rb  Rb39  1  0.11111111  0.55555556  0.33333333  1
  Rb  Rb40  1  0.11111111  0.72222222  0.33333333  1
  Rb  Rb41  1  0.11111111  0.88888889  0.33333333  1
  Rb  Rb42  1  0.27777778  0.05555556  0.33333333  1
  Rb  Rb43  1  0.27777778  0.22222222  0.33333333  1
  Rb  Rb44  1  0.27777778  0.38888889  0.33333333  1
  Rb  Rb45  1  0.27777778  0.55555556  0.33333333  1
  Rb  Rb46  1  0.27777778  0.72222222  0.33333333  1
  Rb  Rb47  1  0.27777778  0.88888889  0.33333333  1
  Rb  Rb48  1  0.44444444  0.05555556  0.33333333  1
  Rb  Rb49  1  0.44444444  0.22222222  0.33333333  1
  Rb  Rb50  1  0.44444444  0.38888889  0.33333333  1
  Rb  Rb51  1  0.44444444  0.55555556  0.33333333  1
  Rb  Rb52  1  0.44444444  0.72222222  0.33333333  1
  Rb  Rb53  1  0.44444444  0.88888889  0.33333333  1
  Rb  Rb54  1  0.61111111  0.05555556  0.33333333  1
  Rb  Rb55  1  0.61111111  0.22222222  0.33333333  1
  Rb  Rb56  1  0.61111111  0.38888889  0.33333333  1
  Rb  Rb57  1  0.61111111  0.55555556  0.33333333  1
  Rb  Rb58  1  0.61111111  0.72222222  0.33333333  1
  Rb  Rb59  1  0.61111111  0.88888889  0.33333333  1
  Rb  Rb60  1  0.77777778  0.05555556  0.33333333  1
  Rb  Rb61  1  0.77777778  0.22222222  0.33333333  1
  Rb  Rb62  1  0.77777778  0.38888889  0.33333333  1
  Rb  Rb63  1  0.77777778  0.55555556  0.33333333  1
  Rb  Rb64  1  0.77777778  0.72222222  0.33333333  1
  Rb  Rb65  1  0.77777778  0.88888889  0.33333333  1
  Rb  Rb66  1  0.94444444  0.05555556  0.33333333  1
  Rb  Rb67  1  0.94444444  0.22222222  0.33333333  1
  Rb  Rb68  1  0.94444444  0.38888889  0.33333333  1
  Rb  Rb69  1  0.94444444  0.55555556  0.33333333  1
  Rb  Rb70  1  0.94444444  0.72222222  0.33333333  1
  Rb  Rb71  1  0.94444444  0.88888889  0.33333333  1
  Rb  Rb72  1  0.05555556  0.11111111  0.66666667  1
  Rb  Rb73  1  0.05555556  0.27777778  0.66666667  1
  Rb  Rb74  1  0.05555556  0.44444444  0.66666667  1
  Rb  Rb75  1  0.05555556  0.61111111  0.66666667  1
  Rb  Rb76  1  0.05555556  0.77777778  0.66666667  1
  Rb  Rb77  1  0.05555556  0.94444444  0.66666667  1
  Rb  Rb78  1  0.22222222  0.11111111  0.66666667  1
  Rb  Rb79  1  0.22222222  0.27777778  0.66666667  1
  Rb  Rb80  1  0.22222222  0.44444444  0.66666667  1
  Rb  Rb81  1  0.22222222  0.61111111  0.66666667  1
  Rb  Rb82  1  0.22222222  0.77777778  0.66666667  1
  Rb  Rb83  1  0.22222222  0.94444444  0.66666667  1
  Rb  Rb84  1  0.38888889  0.11111111  0.66666667  1
  Rb  Rb85  1  0.38888889  0.27777778  0.66666667  1
  Rb  Rb86  1  0.38888889  0.44444444  0.66666667  1
  Rb  Rb87  1  0.38888889  0.61111111  0.66666667  1
  Rb  Rb88  1  0.38888889  0.77777778  0.66666667  1
  Rb  Rb89  1  0.38888889  0.94444444  0.66666667  1
  Rb  Rb90  1  0.55555556  0.11111111  0.66666667  1
  Rb  Rb91  1  0.55555556  0.27777778  0.66666667  1
  Rb  Rb92  1  0.55555556  0.44444444  0.66666667  1
  Rb  Rb93  1  0.55555556  0.61111111  0.66666667  1
  Rb  Rb94  1  0.55555556  0.77777778  0.66666667  1
  Rb  Rb95  1  0.55555556  0.94444444  0.66666667  1
  Rb  Rb96  1  0.72222222  0.11111111  0.66666667  1
  Rb  Rb97  1  0.72222222  0.27777778  0.66666667  1
  Rb  Rb98  1  0.72222222  0.44444444  0.66666667  1
  Rb  Rb99  1  0.72222222  0.61111111  0.66666667  1
  Rb  Rb100  1  0.72222222  0.77777778  0.66666667  1
  Rb  Rb101  1  0.72222222  0.94444444  0.66666667  1
  Rb  Rb102  1  0.88888889  0.11111111  0.66666667  1
  Rb  Rb103  1  0.88888889  0.27777778  0.66666667  1
  Rb  Rb104  1  0.88888889  0.44444444  0.66666667  1
  Rb  Rb105  1  0.88888889  0.61111111  0.66666667  1
  Rb  Rb106  1  0.88888889  0.77777778  0.66666667  1
  Rb  Rb107  1  0.88888889  0.94444444  0.66666667  1
  Y  Y108  1  -0.00000000  -0.00000000  0.50000000  1
  Y  Y109  1  -0.00000000  0.16666667  0.50000000  1
  Y  Y110  1  -0.00000000  0.33333333  0.50000000  1
  Y  Y111  1  -0.00000000  0.50000000  0.50000000  1
  Y  Y112  1  -0.00000000  0.66666667  0.50000000  1
  Y  Y113  1  0.00000000  0.83333333  0.50000000  1
  Y  Y114  1  0.16666667  -0.00000000  0.50000000  1
  Y  Y115  1  0.16666667  0.16666667  0.50000000  1
  Y  Y116  1  0.16666667  0.33333333  0.50000000  1
  Y  Y117  1  0.16666667  0.50000000  0.50000000  1
  Y  Y118  1  0.16666667  0.66666667  0.50000000  1
  Y  Y119  1  0.16666667  0.83333333  0.50000000  1
  Y  Y120  1  0.33333333  -0.00000000  0.50000000  1
  Y  Y121  1  0.33333333  0.16666667  0.50000000  1
  Y  Y122  1  0.33333333  0.33333333  0.50000000  1
  Y  Y123  1  0.33333333  0.50000000  0.50000000  1
  Y  Y124  1  0.33333333  0.66666667  0.50000000  1
  Y  Y125  1  0.33333333  0.83333333  0.50000000  1
  Y  Y126  1  0.50000000  -0.00000000  0.50000000  1
  Y  Y127  1  0.50000000  0.16666667  0.50000000  1
  Y  Y128  1  0.50000000  0.33333333  0.50000000  1
  Y  Y129  1  0.50000000  0.50000000  0.50000000  1
  Y  Y130  1  0.50000000  0.66666667  0.50000000  1
  Y  Y131  1  0.50000000  0.83333333  0.50000000  1
  Y  Y132  1  0.66666667  -0.00000000  0.50000000  1
  Y  Y133  1  0.66666667  0.16666667  0.50000000  1
  Y  Y134  1  0.66666667  0.33333333  0.50000000  1
  Y  Y135  1  0.66666667  0.50000000  0.50000000  1
  Y  Y136  1  0.66666667  0.66666667  0.50000000  1
  Y  Y137  1  0.66666667  0.83333333  0.50000000  1
  Y  Y138  1  0.83333333  -0.00000000  0.50000000  1
  Y  Y139  1  0.83333333  0.16666667  0.50000000  1
  Y  Y140  1  0.83333333  0.33333333  0.50000000  1
  Y  Y141  1  0.83333333  0.50000000  0.50000000  1
  Y  Y142  1  0.83333333  0.66666667  0.50000000  1
  Y  Y143  1  0.83333333  0.83333333  0.50000000  1
  Y  Y144  1  0.11111111  0.05555556  0.83333333  1
  Y  Y145  1  0.11111111  0.22222222  0.83333333  1
  Y  Y146  1  0.11111111  0.38888889  0.83333333  1
  Y  Y147  1  0.11111111  0.55555556  0.83333333  1
  Y  Y148  1  0.11111111  0.72222222  0.83333333  1
  Y  Y149  1  0.11111111  0.88888889  0.83333333  1
  Y  Y150  1  0.27777778  0.05555556  0.83333333  1
  Y  Y151  1  0.27777778  0.22222222  0.83333333  1
  Y  Y152  1  0.27777778  0.38888889  0.83333333  1
  Y  Y153  1  0.27777778  0.55555556  0.83333333  1
  Y  Y154  1  0.27777778  0.72222222  0.83333333  1
  Y  Y155  1  0.27777778  0.88888889  0.83333333  1
  Y  Y156  1  0.44444444  0.05555556  0.83333333  1
  Y  Y157  1  0.44444444  0.22222222  0.83333333  1
  Y  Y158  1  0.44444444  0.38888889  0.83333333  1
  Y  Y159  1  0.44444444  0.55555556  0.83333333  1
  Y  Y160  1  0.44444444  0.72222222  0.83333333  1
  Y  Y161  1  0.44444444  0.88888889  0.83333333  1
  Y  Y162  1  0.61111111  0.05555556  0.83333333  1
  Y  Y163  1  0.61111111  0.22222222  0.83333333  1
  Y  Y164  1  0.61111111  0.38888889  0.83333333  1
  Y  Y165  1  0.61111111  0.55555556  0.83333333  1
  Y  Y166  1  0.61111111  0.72222222  0.83333333  1
  Y  Y167  1  0.61111111  0.88888889  0.83333333  1
  Y  Y168  1  0.77777778  0.05555556  0.83333333  1
  Y  Y169  1  0.77777778  0.22222222  0.83333333  1
  Y  Y170  1  0.77777778  0.38888889  0.83333333  1
  Y  Y171  1  0.77777778  0.55555556  0.83333333  1
  Y  Y172  1  0.77777778  0.72222222  0.83333333  1
  Y  Y173  1  0.77777778  0.88888889  0.83333333  1
  Y  Y174  1  0.94444444  0.05555556  0.83333333  1
  Y  Y175  1  0.94444444  0.22222222  0.83333333  1
  Y  Y176  1  0.94444444  0.38888889  0.83333333  1
  Y  Y177  1  0.94444444  0.55555556  0.83333333  1
  Y  Y178  1  0.94444444  0.72222222  0.83333333  1
  Y  Y179  1  0.94444444  0.88888889  0.83333333  1
  Y  Y180  1  0.05555556  0.11111111  1.16666667  1
  Y  Y181  1  0.05555556  0.27777778  1.16666667  1
  Y  Y182  1  0.05555556  0.44444444  1.16666667  1
  Y  Y183  1  0.05555556  0.61111111  1.16666667  1
  Y  Y184  1  0.05555556  0.77777778  1.16666667  1
  Y  Y185  1  0.05555556  0.94444444  1.16666667  1
  Y  Y186  1  0.22222222  0.11111111  1.16666667  1
  Y  Y187  1  0.22222222  0.27777778  1.16666667  1
  Y  Y188  1  0.22222222  0.44444444  1.16666667  1
  Y  Y189  1  0.22222222  0.61111111  1.16666667  1
  Y  Y190  1  0.22222222  0.77777778  1.16666667  1
  Y  Y191  1  0.22222222  0.94444444  1.16666667  1
  Y  Y192  1  0.38888889  0.11111111  1.16666667  1
  Y  Y193  1  0.38888889  0.27777778  1.16666667  1
  Y  Y194  1  0.38888889  0.44444444  1.16666667  1
  Y  Y195  1  0.38888889  0.61111111  1.16666667  1
  Y  Y196  1  0.38888889  0.77777778  1.16666667  1
  Y  Y197  1  0.38888889  0.94444444  1.16666667  1
  Y  Y198  1  0.55555556  0.11111111  1.16666667  1
  Y  Y199  1  0.55555556  0.27777778  1.16666667  1
  Y  Y200  1  0.55555556  0.44444444  1.16666667  1
  Y  Y201  1  0.55555556  0.61111111  1.16666667  1
  Y  Y202  1  0.55555556  0.77777778  1.16666667  1
  Y  Y203  1  0.55555556  0.94444444  1.16666667  1
  Y  Y204  1  0.72222222  0.11111111  1.16666667  1
  Y  Y205  1  0.72222222  0.27777778  1.16666667  1
  Y  Y206  1  0.72222222  0.44444444  1.16666667  1
  Y  Y207  1  0.72222222  0.61111111  1.16666667  1
  Y  Y208  1  0.72222222  0.77777778  1.16666667  1
  Y  Y209  1  0.72222222  0.94444444  1.16666667  1
  Y  Y210  1  0.88888889  0.11111111  1.16666667  1
  Y  Y211  1  0.88888889  0.27777778  1.16666667  1
  Y  Y212  1  0.88888889  0.44444444  1.16666667  1
  Y  Y213  1  0.88888889  0.61111111  1.16666667  1
  Y  Y214  1  0.88888889  0.77777778  1.16666667  1
  Y  Y215  1  0.88888889  0.94444444  1.16666667  1
  O  O216  1  0.00000000  -0.00000000  0.22544877  1
  O  O217  1  0.00000000  0.16666667  0.22544877  1
  O  O218  1  0.00000000  0.33333333  0.22544877  1
  O  O219  1  0.00000000  0.50000000  0.22544877  1
  O  O220  1  0.00000000  0.66666667  0.22544877  1
  O  O221  1  0.00000000  0.83333333  0.22544877  1
  O  O222  1  0.16666667  -0.00000000  0.22544877  1
  O  O223  1  0.16666667  0.16666667  0.22544877  1
  O  O224  1  0.16666667  0.33333333  0.22544877  1
  O  O225  1  0.16666667  0.50000000  0.22544877  1
  O  O226  1  0.16666667  0.66666667  0.22544877  1
  O  O227  1  0.16666667  0.83333333  0.22544877  1
  O  O228  1  0.33333333  -0.00000000  0.22544877  1
  O  O229  1  0.33333333  0.16666667  0.22544877  1
  O  O230  1  0.33333333  0.33333333  0.22544877  1
  O  O231  1  0.33333333  0.50000000  0.22544877  1
  O  O232  1  0.33333333  0.66666667  0.22544877  1
  O  O233  1  0.33333333  0.83333333  0.22544877  1
  O  O234  1  0.50000000  -0.00000000  0.22544877  1
  O  O235  1  0.50000000  0.16666667  0.22544877  1
  O  O236  1  0.50000000  0.33333333  0.22544877  1
  O  O237  1  0.50000000  0.50000000  0.22544877  1
  O  O238  1  0.50000000  0.66666667  0.22544877  1
  O  O239  1  0.50000000  0.83333333  0.22544877  1
  O  O240  1  0.66666667  -0.00000000  0.22544877  1
  O  O241  1  0.66666667  0.16666667  0.22544877  1
  O  O242  1  0.66666667  0.33333333  0.22544877  1
  O  O243  1  0.66666667  0.50000000  0.22544877  1
  O  O244  1  0.66666667  0.66666667  0.22544877  1
  O  O245  1  0.66666667  0.83333333  0.22544877  1
  O  O246  1  0.83333333  -0.00000000  0.22544877  1
  O  O247  1  0.83333333  0.16666667  0.22544877  1
  O  O248  1  0.83333333  0.33333333  0.22544877  1
  O  O249  1  0.83333333  0.50000000  0.22544877  1
  O  O250  1  0.83333333  0.66666667  0.22544877  1
  O  O251  1  0.83333333  0.83333333  0.22544877  1
  O  O252  1  0.11111111  0.05555556  0.55878211  1
  O  O253  1  0.11111111  0.22222222  0.55878211  1
  O  O254  1  0.11111111  0.38888889  0.55878211  1
  O  O255  1  0.11111111  0.55555556  0.55878211  1
  O  O256  1  0.11111111  0.72222222  0.55878211  1
  O  O257  1  0.11111111  0.88888889  0.55878211  1
  O  O258  1  0.27777778  0.05555556  0.55878211  1
  O  O259  1  0.27777778  0.22222222  0.55878211  1
  O  O260  1  0.27777778  0.38888889  0.55878211  1
  O  O261  1  0.27777778  0.55555556  0.55878211  1
  O  O262  1  0.27777778  0.72222222  0.55878211  1
  O  O263  1  0.27777778  0.88888889  0.55878211  1
  O  O264  1  0.44444444  0.05555556  0.55878211  1
  O  O265  1  0.44444444  0.22222222  0.55878211  1
  O  O266  1  0.44444444  0.38888889  0.55878211  1
  O  O267  1  0.44444444  0.55555556  0.55878211  1
  O  O268  1  0.44444444  0.72222222  0.55878211  1
  O  O269  1  0.44444444  0.88888889  0.55878211  1
  O  O270  1  0.61111111  0.05555556  0.55878211  1
  O  O271  1  0.61111111  0.22222222  0.55878211  1
  O  O272  1  0.61111111  0.38888889  0.55878211  1
  O  O273  1  0.61111111  0.55555556  0.55878211  1
  O  O274  1  0.61111111  0.72222222  0.55878211  1
  O  O275  1  0.61111111  0.88888889  0.55878211  1
  O  O276  1  0.77777778  0.05555556  0.55878211  1
  O  O277  1  0.77777778  0.22222222  0.55878211  1
  O  O278  1  0.77777778  0.38888889  0.55878211  1
  O  O279  1  0.77777778  0.55555556  0.55878211  1
  O  O280  1  0.77777778  0.72222222  0.55878211  1
  O  O281  1  0.77777778  0.88888889  0.55878211  1
  O  O282  1  0.94444444  0.05555556  0.55878211  1
  O  O283  1  0.94444444  0.22222222  0.55878211  1
  O  O284  1  0.94444444  0.38888889  0.55878211  1
  O  O285  1  0.94444444  0.55555556  0.55878211  1
  O  O286  1  0.94444444  0.72222222  0.55878211  1
  O  O287  1  0.94444444  0.88888889  0.55878211  1
  O  O288  1  0.05555556  0.11111111  0.89211544  1
  O  O289  1  0.05555556  0.27777778  0.89211544  1
  O  O290  1  0.05555556  0.44444444  0.89211544  1
  O  O291  1  0.05555556  0.61111111  0.89211544  1
  O  O292  1  0.05555556  0.77777778  0.89211544  1
  O  O293  1  0.05555556  0.94444444  0.89211544  1
  O  O294  1  0.22222222  0.11111111  0.89211544  1
  O  O295  1  0.22222222  0.27777778  0.89211544  1
  O  O296  1  0.22222222  0.44444444  0.89211544  1
  O  O297  1  0.22222222  0.61111111  0.89211544  1
  O  O298  1  0.22222222  0.77777778  0.89211544  1
  O  O299  1  0.22222222  0.94444444  0.89211544  1
  O  O300  1  0.38888889  0.11111111  0.89211544  1
  O  O301  1  0.38888889  0.27777778  0.89211544  1
  O  O302  1  0.38888889  0.44444444  0.89211544  1
  O  O303  1  0.38888889  0.61111111  0.89211544  1
  O  O304  1  0.38888889  0.77777778  0.89211544  1
  O  O305  1  0.38888889  0.94444444  0.89211544  1
  O  O306  1  0.55555556  0.11111111  0.89211544  1
  O  O307  1  0.55555556  0.27777778  0.89211544  1
  O  O308  1  0.55555556  0.44444444  0.89211544  1
  O  O309  1  0.55555556  0.61111111  0.89211544  1
  O  O310  1  0.55555556  0.77777778  0.89211544  1
  O  O311  1  0.55555556  0.94444444  0.89211544  1
  O  O312  1  0.72222222  0.11111111  0.89211544  1
  O  O313  1  0.72222222  0.27777778  0.89211544  1
  O  O314  1  0.72222222  0.44444444  0.89211544  1
  O  O315  1  0.72222222  0.61111111  0.89211544  1
  O  O316  1  0.72222222  0.77777778  0.89211544  1
  O  O317  1  0.72222222  0.94444444  0.89211544  1
  O  O318  1  0.88888889  0.11111111  0.89211544  1
  O  O319  1  0.88888889  0.27777778  0.89211544  1
  O  O320  1  0.88888889  0.44444444  0.89211544  1
  O  O321  1  0.88888889  0.61111111  0.89211544  1
  O  O322  1  0.88888889  0.77777778  0.89211544  1
  O  O323  1  0.88888889  0.94444444  0.89211544  1
  O  O324  1  -0.00000000  -0.00000000  0.77455123  1
  O  O325  1  -0.00000000  0.16666667  0.77455123  1
  O  O326  1  0.00000000  0.33333333  0.77455123  1
  O  O327  1  0.00000000  0.50000000  0.77455123  1
  O  O328  1  0.00000000  0.66666667  0.77455123  1
  O  O329  1  0.00000000  0.83333333  0.77455123  1
  O  O330  1  0.16666667  -0.00000000  0.77455123  1
  O  O331  1  0.16666667  0.16666667  0.77455123  1
  O  O332  1  0.16666667  0.33333333  0.77455123  1
  O  O333  1  0.16666667  0.50000000  0.77455123  1
  O  O334  1  0.16666667  0.66666667  0.77455123  1
  O  O335  1  0.16666667  0.83333333  0.77455123  1
  O  O336  1  0.33333333  -0.00000000  0.77455123  1
  O  O337  1  0.33333333  0.16666667  0.77455123  1
  O  O338  1  0.33333333  0.33333333  0.77455123  1
  O  O339  1  0.33333333  0.50000000  0.77455123  1
  O  O340  1  0.33333333  0.66666667  0.77455123  1
  O  O341  1  0.33333333  0.83333333  0.77455123  1
  O  O342  1  0.50000000  -0.00000000  0.77455123  1
  O  O343  1  0.50000000  0.16666667  0.77455123  1
  O  O344  1  0.50000000  0.33333333  0.77455123  1
  O  O345  1  0.50000000  0.50000000  0.77455123  1
  O  O346  1  0.50000000  0.66666667  0.77455123  1
  O  O347  1  0.50000000  0.83333333  0.77455123  1
  O  O348  1  0.66666667  -0.00000000  0.77455123  1
  O  O349  1  0.66666667  0.16666667  0.77455123  1
  O  O350  1  0.66666667  0.33333333  0.77455123  1
  O  O351  1  0.66666667  0.50000000  0.77455123  1
  O  O352  1  0.66666667  0.66666667  0.77455123  1
  O  O353  1  0.66666667  0.83333333  0.77455123  1
  O  O354  1  0.83333333  -0.00000000  0.77455123  1
  O  O355  1  0.83333333  0.16666667  0.77455123  1
  O  O356  1  0.83333333  0.33333333  0.77455123  1
  O  O357  1  0.83333333  0.50000000  0.77455123  1
  O  O358  1  0.83333333  0.66666667  0.77455123  1
  O  O359  1  0.83333333  0.83333333  0.77455123  1
  O  O360  1  0.11111111  0.05555556  1.10788456  1
  O  O361  1  0.11111111  0.22222222  1.10788456  1
  O  O362  1  0.11111111  0.38888889  1.10788456  1
  O  O363  1  0.11111111  0.55555556  1.10788456  1
  O  O364  1  0.11111111  0.72222222  1.10788456  1
  O  O365  1  0.11111111  0.88888889  1.10788456  1
  O  O366  1  0.27777778  0.05555556  1.10788456  1
  O  O367  1  0.27777778  0.22222222  1.10788456  1
  O  O368  1  0.27777778  0.38888889  1.10788456  1
  O  O369  1  0.27777778  0.55555556  1.10788456  1
  O  O370  1  0.27777778  0.72222222  1.10788456  1
  O  O371  1  0.27777778  0.88888889  1.10788456  1
  O  O372  1  0.44444444  0.05555556  1.10788456  1
  O  O373  1  0.44444444  0.22222222  1.10788456  1
  O  O374  1  0.44444444  0.38888889  1.10788456  1
  O  O375  1  0.44444444  0.55555556  1.10788456  1
  O  O376  1  0.44444444  0.72222222  1.10788456  1
  O  O377  1  0.44444444  0.88888889  1.10788456  1
  O  O378  1  0.61111111  0.05555556  1.10788456  1
  O  O379  1  0.61111111  0.22222222  1.10788456  1
  O  O380  1  0.61111111  0.38888889  1.10788456  1
  O  O381  1  0.61111111  0.55555556  1.10788456  1
  O  O382  1  0.61111111  0.72222222  1.10788456  1
  O  O383  1  0.61111111  0.88888889  1.10788456  1
  O  O384  1  0.77777778  0.05555556  1.10788456  1
  O  O385  1  0.77777778  0.22222222  1.10788456  1
  O  O386  1  0.77777778  0.38888889  1.10788456  1
  O  O387  1  0.77777778  0.55555556  1.10788456  1
  O  O388  1  0.77777778  0.72222222  1.10788456  1
  O  O389  1  0.77777778  0.88888889  1.10788456  1
  O  O390  1  0.94444444  0.05555556  1.10788456  1
  O  O391  1  0.94444444  0.22222222  1.10788456  1
  O  O392  1  0.94444444  0.38888889  1.10788456  1
  O  O393  1  0.94444444  0.55555556  1.10788456  1
  O  O394  1  0.94444444  0.72222222  1.10788456  1
  O  O395  1  0.94444444  0.88888889  1.10788456  1
  O  O396  1  0.05555556  0.11111111  1.44121789  1
  O  O397  1  0.05555556  0.27777778  1.44121789  1
  O  O398  1  0.05555556  0.44444444  1.44121789  1
  O  O399  1  0.05555556  0.61111111  1.44121789  1
  O  O400  1  0.05555556  0.77777778  1.44121789  1
  O  O401  1  0.05555556  0.94444444  1.44121789  1
  O  O402  1  0.22222222  0.11111111  1.44121789  1
  O  O403  1  0.22222222  0.27777778  1.44121789  1
  O  O404  1  0.22222222  0.44444444  1.44121789  1
  O  O405  1  0.22222222  0.61111111  1.44121789  1
  O  O406  1  0.22222222  0.77777778  1.44121789  1
  O  O407  1  0.22222222  0.94444444  1.44121789  1
  O  O408  1  0.38888889  0.11111111  1.44121789  1
  O  O409  1  0.38888889  0.27777778  1.44121789  1
  O  O410  1  0.38888889  0.44444444  1.44121789  1
  O  O411  1  0.38888889  0.61111111  1.44121789  1
  O  O412  1  0.38888889  0.77777778  1.44121789  1
  O  O413  1  0.38888889  0.94444444  1.44121789  1
  O  O414  1  0.55555556  0.11111111  1.44121789  1
  O  O415  1  0.55555556  0.27777778  1.44121789  1
  O  O416  1  0.55555556  0.44444444  1.44121789  1
  O  O417  1  0.55555556  0.61111111  1.44121789  1
  O  O418  1  0.55555556  0.77777778  1.44121789  1
  O  O419  1  0.55555556  0.94444444  1.44121789  1
  O  O420  1  0.72222222  0.11111111  1.44121789  1
  O  O421  1  0.72222222  0.27777778  1.44121789  1
  O  O422  1  0.72222222  0.44444444  1.44121789  1
  O  O423  1  0.72222222  0.61111111  1.44121789  1
  O  O424  1  0.72222222  0.77777778  1.44121789  1
  O  O425  1  0.72222222  0.94444444  1.44121789  1
  O  O426  1  0.88888889  0.11111111  1.44121789  1
  O  O427  1  0.88888889  0.27777778  1.44121789  1
  O  O428  1  0.88888889  0.44444444  1.44121789  1
  O  O429  1  0.88888889  0.61111111  1.44121789  1
  O  O430  1  0.88888889  0.77777778  1.44121789  1
  O  O431  1  0.88888889  0.94444444  1.44121789  1
