# generated using pymatgen
data_LaBO3
_symmetry_space_group_name_H-M   'P 1'
_cell_length_a   17.36702400
_cell_length_b   15.26391027
_cell_length_c   16.43567008
_cell_angle_alpha   90.00000000
_cell_angle_beta   90.00000000
_cell_angle_gamma   90.00000000
_symmetry_Int_Tables_number   1
_chemical_formula_structural   LaBO3
_chemical_formula_sum   'La72 B72 O216'
_cell_volume   4356.91035017
_cell_formula_units_Z   72
loop_
 _symmetry_equiv_pos_site_id
 _symmetry_equiv_pos_as_xyz
  1  'x, y, z'
loop_
 _atom_site_type_symbol
 _atom_site_label
 _atom_site_symmetry_multiplicity
 _atom_site_fract_x
 _atom_site_fract_y
 _atom_site_fract_z
 _atom_site_occupancy
  La  La0  1  0.25215062  0.08333333  0.45772726  1
  La  La1  1  0.25215062  0.08333333  0.95772726  1
  La  La2  1  0.25215062  0.41666667  0.45772726  1
  La  La3  1  0.25215062  0.41666667  0.95772726  1
  La  La4  1  0.25215062  0.75000000  0.45772726  1
  La  La5  1  0.25215062  0.75000000  0.95772726  1
  La  La6  1  0.58548395  0.08333333  0.45772726  1
  La  La7  1  0.58548395  0.08333333  0.95772726  1
  La  La8  1  0.58548395  0.41666667  0.45772726  1
  La  La9  1  0.58548395  0.41666667  0.95772726  1
  La  La10  1  0.58548395  0.75000000  0.45772726  1
  La  La11  1  0.58548395  0.75000000  0.95772726  1
  La  La12  1  0.91881729  0.08333333  0.45772726  1
  La  La13  1  0.91881729  0.08333333  0.95772726  1
  La  La14  1  0.91881729  0.41666667  0.45772726  1
  La  La15  1  0.91881729  0.41666667  0.95772726  1
  La  La16  1  0.91881729  0.75000000  0.45772726  1
  La  La17  1  0.91881729  0.75000000  0.95772726  1
  La  La18  1  0.08118271  0.25000000  0.04227274  1
  La  La19  1  0.08118271  0.25000000  0.54227274  1
  La  La20  1  0.08118271  0.58333333  0.04227274  1
  La  La21  1  0.08118271  0.58333333  0.54227274  1
  La  La22  1  0.08118271  0.91666667  0.04227274  1
  La  La23  1  0.08118271  0.91666667  0.54227274  1
  La  La24  1  0.41451605  0.25000000  0.04227274  1
  La  La25  1  0.41451605  0.25000000  0.54227274  1
  La  La26  1  0.41451605  0.58333333  0.04227274  1
  La  La27  1  0.41451605  0.58333333  0.54227274  1
  La  La28  1  0.41451605  0.91666667  0.04227274  1
  La  La29  1  0.41451605  0.91666667  0.54227274  1
  La  La30  1  0.74784938  0.25000000  0.04227274  1
  La  La31  1  0.74784938  0.25000000  0.54227274  1
  La  La32  1  0.74784938  0.58333333  0.04227274  1
  La  La33  1  0.74784938  0.58333333  0.54227274  1
  La  La34  1  0.74784938  0.91666667  0.04227274  1
  La  La35  1  0.74784938  0.91666667  0.54227274  1
  La  La36  1  0.08548395  0.08333333  0.29227274  1
  La  La37  1  0.08548395  0.08333333  0.79227274  1
  La  La38  1  0.08548395  0.41666667  0.29227274  1
  La  La39  1  0.08548395  0.41666667  0.79227274  1
  La  La40  1  0.08548395  0.75000000  0.29227274  1
  La  La41  1  0.08548395  0.75000000  0.79227274  1
  La  La42  1  0.41881729  0.08333333  0.29227274  1
  La  La43  1  0.41881729  0.08333333  0.79227274  1
  La  La44  1  0.41881729  0.41666667  0.29227274  1
  La  La45  1  0.41881729  0.41666667  0.79227274  1
  La  La46  1  0.41881729  0.75000000  0.29227274  1
  La  La47  1  0.41881729  0.75000000  0.79227274  1
  La  La48  1  0.75215062  0.08333333  0.29227274  1
  La  La49  1  0.75215062  0.08333333  0.79227274  1
  La  La50  1  0.75215062  0.41666667  0.29227274  1
  La  La51  1  0.75215062  0.41666667  0.79227274  1
  La  La52  1  0.75215062  0.75000000  0.29227274  1
  La  La53  1  0.75215062  0.75000000  0.79227274  1
  La  La54  1  0.24784938  0.25000000  0.20772726  1
  La  La55  1  0.24784938  0.25000000  0.70772726  1
  La  La56  1  0.24784938  0.58333333  0.20772726  1
  La  La57  1  0.24784938  0.58333333  0.70772726  1
  La  La58  1  0.24784938  0.91666667  0.20772726  1
  La  La59  1  0.24784938  0.91666667  0.70772726  1
  La  La60  1  0.58118271  0.25000000  0.20772726  1
  La  La61  1  0.58118271  0.25000000  0.70772726  1
  La  La62  1  0.58118271  0.58333333  0.20772726  1
  La  La63  1  0.58118271  0.58333333  0.70772726  1
  La  La64  1  0.58118271  0.91666667  0.20772726  1
  La  La65  1  0.58118271  0.91666667  0.70772726  1
  La  La66  1  0.91451605  0.25000000  0.20772726  1
  La  La67  1  0.91451605  0.25000000  0.70772726  1
  La  La68  1  0.91451605  0.58333333  0.20772726  1
  La  La69  1  0.91451605  0.58333333  0.70772726  1
  La  La70  1  0.91451605  0.91666667  0.20772726  1
  La  La71  1  0.91451605  0.91666667  0.70772726  1
  B  B72  1  0.30556426  0.08333333  0.13017637  1
  B  B73  1  0.30556426  0.08333333  0.63017637  1
  B  B74  1  0.30556426  0.41666667  0.13017637  1
  B  B75  1  0.30556426  0.41666667  0.63017637  1
  B  B76  1  0.30556426  0.75000000  0.13017637  1
  B  B77  1  0.30556426  0.75000000  0.63017637  1
  B  B78  1  0.63889759  0.08333333  0.13017637  1
  B  B79  1  0.63889759  0.08333333  0.63017637  1
  B  B80  1  0.63889759  0.41666667  0.13017637  1
  B  B81  1  0.63889759  0.41666667  0.63017637  1
  B  B82  1  0.63889759  0.75000000  0.13017637  1
  B  B83  1  0.63889759  0.75000000  0.63017637  1
  B  B84  1  0.97223093  0.08333333  0.13017637  1
  B  B85  1  0.97223093  0.08333333  0.63017637  1
  B  B86  1  0.97223093  0.41666667  0.13017637  1
  B  B87  1  0.97223093  0.41666667  0.63017637  1
  B  B88  1  0.97223093  0.75000000  0.13017637  1
  B  B89  1  0.97223093  0.75000000  0.63017637  1
  B  B90  1  0.02776907  0.25000000  0.36982363  1
  B  B91  1  0.02776907  0.25000000  0.86982363  1
  B  B92  1  0.02776907  0.58333333  0.36982363  1
  B  B93  1  0.02776907  0.58333333  0.86982363  1
  B  B94  1  0.02776907  0.91666667  0.36982363  1
  B  B95  1  0.02776907  0.91666667  0.86982363  1
  B  B96  1  0.36110241  0.25000000  0.36982363  1
  B  B97  1  0.36110241  0.25000000  0.86982363  1
  B  B98  1  0.36110241  0.58333333  0.36982363  1
  B  B99  1  0.36110241  0.58333333  0.86982363  1
  B  B100  1  0.36110241  0.91666667  0.36982363  1
  B  B101  1  0.36110241  0.91666667  0.86982363  1
  B  B102  1  0.69443574  0.25000000  0.36982363  1
  B  B103  1  0.69443574  0.25000000  0.86982363  1
  B  B104  1  0.69443574  0.58333333  0.36982363  1
  B  B105  1  0.69443574  0.58333333  0.86982363  1
  B  B106  1  0.69443574  0.91666667  0.36982363  1
  B  B107  1  0.69443574  0.91666667  0.86982363  1
  B  B108  1  0.13889759  0.08333333  0.11982363  1
  B  B109  1  0.13889759  0.08333333  0.61982363  1
  B  B110  1  0.13889759  0.41666667  0.11982363  1
  B  B111  1  0.13889759  0.41666667  0.61982363  1
  B  B112  1  0.13889759  0.75000000  0.11982363  1
  B  B113  1  0.13889759  0.75000000  0.61982363  1
  B  B114  1  0.47223093  0.08333333  0.11982363  1
  B  B115  1  0.47223093  0.08333333  0.61982363  1
  B  B116  1  0.47223093  0.41666667  0.11982363  1
  B  B117  1  0.47223093  0.41666667  0.61982363  1
  B  B118  1  0.47223093  0.75000000  0.11982363  1
  B  B119  1  0.47223093  0.75000000  0.61982363  1
  B  B120  1  0.80556426  0.08333333  0.11982363  1
  B  B121  1  0.80556426  0.08333333  0.61982363  1
  B  B122  1  0.80556426  0.41666667  0.11982363  1
  B  B123  1  0.80556426  0.41666667  0.61982363  1
  B  B124  1  0.80556426  0.75000000  0.11982363  1
  B  B125  1  0.80556426  0.75000000  0.61982363  1
  B  B126  1  0.19443574  0.25000000  0.38017637  1
  B  B127  1  0.19443574  0.25000000  0.88017637  1
  B  B128  1  0.19443574  0.58333333  0.38017637  1
  B  B129  1  0.19443574  0.58333333  0.88017637  1
  B  B130  1  0.19443574  0.91666667  0.38017637  1
  B  B131  1  0.19443574  0.91666667  0.88017637  1
  B  B132  1  0.52776907  0.25000000  0.38017637  1
  B  B133  1  0.52776907  0.25000000  0.88017637  1
  B  B134  1  0.52776907  0.58333333  0.38017637  1
  B  B135  1  0.52776907  0.58333333  0.88017637  1
  B  B136  1  0.52776907  0.91666667  0.38017637  1
  B  B137  1  0.52776907  0.91666667  0.88017637  1
  B  B138  1  0.86110241  0.25000000  0.38017637  1
  B  B139  1  0.86110241  0.25000000  0.88017637  1
  B  B140  1  0.86110241  0.58333333  0.38017637  1
  B  B141  1  0.86110241  0.58333333  0.88017637  1
  B  B142  1  0.86110241  0.91666667  0.38017637  1
  B  B143  1  0.86110241  0.91666667  0.88017637  1
  O  O144  1  0.19900783  0.25000000  0.46369234  1
  O  O145  1  0.19900783  0.25000000  0.96369234  1
  O  O146  1  0.19900783  0.58333333  0.46369234  1
  O  O147  1  0.19900783  0.58333333  0.96369234  1
  O  O148  1  0.19900783  0.91666667  0.46369234  1
  O  O149  1  0.19900783  0.91666667  0.96369234  1
  O  O150  1  0.53234116  0.25000000  0.46369234  1
  O  O151  1  0.53234116  0.25000000  0.96369234  1
  O  O152  1  0.53234116  0.58333333  0.46369234  1
  O  O153  1  0.53234116  0.58333333  0.96369234  1
  O  O154  1  0.53234116  0.91666667  0.46369234  1
  O  O155  1  0.53234116  0.91666667  0.96369234  1
  O  O156  1  0.86567449  0.25000000  0.46369234  1
  O  O157  1  0.86567449  0.25000000  0.96369234  1
  O  O158  1  0.86567449  0.58333333  0.46369234  1
  O  O159  1  0.86567449  0.58333333  0.96369234  1
  O  O160  1  0.86567449  0.91666667  0.46369234  1
  O  O161  1  0.86567449  0.91666667  0.96369234  1
  O  O162  1  0.13432551  0.08333333  0.03630766  1
  O  O163  1  0.13432551  0.08333333  0.53630766  1
  O  O164  1  0.13432551  0.41666667  0.03630766  1
  O  O165  1  0.13432551  0.41666667  0.53630766  1
  O  O166  1  0.13432551  0.75000000  0.03630766  1
  O  O167  1  0.13432551  0.75000000  0.53630766  1
  O  O168  1  0.46765884  0.08333333  0.03630766  1
  O  O169  1  0.46765884  0.08333333  0.53630766  1
  O  O170  1  0.46765884  0.41666667  0.03630766  1
  O  O171  1  0.46765884  0.41666667  0.53630766  1
  O  O172  1  0.46765884  0.75000000  0.03630766  1
  O  O173  1  0.46765884  0.75000000  0.53630766  1
  O  O174  1  0.80099217  0.08333333  0.03630766  1
  O  O175  1  0.80099217  0.08333333  0.53630766  1
  O  O176  1  0.80099217  0.41666667  0.03630766  1
  O  O177  1  0.80099217  0.41666667  0.53630766  1
  O  O178  1  0.80099217  0.75000000  0.03630766  1
  O  O179  1  0.80099217  0.75000000  0.53630766  1
  O  O180  1  0.03234116  0.25000000  0.28630766  1
  O  O181  1  0.03234116  0.25000000  0.78630766  1
  O  O182  1  0.03234116  0.58333333  0.28630766  1
  O  O183  1  0.03234116  0.58333333  0.78630766  1
  O  O184  1  0.03234116  0.91666667  0.28630766  1
  O  O185  1  0.03234116  0.91666667  0.78630766  1
  O  O186  1  0.36567449  0.25000000  0.28630766  1
  O  O187  1  0.36567449  0.25000000  0.78630766  1
  O  O188  1  0.36567449  0.58333333  0.28630766  1
  O  O189  1  0.36567449  0.58333333  0.78630766  1
  O  O190  1  0.36567449  0.91666667  0.28630766  1
  O  O191  1  0.36567449  0.91666667  0.78630766  1
  O  O192  1  0.69900783  0.25000000  0.28630766  1
  O  O193  1  0.69900783  0.25000000  0.78630766  1
  O  O194  1  0.69900783  0.58333333  0.28630766  1
  O  O195  1  0.69900783  0.58333333  0.78630766  1
  O  O196  1  0.69900783  0.91666667  0.28630766  1
  O  O197  1  0.69900783  0.91666667  0.78630766  1
  O  O198  1  0.30099217  0.08333333  0.21369234  1
  O  O199  1  0.30099217  0.08333333  0.71369234  1
  O  O200  1  0.30099217  0.41666667  0.21369234  1
  O  O201  1  0.30099217  0.41666667  0.71369234  1
  O  O202  1  0.30099217  0.75000000  0.21369234  1
  O  O203  1  0.30099217  0.75000000  0.71369234  1
  O  O204  1  0.63432551  0.08333333  0.21369234  1
  O  O205  1  0.63432551  0.08333333  0.71369234  1
  O  O206  1  0.63432551  0.41666667  0.21369234  1
  O  O207  1  0.63432551  0.41666667  0.71369234  1
  O  O208  1  0.63432551  0.75000000  0.21369234  1
  O  O209  1  0.63432551  0.75000000  0.71369234  1
  O  O210  1  0.96765884  0.08333333  0.21369234  1
  O  O211  1  0.96765884  0.08333333  0.71369234  1
  O  O212  1  0.96765884  0.41666667  0.21369234  1
  O  O213  1  0.96765884  0.41666667  0.71369234  1
  O  O214  1  0.96765884  0.75000000  0.21369234  1
  O  O215  1  0.96765884  0.75000000  0.71369234  1
  O  O216  1  0.19601322  0.17200701  0.33769696  1
  O  O217  1  0.19601322  0.17200701  0.83769696  1
  O  O218  1  0.19601322  0.50534035  0.33769696  1
  O  O219  1  0.19601322  0.50534035  0.83769696  1
  O  O220  1  0.19601322  0.83867368  0.33769696  1
  O  O221  1  0.19601322  0.83867368  0.83769696  1
  O  O222  1  0.52934656  0.17200701  0.33769696  1
  O  O223  1  0.52934656  0.17200701  0.83769696  1
  O  O224  1  0.52934656  0.50534035  0.33769696  1
  O  O225  1  0.52934656  0.50534035  0.83769696  1
  O  O226  1  0.52934656  0.83867368  0.33769696  1
  O  O227  1  0.52934656  0.83867368  0.83769696  1
  O  O228  1  0.86267989  0.17200701  0.33769696  1
  O  O229  1  0.86267989  0.17200701  0.83769696  1
  O  O230  1  0.86267989  0.50534035  0.33769696  1
  O  O231  1  0.86267989  0.50534035  0.83769696  1
  O  O232  1  0.86267989  0.83867368  0.33769696  1
  O  O233  1  0.86267989  0.83867368  0.83769696  1
  O  O234  1  0.13732011  0.00534035  0.16230304  1
  O  O235  1  0.13732011  0.00534035  0.66230304  1
  O  O236  1  0.13732011  0.33867368  0.16230304  1
  O  O237  1  0.13732011  0.33867368  0.66230304  1
  O  O238  1  0.13732011  0.67200701  0.16230304  1
  O  O239  1  0.13732011  0.67200701  0.66230304  1
  O  O240  1  0.47065344  0.00534035  0.16230304  1
  O  O241  1  0.47065344  0.00534035  0.66230304  1
  O  O242  1  0.47065344  0.33867368  0.16230304  1
  O  O243  1  0.47065344  0.33867368  0.66230304  1
  O  O244  1  0.47065344  0.67200701  0.16230304  1
  O  O245  1  0.47065344  0.67200701  0.66230304  1
  O  O246  1  0.80398678  0.00534035  0.16230304  1
  O  O247  1  0.80398678  0.00534035  0.66230304  1
  O  O248  1  0.80398678  0.33867368  0.16230304  1
  O  O249  1  0.80398678  0.33867368  0.66230304  1
  O  O250  1  0.80398678  0.67200701  0.16230304  1
  O  O251  1  0.80398678  0.67200701  0.66230304  1
  O  O252  1  0.02934656  0.32799299  0.41230304  1
  O  O253  1  0.02934656  0.32799299  0.91230304  1
  O  O254  1  0.02934656  0.66132632  0.41230304  1
  O  O255  1  0.02934656  0.66132632  0.91230304  1
  O  O256  1  0.02934656  0.99465965  0.41230304  1
  O  O257  1  0.02934656  0.99465965  0.91230304  1
  O  O258  1  0.36267989  0.32799299  0.41230304  1
  O  O259  1  0.36267989  0.32799299  0.91230304  1
  O  O260  1  0.36267989  0.66132632  0.41230304  1
  O  O261  1  0.36267989  0.66132632  0.91230304  1
  O  O262  1  0.36267989  0.99465965  0.41230304  1
  O  O263  1  0.36267989  0.99465965  0.91230304  1
  O  O264  1  0.69601322  0.32799299  0.41230304  1
  O  O265  1  0.69601322  0.32799299  0.91230304  1
  O  O266  1  0.69601322  0.66132632  0.41230304  1
  O  O267  1  0.69601322  0.66132632  0.91230304  1
  O  O268  1  0.69601322  0.99465965  0.41230304  1
  O  O269  1  0.69601322  0.99465965  0.91230304  1
  O  O270  1  0.30398678  0.16132632  0.08769696  1
  O  O271  1  0.30398678  0.16132632  0.58769696  1
  O  O272  1  0.30398678  0.49465965  0.08769696  1
  O  O273  1  0.30398678  0.49465965  0.58769696  1
  O  O274  1  0.30398678  0.82799299  0.08769696  1
  O  O275  1  0.30398678  0.82799299  0.58769696  1
  O  O276  1  0.63732011  0.16132632  0.08769696  1
  O  O277  1  0.63732011  0.16132632  0.58769696  1
  O  O278  1  0.63732011  0.49465965  0.08769696  1
  O  O279  1  0.63732011  0.49465965  0.58769696  1
  O  O280  1  0.63732011  0.82799299  0.08769696  1
  O  O281  1  0.63732011  0.82799299  0.58769696  1
  O  O282  1  0.97065344  0.16132632  0.08769696  1
  O  O283  1  0.97065344  0.16132632  0.58769696  1
  O  O284  1  0.97065344  0.49465965  0.08769696  1
  O  O285  1  0.97065344  0.49465965  0.58769696  1
  O  O286  1  0.97065344  0.82799299  0.08769696  1
  O  O287  1  0.97065344  0.82799299  0.58769696  1
  O  O288  1  0.13732011  0.16132632  0.16230304  1
  O  O289  1  0.13732011  0.16132632  0.66230304  1
  O  O290  1  0.13732011  0.49465965  0.16230304  1
  O  O291  1  0.13732011  0.49465965  0.66230304  1
  O  O292  1  0.13732011  0.82799299  0.16230304  1
  O  O293  1  0.13732011  0.82799299  0.66230304  1
  O  O294  1  0.47065344  0.16132632  0.16230304  1
  O  O295  1  0.47065344  0.16132632  0.66230304  1
  O  O296  1  0.47065344  0.49465965  0.16230304  1
  O  O297  1  0.47065344  0.49465965  0.66230304  1
  O  O298  1  0.47065344  0.82799299  0.16230304  1
  O  O299  1  0.47065344  0.82799299  0.66230304  1
  O  O300  1  0.80398678  0.16132632  0.16230304  1
  O  O301  1  0.80398678  0.16132632  0.66230304  1
  O  O302  1  0.80398678  0.49465965  0.16230304  1
  O  O303  1  0.80398678  0.49465965  0.66230304  1
  O  O304  1  0.80398678  0.82799299  0.16230304  1
  O  O305  1  0.80398678  0.82799299  0.66230304  1
  O  O306  1  0.19601322  0.32799299  0.33769696  1
  O  O307  1  0.19601322  0.32799299  0.83769696  1
  O  O308  1  0.19601322  0.66132632  0.33769696  1
  O  O309  1  0.19601322  0.66132632  0.83769696  1
  O  O310  1  0.19601322  0.99465965  0.33769696  1
  O  O311  1  0.19601322  0.99465965  0.83769696  1
  O  O312  1  0.52934656  0.32799299  0.33769696  1
  O  O313  1  0.52934656  0.32799299  0.83769696  1
  O  O314  1  0.52934656  0.66132632  0.33769696  1
  O  O315  1  0.52934656  0.66132632  0.83769696  1
  O  O316  1  0.52934656  0.99465965  0.33769696  1
  O  O317  1  0.52934656  0.99465965  0.83769696  1
  O  O318  1  0.86267989  0.32799299  0.33769696  1
  O  O319  1  0.86267989  0.32799299  0.83769696  1
  O  O320  1  0.86267989  0.66132632  0.33769696  1
  O  O321  1  0.86267989  0.66132632  0.83769696  1
  O  O322  1  0.86267989  0.99465965  0.33769696  1
  O  O323  1  0.86267989  0.99465965  0.83769696  1
  O  O324  1  0.30398678  0.00534035  0.08769696  1
  O  O325  1  0.30398678  0.00534035  0.58769696  1
  O  O326  1  0.30398678  0.33867368  0.08769696  1
  O  O327  1  0.30398678  0.33867368  0.58769696  1
  O  O328  1  0.30398678  0.67200701  0.08769696  1
  O  O329  1  0.30398678  0.67200701  0.58769696  1
  O  O330  1  0.63732011  0.00534035  0.08769696  1
  O  O331  1  0.63732011  0.00534035  0.58769696  1
  O  O332  1  0.63732011  0.33867368  0.08769696  1
  O  O333  1  0.63732011  0.33867368  0.58769696  1
  O  O334  1  0.63732011  0.67200701  0.08769696  1
  O  O335  1  0.63732011  0.67200701  0.58769696  1
  O  O336  1  0.97065344  0.00534035  0.08769696  1
  O  O337  1  0.97065344  0.00534035  0.58769696  1
  O  O338  1  0.97065344  0.33867368  0.08769696  1
  O  O339  1  0.97065344  0.33867368  0.58769696  1
  O  O340  1  0.97065344  0.67200701  0.08769696  1
  O  O341  1  0.97065344  0.67200701  0.58769696  1
  O  O342  1  0.02934656  0.17200701  0.41230304  1
  O  O343  1  0.02934656  0.17200701  0.91230304  1
  O  O344  1  0.02934656  0.50534035  0.41230304  1
  O  O345  1  0.02934656  0.50534035  0.91230304  1
  O  O346  1  0.02934656  0.83867368  0.41230304  1
  O  O347  1  0.02934656  0.83867368  0.91230304  1
  O  O348  1  0.36267989  0.17200701  0.41230304  1
  O  O349  1  0.36267989  0.17200701  0.91230304  1
  O  O350  1  0.36267989  0.50534035  0.41230304  1
  O  O351  1  0.36267989  0.50534035  0.91230304  1
  O  O352  1  0.36267989  0.83867368  0.41230304  1
  O  O353  1  0.36267989  0.83867368  0.91230304  1
  O  O354  1  0.69601322  0.17200701  0.41230304  1
  O  O355  1  0.69601322  0.17200701  0.91230304  1
  O  O356  1  0.69601322  0.50534035  0.41230304  1
  O  O357  1  0.69601322  0.50534035  0.91230304  1
  O  O358  1  0.69601322  0.83867368  0.41230304  1
  O  O359  1  0.69601322  0.83867368  0.91230304  1
