# generated using pymatgen
data_Rb2Pb2O3
_symmetry_space_group_name_H-M   'P 1'
_cell_length_a   17.44746229
_cell_length_b   17.44746229
_cell_length_c   17.44746229
_cell_angle_alpha   90.00000000
_cell_angle_beta   90.00000000
_cell_angle_gamma   90.00000000
_symmetry_Int_Tables_number   1
_chemical_formula_structural   Rb2Pb2O3
_chemical_formula_sum   'Rb64 Pb64 O96'
_cell_volume   5311.25074464
_cell_formula_units_Z   32
loop_
 _symmetry_equiv_pos_site_id
 _symmetry_equiv_pos_as_xyz
  1  'x, y, z'
loop_
 _atom_site_type_symbol
 _atom_site_label
 _atom_site_symmetry_multiplicity
 _atom_site_fract_x
 _atom_site_fract_y
 _atom_site_fract_z
 _atom_site_occupancy
  Rb  Rb0  1  0.11594063  0.11594063  0.11594063  1
  Rb  Rb1  1  0.11594063  0.11594063  0.61594063  1
  Rb  Rb2  1  0.11594063  0.61594063  0.11594063  1
  Rb  Rb3  1  0.11594063  0.61594063  0.61594063  1
  Rb  Rb4  1  0.61594063  0.11594063  0.11594063  1
  Rb  Rb5  1  0.61594063  0.11594063  0.61594063  1
  Rb  Rb6  1  0.61594063  0.61594063  0.11594063  1
  Rb  Rb7  1  0.61594063  0.61594063  0.61594063  1
  Rb  Rb8  1  0.36594063  0.36594063  0.36594063  1
  Rb  Rb9  1  0.36594063  0.36594063  0.86594063  1
  Rb  Rb10  1  0.36594063  0.86594063  0.36594063  1
  Rb  Rb11  1  0.36594063  0.86594063  0.86594063  1
  Rb  Rb12  1  0.86594063  0.36594063  0.36594063  1
  Rb  Rb13  1  0.86594063  0.36594063  0.86594063  1
  Rb  Rb14  1  0.86594063  0.86594063  0.36594063  1
  Rb  Rb15  1  0.86594063  0.86594063  0.86594063  1
  Rb  Rb16  1  0.11594063  -0.11594063  0.13405937  1
  Rb  Rb17  1  0.11594063  -0.11594063  0.63405937  1
  Rb  Rb18  1  0.11594063  0.38405937  0.13405937  1
  Rb  Rb19  1  0.11594063  0.38405937  0.63405937  1
  Rb  Rb20  1  0.61594063  -0.11594063  0.13405937  1
  Rb  Rb21  1  0.61594063  -0.11594063  0.63405937  1
  Rb  Rb22  1  0.61594063  0.38405937  0.13405937  1
  Rb  Rb23  1  0.61594063  0.38405937  0.63405937  1
  Rb  Rb24  1  0.36594063  0.13405937  0.38405937  1
  Rb  Rb25  1  0.36594063  0.13405937  0.88405937  1
  Rb  Rb26  1  0.36594063  0.63405937  0.38405937  1
  Rb  Rb27  1  0.36594063  0.63405937  0.88405937  1
  Rb  Rb28  1  0.86594063  0.13405937  0.38405937  1
  Rb  Rb29  1  0.86594063  0.13405937  0.88405937  1
  Rb  Rb30  1  0.86594063  0.63405937  0.38405937  1
  Rb  Rb31  1  0.86594063  0.63405937  0.88405937  1
  Rb  Rb32  1  0.13405937  0.11594063  -0.11594063  1
  Rb  Rb33  1  0.13405937  0.11594063  0.38405937  1
  Rb  Rb34  1  0.13405937  0.61594063  -0.11594063  1
  Rb  Rb35  1  0.13405937  0.61594063  0.38405937  1
  Rb  Rb36  1  0.63405937  0.11594063  -0.11594063  1
  Rb  Rb37  1  0.63405937  0.11594063  0.38405937  1
  Rb  Rb38  1  0.63405937  0.61594063  -0.11594063  1
  Rb  Rb39  1  0.63405937  0.61594063  0.38405937  1
  Rb  Rb40  1  0.38405937  0.36594063  0.13405937  1
  Rb  Rb41  1  0.38405937  0.36594063  0.63405937  1
  Rb  Rb42  1  0.38405937  0.86594063  0.13405937  1
  Rb  Rb43  1  0.38405937  0.86594063  0.63405937  1
  Rb  Rb44  1  0.88405937  0.36594063  0.13405937  1
  Rb  Rb45  1  0.88405937  0.36594063  0.63405937  1
  Rb  Rb46  1  0.88405937  0.86594063  0.13405937  1
  Rb  Rb47  1  0.88405937  0.86594063  0.63405937  1
  Rb  Rb48  1  -0.11594063  0.13405937  0.11594063  1
  Rb  Rb49  1  -0.11594063  0.13405937  0.61594063  1
  Rb  Rb50  1  -0.11594063  0.63405937  0.11594063  1
  Rb  Rb51  1  -0.11594063  0.63405937  0.61594063  1
  Rb  Rb52  1  0.38405937  0.13405937  0.11594063  1
  Rb  Rb53  1  0.38405937  0.13405937  0.61594063  1
  Rb  Rb54  1  0.38405937  0.63405937  0.11594063  1
  Rb  Rb55  1  0.38405937  0.63405937  0.61594063  1
  Rb  Rb56  1  0.13405937  0.38405937  0.36594063  1
  Rb  Rb57  1  0.13405937  0.38405937  0.86594063  1
  Rb  Rb58  1  0.13405937  0.88405937  0.36594063  1
  Rb  Rb59  1  0.13405937  0.88405937  0.86594063  1
  Rb  Rb60  1  0.63405937  0.38405937  0.36594063  1
  Rb  Rb61  1  0.63405937  0.38405937  0.86594063  1
  Rb  Rb62  1  0.63405937  0.88405937  0.36594063  1
  Rb  Rb63  1  0.63405937  0.88405937  0.86594063  1
  Pb  Pb64  1  0.24996441  0.24996441  0.24996441  1
  Pb  Pb65  1  0.24996441  0.24996441  0.74996441  1
  Pb  Pb66  1  0.24996441  0.74996441  0.24996441  1
  Pb  Pb67  1  0.24996441  0.74996441  0.74996441  1
  Pb  Pb68  1  0.74996441  0.24996441  0.24996441  1
  Pb  Pb69  1  0.74996441  0.24996441  0.74996441  1
  Pb  Pb70  1  0.74996441  0.74996441  0.24996441  1
  Pb  Pb71  1  0.74996441  0.74996441  0.74996441  1
  Pb  Pb72  1  0.49996441  0.49996441  0.49996441  1
  Pb  Pb73  1  0.49996441  0.49996441  0.99996441  1
  Pb  Pb74  1  0.49996441  0.99996441  0.49996441  1
  Pb  Pb75  1  0.49996441  0.99996441  0.99996441  1
  Pb  Pb76  1  0.99996441  0.49996441  0.49996441  1
  Pb  Pb77  1  0.99996441  0.49996441  0.99996441  1
  Pb  Pb78  1  0.99996441  0.99996441  0.49996441  1
  Pb  Pb79  1  0.99996441  0.99996441  0.99996441  1
  Pb  Pb80  1  -0.00003559  0.00003559  0.25003559  1
  Pb  Pb81  1  -0.00003559  0.00003559  0.75003559  1
  Pb  Pb82  1  -0.00003559  0.50003559  0.25003559  1
  Pb  Pb83  1  -0.00003559  0.50003559  0.75003559  1
  Pb  Pb84  1  0.49996441  0.00003559  0.25003559  1
  Pb  Pb85  1  0.49996441  0.00003559  0.75003559  1
  Pb  Pb86  1  0.49996441  0.50003559  0.25003559  1
  Pb  Pb87  1  0.49996441  0.50003559  0.75003559  1
  Pb  Pb88  1  0.24996441  0.25003559  0.50003559  1
  Pb  Pb89  1  0.24996441  0.25003559  1.00003559  1
  Pb  Pb90  1  0.24996441  0.75003559  0.50003559  1
  Pb  Pb91  1  0.24996441  0.75003559  1.00003559  1
  Pb  Pb92  1  0.74996441  0.25003559  0.50003559  1
  Pb  Pb93  1  0.74996441  0.25003559  1.00003559  1
  Pb  Pb94  1  0.74996441  0.75003559  0.50003559  1
  Pb  Pb95  1  0.74996441  0.75003559  1.00003559  1
  Pb  Pb96  1  0.25003559  -0.00003559  0.00003559  1
  Pb  Pb97  1  0.25003559  -0.00003559  0.50003559  1
  Pb  Pb98  1  0.25003559  0.49996441  0.00003559  1
  Pb  Pb99  1  0.25003559  0.49996441  0.50003559  1
  Pb  Pb100  1  0.75003559  -0.00003559  0.00003559  1
  Pb  Pb101  1  0.75003559  -0.00003559  0.50003559  1
  Pb  Pb102  1  0.75003559  0.49996441  0.00003559  1
  Pb  Pb103  1  0.75003559  0.49996441  0.50003559  1
  Pb  Pb104  1  0.50003559  0.24996441  0.25003559  1
  Pb  Pb105  1  0.50003559  0.24996441  0.75003559  1
  Pb  Pb106  1  0.50003559  0.74996441  0.25003559  1
  Pb  Pb107  1  0.50003559  0.74996441  0.75003559  1
  Pb  Pb108  1  1.00003559  0.24996441  0.25003559  1
  Pb  Pb109  1  1.00003559  0.24996441  0.75003559  1
  Pb  Pb110  1  1.00003559  0.74996441  0.25003559  1
  Pb  Pb111  1  1.00003559  0.74996441  0.75003559  1
  Pb  Pb112  1  0.00003559  0.25003559  -0.00003559  1
  Pb  Pb113  1  0.00003559  0.25003559  0.49996441  1
  Pb  Pb114  1  0.00003559  0.75003559  -0.00003559  1
  Pb  Pb115  1  0.00003559  0.75003559  0.49996441  1
  Pb  Pb116  1  0.50003559  0.25003559  -0.00003559  1
  Pb  Pb117  1  0.50003559  0.25003559  0.49996441  1
  Pb  Pb118  1  0.50003559  0.75003559  -0.00003559  1
  Pb  Pb119  1  0.50003559  0.75003559  0.49996441  1
  Pb  Pb120  1  0.25003559  0.50003559  0.24996441  1
  Pb  Pb121  1  0.25003559  0.50003559  0.74996441  1
  Pb  Pb122  1  0.25003559  1.00003559  0.24996441  1
  Pb  Pb123  1  0.25003559  1.00003559  0.74996441  1
  Pb  Pb124  1  0.75003559  0.50003559  0.24996441  1
  Pb  Pb125  1  0.75003559  0.50003559  0.74996441  1
  Pb  Pb126  1  0.75003559  1.00003559  0.24996441  1
  Pb  Pb127  1  0.75003559  1.00003559  0.74996441  1
  O  O128  1  0.25000000  -0.12500000  0.23496605  1
  O  O129  1  0.25000000  -0.12500000  0.73496605  1
  O  O130  1  0.25000000  0.37500000  0.23496605  1
  O  O131  1  0.25000000  0.37500000  0.73496605  1
  O  O132  1  0.75000000  -0.12500000  0.23496605  1
  O  O133  1  0.75000000  -0.12500000  0.73496605  1
  O  O134  1  0.75000000  0.37500000  0.23496605  1
  O  O135  1  0.75000000  0.37500000  0.73496605  1
  O  O136  1  0.50000000  0.12500000  0.48496605  1
  O  O137  1  0.50000000  0.12500000  0.98496605  1
  O  O138  1  0.50000000  0.62500000  0.48496605  1
  O  O139  1  0.50000000  0.62500000  0.98496605  1
  O  O140  1  1.00000000  0.12500000  0.48496605  1
  O  O141  1  1.00000000  0.12500000  0.98496605  1
  O  O142  1  1.00000000  0.62500000  0.48496605  1
  O  O143  1  1.00000000  0.62500000  0.98496605  1
  O  O144  1  0.25000000  0.12500000  0.01503395  1
  O  O145  1  0.25000000  0.12500000  0.51503395  1
  O  O146  1  0.25000000  0.62500000  0.01503395  1
  O  O147  1  0.25000000  0.62500000  0.51503395  1
  O  O148  1  0.75000000  0.12500000  0.01503395  1
  O  O149  1  0.75000000  0.12500000  0.51503395  1
  O  O150  1  0.75000000  0.62500000  0.01503395  1
  O  O151  1  0.75000000  0.62500000  0.51503395  1
  O  O152  1  0.50000000  0.37500000  0.26503395  1
  O  O153  1  0.50000000  0.37500000  0.76503395  1
  O  O154  1  0.50000000  0.87500000  0.26503395  1
  O  O155  1  0.50000000  0.87500000  0.76503395  1
  O  O156  1  1.00000000  0.37500000  0.26503395  1
  O  O157  1  1.00000000  0.37500000  0.76503395  1
  O  O158  1  1.00000000  0.87500000  0.26503395  1
  O  O159  1  1.00000000  0.87500000  0.76503395  1
  O  O160  1  -0.12500000  0.23496605  0.25000000  1
  O  O161  1  -0.12500000  0.23496605  0.75000000  1
  O  O162  1  -0.12500000  0.73496605  0.25000000  1
  O  O163  1  -0.12500000  0.73496605  0.75000000  1
  O  O164  1  0.37500000  0.23496605  0.25000000  1
  O  O165  1  0.37500000  0.23496605  0.75000000  1
  O  O166  1  0.37500000  0.73496605  0.25000000  1
  O  O167  1  0.37500000  0.73496605  0.75000000  1
  O  O168  1  0.12500000  0.48496605  0.50000000  1
  O  O169  1  0.12500000  0.48496605  1.00000000  1
  O  O170  1  0.12500000  0.98496605  0.50000000  1
  O  O171  1  0.12500000  0.98496605  1.00000000  1
  O  O172  1  0.62500000  0.48496605  0.50000000  1
  O  O173  1  0.62500000  0.48496605  1.00000000  1
  O  O174  1  0.62500000  0.98496605  0.50000000  1
  O  O175  1  0.62500000  0.98496605  1.00000000  1
  O  O176  1  0.12500000  0.01503395  0.25000000  1
  O  O177  1  0.12500000  0.01503395  0.75000000  1
  O  O178  1  0.12500000  0.51503395  0.25000000  1
  O  O179  1  0.12500000  0.51503395  0.75000000  1
  O  O180  1  0.62500000  0.01503395  0.25000000  1
  O  O181  1  0.62500000  0.01503395  0.75000000  1
  O  O182  1  0.62500000  0.51503395  0.25000000  1
  O  O183  1  0.62500000  0.51503395  0.75000000  1
  O  O184  1  0.37500000  0.26503395  0.50000000  1
  O  O185  1  0.37500000  0.26503395  1.00000000  1
  O  O186  1  0.37500000  0.76503395  0.50000000  1
  O  O187  1  0.37500000  0.76503395  1.00000000  1
  O  O188  1  0.87500000  0.26503395  0.50000000  1
  O  O189  1  0.87500000  0.26503395  1.00000000  1
  O  O190  1  0.87500000  0.76503395  0.50000000  1
  O  O191  1  0.87500000  0.76503395  1.00000000  1
  O  O192  1  0.23496605  0.25000000  -0.12500000  1
  O  O193  1  0.23496605  0.25000000  0.37500000  1
  O  O194  1  0.23496605  0.75000000  -0.12500000  1
  O  O195  1  0.23496605  0.75000000  0.37500000  1
  O  O196  1  0.73496605  0.25000000  -0.12500000  1
  O  O197  1  0.73496605  0.25000000  0.37500000  1
  O  O198  1  0.73496605  0.75000000  -0.12500000  1
  O  O199  1  0.73496605  0.75000000  0.37500000  1
  O  O200  1  0.48496605  0.50000000  0.12500000  1
  O  O201  1  0.48496605  0.50000000  0.62500000  1
  O  O202  1  0.48496605  1.00000000  0.12500000  1
  O  O203  1  0.48496605  1.00000000  0.62500000  1
  O  O204  1  0.98496605  0.50000000  0.12500000  1
  O  O205  1  0.98496605  0.50000000  0.62500000  1
  O  O206  1  0.98496605  1.00000000  0.12500000  1
  O  O207  1  0.98496605  1.00000000  0.62500000  1
  O  O208  1  0.01503395  0.25000000  0.12500000  1
  O  O209  1  0.01503395  0.25000000  0.62500000  1
  O  O210  1  0.01503395  0.75000000  0.12500000  1
  O  O211  1  0.01503395  0.75000000  0.62500000  1
  O  O212  1  0.51503395  0.25000000  0.12500000  1
  O  O213  1  0.51503395  0.25000000  0.62500000  1
  O  O214  1  0.51503395  0.75000000  0.12500000  1
  O  O215  1  0.51503395  0.75000000  0.62500000  1
  O  O216  1  0.26503395  0.50000000  0.37500000  1
  O  O217  1  0.26503395  0.50000000  0.87500000  1
  O  O218  1  0.26503395  1.00000000  0.37500000  1
  O  O219  1  0.26503395  1.00000000  0.87500000  1
  O  O220  1  0.76503395  0.50000000  0.37500000  1
  O  O221  1  0.76503395  0.50000000  0.87500000  1
  O  O222  1  0.76503395  1.00000000  0.37500000  1
  O  O223  1  0.76503395  1.00000000  0.87500000  1
