# generated using pymatgen
data_Na2PtO3
_symmetry_space_group_name_H-M   'P 1'
_cell_length_a   12.62460644
_cell_length_b   17.78822512
_cell_length_c   18.71170438
_cell_angle_alpha   90.00000000
_cell_angle_beta   90.00000000
_cell_angle_gamma   90.00000000
_symmetry_Int_Tables_number   1
_chemical_formula_structural   Na2PtO3
_chemical_formula_sum   'Na128 Pt64 O192'
_cell_volume   4202.07512914
_cell_formula_units_Z   64
loop_
 _symmetry_equiv_pos_site_id
 _symmetry_equiv_pos_as_xyz
  1  'x, y, z'
loop_
 _atom_site_type_symbol
 _atom_site_label
 _atom_site_symmetry_multiplicity
 _atom_site_fract_x
 _atom_site_fract_y
 _atom_site_fract_z
 _atom_site_occupancy
  Na  Na0  1  0.25000000  0.25000000  0.24471722  1
  Na  Na1  1  0.25000000  0.75000000  0.24471722  1
  Na  Na2  1  0.75000000  0.25000000  0.24471722  1
  Na  Na3  1  0.75000000  0.75000000  0.24471722  1
  Na  Na4  1  0.50000000  0.50000000  0.24471722  1
  Na  Na5  1  0.50000000  1.00000000  0.24471722  1
  Na  Na6  1  1.00000000  0.50000000  0.24471722  1
  Na  Na7  1  1.00000000  1.00000000  0.24471722  1
  Na  Na8  1  0.50000000  0.25000000  0.74471722  1
  Na  Na9  1  0.50000000  0.75000000  0.74471722  1
  Na  Na10  1  1.00000000  0.25000000  0.74471722  1
  Na  Na11  1  1.00000000  0.75000000  0.74471722  1
  Na  Na12  1  0.25000000  0.50000000  0.74471722  1
  Na  Na13  1  0.25000000  1.00000000  0.74471722  1
  Na  Na14  1  0.75000000  0.50000000  0.74471722  1
  Na  Na15  1  0.75000000  1.00000000  0.74471722  1
  Na  Na16  1  0.25000000  0.25000000  0.92014170  1
  Na  Na17  1  0.25000000  0.75000000  0.92014170  1
  Na  Na18  1  0.75000000  0.25000000  0.92014170  1
  Na  Na19  1  0.75000000  0.75000000  0.92014170  1
  Na  Na20  1  0.50000000  0.50000000  0.92014170  1
  Na  Na21  1  0.50000000  1.00000000  0.92014170  1
  Na  Na22  1  1.00000000  0.50000000  0.92014170  1
  Na  Na23  1  1.00000000  1.00000000  0.92014170  1
  Na  Na24  1  0.50000000  0.25000000  1.42014170  1
  Na  Na25  1  0.50000000  0.75000000  1.42014170  1
  Na  Na26  1  1.00000000  0.25000000  1.42014170  1
  Na  Na27  1  1.00000000  0.75000000  1.42014170  1
  Na  Na28  1  0.25000000  0.50000000  1.42014170  1
  Na  Na29  1  0.25000000  1.00000000  1.42014170  1
  Na  Na30  1  0.75000000  0.50000000  1.42014170  1
  Na  Na31  1  0.75000000  1.00000000  1.42014170  1
  Na  Na32  1  0.12500000  0.12500000  0.00528278  1
  Na  Na33  1  0.12500000  0.62500000  0.00528278  1
  Na  Na34  1  0.62500000  0.12500000  0.00528278  1
  Na  Na35  1  0.62500000  0.62500000  0.00528278  1
  Na  Na36  1  0.37500000  0.37500000  0.00528278  1
  Na  Na37  1  0.37500000  0.87500000  0.00528278  1
  Na  Na38  1  0.87500000  0.37500000  0.00528278  1
  Na  Na39  1  0.87500000  0.87500000  0.00528278  1
  Na  Na40  1  0.37500000  0.12500000  0.50528278  1
  Na  Na41  1  0.37500000  0.62500000  0.50528278  1
  Na  Na42  1  0.87500000  0.12500000  0.50528278  1
  Na  Na43  1  0.87500000  0.62500000  0.50528278  1
  Na  Na44  1  0.12500000  0.37500000  0.50528278  1
  Na  Na45  1  0.12500000  0.87500000  0.50528278  1
  Na  Na46  1  0.62500000  0.37500000  0.50528278  1
  Na  Na47  1  0.62500000  0.87500000  0.50528278  1
  Na  Na48  1  0.12500000  0.12500000  0.49471722  1
  Na  Na49  1  0.12500000  0.62500000  0.49471722  1
  Na  Na50  1  0.62500000  0.12500000  0.49471722  1
  Na  Na51  1  0.62500000  0.62500000  0.49471722  1
  Na  Na52  1  0.37500000  0.37500000  0.49471722  1
  Na  Na53  1  0.37500000  0.87500000  0.49471722  1
  Na  Na54  1  0.87500000  0.37500000  0.49471722  1
  Na  Na55  1  0.87500000  0.87500000  0.49471722  1
  Na  Na56  1  0.37500000  0.12500000  0.99471722  1
  Na  Na57  1  0.37500000  0.62500000  0.99471722  1
  Na  Na58  1  0.87500000  0.12500000  0.99471722  1
  Na  Na59  1  0.87500000  0.62500000  0.99471722  1
  Na  Na60  1  0.12500000  0.37500000  0.99471722  1
  Na  Na61  1  0.12500000  0.87500000  0.99471722  1
  Na  Na62  1  0.62500000  0.37500000  0.99471722  1
  Na  Na63  1  0.62500000  0.87500000  0.99471722  1
  Na  Na64  1  0.12500000  0.12500000  0.17014170  1
  Na  Na65  1  0.12500000  0.62500000  0.17014170  1
  Na  Na66  1  0.62500000  0.12500000  0.17014170  1
  Na  Na67  1  0.62500000  0.62500000  0.17014170  1
  Na  Na68  1  0.37500000  0.37500000  0.17014170  1
  Na  Na69  1  0.37500000  0.87500000  0.17014170  1
  Na  Na70  1  0.87500000  0.37500000  0.17014170  1
  Na  Na71  1  0.87500000  0.87500000  0.17014170  1
  Na  Na72  1  0.37500000  0.12500000  0.67014170  1
  Na  Na73  1  0.37500000  0.62500000  0.67014170  1
  Na  Na74  1  0.87500000  0.12500000  0.67014170  1
  Na  Na75  1  0.87500000  0.62500000  0.67014170  1
  Na  Na76  1  0.12500000  0.37500000  0.67014170  1
  Na  Na77  1  0.12500000  0.87500000  0.67014170  1
  Na  Na78  1  0.62500000  0.37500000  0.67014170  1
  Na  Na79  1  0.62500000  0.87500000  0.67014170  1
  Na  Na80  1  0.12500000  0.12500000  0.32985830  1
  Na  Na81  1  0.12500000  0.62500000  0.32985830  1
  Na  Na82  1  0.62500000  0.12500000  0.32985830  1
  Na  Na83  1  0.62500000  0.62500000  0.32985830  1
  Na  Na84  1  0.37500000  0.37500000  0.32985830  1
  Na  Na85  1  0.37500000  0.87500000  0.32985830  1
  Na  Na86  1  0.87500000  0.37500000  0.32985830  1
  Na  Na87  1  0.87500000  0.87500000  0.32985830  1
  Na  Na88  1  0.37500000  0.12500000  0.82985830  1
  Na  Na89  1  0.37500000  0.62500000  0.82985830  1
  Na  Na90  1  0.87500000  0.12500000  0.82985830  1
  Na  Na91  1  0.87500000  0.62500000  0.82985830  1
  Na  Na92  1  0.12500000  0.37500000  0.82985830  1
  Na  Na93  1  0.12500000  0.87500000  0.82985830  1
  Na  Na94  1  0.62500000  0.37500000  0.82985830  1
  Na  Na95  1  0.62500000  0.87500000  0.82985830  1
  Na  Na96  1  0.25000000  0.25000000  0.75528278  1
  Na  Na97  1  0.25000000  0.75000000  0.75528278  1
  Na  Na98  1  0.75000000  0.25000000  0.75528278  1
  Na  Na99  1  0.75000000  0.75000000  0.75528278  1
  Na  Na100  1  0.50000000  0.50000000  0.75528278  1
  Na  Na101  1  0.50000000  1.00000000  0.75528278  1
  Na  Na102  1  1.00000000  0.50000000  0.75528278  1
  Na  Na103  1  1.00000000  1.00000000  0.75528278  1
  Na  Na104  1  0.50000000  0.25000000  1.25528278  1
  Na  Na105  1  0.50000000  0.75000000  1.25528278  1
  Na  Na106  1  1.00000000  0.25000000  1.25528278  1
  Na  Na107  1  1.00000000  0.75000000  1.25528278  1
  Na  Na108  1  0.25000000  0.50000000  1.25528278  1
  Na  Na109  1  0.25000000  1.00000000  1.25528278  1
  Na  Na110  1  0.75000000  0.50000000  1.25528278  1
  Na  Na111  1  0.75000000  1.00000000  1.25528278  1
  Na  Na112  1  0.25000000  0.25000000  0.07985830  1
  Na  Na113  1  0.25000000  0.75000000  0.07985830  1
  Na  Na114  1  0.75000000  0.25000000  0.07985830  1
  Na  Na115  1  0.75000000  0.75000000  0.07985830  1
  Na  Na116  1  0.50000000  0.50000000  0.07985830  1
  Na  Na117  1  0.50000000  1.00000000  0.07985830  1
  Na  Na118  1  1.00000000  0.50000000  0.07985830  1
  Na  Na119  1  1.00000000  1.00000000  0.07985830  1
  Na  Na120  1  0.50000000  0.25000000  0.57985830  1
  Na  Na121  1  0.50000000  0.75000000  0.57985830  1
  Na  Na122  1  1.00000000  0.25000000  0.57985830  1
  Na  Na123  1  1.00000000  0.75000000  0.57985830  1
  Na  Na124  1  0.25000000  0.50000000  0.57985830  1
  Na  Na125  1  0.25000000  1.00000000  0.57985830  1
  Na  Na126  1  0.75000000  0.50000000  0.57985830  1
  Na  Na127  1  0.75000000  1.00000000  0.57985830  1
  Pt  Pt128  1  0.25000000  0.25000000  0.58354664  1
  Pt  Pt129  1  0.25000000  0.75000000  0.58354664  1
  Pt  Pt130  1  0.75000000  0.25000000  0.58354664  1
  Pt  Pt131  1  0.75000000  0.75000000  0.58354664  1
  Pt  Pt132  1  0.50000000  0.50000000  0.58354664  1
  Pt  Pt133  1  0.50000000  1.00000000  0.58354664  1
  Pt  Pt134  1  1.00000000  0.50000000  0.58354664  1
  Pt  Pt135  1  1.00000000  1.00000000  0.58354664  1
  Pt  Pt136  1  0.50000000  0.25000000  1.08354664  1
  Pt  Pt137  1  0.50000000  0.75000000  1.08354664  1
  Pt  Pt138  1  1.00000000  0.25000000  1.08354664  1
  Pt  Pt139  1  1.00000000  0.75000000  1.08354664  1
  Pt  Pt140  1  0.25000000  0.50000000  1.08354664  1
  Pt  Pt141  1  0.25000000  1.00000000  1.08354664  1
  Pt  Pt142  1  0.75000000  0.50000000  1.08354664  1
  Pt  Pt143  1  0.75000000  1.00000000  1.08354664  1
  Pt  Pt144  1  0.37500000  0.37500000  0.66645336  1
  Pt  Pt145  1  0.37500000  0.87500000  0.66645336  1
  Pt  Pt146  1  0.87500000  0.37500000  0.66645336  1
  Pt  Pt147  1  0.87500000  0.87500000  0.66645336  1
  Pt  Pt148  1  0.62500000  0.62500000  0.66645336  1
  Pt  Pt149  1  0.62500000  1.12500000  0.66645336  1
  Pt  Pt150  1  1.12500000  0.62500000  0.66645336  1
  Pt  Pt151  1  1.12500000  1.12500000  0.66645336  1
  Pt  Pt152  1  0.62500000  0.37500000  1.16645336  1
  Pt  Pt153  1  0.62500000  0.87500000  1.16645336  1
  Pt  Pt154  1  1.12500000  0.37500000  1.16645336  1
  Pt  Pt155  1  1.12500000  0.87500000  1.16645336  1
  Pt  Pt156  1  0.37500000  0.62500000  1.16645336  1
  Pt  Pt157  1  0.37500000  1.12500000  1.16645336  1
  Pt  Pt158  1  0.87500000  0.62500000  1.16645336  1
  Pt  Pt159  1  0.87500000  1.12500000  1.16645336  1
  Pt  Pt160  1  0.25000000  0.25000000  0.41645336  1
  Pt  Pt161  1  0.25000000  0.75000000  0.41645336  1
  Pt  Pt162  1  0.75000000  0.25000000  0.41645336  1
  Pt  Pt163  1  0.75000000  0.75000000  0.41645336  1
  Pt  Pt164  1  0.50000000  0.50000000  0.41645336  1
  Pt  Pt165  1  0.50000000  1.00000000  0.41645336  1
  Pt  Pt166  1  1.00000000  0.50000000  0.41645336  1
  Pt  Pt167  1  1.00000000  1.00000000  0.41645336  1
  Pt  Pt168  1  0.50000000  0.25000000  0.91645336  1
  Pt  Pt169  1  0.50000000  0.75000000  0.91645336  1
  Pt  Pt170  1  1.00000000  0.25000000  0.91645336  1
  Pt  Pt171  1  1.00000000  0.75000000  0.91645336  1
  Pt  Pt172  1  0.25000000  0.50000000  0.91645336  1
  Pt  Pt173  1  0.25000000  1.00000000  0.91645336  1
  Pt  Pt174  1  0.75000000  0.50000000  0.91645336  1
  Pt  Pt175  1  0.75000000  1.00000000  0.91645336  1
  Pt  Pt176  1  0.37500000  0.37500000  0.83354664  1
  Pt  Pt177  1  0.37500000  0.87500000  0.83354664  1
  Pt  Pt178  1  0.87500000  0.37500000  0.83354664  1
  Pt  Pt179  1  0.87500000  0.87500000  0.83354664  1
  Pt  Pt180  1  0.62500000  0.62500000  0.83354664  1
  Pt  Pt181  1  0.62500000  1.12500000  0.83354664  1
  Pt  Pt182  1  1.12500000  0.62500000  0.83354664  1
  Pt  Pt183  1  1.12500000  1.12500000  0.83354664  1
  Pt  Pt184  1  0.62500000  0.37500000  1.33354664  1
  Pt  Pt185  1  0.62500000  0.87500000  1.33354664  1
  Pt  Pt186  1  1.12500000  0.37500000  1.33354664  1
  Pt  Pt187  1  1.12500000  0.87500000  1.33354664  1
  Pt  Pt188  1  0.37500000  0.62500000  1.33354664  1
  Pt  Pt189  1  0.37500000  1.12500000  1.33354664  1
  Pt  Pt190  1  0.87500000  0.62500000  1.33354664  1
  Pt  Pt191  1  0.87500000  1.12500000  1.33354664  1
  O  O192  1  0.35564674  0.25000000  0.50000000  1
  O  O193  1  0.35564674  0.75000000  0.50000000  1
  O  O194  1  0.85564674  0.25000000  0.50000000  1
  O  O195  1  0.85564674  0.75000000  0.50000000  1
  O  O196  1  0.60564674  0.50000000  0.50000000  1
  O  O197  1  0.60564674  1.00000000  0.50000000  1
  O  O198  1  1.10564674  0.50000000  0.50000000  1
  O  O199  1  1.10564674  1.00000000  0.50000000  1
  O  O200  1  0.60564674  0.25000000  1.00000000  1
  O  O201  1  0.60564674  0.75000000  1.00000000  1
  O  O202  1  1.10564674  0.25000000  1.00000000  1
  O  O203  1  1.10564674  0.75000000  1.00000000  1
  O  O204  1  0.35564674  0.50000000  1.00000000  1
  O  O205  1  0.35564674  1.00000000  1.00000000  1
  O  O206  1  0.85564674  0.50000000  1.00000000  1
  O  O207  1  0.85564674  1.00000000  1.00000000  1
  O  O208  1  0.23876549  0.36516510  0.41076550  1
  O  O209  1  0.23876549  0.86516510  0.41076550  1
  O  O210  1  0.73876549  0.36516510  0.41076550  1
  O  O211  1  0.73876549  0.86516510  0.41076550  1
  O  O212  1  0.48876549  0.61516510  0.41076550  1
  O  O213  1  0.48876549  1.11516510  0.41076550  1
  O  O214  1  0.98876549  0.61516510  0.41076550  1
  O  O215  1  0.98876549  1.11516510  0.41076550  1
  O  O216  1  0.48876549  0.36516510  0.91076550  1
  O  O217  1  0.48876549  0.86516510  0.91076550  1
  O  O218  1  0.98876549  0.36516510  0.91076550  1
  O  O219  1  0.98876549  0.86516510  0.91076550  1
  O  O220  1  0.23876549  0.61516510  0.91076550  1
  O  O221  1  0.23876549  1.11516510  0.91076550  1
  O  O222  1  0.73876549  0.61516510  0.91076550  1
  O  O223  1  0.73876549  1.11516510  0.91076550  1
  O  O224  1  0.26123451  0.13483490  0.41076550  1
  O  O225  1  0.26123451  0.63483490  0.41076550  1
  O  O226  1  0.76123451  0.13483490  0.41076550  1
  O  O227  1  0.76123451  0.63483490  0.41076550  1
  O  O228  1  0.51123451  0.38483490  0.41076550  1
  O  O229  1  0.51123451  0.88483490  0.41076550  1
  O  O230  1  1.01123451  0.38483490  0.41076550  1
  O  O231  1  1.01123451  0.88483490  0.41076550  1
  O  O232  1  0.51123451  0.13483490  0.91076550  1
  O  O233  1  0.51123451  0.63483490  0.91076550  1
  O  O234  1  1.01123451  0.13483490  0.91076550  1
  O  O235  1  1.01123451  0.63483490  0.91076550  1
  O  O236  1  0.26123451  0.38483490  0.91076550  1
  O  O237  1  0.26123451  0.88483490  0.91076550  1
  O  O238  1  0.76123451  0.38483490  0.91076550  1
  O  O239  1  0.76123451  0.88483490  0.91076550  1
  O  O240  1  0.26123451  0.36516510  0.58923450  1
  O  O241  1  0.26123451  0.86516510  0.58923450  1
  O  O242  1  0.76123451  0.36516510  0.58923450  1
  O  O243  1  0.76123451  0.86516510  0.58923450  1
  O  O244  1  0.51123451  0.61516510  0.58923450  1
  O  O245  1  0.51123451  1.11516510  0.58923450  1
  O  O246  1  1.01123451  0.61516510  0.58923450  1
  O  O247  1  1.01123451  1.11516510  0.58923450  1
  O  O248  1  0.51123451  0.36516510  1.08923450  1
  O  O249  1  0.51123451  0.86516510  1.08923450  1
  O  O250  1  1.01123451  0.36516510  1.08923450  1
  O  O251  1  1.01123451  0.86516510  1.08923450  1
  O  O252  1  0.26123451  0.61516510  1.08923450  1
  O  O253  1  0.26123451  1.11516510  1.08923450  1
  O  O254  1  0.76123451  0.61516510  1.08923450  1
  O  O255  1  0.76123451  1.11516510  1.08923450  1
  O  O256  1  0.36376549  0.24016510  0.33923450  1
  O  O257  1  0.36376549  0.74016510  0.33923450  1
  O  O258  1  0.86376549  0.24016510  0.33923450  1
  O  O259  1  0.86376549  0.74016510  0.33923450  1
  O  O260  1  0.61376549  0.49016510  0.33923450  1
  O  O261  1  0.61376549  0.99016510  0.33923450  1
  O  O262  1  1.11376549  0.49016510  0.33923450  1
  O  O263  1  1.11376549  0.99016510  0.33923450  1
  O  O264  1  0.61376549  0.24016510  0.83923450  1
  O  O265  1  0.61376549  0.74016510  0.83923450  1
  O  O266  1  1.11376549  0.24016510  0.83923450  1
  O  O267  1  1.11376549  0.74016510  0.83923450  1
  O  O268  1  0.36376549  0.49016510  0.83923450  1
  O  O269  1  0.36376549  0.99016510  0.83923450  1
  O  O270  1  0.86376549  0.49016510  0.83923450  1
  O  O271  1  0.86376549  0.99016510  0.83923450  1
  O  O272  1  0.23876549  0.13483490  0.58923450  1
  O  O273  1  0.23876549  0.63483490  0.58923450  1
  O  O274  1  0.73876549  0.13483490  0.58923450  1
  O  O275  1  0.73876549  0.63483490  0.58923450  1
  O  O276  1  0.48876549  0.38483490  0.58923450  1
  O  O277  1  0.48876549  0.88483490  0.58923450  1
  O  O278  1  0.98876549  0.38483490  0.58923450  1
  O  O279  1  0.98876549  0.88483490  0.58923450  1
  O  O280  1  0.48876549  0.13483490  1.08923450  1
  O  O281  1  0.48876549  0.63483490  1.08923450  1
  O  O282  1  0.98876549  0.13483490  1.08923450  1
  O  O283  1  0.98876549  0.63483490  1.08923450  1
  O  O284  1  0.23876549  0.38483490  1.08923450  1
  O  O285  1  0.23876549  0.88483490  1.08923450  1
  O  O286  1  0.73876549  0.38483490  1.08923450  1
  O  O287  1  0.73876549  0.88483490  1.08923450  1
  O  O288  1  0.13623451  0.25983490  0.33923450  1
  O  O289  1  0.13623451  0.75983490  0.33923450  1
  O  O290  1  0.63623451  0.25983490  0.33923450  1
  O  O291  1  0.63623451  0.75983490  0.33923450  1
  O  O292  1  0.38623451  0.50983490  0.33923450  1
  O  O293  1  0.38623451  1.00983490  0.33923450  1
  O  O294  1  0.88623451  0.50983490  0.33923450  1
  O  O295  1  0.88623451  1.00983490  0.33923450  1
  O  O296  1  0.38623451  0.25983490  0.83923450  1
  O  O297  1  0.38623451  0.75983490  0.83923450  1
  O  O298  1  0.88623451  0.25983490  0.83923450  1
  O  O299  1  0.88623451  0.75983490  0.83923450  1
  O  O300  1  0.13623451  0.50983490  0.83923450  1
  O  O301  1  0.13623451  1.00983490  0.83923450  1
  O  O302  1  0.63623451  0.50983490  0.83923450  1
  O  O303  1  0.63623451  1.00983490  0.83923450  1
  O  O304  1  0.48064674  0.37500000  0.75000000  1
  O  O305  1  0.48064674  0.87500000  0.75000000  1
  O  O306  1  0.98064674  0.37500000  0.75000000  1
  O  O307  1  0.98064674  0.87500000  0.75000000  1
  O  O308  1  0.73064674  0.62500000  0.75000000  1
  O  O309  1  0.73064674  1.12500000  0.75000000  1
  O  O310  1  1.23064674  0.62500000  0.75000000  1
  O  O311  1  1.23064674  1.12500000  0.75000000  1
  O  O312  1  0.73064674  0.37500000  1.25000000  1
  O  O313  1  0.73064674  0.87500000  1.25000000  1
  O  O314  1  1.23064674  0.37500000  1.25000000  1
  O  O315  1  1.23064674  0.87500000  1.25000000  1
  O  O316  1  0.48064674  0.62500000  1.25000000  1
  O  O317  1  0.48064674  1.12500000  1.25000000  1
  O  O318  1  0.98064674  0.62500000  1.25000000  1
  O  O319  1  0.98064674  1.12500000  1.25000000  1
  O  O320  1  0.36376549  0.25983490  0.66076550  1
  O  O321  1  0.36376549  0.75983490  0.66076550  1
  O  O322  1  0.86376549  0.25983490  0.66076550  1
  O  O323  1  0.86376549  0.75983490  0.66076550  1
  O  O324  1  0.61376549  0.50983490  0.66076550  1
  O  O325  1  0.61376549  1.00983490  0.66076550  1
  O  O326  1  1.11376549  0.50983490  0.66076550  1
  O  O327  1  1.11376549  1.00983490  0.66076550  1
  O  O328  1  0.61376549  0.25983490  1.16076550  1
  O  O329  1  0.61376549  0.75983490  1.16076550  1
  O  O330  1  1.11376549  0.25983490  1.16076550  1
  O  O331  1  1.11376549  0.75983490  1.16076550  1
  O  O332  1  0.36376549  0.50983490  1.16076550  1
  O  O333  1  0.36376549  1.00983490  1.16076550  1
  O  O334  1  0.86376549  0.50983490  1.16076550  1
  O  O335  1  0.86376549  1.00983490  1.16076550  1
  O  O336  1  0.13623451  0.24016510  0.66076550  1
  O  O337  1  0.13623451  0.74016510  0.66076550  1
  O  O338  1  0.63623451  0.24016510  0.66076550  1
  O  O339  1  0.63623451  0.74016510  0.66076550  1
  O  O340  1  0.38623451  0.49016510  0.66076550  1
  O  O341  1  0.38623451  0.99016510  0.66076550  1
  O  O342  1  0.88623451  0.49016510  0.66076550  1
  O  O343  1  0.88623451  0.99016510  0.66076550  1
  O  O344  1  0.38623451  0.24016510  1.16076550  1
  O  O345  1  0.38623451  0.74016510  1.16076550  1
  O  O346  1  0.88623451  0.24016510  1.16076550  1
  O  O347  1  0.88623451  0.74016510  1.16076550  1
  O  O348  1  0.13623451  0.49016510  1.16076550  1
  O  O349  1  0.13623451  0.99016510  1.16076550  1
  O  O350  1  0.63623451  0.49016510  1.16076550  1
  O  O351  1  0.63623451  0.99016510  1.16076550  1
  O  O352  1  0.26935326  0.37500000  0.75000000  1
  O  O353  1  0.26935326  0.87500000  0.75000000  1
  O  O354  1  0.76935326  0.37500000  0.75000000  1
  O  O355  1  0.76935326  0.87500000  0.75000000  1
  O  O356  1  0.51935326  0.62500000  0.75000000  1
  O  O357  1  0.51935326  1.12500000  0.75000000  1
  O  O358  1  1.01935326  0.62500000  0.75000000  1
  O  O359  1  1.01935326  1.12500000  0.75000000  1
  O  O360  1  0.51935326  0.37500000  1.25000000  1
  O  O361  1  0.51935326  0.87500000  1.25000000  1
  O  O362  1  1.01935326  0.37500000  1.25000000  1
  O  O363  1  1.01935326  0.87500000  1.25000000  1
  O  O364  1  0.26935326  0.62500000  1.25000000  1
  O  O365  1  0.26935326  1.12500000  1.25000000  1
  O  O366  1  0.76935326  0.62500000  1.25000000  1
  O  O367  1  0.76935326  1.12500000  1.25000000  1
  O  O368  1  0.14435326  0.25000000  0.50000000  1
  O  O369  1  0.14435326  0.75000000  0.50000000  1
  O  O370  1  0.64435326  0.25000000  0.50000000  1
  O  O371  1  0.64435326  0.75000000  0.50000000  1
  O  O372  1  0.39435326  0.50000000  0.50000000  1
  O  O373  1  0.39435326  1.00000000  0.50000000  1
  O  O374  1  0.89435326  0.50000000  0.50000000  1
  O  O375  1  0.89435326  1.00000000  0.50000000  1
  O  O376  1  0.39435326  0.25000000  1.00000000  1
  O  O377  1  0.39435326  0.75000000  1.00000000  1
  O  O378  1  0.89435326  0.25000000  1.00000000  1
  O  O379  1  0.89435326  0.75000000  1.00000000  1
  O  O380  1  0.14435326  0.50000000  1.00000000  1
  O  O381  1  0.14435326  1.00000000  1.00000000  1
  O  O382  1  0.64435326  0.50000000  1.00000000  1
  O  O383  1  0.64435326  1.00000000  1.00000000  1
