# generated using pymatgen
data_CsCuO2
_symmetry_space_group_name_H-M   'P 1'
_cell_length_a   10.50730650
_cell_length_b   11.98928128
_cell_length_c   10.79327754
_cell_angle_alpha   90.00000000
_cell_angle_beta   90.00000000
_cell_angle_gamma   90.00000000
_symmetry_Int_Tables_number   1
_chemical_formula_structural   CsCuO2
_chemical_formula_sum   'Cs16 Cu16 O32'
_cell_volume   1359.68371181
_cell_formula_units_Z   16
loop_
 _symmetry_equiv_pos_site_id
 _symmetry_equiv_pos_as_xyz
  1  'x, y, z'
loop_
 _atom_site_type_symbol
 _atom_site_label
 _atom_site_symmetry_multiplicity
 _atom_site_fract_x
 _atom_site_fract_y
 _atom_site_fract_z
 _atom_site_occupancy
  Cs  Cs0  1  0.25000000  0.18513469  0.37500000  1
  Cs  Cs1  1  0.25000000  0.18513469  0.87500000  1
  Cs  Cs2  1  0.75000000  0.18513469  0.37500000  1
  Cs  Cs3  1  0.75000000  0.18513469  0.87500000  1
  Cs  Cs4  1  0.50000000  0.68513469  0.37500000  1
  Cs  Cs5  1  0.50000000  0.68513469  0.87500000  1
  Cs  Cs6  1  1.00000000  0.68513469  0.37500000  1
  Cs  Cs7  1  1.00000000  0.68513469  0.87500000  1
  Cs  Cs8  1  0.25000000  -0.18513469  0.12500000  1
  Cs  Cs9  1  0.25000000  -0.18513469  0.62500000  1
  Cs  Cs10  1  0.75000000  -0.18513469  0.12500000  1
  Cs  Cs11  1  0.75000000  -0.18513469  0.62500000  1
  Cs  Cs12  1  0.50000000  0.31486531  0.12500000  1
  Cs  Cs13  1  0.50000000  0.31486531  0.62500000  1
  Cs  Cs14  1  1.00000000  0.31486531  0.12500000  1
  Cs  Cs15  1  1.00000000  0.31486531  0.62500000  1
  Cu  Cu16  1  0.25000000  0.49816336  0.37500000  1
  Cu  Cu17  1  0.25000000  0.49816336  0.87500000  1
  Cu  Cu18  1  0.75000000  0.49816336  0.37500000  1
  Cu  Cu19  1  0.75000000  0.49816336  0.87500000  1
  Cu  Cu20  1  0.50000000  0.99816336  0.37500000  1
  Cu  Cu21  1  0.50000000  0.99816336  0.87500000  1
  Cu  Cu22  1  1.00000000  0.99816336  0.37500000  1
  Cu  Cu23  1  1.00000000  0.99816336  0.87500000  1
  Cu  Cu24  1  0.25000000  -0.49816336  0.12500000  1
  Cu  Cu25  1  0.25000000  -0.49816336  0.62500000  1
  Cu  Cu26  1  0.75000000  -0.49816336  0.12500000  1
  Cu  Cu27  1  0.75000000  -0.49816336  0.62500000  1
  Cu  Cu28  1  0.50000000  0.00183664  0.12500000  1
  Cu  Cu29  1  0.50000000  0.00183664  0.62500000  1
  Cu  Cu30  1  1.00000000  0.00183664  0.12500000  1
  Cu  Cu31  1  1.00000000  0.00183664  0.62500000  1
  O  O32  1  0.25000000  0.39927764  0.00179736  1
  O  O33  1  0.25000000  0.39927764  0.50179736  1
  O  O34  1  0.75000000  0.39927764  0.00179736  1
  O  O35  1  0.75000000  0.39927764  0.50179736  1
  O  O36  1  0.50000000  0.89927764  0.00179736  1
  O  O37  1  0.50000000  0.89927764  0.50179736  1
  O  O38  1  1.00000000  0.89927764  0.00179736  1
  O  O39  1  1.00000000  0.89927764  0.50179736  1
  O  O40  1  0.25000000  -0.39927764  0.49820264  1
  O  O41  1  0.25000000  -0.39927764  0.99820264  1
  O  O42  1  0.75000000  -0.39927764  0.49820264  1
  O  O43  1  0.75000000  -0.39927764  0.99820264  1
  O  O44  1  0.50000000  0.10072236  0.49820264  1
  O  O45  1  0.50000000  0.10072236  0.99820264  1
  O  O46  1  1.00000000  0.10072236  0.49820264  1
  O  O47  1  1.00000000  0.10072236  0.99820264  1
  O  O48  1  0.25000000  -0.39927764  0.25179736  1
  O  O49  1  0.25000000  -0.39927764  0.75179736  1
  O  O50  1  0.75000000  -0.39927764  0.25179736  1
  O  O51  1  0.75000000  -0.39927764  0.75179736  1
  O  O52  1  0.50000000  0.10072236  0.25179736  1
  O  O53  1  0.50000000  0.10072236  0.75179736  1
  O  O54  1  1.00000000  0.10072236  0.25179736  1
  O  O55  1  1.00000000  0.10072236  0.75179736  1
  O  O56  1  0.25000000  0.39927764  0.24820264  1
  O  O57  1  0.25000000  0.39927764  0.74820264  1
  O  O58  1  0.75000000  0.39927764  0.24820264  1
  O  O59  1  0.75000000  0.39927764  0.74820264  1
  O  O60  1  0.50000000  0.89927764  0.24820264  1
  O  O61  1  0.50000000  0.89927764  0.74820264  1
  O  O62  1  1.00000000  0.89927764  0.24820264  1
  O  O63  1  1.00000000  0.89927764  0.74820264  1
