# generated using pymatgen
data_Ba3Zr2O7
_symmetry_space_group_name_H-M   'P 1'
_cell_length_a   17.77088962
_cell_length_b   17.77088962
_cell_length_c   21.78243181
_cell_angle_alpha   90.00000000
_cell_angle_beta   90.00000000
_cell_angle_gamma   90.00000000
_symmetry_Int_Tables_number   1
_chemical_formula_structural   Ba3Zr2O7
_chemical_formula_sum   'Ba108 Zr72 O252'
_cell_volume   6878.99037407
_cell_formula_units_Z   36
loop_
 _symmetry_equiv_pos_site_id
 _symmetry_equiv_pos_as_xyz
  1  'x, y, z'
loop_
 _atom_site_type_symbol
 _atom_site_label
 _atom_site_symmetry_multiplicity
 _atom_site_fract_x
 _atom_site_fract_y
 _atom_site_fract_z
 _atom_site_occupancy
  Ba  Ba0  1  0.00000000  0.66666667  0.00000000  1
  Ba  Ba1  1  0.16666667  0.83333333  0.00000000  1
  Ba  Ba2  1  0.00000000  0.33333333  0.00000000  1
  Ba  Ba3  1  0.16666667  0.50000000  0.00000000  1
  Ba  Ba4  1  0.33333333  0.66666667  0.00000000  1
  Ba  Ba5  1  0.50000000  0.83333333  0.00000000  1
  Ba  Ba6  1  0.00000000  0.00000000  0.00000000  1
  Ba  Ba7  1  0.16666667  0.16666667  0.00000000  1
  Ba  Ba8  1  0.33333333  0.33333333  0.00000000  1
  Ba  Ba9  1  0.50000000  0.50000000  0.00000000  1
  Ba  Ba10  1  0.66666667  0.66666667  0.00000000  1
  Ba  Ba11  1  0.83333333  0.83333333  0.00000000  1
  Ba  Ba12  1  0.33333333  0.00000000  0.00000000  1
  Ba  Ba13  1  0.50000000  0.16666667  0.00000000  1
  Ba  Ba14  1  0.66666667  0.33333333  0.00000000  1
  Ba  Ba15  1  0.83333333  0.50000000  0.00000000  1
  Ba  Ba16  1  0.66666667  0.00000000  0.00000000  1
  Ba  Ba17  1  0.83333333  0.16666667  0.00000000  1
  Ba  Ba18  1  0.16666667  0.66666667  0.50000000  1
  Ba  Ba19  1  0.33333333  0.83333333  0.50000000  1
  Ba  Ba20  1  0.16666667  0.33333333  0.50000000  1
  Ba  Ba21  1  0.33333333  0.50000000  0.50000000  1
  Ba  Ba22  1  0.50000000  0.66666667  0.50000000  1
  Ba  Ba23  1  0.66666667  0.83333333  0.50000000  1
  Ba  Ba24  1  0.16666667  0.00000000  0.50000000  1
  Ba  Ba25  1  0.33333333  0.16666667  0.50000000  1
  Ba  Ba26  1  0.50000000  0.33333333  0.50000000  1
  Ba  Ba27  1  0.66666667  0.50000000  0.50000000  1
  Ba  Ba28  1  0.83333333  0.66666667  0.50000000  1
  Ba  Ba29  1  1.00000000  0.83333333  0.50000000  1
  Ba  Ba30  1  0.50000000  0.00000000  0.50000000  1
  Ba  Ba31  1  0.66666667  0.16666667  0.50000000  1
  Ba  Ba32  1  0.83333333  0.33333333  0.50000000  1
  Ba  Ba33  1  1.00000000  0.50000000  0.50000000  1
  Ba  Ba34  1  0.83333333  0.00000000  0.50000000  1
  Ba  Ba35  1  1.00000000  0.16666667  0.50000000  1
  Ba  Ba36  1  0.00000000  0.66666667  0.81436682  1
  Ba  Ba37  1  0.16666667  0.83333333  0.81436682  1
  Ba  Ba38  1  0.00000000  0.33333333  0.81436682  1
  Ba  Ba39  1  0.16666667  0.50000000  0.81436682  1
  Ba  Ba40  1  0.33333333  0.66666667  0.81436682  1
  Ba  Ba41  1  0.50000000  0.83333333  0.81436682  1
  Ba  Ba42  1  0.00000000  -0.00000000  0.81436682  1
  Ba  Ba43  1  0.16666667  0.16666667  0.81436682  1
  Ba  Ba44  1  0.33333333  0.33333333  0.81436682  1
  Ba  Ba45  1  0.50000000  0.50000000  0.81436682  1
  Ba  Ba46  1  0.66666667  0.66666667  0.81436682  1
  Ba  Ba47  1  0.83333333  0.83333333  0.81436682  1
  Ba  Ba48  1  0.33333333  0.00000000  0.81436682  1
  Ba  Ba49  1  0.50000000  0.16666667  0.81436682  1
  Ba  Ba50  1  0.66666667  0.33333333  0.81436682  1
  Ba  Ba51  1  0.83333333  0.50000000  0.81436682  1
  Ba  Ba52  1  0.66666667  0.00000000  0.81436682  1
  Ba  Ba53  1  0.83333333  0.16666667  0.81436682  1
  Ba  Ba54  1  0.16666667  0.66666667  1.31436682  1
  Ba  Ba55  1  0.33333333  0.83333333  1.31436682  1
  Ba  Ba56  1  0.16666667  0.33333333  1.31436682  1
  Ba  Ba57  1  0.33333333  0.50000000  1.31436682  1
  Ba  Ba58  1  0.50000000  0.66666667  1.31436682  1
  Ba  Ba59  1  0.66666667  0.83333333  1.31436682  1
  Ba  Ba60  1  0.16666667  0.00000000  1.31436682  1
  Ba  Ba61  1  0.33333333  0.16666667  1.31436682  1
  Ba  Ba62  1  0.50000000  0.33333333  1.31436682  1
  Ba  Ba63  1  0.66666667  0.50000000  1.31436682  1
  Ba  Ba64  1  0.83333333  0.66666667  1.31436682  1
  Ba  Ba65  1  1.00000000  0.83333333  1.31436682  1
  Ba  Ba66  1  0.50000000  0.00000000  1.31436682  1
  Ba  Ba67  1  0.66666667  0.16666667  1.31436682  1
  Ba  Ba68  1  0.83333333  0.33333333  1.31436682  1
  Ba  Ba69  1  1.00000000  0.50000000  1.31436682  1
  Ba  Ba70  1  0.83333333  0.00000000  1.31436682  1
  Ba  Ba71  1  1.00000000  0.16666667  1.31436682  1
  Ba  Ba72  1  0.00000000  0.66666667  0.18563318  1
  Ba  Ba73  1  0.16666667  0.83333333  0.18563318  1
  Ba  Ba74  1  0.00000000  0.33333333  0.18563318  1
  Ba  Ba75  1  0.16666667  0.50000000  0.18563318  1
  Ba  Ba76  1  0.33333333  0.66666667  0.18563318  1
  Ba  Ba77  1  0.50000000  0.83333333  0.18563318  1
  Ba  Ba78  1  0.00000000  0.00000000  0.18563318  1
  Ba  Ba79  1  0.16666667  0.16666667  0.18563318  1
  Ba  Ba80  1  0.33333333  0.33333333  0.18563318  1
  Ba  Ba81  1  0.50000000  0.50000000  0.18563318  1
  Ba  Ba82  1  0.66666667  0.66666667  0.18563318  1
  Ba  Ba83  1  0.83333333  0.83333333  0.18563318  1
  Ba  Ba84  1  0.33333333  0.00000000  0.18563318  1
  Ba  Ba85  1  0.50000000  0.16666667  0.18563318  1
  Ba  Ba86  1  0.66666667  0.33333333  0.18563318  1
  Ba  Ba87  1  0.83333333  0.50000000  0.18563318  1
  Ba  Ba88  1  0.66666667  0.00000000  0.18563318  1
  Ba  Ba89  1  0.83333333  0.16666667  0.18563318  1
  Ba  Ba90  1  0.16666667  0.66666667  0.68563318  1
  Ba  Ba91  1  0.33333333  0.83333333  0.68563318  1
  Ba  Ba92  1  0.16666667  0.33333333  0.68563318  1
  Ba  Ba93  1  0.33333333  0.50000000  0.68563318  1
  Ba  Ba94  1  0.50000000  0.66666667  0.68563318  1
  Ba  Ba95  1  0.66666667  0.83333333  0.68563318  1
  Ba  Ba96  1  0.16666667  0.00000000  0.68563318  1
  Ba  Ba97  1  0.33333333  0.16666667  0.68563318  1
  Ba  Ba98  1  0.50000000  0.33333333  0.68563318  1
  Ba  Ba99  1  0.66666667  0.50000000  0.68563318  1
  Ba  Ba100  1  0.83333333  0.66666667  0.68563318  1
  Ba  Ba101  1  1.00000000  0.83333333  0.68563318  1
  Ba  Ba102  1  0.50000000  0.00000000  0.68563318  1
  Ba  Ba103  1  0.66666667  0.16666667  0.68563318  1
  Ba  Ba104  1  0.83333333  0.33333333  0.68563318  1
  Ba  Ba105  1  1.00000000  0.50000000  0.68563318  1
  Ba  Ba106  1  0.83333333  0.00000000  0.68563318  1
  Ba  Ba107  1  1.00000000  0.16666667  0.68563318  1
  Zr  Zr108  1  0.00000000  0.66666667  0.59726828  1
  Zr  Zr109  1  0.16666667  0.83333333  0.59726828  1
  Zr  Zr110  1  0.00000000  0.33333333  0.59726828  1
  Zr  Zr111  1  0.16666667  0.50000000  0.59726828  1
  Zr  Zr112  1  0.33333333  0.66666667  0.59726828  1
  Zr  Zr113  1  0.50000000  0.83333333  0.59726828  1
  Zr  Zr114  1  0.00000000  -0.00000000  0.59726828  1
  Zr  Zr115  1  0.16666667  0.16666667  0.59726828  1
  Zr  Zr116  1  0.33333333  0.33333333  0.59726828  1
  Zr  Zr117  1  0.50000000  0.50000000  0.59726828  1
  Zr  Zr118  1  0.66666667  0.66666667  0.59726828  1
  Zr  Zr119  1  0.83333333  0.83333333  0.59726828  1
  Zr  Zr120  1  0.33333333  0.00000000  0.59726828  1
  Zr  Zr121  1  0.50000000  0.16666667  0.59726828  1
  Zr  Zr122  1  0.66666667  0.33333333  0.59726828  1
  Zr  Zr123  1  0.83333333  0.50000000  0.59726828  1
  Zr  Zr124  1  0.66666667  0.00000000  0.59726828  1
  Zr  Zr125  1  0.83333333  0.16666667  0.59726828  1
  Zr  Zr126  1  0.16666667  0.66666667  1.09726828  1
  Zr  Zr127  1  0.33333333  0.83333333  1.09726828  1
  Zr  Zr128  1  0.16666667  0.33333333  1.09726828  1
  Zr  Zr129  1  0.33333333  0.50000000  1.09726828  1
  Zr  Zr130  1  0.50000000  0.66666667  1.09726828  1
  Zr  Zr131  1  0.66666667  0.83333333  1.09726828  1
  Zr  Zr132  1  0.16666667  0.00000000  1.09726828  1
  Zr  Zr133  1  0.33333333  0.16666667  1.09726828  1
  Zr  Zr134  1  0.50000000  0.33333333  1.09726828  1
  Zr  Zr135  1  0.66666667  0.50000000  1.09726828  1
  Zr  Zr136  1  0.83333333  0.66666667  1.09726828  1
  Zr  Zr137  1  1.00000000  0.83333333  1.09726828  1
  Zr  Zr138  1  0.50000000  0.00000000  1.09726828  1
  Zr  Zr139  1  0.66666667  0.16666667  1.09726828  1
  Zr  Zr140  1  0.83333333  0.33333333  1.09726828  1
  Zr  Zr141  1  1.00000000  0.50000000  1.09726828  1
  Zr  Zr142  1  0.83333333  0.00000000  1.09726828  1
  Zr  Zr143  1  1.00000000  0.16666667  1.09726828  1
  Zr  Zr144  1  0.00000000  0.66666667  0.40273172  1
  Zr  Zr145  1  0.16666667  0.83333333  0.40273172  1
  Zr  Zr146  1  0.00000000  0.33333333  0.40273172  1
  Zr  Zr147  1  0.16666667  0.50000000  0.40273172  1
  Zr  Zr148  1  0.33333333  0.66666667  0.40273172  1
  Zr  Zr149  1  0.50000000  0.83333333  0.40273172  1
  Zr  Zr150  1  -0.00000000  0.00000000  0.40273172  1
  Zr  Zr151  1  0.16666667  0.16666667  0.40273172  1
  Zr  Zr152  1  0.33333333  0.33333333  0.40273172  1
  Zr  Zr153  1  0.50000000  0.50000000  0.40273172  1
  Zr  Zr154  1  0.66666667  0.66666667  0.40273172  1
  Zr  Zr155  1  0.83333333  0.83333333  0.40273172  1
  Zr  Zr156  1  0.33333333  0.00000000  0.40273172  1
  Zr  Zr157  1  0.50000000  0.16666667  0.40273172  1
  Zr  Zr158  1  0.66666667  0.33333333  0.40273172  1
  Zr  Zr159  1  0.83333333  0.50000000  0.40273172  1
  Zr  Zr160  1  0.66666667  0.00000000  0.40273172  1
  Zr  Zr161  1  0.83333333  0.16666667  0.40273172  1
  Zr  Zr162  1  0.16666667  0.66666667  0.90273172  1
  Zr  Zr163  1  0.33333333  0.83333333  0.90273172  1
  Zr  Zr164  1  0.16666667  0.33333333  0.90273172  1
  Zr  Zr165  1  0.33333333  0.50000000  0.90273172  1
  Zr  Zr166  1  0.50000000  0.66666667  0.90273172  1
  Zr  Zr167  1  0.66666667  0.83333333  0.90273172  1
  Zr  Zr168  1  0.16666667  0.00000000  0.90273172  1
  Zr  Zr169  1  0.33333333  0.16666667  0.90273172  1
  Zr  Zr170  1  0.50000000  0.33333333  0.90273172  1
  Zr  Zr171  1  0.66666667  0.50000000  0.90273172  1
  Zr  Zr172  1  0.83333333  0.66666667  0.90273172  1
  Zr  Zr173  1  1.00000000  0.83333333  0.90273172  1
  Zr  Zr174  1  0.50000000  0.00000000  0.90273172  1
  Zr  Zr175  1  0.66666667  0.16666667  0.90273172  1
  Zr  Zr176  1  0.83333333  0.33333333  0.90273172  1
  Zr  Zr177  1  1.00000000  0.50000000  0.90273172  1
  Zr  Zr178  1  0.83333333  0.00000000  0.90273172  1
  Zr  Zr179  1  1.00000000  0.16666667  0.90273172  1
  O  O180  1  0.08333333  0.58333333  0.09607217  1
  O  O181  1  0.25000000  0.75000000  0.09607217  1
  O  O182  1  0.08333333  0.25000000  0.09607217  1
  O  O183  1  0.25000000  0.41666667  0.09607217  1
  O  O184  1  0.41666667  0.58333333  0.09607217  1
  O  O185  1  0.58333333  0.75000000  0.09607217  1
  O  O186  1  0.08333333  -0.08333333  0.09607217  1
  O  O187  1  0.25000000  0.08333333  0.09607217  1
  O  O188  1  0.41666667  0.25000000  0.09607217  1
  O  O189  1  0.58333333  0.41666667  0.09607217  1
  O  O190  1  0.75000000  0.58333333  0.09607217  1
  O  O191  1  0.91666667  0.75000000  0.09607217  1
  O  O192  1  0.41666667  -0.08333333  0.09607217  1
  O  O193  1  0.58333333  0.08333333  0.09607217  1
  O  O194  1  0.75000000  0.25000000  0.09607217  1
  O  O195  1  0.91666667  0.41666667  0.09607217  1
  O  O196  1  0.75000000  -0.08333333  0.09607217  1
  O  O197  1  0.91666667  0.08333333  0.09607217  1
  O  O198  1  0.25000000  0.58333333  0.59607217  1
  O  O199  1  0.41666667  0.75000000  0.59607217  1
  O  O200  1  0.25000000  0.25000000  0.59607217  1
  O  O201  1  0.41666667  0.41666667  0.59607217  1
  O  O202  1  0.58333333  0.58333333  0.59607217  1
  O  O203  1  0.75000000  0.75000000  0.59607217  1
  O  O204  1  0.25000000  -0.08333333  0.59607217  1
  O  O205  1  0.41666667  0.08333333  0.59607217  1
  O  O206  1  0.58333333  0.25000000  0.59607217  1
  O  O207  1  0.75000000  0.41666667  0.59607217  1
  O  O208  1  0.91666667  0.58333333  0.59607217  1
  O  O209  1  1.08333333  0.75000000  0.59607217  1
  O  O210  1  0.58333333  -0.08333333  0.59607217  1
  O  O211  1  0.75000000  0.08333333  0.59607217  1
  O  O212  1  0.91666667  0.25000000  0.59607217  1
  O  O213  1  1.08333333  0.41666667  0.59607217  1
  O  O214  1  0.91666667  -0.08333333  0.59607217  1
  O  O215  1  1.08333333  0.08333333  0.59607217  1
  O  O216  1  0.00000000  0.66666667  0.50000000  1
  O  O217  1  0.16666667  0.83333333  0.50000000  1
  O  O218  1  0.00000000  0.33333333  0.50000000  1
  O  O219  1  0.16666667  0.50000000  0.50000000  1
  O  O220  1  0.33333333  0.66666667  0.50000000  1
  O  O221  1  0.50000000  0.83333333  0.50000000  1
  O  O222  1  0.00000000  0.00000000  0.50000000  1
  O  O223  1  0.16666667  0.16666667  0.50000000  1
  O  O224  1  0.33333333  0.33333333  0.50000000  1
  O  O225  1  0.50000000  0.50000000  0.50000000  1
  O  O226  1  0.66666667  0.66666667  0.50000000  1
  O  O227  1  0.83333333  0.83333333  0.50000000  1
  O  O228  1  0.33333333  0.00000000  0.50000000  1
  O  O229  1  0.50000000  0.16666667  0.50000000  1
  O  O230  1  0.66666667  0.33333333  0.50000000  1
  O  O231  1  0.83333333  0.50000000  0.50000000  1
  O  O232  1  0.66666667  0.00000000  0.50000000  1
  O  O233  1  0.83333333  0.16666667  0.50000000  1
  O  O234  1  0.16666667  0.66666667  1.00000000  1
  O  O235  1  0.33333333  0.83333333  1.00000000  1
  O  O236  1  0.16666667  0.33333333  1.00000000  1
  O  O237  1  0.33333333  0.50000000  1.00000000  1
  O  O238  1  0.50000000  0.66666667  1.00000000  1
  O  O239  1  0.66666667  0.83333333  1.00000000  1
  O  O240  1  0.16666667  0.00000000  1.00000000  1
  O  O241  1  0.33333333  0.16666667  1.00000000  1
  O  O242  1  0.50000000  0.33333333  1.00000000  1
  O  O243  1  0.66666667  0.50000000  1.00000000  1
  O  O244  1  0.83333333  0.66666667  1.00000000  1
  O  O245  1  1.00000000  0.83333333  1.00000000  1
  O  O246  1  0.50000000  0.00000000  1.00000000  1
  O  O247  1  0.66666667  0.16666667  1.00000000  1
  O  O248  1  0.83333333  0.33333333  1.00000000  1
  O  O249  1  1.00000000  0.50000000  1.00000000  1
  O  O250  1  0.83333333  0.00000000  1.00000000  1
  O  O251  1  1.00000000  0.16666667  1.00000000  1
  O  O252  1  0.00000000  0.66666667  0.69307838  1
  O  O253  1  0.16666667  0.83333333  0.69307838  1
  O  O254  1  0.00000000  0.33333333  0.69307838  1
  O  O255  1  0.16666667  0.50000000  0.69307838  1
  O  O256  1  0.33333333  0.66666667  0.69307838  1
  O  O257  1  0.50000000  0.83333333  0.69307838  1
  O  O258  1  -0.00000000  0.00000000  0.69307838  1
  O  O259  1  0.16666667  0.16666667  0.69307838  1
  O  O260  1  0.33333333  0.33333333  0.69307838  1
  O  O261  1  0.50000000  0.50000000  0.69307838  1
  O  O262  1  0.66666667  0.66666667  0.69307838  1
  O  O263  1  0.83333333  0.83333333  0.69307838  1
  O  O264  1  0.33333333  0.00000000  0.69307838  1
  O  O265  1  0.50000000  0.16666667  0.69307838  1
  O  O266  1  0.66666667  0.33333333  0.69307838  1
  O  O267  1  0.83333333  0.50000000  0.69307838  1
  O  O268  1  0.66666667  0.00000000  0.69307838  1
  O  O269  1  0.83333333  0.16666667  0.69307838  1
  O  O270  1  0.16666667  0.66666667  1.19307838  1
  O  O271  1  0.33333333  0.83333333  1.19307838  1
  O  O272  1  0.16666667  0.33333333  1.19307838  1
  O  O273  1  0.33333333  0.50000000  1.19307838  1
  O  O274  1  0.50000000  0.66666667  1.19307838  1
  O  O275  1  0.66666667  0.83333333  1.19307838  1
  O  O276  1  0.16666667  0.00000000  1.19307838  1
  O  O277  1  0.33333333  0.16666667  1.19307838  1
  O  O278  1  0.50000000  0.33333333  1.19307838  1
  O  O279  1  0.66666667  0.50000000  1.19307838  1
  O  O280  1  0.83333333  0.66666667  1.19307838  1
  O  O281  1  1.00000000  0.83333333  1.19307838  1
  O  O282  1  0.50000000  0.00000000  1.19307838  1
  O  O283  1  0.66666667  0.16666667  1.19307838  1
  O  O284  1  0.83333333  0.33333333  1.19307838  1
  O  O285  1  1.00000000  0.50000000  1.19307838  1
  O  O286  1  0.83333333  0.00000000  1.19307838  1
  O  O287  1  1.00000000  0.16666667  1.19307838  1
  O  O288  1  0.08333333  0.58333333  0.40392783  1
  O  O289  1  0.25000000  0.75000000  0.40392783  1
  O  O290  1  0.08333333  0.25000000  0.40392783  1
  O  O291  1  0.25000000  0.41666667  0.40392783  1
  O  O292  1  0.41666667  0.58333333  0.40392783  1
  O  O293  1  0.58333333  0.75000000  0.40392783  1
  O  O294  1  0.08333333  -0.08333333  0.40392783  1
  O  O295  1  0.25000000  0.08333333  0.40392783  1
  O  O296  1  0.41666667  0.25000000  0.40392783  1
  O  O297  1  0.58333333  0.41666667  0.40392783  1
  O  O298  1  0.75000000  0.58333333  0.40392783  1
  O  O299  1  0.91666667  0.75000000  0.40392783  1
  O  O300  1  0.41666667  -0.08333333  0.40392783  1
  O  O301  1  0.58333333  0.08333333  0.40392783  1
  O  O302  1  0.75000000  0.25000000  0.40392783  1
  O  O303  1  0.91666667  0.41666667  0.40392783  1
  O  O304  1  0.75000000  -0.08333333  0.40392783  1
  O  O305  1  0.91666667  0.08333333  0.40392783  1
  O  O306  1  0.25000000  0.58333333  0.90392783  1
  O  O307  1  0.41666667  0.75000000  0.90392783  1
  O  O308  1  0.25000000  0.25000000  0.90392783  1
  O  O309  1  0.41666667  0.41666667  0.90392783  1
  O  O310  1  0.58333333  0.58333333  0.90392783  1
  O  O311  1  0.75000000  0.75000000  0.90392783  1
  O  O312  1  0.25000000  -0.08333333  0.90392783  1
  O  O313  1  0.41666667  0.08333333  0.90392783  1
  O  O314  1  0.58333333  0.25000000  0.90392783  1
  O  O315  1  0.75000000  0.41666667  0.90392783  1
  O  O316  1  0.91666667  0.58333333  0.90392783  1
  O  O317  1  1.08333333  0.75000000  0.90392783  1
  O  O318  1  0.58333333  -0.08333333  0.90392783  1
  O  O319  1  0.75000000  0.08333333  0.90392783  1
  O  O320  1  0.91666667  0.25000000  0.90392783  1
  O  O321  1  1.08333333  0.41666667  0.90392783  1
  O  O322  1  0.91666667  -0.08333333  0.90392783  1
  O  O323  1  1.08333333  0.08333333  0.90392783  1
  O  O324  1  0.08333333  0.75000000  0.09607217  1
  O  O325  1  0.25000000  0.91666667  0.09607217  1
  O  O326  1  0.08333333  0.41666667  0.09607217  1
  O  O327  1  0.25000000  0.58333333  0.09607217  1
  O  O328  1  0.41666667  0.75000000  0.09607217  1
  O  O329  1  0.58333333  0.91666667  0.09607217  1
  O  O330  1  0.08333333  0.08333333  0.09607217  1
  O  O331  1  0.25000000  0.25000000  0.09607217  1
  O  O332  1  0.41666667  0.41666667  0.09607217  1
  O  O333  1  0.58333333  0.58333333  0.09607217  1
  O  O334  1  0.75000000  0.75000000  0.09607217  1
  O  O335  1  0.91666667  0.91666667  0.09607217  1
  O  O336  1  0.41666667  0.08333333  0.09607217  1
  O  O337  1  0.58333333  0.25000000  0.09607217  1
  O  O338  1  0.75000000  0.41666667  0.09607217  1
  O  O339  1  0.91666667  0.58333333  0.09607217  1
  O  O340  1  0.75000000  0.08333333  0.09607217  1
  O  O341  1  0.91666667  0.25000000  0.09607217  1
  O  O342  1  0.25000000  0.75000000  0.59607217  1
  O  O343  1  0.41666667  0.91666667  0.59607217  1
  O  O344  1  0.25000000  0.41666667  0.59607217  1
  O  O345  1  0.41666667  0.58333333  0.59607217  1
  O  O346  1  0.58333333  0.75000000  0.59607217  1
  O  O347  1  0.75000000  0.91666667  0.59607217  1
  O  O348  1  0.25000000  0.08333333  0.59607217  1
  O  O349  1  0.41666667  0.25000000  0.59607217  1
  O  O350  1  0.58333333  0.41666667  0.59607217  1
  O  O351  1  0.75000000  0.58333333  0.59607217  1
  O  O352  1  0.91666667  0.75000000  0.59607217  1
  O  O353  1  1.08333333  0.91666667  0.59607217  1
  O  O354  1  0.58333333  0.08333333  0.59607217  1
  O  O355  1  0.75000000  0.25000000  0.59607217  1
  O  O356  1  0.91666667  0.41666667  0.59607217  1
  O  O357  1  1.08333333  0.58333333  0.59607217  1
  O  O358  1  0.91666667  0.08333333  0.59607217  1
  O  O359  1  1.08333333  0.25000000  0.59607217  1
  O  O360  1  0.00000000  0.66666667  0.30692162  1
  O  O361  1  0.16666667  0.83333333  0.30692162  1
  O  O362  1  0.00000000  0.33333333  0.30692162  1
  O  O363  1  0.16666667  0.50000000  0.30692162  1
  O  O364  1  0.33333333  0.66666667  0.30692162  1
  O  O365  1  0.50000000  0.83333333  0.30692162  1
  O  O366  1  0.00000000  -0.00000000  0.30692162  1
  O  O367  1  0.16666667  0.16666667  0.30692162  1
  O  O368  1  0.33333333  0.33333333  0.30692162  1
  O  O369  1  0.50000000  0.50000000  0.30692162  1
  O  O370  1  0.66666667  0.66666667  0.30692162  1
  O  O371  1  0.83333333  0.83333333  0.30692162  1
  O  O372  1  0.33333333  0.00000000  0.30692162  1
  O  O373  1  0.50000000  0.16666667  0.30692162  1
  O  O374  1  0.66666667  0.33333333  0.30692162  1
  O  O375  1  0.83333333  0.50000000  0.30692162  1
  O  O376  1  0.66666667  0.00000000  0.30692162  1
  O  O377  1  0.83333333  0.16666667  0.30692162  1
  O  O378  1  0.16666667  0.66666667  0.80692162  1
  O  O379  1  0.33333333  0.83333333  0.80692162  1
  O  O380  1  0.16666667  0.33333333  0.80692162  1
  O  O381  1  0.33333333  0.50000000  0.80692162  1
  O  O382  1  0.50000000  0.66666667  0.80692162  1
  O  O383  1  0.66666667  0.83333333  0.80692162  1
  O  O384  1  0.16666667  0.00000000  0.80692162  1
  O  O385  1  0.33333333  0.16666667  0.80692162  1
  O  O386  1  0.50000000  0.33333333  0.80692162  1
  O  O387  1  0.66666667  0.50000000  0.80692162  1
  O  O388  1  0.83333333  0.66666667  0.80692162  1
  O  O389  1  1.00000000  0.83333333  0.80692162  1
  O  O390  1  0.50000000  0.00000000  0.80692162  1
  O  O391  1  0.66666667  0.16666667  0.80692162  1
  O  O392  1  0.83333333  0.33333333  0.80692162  1
  O  O393  1  1.00000000  0.50000000  0.80692162  1
  O  O394  1  0.83333333  0.00000000  0.80692162  1
  O  O395  1  1.00000000  0.16666667  0.80692162  1
  O  O396  1  0.08333333  0.75000000  0.40392783  1
  O  O397  1  0.25000000  0.91666667  0.40392783  1
  O  O398  1  0.08333333  0.41666667  0.40392783  1
  O  O399  1  0.25000000  0.58333333  0.40392783  1
  O  O400  1  0.41666667  0.75000000  0.40392783  1
  O  O401  1  0.58333333  0.91666667  0.40392783  1
  O  O402  1  0.08333333  0.08333333  0.40392783  1
  O  O403  1  0.25000000  0.25000000  0.40392783  1
  O  O404  1  0.41666667  0.41666667  0.40392783  1
  O  O405  1  0.58333333  0.58333333  0.40392783  1
  O  O406  1  0.75000000  0.75000000  0.40392783  1
  O  O407  1  0.91666667  0.91666667  0.40392783  1
  O  O408  1  0.41666667  0.08333333  0.40392783  1
  O  O409  1  0.58333333  0.25000000  0.40392783  1
  O  O410  1  0.75000000  0.41666667  0.40392783  1
  O  O411  1  0.91666667  0.58333333  0.40392783  1
  O  O412  1  0.75000000  0.08333333  0.40392783  1
  O  O413  1  0.91666667  0.25000000  0.40392783  1
  O  O414  1  0.25000000  0.75000000  0.90392783  1
  O  O415  1  0.41666667  0.91666667  0.90392783  1
  O  O416  1  0.25000000  0.41666667  0.90392783  1
  O  O417  1  0.41666667  0.58333333  0.90392783  1
  O  O418  1  0.58333333  0.75000000  0.90392783  1
  O  O419  1  0.75000000  0.91666667  0.90392783  1
  O  O420  1  0.25000000  0.08333333  0.90392783  1
  O  O421  1  0.41666667  0.25000000  0.90392783  1
  O  O422  1  0.58333333  0.41666667  0.90392783  1
  O  O423  1  0.75000000  0.58333333  0.90392783  1
  O  O424  1  0.91666667  0.75000000  0.90392783  1
  O  O425  1  1.08333333  0.91666667  0.90392783  1
  O  O426  1  0.58333333  0.08333333  0.90392783  1
  O  O427  1  0.75000000  0.25000000  0.90392783  1
  O  O428  1  0.91666667  0.41666667  0.90392783  1
  O  O429  1  1.08333333  0.58333333  0.90392783  1
  O  O430  1  0.91666667  0.08333333  0.90392783  1
  O  O431  1  1.08333333  0.25000000  0.90392783  1
