# generated using pymatgen
data_Sr(CuO)2
_symmetry_space_group_name_H-M   'P 1'
_cell_length_a   10.74686313
_cell_length_b   10.74686313
_cell_length_c   9.79258853
_cell_angle_alpha   90.00000000
_cell_angle_beta   90.00000000
_cell_angle_gamma   90.00000000
_symmetry_Int_Tables_number   1
_chemical_formula_structural   Sr(CuO)2
_chemical_formula_sum   'Sr16 Cu32 O32'
_cell_volume   1130.99566879
_cell_formula_units_Z   16
loop_
 _symmetry_equiv_pos_site_id
 _symmetry_equiv_pos_as_xyz
  1  'x, y, z'
loop_
 _atom_site_type_symbol
 _atom_site_label
 _atom_site_symmetry_multiplicity
 _atom_site_fract_x
 _atom_site_fract_y
 _atom_site_fract_z
 _atom_site_occupancy
  Sr  Sr0  1  0.00000000  0.25000000  0.25000000  1
  Sr  Sr1  1  0.50000000  0.25000000  0.25000000  1
  Sr  Sr2  1  0.00000000  -0.25000000  0.25000000  1
  Sr  Sr3  1  0.50000000  -0.25000000  0.25000000  1
  Sr  Sr4  1  0.25000000  0.00000000  0.75000000  1
  Sr  Sr5  1  0.75000000  0.00000000  0.75000000  1
  Sr  Sr6  1  0.25000000  -0.50000000  0.75000000  1
  Sr  Sr7  1  0.75000000  -0.50000000  0.75000000  1
  Sr  Sr8  1  0.00000000  0.50000000  0.50000000  1
  Sr  Sr9  1  0.50000000  0.50000000  0.50000000  1
  Sr  Sr10  1  0.00000000  -0.00000000  0.50000000  1
  Sr  Sr11  1  0.50000000  -0.00000000  0.50000000  1
  Sr  Sr12  1  0.25000000  0.25000000  1.00000000  1
  Sr  Sr13  1  0.75000000  0.25000000  1.00000000  1
  Sr  Sr14  1  0.25000000  -0.25000000  1.00000000  1
  Sr  Sr15  1  0.75000000  -0.25000000  1.00000000  1
  Cu  Cu16  1  0.25000000  0.37500000  0.37500000  1
  Cu  Cu17  1  0.75000000  0.37500000  0.37500000  1
  Cu  Cu18  1  0.25000000  -0.12500000  0.37500000  1
  Cu  Cu19  1  0.75000000  -0.12500000  0.37500000  1
  Cu  Cu20  1  0.50000000  0.12500000  0.87500000  1
  Cu  Cu21  1  1.00000000  0.12500000  0.87500000  1
  Cu  Cu22  1  0.50000000  -0.37500000  0.87500000  1
  Cu  Cu23  1  1.00000000  -0.37500000  0.87500000  1
  Cu  Cu24  1  0.37500000  0.50000000  0.12500000  1
  Cu  Cu25  1  0.87500000  0.50000000  0.12500000  1
  Cu  Cu26  1  0.37500000  0.00000000  0.12500000  1
  Cu  Cu27  1  0.87500000  0.00000000  0.12500000  1
  Cu  Cu28  1  0.62500000  0.25000000  0.62500000  1
  Cu  Cu29  1  1.12500000  0.25000000  0.62500000  1
  Cu  Cu30  1  0.62500000  -0.25000000  0.62500000  1
  Cu  Cu31  1  1.12500000  -0.25000000  0.62500000  1
  Cu  Cu32  1  0.25000000  0.62500000  0.37500000  1
  Cu  Cu33  1  0.75000000  0.62500000  0.37500000  1
  Cu  Cu34  1  0.25000000  0.12500000  0.37500000  1
  Cu  Cu35  1  0.75000000  0.12500000  0.37500000  1
  Cu  Cu36  1  0.50000000  0.37500000  0.87500000  1
  Cu  Cu37  1  1.00000000  0.37500000  0.87500000  1
  Cu  Cu38  1  0.50000000  -0.12500000  0.87500000  1
  Cu  Cu39  1  1.00000000  -0.12500000  0.87500000  1
  Cu  Cu40  1  0.12500000  0.50000000  0.12500000  1
  Cu  Cu41  1  0.62500000  0.50000000  0.12500000  1
  Cu  Cu42  1  0.12500000  -0.00000000  0.12500000  1
  Cu  Cu43  1  0.62500000  -0.00000000  0.12500000  1
  Cu  Cu44  1  0.37500000  0.25000000  0.62500000  1
  Cu  Cu45  1  0.87500000  0.25000000  0.62500000  1
  Cu  Cu46  1  0.37500000  -0.25000000  0.62500000  1
  Cu  Cu47  1  0.87500000  -0.25000000  0.62500000  1
  O  O48  1  0.00000000  0.50000000  0.25093489  1
  O  O49  1  0.50000000  0.50000000  0.25093489  1
  O  O50  1  0.00000000  -0.00000000  0.25093489  1
  O  O51  1  0.50000000  -0.00000000  0.25093489  1
  O  O52  1  0.25000000  0.25000000  0.75093489  1
  O  O53  1  0.75000000  0.25000000  0.75093489  1
  O  O54  1  0.25000000  -0.25000000  0.75093489  1
  O  O55  1  0.75000000  -0.25000000  0.75093489  1
  O  O56  1  0.00000000  0.25000000  0.00093489  1
  O  O57  1  0.50000000  0.25000000  0.00093489  1
  O  O58  1  0.00000000  -0.25000000  0.00093489  1
  O  O59  1  0.50000000  -0.25000000  0.00093489  1
  O  O60  1  0.25000000  0.00000000  0.50093489  1
  O  O61  1  0.75000000  0.00000000  0.50093489  1
  O  O62  1  0.25000000  -0.50000000  0.50093489  1
  O  O63  1  0.75000000  -0.50000000  0.50093489  1
  O  O64  1  0.00000000  0.25000000  0.49906511  1
  O  O65  1  0.50000000  0.25000000  0.49906511  1
  O  O66  1  0.00000000  -0.25000000  0.49906511  1
  O  O67  1  0.50000000  -0.25000000  0.49906511  1
  O  O68  1  0.25000000  0.00000000  0.99906511  1
  O  O69  1  0.75000000  0.00000000  0.99906511  1
  O  O70  1  0.25000000  -0.50000000  0.99906511  1
  O  O71  1  0.75000000  -0.50000000  0.99906511  1
  O  O72  1  0.00000000  0.50000000  0.74906511  1
  O  O73  1  0.50000000  0.50000000  0.74906511  1
  O  O74  1  0.00000000  0.00000000  0.74906511  1
  O  O75  1  0.50000000  0.00000000  0.74906511  1
  O  O76  1  0.25000000  0.25000000  1.24906511  1
  O  O77  1  0.75000000  0.25000000  1.24906511  1
  O  O78  1  0.25000000  -0.25000000  1.24906511  1
  O  O79  1  0.75000000  -0.25000000  1.24906511  1
