# generated using pymatgen
data_CsBi(MoO4)2
_symmetry_space_group_name_H-M   'P 1'
_cell_length_a   15.46097251
_cell_length_b   18.83906811
_cell_length_c   16.33006820
_cell_angle_alpha   90.00000000
_cell_angle_beta   90.00000000
_cell_angle_gamma   90.00000000
_symmetry_Int_Tables_number   1
_chemical_formula_structural   CsBi(MoO4)2
_chemical_formula_sum   'Cs24 Bi24 Mo48 O192'
_cell_volume   4756.46409534
_cell_formula_units_Z   24
loop_
 _symmetry_equiv_pos_site_id
 _symmetry_equiv_pos_as_xyz
  1  'x, y, z'
loop_
 _atom_site_type_symbol
 _atom_site_label
 _atom_site_symmetry_multiplicity
 _atom_site_fract_x
 _atom_site_fract_y
 _atom_site_fract_z
 _atom_site_occupancy
  Cs  Cs0  1  0.00000000  0.25000000  0.37500000  1
  Cs  Cs1  1  0.00000000  0.25000000  0.87500000  1
  Cs  Cs2  1  0.00000000  0.75000000  0.37500000  1
  Cs  Cs3  1  0.00000000  0.75000000  0.87500000  1
  Cs  Cs4  1  0.33333333  0.25000000  0.37500000  1
  Cs  Cs5  1  0.33333333  0.25000000  0.87500000  1
  Cs  Cs6  1  0.33333333  0.75000000  0.37500000  1
  Cs  Cs7  1  0.33333333  0.75000000  0.87500000  1
  Cs  Cs8  1  0.66666667  0.25000000  0.37500000  1
  Cs  Cs9  1  0.66666667  0.25000000  0.87500000  1
  Cs  Cs10  1  0.66666667  0.75000000  0.37500000  1
  Cs  Cs11  1  0.66666667  0.75000000  0.87500000  1
  Cs  Cs12  1  0.00000000  0.25000000  0.12500000  1
  Cs  Cs13  1  0.00000000  0.25000000  0.62500000  1
  Cs  Cs14  1  0.00000000  0.75000000  0.12500000  1
  Cs  Cs15  1  0.00000000  0.75000000  0.62500000  1
  Cs  Cs16  1  0.33333333  0.25000000  0.12500000  1
  Cs  Cs17  1  0.33333333  0.25000000  0.62500000  1
  Cs  Cs18  1  0.33333333  0.75000000  0.12500000  1
  Cs  Cs19  1  0.33333333  0.75000000  0.62500000  1
  Cs  Cs20  1  0.66666667  0.25000000  0.12500000  1
  Cs  Cs21  1  0.66666667  0.25000000  0.62500000  1
  Cs  Cs22  1  0.66666667  0.75000000  0.12500000  1
  Cs  Cs23  1  0.66666667  0.75000000  0.62500000  1
  Bi  Bi24  1  0.00000000  0.00000000  0.37500000  1
  Bi  Bi25  1  0.00000000  0.00000000  0.87500000  1
  Bi  Bi26  1  0.00000000  0.50000000  0.37500000  1
  Bi  Bi27  1  0.00000000  0.50000000  0.87500000  1
  Bi  Bi28  1  0.33333333  0.00000000  0.37500000  1
  Bi  Bi29  1  0.33333333  0.00000000  0.87500000  1
  Bi  Bi30  1  0.33333333  0.50000000  0.37500000  1
  Bi  Bi31  1  0.33333333  0.50000000  0.87500000  1
  Bi  Bi32  1  0.66666667  0.00000000  0.37500000  1
  Bi  Bi33  1  0.66666667  0.00000000  0.87500000  1
  Bi  Bi34  1  0.66666667  0.50000000  0.37500000  1
  Bi  Bi35  1  0.66666667  0.50000000  0.87500000  1
  Bi  Bi36  1  0.00000000  0.00000000  0.12500000  1
  Bi  Bi37  1  0.00000000  0.00000000  0.62500000  1
  Bi  Bi38  1  0.00000000  0.50000000  0.12500000  1
  Bi  Bi39  1  0.00000000  0.50000000  0.62500000  1
  Bi  Bi40  1  0.33333333  0.00000000  0.12500000  1
  Bi  Bi41  1  0.33333333  0.00000000  0.62500000  1
  Bi  Bi42  1  0.33333333  0.50000000  0.12500000  1
  Bi  Bi43  1  0.33333333  0.50000000  0.62500000  1
  Bi  Bi44  1  0.66666667  0.00000000  0.12500000  1
  Bi  Bi45  1  0.66666667  0.00000000  0.62500000  1
  Bi  Bi46  1  0.66666667  0.50000000  0.12500000  1
  Bi  Bi47  1  0.66666667  0.50000000  0.62500000  1
  Mo  Mo48  1  0.17473822  0.09783303  0.00000000  1
  Mo  Mo49  1  0.17473822  0.09783303  0.50000000  1
  Mo  Mo50  1  0.17473822  0.59783303  0.00000000  1
  Mo  Mo51  1  0.17473822  0.59783303  0.50000000  1
  Mo  Mo52  1  0.50807156  0.09783303  0.00000000  1
  Mo  Mo53  1  0.50807156  0.09783303  0.50000000  1
  Mo  Mo54  1  0.50807156  0.59783303  0.00000000  1
  Mo  Mo55  1  0.50807156  0.59783303  0.50000000  1
  Mo  Mo56  1  0.84140489  0.09783303  0.00000000  1
  Mo  Mo57  1  0.84140489  0.09783303  0.50000000  1
  Mo  Mo58  1  0.84140489  0.59783303  0.00000000  1
  Mo  Mo59  1  0.84140489  0.59783303  0.50000000  1
  Mo  Mo60  1  0.15859511  0.40216697  0.00000000  1
  Mo  Mo61  1  0.15859511  0.40216697  0.50000000  1
  Mo  Mo62  1  0.15859511  0.90216697  0.00000000  1
  Mo  Mo63  1  0.15859511  0.90216697  0.50000000  1
  Mo  Mo64  1  0.49192844  0.40216697  0.00000000  1
  Mo  Mo65  1  0.49192844  0.40216697  0.50000000  1
  Mo  Mo66  1  0.49192844  0.90216697  0.00000000  1
  Mo  Mo67  1  0.49192844  0.90216697  0.50000000  1
  Mo  Mo68  1  0.82526178  0.40216697  0.00000000  1
  Mo  Mo69  1  0.82526178  0.40216697  0.50000000  1
  Mo  Mo70  1  0.82526178  0.90216697  0.00000000  1
  Mo  Mo71  1  0.82526178  0.90216697  0.50000000  1
  Mo  Mo72  1  0.15859511  0.09783303  0.25000000  1
  Mo  Mo73  1  0.15859511  0.09783303  0.75000000  1
  Mo  Mo74  1  0.15859511  0.59783303  0.25000000  1
  Mo  Mo75  1  0.15859511  0.59783303  0.75000000  1
  Mo  Mo76  1  0.49192844  0.09783303  0.25000000  1
  Mo  Mo77  1  0.49192844  0.09783303  0.75000000  1
  Mo  Mo78  1  0.49192844  0.59783303  0.25000000  1
  Mo  Mo79  1  0.49192844  0.59783303  0.75000000  1
  Mo  Mo80  1  0.82526178  0.09783303  0.25000000  1
  Mo  Mo81  1  0.82526178  0.09783303  0.75000000  1
  Mo  Mo82  1  0.82526178  0.59783303  0.25000000  1
  Mo  Mo83  1  0.82526178  0.59783303  0.75000000  1
  Mo  Mo84  1  0.17473822  0.40216697  0.25000000  1
  Mo  Mo85  1  0.17473822  0.40216697  0.75000000  1
  Mo  Mo86  1  0.17473822  0.90216697  0.25000000  1
  Mo  Mo87  1  0.17473822  0.90216697  0.75000000  1
  Mo  Mo88  1  0.50807156  0.40216697  0.25000000  1
  Mo  Mo89  1  0.50807156  0.40216697  0.75000000  1
  Mo  Mo90  1  0.50807156  0.90216697  0.25000000  1
  Mo  Mo91  1  0.50807156  0.90216697  0.75000000  1
  Mo  Mo92  1  0.84140489  0.40216697  0.25000000  1
  Mo  Mo93  1  0.84140489  0.40216697  0.75000000  1
  Mo  Mo94  1  0.84140489  0.90216697  0.25000000  1
  Mo  Mo95  1  0.84140489  0.90216697  0.75000000  1
  O  O96  1  0.08637782  0.03019533  0.00000000  1
  O  O97  1  0.08637782  0.03019533  0.50000000  1
  O  O98  1  0.08637782  0.53019533  0.00000000  1
  O  O99  1  0.08637782  0.53019533  0.50000000  1
  O  O100  1  0.41971115  0.03019533  0.00000000  1
  O  O101  1  0.41971115  0.03019533  0.50000000  1
  O  O102  1  0.41971115  0.53019533  0.00000000  1
  O  O103  1  0.41971115  0.53019533  0.50000000  1
  O  O104  1  0.75304448  0.03019533  0.00000000  1
  O  O105  1  0.75304448  0.03019533  0.50000000  1
  O  O106  1  0.75304448  0.53019533  0.00000000  1
  O  O107  1  0.75304448  0.53019533  0.50000000  1
  O  O108  1  0.24695552  0.46980467  0.00000000  1
  O  O109  1  0.24695552  0.46980467  0.50000000  1
  O  O110  1  0.24695552  0.96980467  0.00000000  1
  O  O111  1  0.24695552  0.96980467  0.50000000  1
  O  O112  1  0.58028885  0.46980467  0.00000000  1
  O  O113  1  0.58028885  0.46980467  0.50000000  1
  O  O114  1  0.58028885  0.96980467  0.00000000  1
  O  O115  1  0.58028885  0.96980467  0.50000000  1
  O  O116  1  0.91362218  0.46980467  0.00000000  1
  O  O117  1  0.91362218  0.46980467  0.50000000  1
  O  O118  1  0.91362218  0.96980467  0.00000000  1
  O  O119  1  0.91362218  0.96980467  0.50000000  1
  O  O120  1  0.24695552  0.03019533  0.25000000  1
  O  O121  1  0.24695552  0.03019533  0.75000000  1
  O  O122  1  0.24695552  0.53019533  0.25000000  1
  O  O123  1  0.24695552  0.53019533  0.75000000  1
  O  O124  1  0.58028885  0.03019533  0.25000000  1
  O  O125  1  0.58028885  0.03019533  0.75000000  1
  O  O126  1  0.58028885  0.53019533  0.25000000  1
  O  O127  1  0.58028885  0.53019533  0.75000000  1
  O  O128  1  0.91362218  0.03019533  0.25000000  1
  O  O129  1  0.91362218  0.03019533  0.75000000  1
  O  O130  1  0.91362218  0.53019533  0.25000000  1
  O  O131  1  0.91362218  0.53019533  0.75000000  1
  O  O132  1  0.08637782  0.46980467  0.25000000  1
  O  O133  1  0.08637782  0.46980467  0.75000000  1
  O  O134  1  0.08637782  0.96980467  0.25000000  1
  O  O135  1  0.08637782  0.96980467  0.75000000  1
  O  O136  1  0.41971115  0.46980467  0.25000000  1
  O  O137  1  0.41971115  0.46980467  0.75000000  1
  O  O138  1  0.41971115  0.96980467  0.25000000  1
  O  O139  1  0.41971115  0.96980467  0.75000000  1
  O  O140  1  0.75304448  0.46980467  0.25000000  1
  O  O141  1  0.75304448  0.46980467  0.75000000  1
  O  O142  1  0.75304448  0.96980467  0.25000000  1
  O  O143  1  0.75304448  0.96980467  0.75000000  1
  O  O144  1  0.08789145  0.09755730  0.33783356  1
  O  O145  1  0.08789145  0.09755730  0.83783356  1
  O  O146  1  0.08789145  0.59755730  0.33783356  1
  O  O147  1  0.08789145  0.59755730  0.83783356  1
  O  O148  1  0.42122478  0.09755730  0.33783356  1
  O  O149  1  0.42122478  0.09755730  0.83783356  1
  O  O150  1  0.42122478  0.59755730  0.33783356  1
  O  O151  1  0.42122478  0.59755730  0.83783356  1
  O  O152  1  0.75455812  0.09755730  0.33783356  1
  O  O153  1  0.75455812  0.09755730  0.83783356  1
  O  O154  1  0.75455812  0.59755730  0.33783356  1
  O  O155  1  0.75455812  0.59755730  0.83783356  1
  O  O156  1  0.24544188  0.40244270  0.16216644  1
  O  O157  1  0.24544188  0.40244270  0.66216644  1
  O  O158  1  0.24544188  0.90244270  0.16216644  1
  O  O159  1  0.24544188  0.90244270  0.66216644  1
  O  O160  1  0.57877522  0.40244270  0.16216644  1
  O  O161  1  0.57877522  0.40244270  0.66216644  1
  O  O162  1  0.57877522  0.90244270  0.16216644  1
  O  O163  1  0.57877522  0.90244270  0.66216644  1
  O  O164  1  0.91210855  0.40244270  0.16216644  1
  O  O165  1  0.91210855  0.40244270  0.66216644  1
  O  O166  1  0.91210855  0.90244270  0.16216644  1
  O  O167  1  0.91210855  0.90244270  0.66216644  1
  O  O168  1  0.24544188  0.40244270  0.33783356  1
  O  O169  1  0.24544188  0.40244270  0.83783356  1
  O  O170  1  0.24544188  0.90244270  0.33783356  1
  O  O171  1  0.24544188  0.90244270  0.83783356  1
  O  O172  1  0.57877522  0.40244270  0.33783356  1
  O  O173  1  0.57877522  0.40244270  0.83783356  1
  O  O174  1  0.57877522  0.90244270  0.33783356  1
  O  O175  1  0.57877522  0.90244270  0.83783356  1
  O  O176  1  0.91210855  0.40244270  0.33783356  1
  O  O177  1  0.91210855  0.40244270  0.83783356  1
  O  O178  1  0.91210855  0.90244270  0.33783356  1
  O  O179  1  0.91210855  0.90244270  0.83783356  1
  O  O180  1  0.24544188  0.09755730  0.41216644  1
  O  O181  1  0.24544188  0.09755730  0.91216644  1
  O  O182  1  0.24544188  0.59755730  0.41216644  1
  O  O183  1  0.24544188  0.59755730  0.91216644  1
  O  O184  1  0.57877522  0.09755730  0.41216644  1
  O  O185  1  0.57877522  0.09755730  0.91216644  1
  O  O186  1  0.57877522  0.59755730  0.41216644  1
  O  O187  1  0.57877522  0.59755730  0.91216644  1
  O  O188  1  0.91210855  0.09755730  0.41216644  1
  O  O189  1  0.91210855  0.09755730  0.91216644  1
  O  O190  1  0.91210855  0.59755730  0.41216644  1
  O  O191  1  0.91210855  0.59755730  0.91216644  1
  O  O192  1  0.08789145  0.09755730  0.16216644  1
  O  O193  1  0.08789145  0.09755730  0.66216644  1
  O  O194  1  0.08789145  0.59755730  0.16216644  1
  O  O195  1  0.08789145  0.59755730  0.66216644  1
  O  O196  1  0.42122478  0.09755730  0.16216644  1
  O  O197  1  0.42122478  0.09755730  0.66216644  1
  O  O198  1  0.42122478  0.59755730  0.16216644  1
  O  O199  1  0.42122478  0.59755730  0.66216644  1
  O  O200  1  0.75455812  0.09755730  0.16216644  1
  O  O201  1  0.75455812  0.09755730  0.66216644  1
  O  O202  1  0.75455812  0.59755730  0.16216644  1
  O  O203  1  0.75455812  0.59755730  0.66216644  1
  O  O204  1  0.08789145  0.40244270  0.08783356  1
  O  O205  1  0.08789145  0.40244270  0.58783356  1
  O  O206  1  0.08789145  0.90244270  0.08783356  1
  O  O207  1  0.08789145  0.90244270  0.58783356  1
  O  O208  1  0.42122478  0.40244270  0.08783356  1
  O  O209  1  0.42122478  0.40244270  0.58783356  1
  O  O210  1  0.42122478  0.90244270  0.08783356  1
  O  O211  1  0.42122478  0.90244270  0.58783356  1
  O  O212  1  0.75455812  0.40244270  0.08783356  1
  O  O213  1  0.75455812  0.40244270  0.58783356  1
  O  O214  1  0.75455812  0.90244270  0.08783356  1
  O  O215  1  0.75455812  0.90244270  0.58783356  1
  O  O216  1  0.08789145  0.40244270  0.41216644  1
  O  O217  1  0.08789145  0.40244270  0.91216644  1
  O  O218  1  0.08789145  0.90244270  0.41216644  1
  O  O219  1  0.08789145  0.90244270  0.91216644  1
  O  O220  1  0.42122478  0.40244270  0.41216644  1
  O  O221  1  0.42122478  0.40244270  0.91216644  1
  O  O222  1  0.42122478  0.90244270  0.41216644  1
  O  O223  1  0.42122478  0.90244270  0.91216644  1
  O  O224  1  0.75455812  0.40244270  0.41216644  1
  O  O225  1  0.75455812  0.40244270  0.91216644  1
  O  O226  1  0.75455812  0.90244270  0.41216644  1
  O  O227  1  0.75455812  0.90244270  0.91216644  1
  O  O228  1  0.24544188  0.09755730  0.08783356  1
  O  O229  1  0.24544188  0.09755730  0.58783356  1
  O  O230  1  0.24544188  0.59755730  0.08783356  1
  O  O231  1  0.24544188  0.59755730  0.58783356  1
  O  O232  1  0.57877522  0.09755730  0.08783356  1
  O  O233  1  0.57877522  0.09755730  0.58783356  1
  O  O234  1  0.57877522  0.59755730  0.08783356  1
  O  O235  1  0.57877522  0.59755730  0.58783356  1
  O  O236  1  0.91210855  0.09755730  0.08783356  1
  O  O237  1  0.91210855  0.09755730  0.58783356  1
  O  O238  1  0.91210855  0.59755730  0.08783356  1
  O  O239  1  0.91210855  0.59755730  0.58783356  1
  O  O240  1  0.12472247  0.18060628  0.00000000  1
  O  O241  1  0.12472247  0.18060628  0.50000000  1
  O  O242  1  0.12472247  0.68060628  0.00000000  1
  O  O243  1  0.12472247  0.68060628  0.50000000  1
  O  O244  1  0.45805581  0.18060628  0.00000000  1
  O  O245  1  0.45805581  0.18060628  0.50000000  1
  O  O246  1  0.45805581  0.68060628  0.00000000  1
  O  O247  1  0.45805581  0.68060628  0.50000000  1
  O  O248  1  0.79138914  0.18060628  0.00000000  1
  O  O249  1  0.79138914  0.18060628  0.50000000  1
  O  O250  1  0.79138914  0.68060628  0.00000000  1
  O  O251  1  0.79138914  0.68060628  0.50000000  1
  O  O252  1  0.20861086  0.31939372  0.00000000  1
  O  O253  1  0.20861086  0.31939372  0.50000000  1
  O  O254  1  0.20861086  0.81939372  0.00000000  1
  O  O255  1  0.20861086  0.81939372  0.50000000  1
  O  O256  1  0.54194419  0.31939372  0.00000000  1
  O  O257  1  0.54194419  0.31939372  0.50000000  1
  O  O258  1  0.54194419  0.81939372  0.00000000  1
  O  O259  1  0.54194419  0.81939372  0.50000000  1
  O  O260  1  0.87527753  0.31939372  0.00000000  1
  O  O261  1  0.87527753  0.31939372  0.50000000  1
  O  O262  1  0.87527753  0.81939372  0.00000000  1
  O  O263  1  0.87527753  0.81939372  0.50000000  1
  O  O264  1  0.20861086  0.18060628  0.25000000  1
  O  O265  1  0.20861086  0.18060628  0.75000000  1
  O  O266  1  0.20861086  0.68060628  0.25000000  1
  O  O267  1  0.20861086  0.68060628  0.75000000  1
  O  O268  1  0.54194419  0.18060628  0.25000000  1
  O  O269  1  0.54194419  0.18060628  0.75000000  1
  O  O270  1  0.54194419  0.68060628  0.25000000  1
  O  O271  1  0.54194419  0.68060628  0.75000000  1
  O  O272  1  0.87527753  0.18060628  0.25000000  1
  O  O273  1  0.87527753  0.18060628  0.75000000  1
  O  O274  1  0.87527753  0.68060628  0.25000000  1
  O  O275  1  0.87527753  0.68060628  0.75000000  1
  O  O276  1  0.12472247  0.31939372  0.25000000  1
  O  O277  1  0.12472247  0.31939372  0.75000000  1
  O  O278  1  0.12472247  0.81939372  0.25000000  1
  O  O279  1  0.12472247  0.81939372  0.75000000  1
  O  O280  1  0.45805581  0.31939372  0.25000000  1
  O  O281  1  0.45805581  0.31939372  0.75000000  1
  O  O282  1  0.45805581  0.81939372  0.25000000  1
  O  O283  1  0.45805581  0.81939372  0.75000000  1
  O  O284  1  0.79138914  0.31939372  0.25000000  1
  O  O285  1  0.79138914  0.31939372  0.75000000  1
  O  O286  1  0.79138914  0.81939372  0.25000000  1
  O  O287  1  0.79138914  0.81939372  0.75000000  1
