# generated using pymatgen
data_MgAlBO4
_symmetry_space_group_name_H-M   'P 1'
_cell_length_a   9.87432447
_cell_length_b   11.37222888
_cell_length_c   13.00690214
_cell_angle_alpha   90.00000000
_cell_angle_beta   90.00000000
_cell_angle_gamma   90.00000000
_symmetry_Int_Tables_number   1
_chemical_formula_structural   MgAlBO4
_chemical_formula_sum   'Mg24 Al24 B24 O96'
_cell_volume   1460.58507490
_cell_formula_units_Z   24
loop_
 _symmetry_equiv_pos_site_id
 _symmetry_equiv_pos_as_xyz
  1  'x, y, z'
loop_
 _atom_site_type_symbol
 _atom_site_label
 _atom_site_symmetry_multiplicity
 _atom_site_fract_x
 _atom_site_fract_y
 _atom_site_fract_z
 _atom_site_occupancy
  Mg  Mg0  1  0.22464609  0.37500000  0.16174258  1
  Mg  Mg1  1  0.22464609  0.37500000  0.49507592  1
  Mg  Mg2  1  0.22464609  0.37500000  0.82840925  1
  Mg  Mg3  1  0.22464609  0.87500000  0.16174258  1
  Mg  Mg4  1  0.22464609  0.87500000  0.49507592  1
  Mg  Mg5  1  0.22464609  0.87500000  0.82840925  1
  Mg  Mg6  1  0.27535391  0.12500000  0.32840925  1
  Mg  Mg7  1  0.27535391  0.12500000  0.66174258  1
  Mg  Mg8  1  0.27535391  0.12500000  0.99507592  1
  Mg  Mg9  1  0.27535391  0.62500000  0.32840925  1
  Mg  Mg10  1  0.27535391  0.62500000  0.66174258  1
  Mg  Mg11  1  0.27535391  0.62500000  0.99507592  1
  Mg  Mg12  1  0.77535391  0.12500000  0.17159075  1
  Mg  Mg13  1  0.77535391  0.12500000  0.50492408  1
  Mg  Mg14  1  0.77535391  0.12500000  0.83825742  1
  Mg  Mg15  1  0.77535391  0.62500000  0.17159075  1
  Mg  Mg16  1  0.77535391  0.62500000  0.50492408  1
  Mg  Mg17  1  0.77535391  0.62500000  0.83825742  1
  Mg  Mg18  1  0.72464609  0.37500000  0.00492408  1
  Mg  Mg19  1  0.72464609  0.37500000  0.33825742  1
  Mg  Mg20  1  0.72464609  0.37500000  0.67159075  1
  Mg  Mg21  1  0.72464609  0.87500000  0.00492408  1
  Mg  Mg22  1  0.72464609  0.87500000  0.33825742  1
  Mg  Mg23  1  0.72464609  0.87500000  0.67159075  1
  Al  Al24  1  0.50000000  0.25000000  0.16666667  1
  Al  Al25  1  0.50000000  0.25000000  0.50000000  1
  Al  Al26  1  0.50000000  0.25000000  0.83333333  1
  Al  Al27  1  0.50000000  0.75000000  0.16666667  1
  Al  Al28  1  0.50000000  0.75000000  0.50000000  1
  Al  Al29  1  0.50000000  0.75000000  0.83333333  1
  Al  Al30  1  0.00000000  0.25000000  0.00000000  1
  Al  Al31  1  0.00000000  0.25000000  0.33333333  1
  Al  Al32  1  0.00000000  0.25000000  0.66666667  1
  Al  Al33  1  0.00000000  0.75000000  0.00000000  1
  Al  Al34  1  0.00000000  0.75000000  0.33333333  1
  Al  Al35  1  0.00000000  0.75000000  0.66666667  1
  Al  Al36  1  0.50000000  0.00000000  0.16666667  1
  Al  Al37  1  0.50000000  0.00000000  0.50000000  1
  Al  Al38  1  0.50000000  0.00000000  0.83333333  1
  Al  Al39  1  0.50000000  0.50000000  0.16666667  1
  Al  Al40  1  0.50000000  0.50000000  0.50000000  1
  Al  Al41  1  0.50000000  0.50000000  0.83333333  1
  Al  Al42  1  0.00000000  0.00000000  0.00000000  1
  Al  Al43  1  0.00000000  0.00000000  0.33333333  1
  Al  Al44  1  0.00000000  0.00000000  0.66666667  1
  Al  Al45  1  0.00000000  0.50000000  0.00000000  1
  Al  Al46  1  0.00000000  0.50000000  0.33333333  1
  Al  Al47  1  0.00000000  0.50000000  0.66666667  1
  B  B48  1  0.58679469  0.12500000  0.03032206  1
  B  B49  1  0.58679469  0.12500000  0.36365540  1
  B  B50  1  0.58679469  0.12500000  0.69698873  1
  B  B51  1  0.58679469  0.62500000  0.03032206  1
  B  B52  1  0.58679469  0.62500000  0.36365540  1
  B  B53  1  0.58679469  0.62500000  0.69698873  1
  B  B54  1  0.41320531  0.37500000  0.30301127  1
  B  B55  1  0.41320531  0.37500000  0.63634460  1
  B  B56  1  0.41320531  0.37500000  0.96967794  1
  B  B57  1  0.41320531  0.87500000  0.30301127  1
  B  B58  1  0.41320531  0.87500000  0.63634460  1
  B  B59  1  0.41320531  0.87500000  0.96967794  1
  B  B60  1  0.08679469  0.12500000  0.13634460  1
  B  B61  1  0.08679469  0.12500000  0.46967794  1
  B  B62  1  0.08679469  0.12500000  0.80301127  1
  B  B63  1  0.08679469  0.62500000  0.13634460  1
  B  B64  1  0.08679469  0.62500000  0.46967794  1
  B  B65  1  0.08679469  0.62500000  0.80301127  1
  B  B66  1  0.91320531  0.37500000  0.19698873  1
  B  B67  1  0.91320531  0.37500000  0.53032206  1
  B  B68  1  0.91320531  0.37500000  0.86365540  1
  B  B69  1  0.91320531  0.87500000  0.19698873  1
  B  B70  1  0.91320531  0.87500000  0.53032206  1
  B  B71  1  0.91320531  0.87500000  0.86365540  1
  O  O72  1  0.35072014  0.26923773  0.25515187  1
  O  O73  1  0.35072014  0.26923773  0.58848521  1
  O  O74  1  0.35072014  0.26923773  0.92181854  1
  O  O75  1  0.35072014  0.76923773  0.25515187  1
  O  O76  1  0.35072014  0.76923773  0.58848521  1
  O  O77  1  0.35072014  0.76923773  0.92181854  1
  O  O78  1  0.14927986  0.23076227  0.08848521  1
  O  O79  1  0.14927986  0.23076227  0.42181854  1
  O  O80  1  0.14927986  0.23076227  0.75515187  1
  O  O81  1  0.14927986  0.73076227  0.08848521  1
  O  O82  1  0.14927986  0.73076227  0.42181854  1
  O  O83  1  0.14927986  0.73076227  0.75515187  1
  O  O84  1  0.64927986  0.01923773  0.07818146  1
  O  O85  1  0.64927986  0.01923773  0.41151479  1
  O  O86  1  0.64927986  0.01923773  0.74484813  1
  O  O87  1  0.64927986  0.51923773  0.07818146  1
  O  O88  1  0.64927986  0.51923773  0.41151479  1
  O  O89  1  0.64927986  0.51923773  0.74484813  1
  O  O90  1  0.85072014  0.48076227  0.24484813  1
  O  O91  1  0.85072014  0.48076227  0.57818146  1
  O  O92  1  0.85072014  0.48076227  0.91151479  1
  O  O93  1  0.85072014  0.98076227  0.24484813  1
  O  O94  1  0.85072014  0.98076227  0.57818146  1
  O  O95  1  0.85072014  0.98076227  0.91151479  1
  O  O96  1  0.14927986  0.01923773  0.08848521  1
  O  O97  1  0.14927986  0.01923773  0.42181854  1
  O  O98  1  0.14927986  0.01923773  0.75515187  1
  O  O99  1  0.14927986  0.51923773  0.08848521  1
  O  O100  1  0.14927986  0.51923773  0.42181854  1
  O  O101  1  0.14927986  0.51923773  0.75515187  1
  O  O102  1  0.64927986  0.23076227  0.07818146  1
  O  O103  1  0.64927986  0.23076227  0.41151479  1
  O  O104  1  0.64927986  0.23076227  0.74484813  1
  O  O105  1  0.64927986  0.73076227  0.07818146  1
  O  O106  1  0.64927986  0.73076227  0.41151479  1
  O  O107  1  0.64927986  0.73076227  0.74484813  1
  O  O108  1  0.35072014  0.48076227  0.25515187  1
  O  O109  1  0.35072014  0.48076227  0.58848521  1
  O  O110  1  0.35072014  0.48076227  0.92181854  1
  O  O111  1  0.35072014  0.98076227  0.25515187  1
  O  O112  1  0.35072014  0.98076227  0.58848521  1
  O  O113  1  0.35072014  0.98076227  0.92181854  1
  O  O114  1  0.85072014  0.26923773  0.24484813  1
  O  O115  1  0.85072014  0.26923773  0.57818146  1
  O  O116  1  0.85072014  0.26923773  0.91151479  1
  O  O117  1  0.85072014  0.76923773  0.24484813  1
  O  O118  1  0.85072014  0.76923773  0.57818146  1
  O  O119  1  0.85072014  0.76923773  0.91151479  1
  O  O120  1  0.91916637  0.37500000  0.08603735  1
  O  O121  1  0.91916637  0.37500000  0.41937068  1
  O  O122  1  0.91916637  0.37500000  0.75270402  1
  O  O123  1  0.91916637  0.87500000  0.08603735  1
  O  O124  1  0.91916637  0.87500000  0.41937068  1
  O  O125  1  0.91916637  0.87500000  0.75270402  1
  O  O126  1  0.58083363  0.12500000  0.25270402  1
  O  O127  1  0.58083363  0.12500000  0.58603735  1
  O  O128  1  0.58083363  0.12500000  0.91937068  1
  O  O129  1  0.58083363  0.62500000  0.25270402  1
  O  O130  1  0.58083363  0.62500000  0.58603735  1
  O  O131  1  0.58083363  0.62500000  0.91937068  1
  O  O132  1  0.08083363  0.12500000  0.24729598  1
  O  O133  1  0.08083363  0.12500000  0.58062932  1
  O  O134  1  0.08083363  0.12500000  0.91396265  1
  O  O135  1  0.08083363  0.62500000  0.24729598  1
  O  O136  1  0.08083363  0.62500000  0.58062932  1
  O  O137  1  0.08083363  0.62500000  0.91396265  1
  O  O138  1  0.41916637  0.37500000  0.08062932  1
  O  O139  1  0.41916637  0.37500000  0.41396265  1
  O  O140  1  0.41916637  0.37500000  0.74729598  1
  O  O141  1  0.41916637  0.87500000  0.08062932  1
  O  O142  1  0.41916637  0.87500000  0.41396265  1
  O  O143  1  0.41916637  0.87500000  0.74729598  1
  O  O144  1  0.55598040  0.37500000  0.24871238  1
  O  O145  1  0.55598040  0.37500000  0.58204571  1
  O  O146  1  0.55598040  0.37500000  0.91537904  1
  O  O147  1  0.55598040  0.87500000  0.24871238  1
  O  O148  1  0.55598040  0.87500000  0.58204571  1
  O  O149  1  0.55598040  0.87500000  0.91537904  1
  O  O150  1  0.94401960  0.12500000  0.08204571  1
  O  O151  1  0.94401960  0.12500000  0.41537904  1
  O  O152  1  0.94401960  0.12500000  0.74871238  1
  O  O153  1  0.94401960  0.62500000  0.08204571  1
  O  O154  1  0.94401960  0.62500000  0.41537904  1
  O  O155  1  0.94401960  0.62500000  0.74871238  1
  O  O156  1  0.44401960  0.12500000  0.08462096  1
  O  O157  1  0.44401960  0.12500000  0.41795429  1
  O  O158  1  0.44401960  0.12500000  0.75128762  1
  O  O159  1  0.44401960  0.62500000  0.08462096  1
  O  O160  1  0.44401960  0.62500000  0.41795429  1
  O  O161  1  0.44401960  0.62500000  0.75128762  1
  O  O162  1  0.05598040  0.37500000  0.25128762  1
  O  O163  1  0.05598040  0.37500000  0.58462096  1
  O  O164  1  0.05598040  0.37500000  0.91795429  1
  O  O165  1  0.05598040  0.87500000  0.25128762  1
  O  O166  1  0.05598040  0.87500000  0.58462096  1
  O  O167  1  0.05598040  0.87500000  0.91795429  1
