# generated using pymatgen
data_BaY2O4
_symmetry_space_group_name_H-M   'P 1'
_cell_length_a   10.34485852
_cell_length_b   10.31966376
_cell_length_c   12.04977964
_cell_angle_alpha   90.00000000
_cell_angle_beta   90.00000000
_cell_angle_gamma   90.00000000
_symmetry_Int_Tables_number   1
_chemical_formula_structural   BaY2O4
_chemical_formula_sum   'Ba12 Y24 O48'
_cell_volume   1286.37978707
_cell_formula_units_Z   12
loop_
 _symmetry_equiv_pos_site_id
 _symmetry_equiv_pos_as_xyz
  1  'x, y, z'
loop_
 _atom_site_type_symbol
 _atom_site_label
 _atom_site_symmetry_multiplicity
 _atom_site_fract_x
 _atom_site_fract_y
 _atom_site_fract_z
 _atom_site_occupancy
  Ba  Ba0  1  0.25288610  0.08333333  0.85043993  1
  Ba  Ba1  1  0.25288610  0.41666667  0.85043993  1
  Ba  Ba2  1  0.25288610  0.75000000  0.85043993  1
  Ba  Ba3  1  0.74711390  0.25000000  0.14956007  1
  Ba  Ba4  1  0.74711390  0.58333333  0.14956007  1
  Ba  Ba5  1  0.74711390  0.91666667  0.14956007  1
  Ba  Ba6  1  0.75288610  0.08333333  0.64956007  1
  Ba  Ba7  1  0.75288610  0.41666667  0.64956007  1
  Ba  Ba8  1  0.75288610  0.75000000  0.64956007  1
  Ba  Ba9  1  0.24711390  0.25000000  0.35043993  1
  Ba  Ba10  1  0.24711390  0.58333333  0.35043993  1
  Ba  Ba11  1  0.24711390  0.91666667  0.35043993  1
  Y  Y12  1  0.92560895  0.08333333  0.88931164  1
  Y  Y13  1  0.92560895  0.41666667  0.88931164  1
  Y  Y14  1  0.92560895  0.75000000  0.88931164  1
  Y  Y15  1  0.07439105  0.25000000  0.11068836  1
  Y  Y16  1  0.07439105  0.58333333  0.11068836  1
  Y  Y17  1  0.07439105  0.91666667  0.11068836  1
  Y  Y18  1  0.42560895  0.08333333  0.61068836  1
  Y  Y19  1  0.42560895  0.41666667  0.61068836  1
  Y  Y20  1  0.42560895  0.75000000  0.61068836  1
  Y  Y21  1  0.57439105  0.25000000  0.38931164  1
  Y  Y22  1  0.57439105  0.58333333  0.38931164  1
  Y  Y23  1  0.57439105  0.91666667  0.38931164  1
  Y  Y24  1  0.57742097  0.25000000  0.89087649  1
  Y  Y25  1  0.57742097  0.58333333  0.89087649  1
  Y  Y26  1  0.57742097  0.91666667  0.89087649  1
  Y  Y27  1  0.42257903  0.08333333  0.10912351  1
  Y  Y28  1  0.42257903  0.41666667  0.10912351  1
  Y  Y29  1  0.42257903  0.75000000  0.10912351  1
  Y  Y30  1  0.07742097  0.25000000  0.60912351  1
  Y  Y31  1  0.07742097  0.58333333  0.60912351  1
  Y  Y32  1  0.07742097  0.91666667  0.60912351  1
  Y  Y33  1  0.92257903  0.08333333  0.39087649  1
  Y  Y34  1  0.92257903  0.41666667  0.39087649  1
  Y  Y35  1  0.92257903  0.75000000  0.39087649  1
  O  O36  1  0.79017850  0.25000000  0.84025426  1
  O  O37  1  0.79017850  0.58333333  0.84025426  1
  O  O38  1  0.79017850  0.91666667  0.84025426  1
  O  O39  1  0.20982150  0.08333333  0.15974574  1
  O  O40  1  0.20982150  0.41666667  0.15974574  1
  O  O41  1  0.20982150  0.75000000  0.15974574  1
  O  O42  1  0.29017850  0.25000000  0.65974574  1
  O  O43  1  0.29017850  0.58333333  0.65974574  1
  O  O44  1  0.29017850  0.91666667  0.65974574  1
  O  O45  1  0.70982150  0.08333333  0.34025426  1
  O  O46  1  0.70982150  0.41666667  0.34025426  1
  O  O47  1  0.70982150  0.75000000  0.34025426  1
  O  O48  1  0.88396629  0.25000000  0.51768739  1
  O  O49  1  0.88396629  0.58333333  0.51768739  1
  O  O50  1  0.88396629  0.91666667  0.51768739  1
  O  O51  1  0.11603371  0.08333333  0.48231261  1
  O  O52  1  0.11603371  0.41666667  0.48231261  1
  O  O53  1  0.11603371  0.75000000  0.48231261  1
  O  O54  1  0.38396629  0.25000000  0.98231261  1
  O  O55  1  0.38396629  0.58333333  0.98231261  1
  O  O56  1  0.38396629  0.91666667  0.98231261  1
  O  O57  1  0.61603371  0.08333333  0.01768739  1
  O  O58  1  0.61603371  0.41666667  0.01768739  1
  O  O59  1  0.61603371  0.75000000  0.01768739  1
  O  O60  1  0.48183674  0.25000000  0.21720951  1
  O  O61  1  0.48183674  0.58333333  0.21720951  1
  O  O62  1  0.48183674  0.91666667  0.21720951  1
  O  O63  1  0.51816326  0.08333333  0.78279049  1
  O  O64  1  0.51816326  0.41666667  0.78279049  1
  O  O65  1  0.51816326  0.75000000  0.78279049  1
  O  O66  1  0.98183674  0.25000000  0.28279049  1
  O  O67  1  0.98183674  0.58333333  0.28279049  1
  O  O68  1  0.98183674  0.91666667  0.28279049  1
  O  O69  1  0.01816326  0.08333333  0.71720951  1
  O  O70  1  0.01816326  0.41666667  0.71720951  1
  O  O71  1  0.01816326  0.75000000  0.71720951  1
  O  O72  1  0.56985959  0.25000000  0.57452472  1
  O  O73  1  0.56985959  0.58333333  0.57452472  1
  O  O74  1  0.56985959  0.91666667  0.57452472  1
  O  O75  1  0.43014041  0.08333333  0.42547528  1
  O  O76  1  0.43014041  0.41666667  0.42547528  1
  O  O77  1  0.43014041  0.75000000  0.42547528  1
  O  O78  1  0.06985959  0.25000000  0.92547528  1
  O  O79  1  0.06985959  0.58333333  0.92547528  1
  O  O80  1  0.06985959  0.91666667  0.92547528  1
  O  O81  1  0.93014041  0.08333333  0.07452472  1
  O  O82  1  0.93014041  0.41666667  0.07452472  1
  O  O83  1  0.93014041  0.75000000  0.07452472  1
