# generated using pymatgen
data_KTlO
_symmetry_space_group_name_H-M   'P 1'
_cell_length_a   12.89284465
_cell_length_b   14.48032306
_cell_length_c   12.55634622
_cell_angle_alpha   90.00000000
_cell_angle_beta   107.13087593
_cell_angle_gamma   90.00000000
_symmetry_Int_Tables_number   1
_chemical_formula_structural   KTlO
_chemical_formula_sum   'K32 Tl32 O32'
_cell_volume   2240.17562606
_cell_formula_units_Z   32
loop_
 _symmetry_equiv_pos_site_id
 _symmetry_equiv_pos_as_xyz
  1  'x, y, z'
loop_
 _atom_site_type_symbol
 _atom_site_label
 _atom_site_symmetry_multiplicity
 _atom_site_fract_x
 _atom_site_fract_y
 _atom_site_fract_z
 _atom_site_occupancy
  K  K0  1  0.12785415  -0.00000000  0.17250099  1
  K  K1  1  0.12785415  -0.00000000  0.67250099  1
  K  K2  1  0.12785415  0.25000000  0.17250099  1
  K  K3  1  0.12785415  0.25000000  0.67250099  1
  K  K4  1  0.12785415  0.50000000  0.17250099  1
  K  K5  1  0.12785415  0.50000000  0.67250099  1
  K  K6  1  0.12785415  0.75000000  0.17250099  1
  K  K7  1  0.12785415  0.75000000  0.67250099  1
  K  K8  1  0.62785415  0.12500000  0.17250099  1
  K  K9  1  0.62785415  0.12500000  0.67250099  1
  K  K10  1  0.62785415  0.37500000  0.17250099  1
  K  K11  1  0.62785415  0.37500000  0.67250099  1
  K  K12  1  0.62785415  0.62500000  0.17250099  1
  K  K13  1  0.62785415  0.62500000  0.67250099  1
  K  K14  1  0.62785415  0.87500000  0.17250099  1
  K  K15  1  0.62785415  0.87500000  0.67250099  1
  K  K16  1  0.87214585  -0.00000000  0.32749901  1
  K  K17  1  0.87214585  -0.00000000  0.82749901  1
  K  K18  1  0.87214585  0.25000000  0.32749901  1
  K  K19  1  0.87214585  0.25000000  0.82749901  1
  K  K20  1  0.87214585  0.50000000  0.32749901  1
  K  K21  1  0.87214585  0.50000000  0.82749901  1
  K  K22  1  0.87214585  0.75000000  0.32749901  1
  K  K23  1  0.87214585  0.75000000  0.82749901  1
  K  K24  1  1.37214585  0.12500000  0.32749901  1
  K  K25  1  1.37214585  0.12500000  0.82749901  1
  K  K26  1  1.37214585  0.37500000  0.32749901  1
  K  K27  1  1.37214585  0.37500000  0.82749901  1
  K  K28  1  1.37214585  0.62500000  0.32749901  1
  K  K29  1  1.37214585  0.62500000  0.82749901  1
  K  K30  1  1.37214585  0.87500000  0.32749901  1
  K  K31  1  1.37214585  0.87500000  0.82749901  1
  Tl  Tl32  1  0.63736539  0.00000000  0.42408495  1
  Tl  Tl33  1  0.63736539  0.00000000  0.92408495  1
  Tl  Tl34  1  0.63736539  0.25000000  0.42408495  1
  Tl  Tl35  1  0.63736539  0.25000000  0.92408495  1
  Tl  Tl36  1  0.63736539  0.50000000  0.42408495  1
  Tl  Tl37  1  0.63736539  0.50000000  0.92408495  1
  Tl  Tl38  1  0.63736539  0.75000000  0.42408495  1
  Tl  Tl39  1  0.63736539  0.75000000  0.92408495  1
  Tl  Tl40  1  1.13736539  0.12500000  0.42408495  1
  Tl  Tl41  1  1.13736539  0.12500000  0.92408495  1
  Tl  Tl42  1  1.13736539  0.37500000  0.42408495  1
  Tl  Tl43  1  1.13736539  0.37500000  0.92408495  1
  Tl  Tl44  1  1.13736539  0.62500000  0.42408495  1
  Tl  Tl45  1  1.13736539  0.62500000  0.92408495  1
  Tl  Tl46  1  1.13736539  0.87500000  0.42408495  1
  Tl  Tl47  1  1.13736539  0.87500000  0.92408495  1
  Tl  Tl48  1  0.36263461  0.00000000  0.07591505  1
  Tl  Tl49  1  0.36263461  0.00000000  0.57591505  1
  Tl  Tl50  1  0.36263461  0.25000000  0.07591505  1
  Tl  Tl51  1  0.36263461  0.25000000  0.57591505  1
  Tl  Tl52  1  0.36263461  0.50000000  0.07591505  1
  Tl  Tl53  1  0.36263461  0.50000000  0.57591505  1
  Tl  Tl54  1  0.36263461  0.75000000  0.07591505  1
  Tl  Tl55  1  0.36263461  0.75000000  0.57591505  1
  Tl  Tl56  1  0.86263461  0.12500000  0.07591505  1
  Tl  Tl57  1  0.86263461  0.12500000  0.57591505  1
  Tl  Tl58  1  0.86263461  0.37500000  0.07591505  1
  Tl  Tl59  1  0.86263461  0.37500000  0.57591505  1
  Tl  Tl60  1  0.86263461  0.62500000  0.07591505  1
  Tl  Tl61  1  0.86263461  0.62500000  0.57591505  1
  Tl  Tl62  1  0.86263461  0.87500000  0.07591505  1
  Tl  Tl63  1  0.86263461  0.87500000  0.57591505  1
  O  O64  1  0.75083427  0.00000000  0.10811182  1
  O  O65  1  0.75083427  0.00000000  0.60811182  1
  O  O66  1  0.75083427  0.25000000  0.10811182  1
  O  O67  1  0.75083427  0.25000000  0.60811182  1
  O  O68  1  0.75083427  0.50000000  0.10811182  1
  O  O69  1  0.75083427  0.50000000  0.60811182  1
  O  O70  1  0.75083427  0.75000000  0.10811182  1
  O  O71  1  0.75083427  0.75000000  0.60811182  1
  O  O72  1  1.25083427  0.12500000  0.10811182  1
  O  O73  1  1.25083427  0.12500000  0.60811182  1
  O  O74  1  1.25083427  0.37500000  0.10811182  1
  O  O75  1  1.25083427  0.37500000  0.60811182  1
  O  O76  1  1.25083427  0.62500000  0.10811182  1
  O  O77  1  1.25083427  0.62500000  0.60811182  1
  O  O78  1  1.25083427  0.87500000  0.10811182  1
  O  O79  1  1.25083427  0.87500000  0.60811182  1
  O  O80  1  0.24916573  0.00000000  0.39188818  1
  O  O81  1  0.24916573  0.00000000  0.89188818  1
  O  O82  1  0.24916573  0.25000000  0.39188818  1
  O  O83  1  0.24916573  0.25000000  0.89188818  1
  O  O84  1  0.24916573  0.50000000  0.39188818  1
  O  O85  1  0.24916573  0.50000000  0.89188818  1
  O  O86  1  0.24916573  0.75000000  0.39188818  1
  O  O87  1  0.24916573  0.75000000  0.89188818  1
  O  O88  1  0.74916573  0.12500000  0.39188818  1
  O  O89  1  0.74916573  0.12500000  0.89188818  1
  O  O90  1  0.74916573  0.37500000  0.39188818  1
  O  O91  1  0.74916573  0.37500000  0.89188818  1
  O  O92  1  0.74916573  0.62500000  0.39188818  1
  O  O93  1  0.74916573  0.62500000  0.89188818  1
  O  O94  1  0.74916573  0.87500000  0.39188818  1
  O  O95  1  0.74916573  0.87500000  0.89188818  1
