# generated using pymatgen
data_KCuO
_symmetry_space_group_name_H-M   'P 1'
_cell_length_a   18.48403762
_cell_length_b   18.48403762
_cell_length_c   16.51485084
_cell_angle_alpha   90.00000000
_cell_angle_beta   90.00000000
_cell_angle_gamma   90.00000000
_symmetry_Int_Tables_number   1
_chemical_formula_structural   KCuO
_chemical_formula_sum   'K96 Cu96 O96'
_cell_volume   5642.45810181
_cell_formula_units_Z   96
loop_
 _symmetry_equiv_pos_site_id
 _symmetry_equiv_pos_as_xyz
  1  'x, y, z'
loop_
 _atom_site_type_symbol
 _atom_site_label
 _atom_site_symmetry_multiplicity
 _atom_site_fract_x
 _atom_site_fract_y
 _atom_site_fract_z
 _atom_site_occupancy
  K  K0  1  0.25000000  0.40477512  0.00000000  1
  K  K1  1  0.25000000  0.40477512  0.33333333  1
  K  K2  1  0.25000000  0.40477512  0.66666667  1
  K  K3  1  0.75000000  0.40477512  0.00000000  1
  K  K4  1  0.75000000  0.40477512  0.33333333  1
  K  K5  1  0.75000000  0.40477512  0.66666667  1
  K  K6  1  0.25000000  -0.09522488  0.00000000  1
  K  K7  1  0.25000000  -0.09522488  0.33333333  1
  K  K8  1  0.25000000  -0.09522488  0.66666667  1
  K  K9  1  0.75000000  -0.09522488  0.00000000  1
  K  K10  1  0.75000000  -0.09522488  0.33333333  1
  K  K11  1  0.75000000  -0.09522488  0.66666667  1
  K  K12  1  0.50000000  0.15477512  0.16666667  1
  K  K13  1  0.50000000  0.15477512  0.50000000  1
  K  K14  1  0.50000000  0.15477512  0.83333333  1
  K  K15  1  1.00000000  0.15477512  0.16666667  1
  K  K16  1  1.00000000  0.15477512  0.50000000  1
  K  K17  1  1.00000000  0.15477512  0.83333333  1
  K  K18  1  0.50000000  -0.34522488  0.16666667  1
  K  K19  1  0.50000000  -0.34522488  0.50000000  1
  K  K20  1  0.50000000  -0.34522488  0.83333333  1
  K  K21  1  1.00000000  -0.34522488  0.16666667  1
  K  K22  1  1.00000000  -0.34522488  0.50000000  1
  K  K23  1  1.00000000  -0.34522488  0.83333333  1
  K  K24  1  -0.00000000  0.34522488  0.16666667  1
  K  K25  1  -0.00000000  0.34522488  0.50000000  1
  K  K26  1  -0.00000000  0.34522488  0.83333333  1
  K  K27  1  0.50000000  0.34522488  0.16666667  1
  K  K28  1  0.50000000  0.34522488  0.50000000  1
  K  K29  1  0.50000000  0.34522488  0.83333333  1
  K  K30  1  -0.00000000  -0.15477512  0.16666667  1
  K  K31  1  -0.00000000  -0.15477512  0.50000000  1
  K  K32  1  -0.00000000  -0.15477512  0.83333333  1
  K  K33  1  0.50000000  -0.15477512  0.16666667  1
  K  K34  1  0.50000000  -0.15477512  0.50000000  1
  K  K35  1  0.50000000  -0.15477512  0.83333333  1
  K  K36  1  0.25000000  0.09522488  0.33333333  1
  K  K37  1  0.25000000  0.09522488  0.66666667  1
  K  K38  1  0.25000000  0.09522488  1.00000000  1
  K  K39  1  0.75000000  0.09522488  0.33333333  1
  K  K40  1  0.75000000  0.09522488  0.66666667  1
  K  K41  1  0.75000000  0.09522488  1.00000000  1
  K  K42  1  0.25000000  -0.40477512  0.33333333  1
  K  K43  1  0.25000000  -0.40477512  0.66666667  1
  K  K44  1  0.25000000  -0.40477512  1.00000000  1
  K  K45  1  0.75000000  -0.40477512  0.33333333  1
  K  K46  1  0.75000000  -0.40477512  0.66666667  1
  K  K47  1  0.75000000  -0.40477512  1.00000000  1
  K  K48  1  0.09522488  0.25000000  0.00000000  1
  K  K49  1  0.09522488  0.25000000  0.33333333  1
  K  K50  1  0.09522488  0.25000000  0.66666667  1
  K  K51  1  0.59522488  0.25000000  0.00000000  1
  K  K52  1  0.59522488  0.25000000  0.33333333  1
  K  K53  1  0.59522488  0.25000000  0.66666667  1
  K  K54  1  0.09522488  -0.25000000  0.00000000  1
  K  K55  1  0.09522488  -0.25000000  0.33333333  1
  K  K56  1  0.09522488  -0.25000000  0.66666667  1
  K  K57  1  0.59522488  -0.25000000  0.00000000  1
  K  K58  1  0.59522488  -0.25000000  0.33333333  1
  K  K59  1  0.59522488  -0.25000000  0.66666667  1
  K  K60  1  0.34522488  0.00000000  0.16666667  1
  K  K61  1  0.34522488  0.00000000  0.50000000  1
  K  K62  1  0.34522488  0.00000000  0.83333333  1
  K  K63  1  0.84522488  0.00000000  0.16666667  1
  K  K64  1  0.84522488  0.00000000  0.50000000  1
  K  K65  1  0.84522488  0.00000000  0.83333333  1
  K  K66  1  0.34522488  -0.50000000  0.16666667  1
  K  K67  1  0.34522488  -0.50000000  0.50000000  1
  K  K68  1  0.34522488  -0.50000000  0.83333333  1
  K  K69  1  0.84522488  -0.50000000  0.16666667  1
  K  K70  1  0.84522488  -0.50000000  0.50000000  1
  K  K71  1  0.84522488  -0.50000000  0.83333333  1
  K  K72  1  0.15477512  0.50000000  0.16666667  1
  K  K73  1  0.15477512  0.50000000  0.50000000  1
  K  K74  1  0.15477512  0.50000000  0.83333333  1
  K  K75  1  0.65477512  0.50000000  0.16666667  1
  K  K76  1  0.65477512  0.50000000  0.50000000  1
  K  K77  1  0.65477512  0.50000000  0.83333333  1
  K  K78  1  0.15477512  -0.00000000  0.16666667  1
  K  K79  1  0.15477512  -0.00000000  0.50000000  1
  K  K80  1  0.15477512  -0.00000000  0.83333333  1
  K  K81  1  0.65477512  -0.00000000  0.16666667  1
  K  K82  1  0.65477512  -0.00000000  0.50000000  1
  K  K83  1  0.65477512  -0.00000000  0.83333333  1
  K  K84  1  0.40477512  0.25000000  0.33333333  1
  K  K85  1  0.40477512  0.25000000  0.66666667  1
  K  K86  1  0.40477512  0.25000000  1.00000000  1
  K  K87  1  0.90477512  0.25000000  0.33333333  1
  K  K88  1  0.90477512  0.25000000  0.66666667  1
  K  K89  1  0.90477512  0.25000000  1.00000000  1
  K  K90  1  0.40477512  -0.25000000  0.33333333  1
  K  K91  1  0.40477512  -0.25000000  0.66666667  1
  K  K92  1  0.40477512  -0.25000000  1.00000000  1
  K  K93  1  0.90477512  -0.25000000  0.33333333  1
  K  K94  1  0.90477512  -0.25000000  0.66666667  1
  K  K95  1  0.90477512  -0.25000000  1.00000000  1
  Cu  Cu96  1  0.06865763  0.43134237  -0.00000000  1
  Cu  Cu97  1  0.06865763  0.43134237  0.33333333  1
  Cu  Cu98  1  0.06865763  0.43134237  0.66666667  1
  Cu  Cu99  1  0.56865763  0.43134237  -0.00000000  1
  Cu  Cu100  1  0.56865763  0.43134237  0.33333333  1
  Cu  Cu101  1  0.56865763  0.43134237  0.66666667  1
  Cu  Cu102  1  0.06865763  -0.06865763  -0.00000000  1
  Cu  Cu103  1  0.06865763  -0.06865763  0.33333333  1
  Cu  Cu104  1  0.06865763  -0.06865763  0.66666667  1
  Cu  Cu105  1  0.56865763  -0.06865763  -0.00000000  1
  Cu  Cu106  1  0.56865763  -0.06865763  0.33333333  1
  Cu  Cu107  1  0.56865763  -0.06865763  0.66666667  1
  Cu  Cu108  1  0.31865763  0.18134237  0.16666667  1
  Cu  Cu109  1  0.31865763  0.18134237  0.50000000  1
  Cu  Cu110  1  0.31865763  0.18134237  0.83333333  1
  Cu  Cu111  1  0.81865763  0.18134237  0.16666667  1
  Cu  Cu112  1  0.81865763  0.18134237  0.50000000  1
  Cu  Cu113  1  0.81865763  0.18134237  0.83333333  1
  Cu  Cu114  1  0.31865763  -0.31865763  0.16666667  1
  Cu  Cu115  1  0.31865763  -0.31865763  0.50000000  1
  Cu  Cu116  1  0.31865763  -0.31865763  0.83333333  1
  Cu  Cu117  1  0.81865763  -0.31865763  0.16666667  1
  Cu  Cu118  1  0.81865763  -0.31865763  0.50000000  1
  Cu  Cu119  1  0.81865763  -0.31865763  0.83333333  1
  Cu  Cu120  1  0.18134237  0.68134237  0.16666667  1
  Cu  Cu121  1  0.18134237  0.68134237  0.50000000  1
  Cu  Cu122  1  0.18134237  0.68134237  0.83333333  1
  Cu  Cu123  1  0.68134237  0.68134237  0.16666667  1
  Cu  Cu124  1  0.68134237  0.68134237  0.50000000  1
  Cu  Cu125  1  0.68134237  0.68134237  0.83333333  1
  Cu  Cu126  1  0.18134237  0.18134237  0.16666667  1
  Cu  Cu127  1  0.18134237  0.18134237  0.50000000  1
  Cu  Cu128  1  0.18134237  0.18134237  0.83333333  1
  Cu  Cu129  1  0.68134237  0.18134237  0.16666667  1
  Cu  Cu130  1  0.68134237  0.18134237  0.50000000  1
  Cu  Cu131  1  0.68134237  0.18134237  0.83333333  1
  Cu  Cu132  1  0.43134237  0.43134237  0.33333333  1
  Cu  Cu133  1  0.43134237  0.43134237  0.66666667  1
  Cu  Cu134  1  0.43134237  0.43134237  1.00000000  1
  Cu  Cu135  1  0.93134237  0.43134237  0.33333333  1
  Cu  Cu136  1  0.93134237  0.43134237  0.66666667  1
  Cu  Cu137  1  0.93134237  0.43134237  1.00000000  1
  Cu  Cu138  1  0.43134237  -0.06865763  0.33333333  1
  Cu  Cu139  1  0.43134237  -0.06865763  0.66666667  1
  Cu  Cu140  1  0.43134237  -0.06865763  1.00000000  1
  Cu  Cu141  1  0.93134237  -0.06865763  0.33333333  1
  Cu  Cu142  1  0.93134237  -0.06865763  0.66666667  1
  Cu  Cu143  1  0.93134237  -0.06865763  1.00000000  1
  Cu  Cu144  1  0.18134237  0.31865763  0.16666667  1
  Cu  Cu145  1  0.18134237  0.31865763  0.50000000  1
  Cu  Cu146  1  0.18134237  0.31865763  0.83333333  1
  Cu  Cu147  1  0.68134237  0.31865763  0.16666667  1
  Cu  Cu148  1  0.68134237  0.31865763  0.50000000  1
  Cu  Cu149  1  0.68134237  0.31865763  0.83333333  1
  Cu  Cu150  1  0.18134237  -0.18134237  0.16666667  1
  Cu  Cu151  1  0.18134237  -0.18134237  0.50000000  1
  Cu  Cu152  1  0.18134237  -0.18134237  0.83333333  1
  Cu  Cu153  1  0.68134237  -0.18134237  0.16666667  1
  Cu  Cu154  1  0.68134237  -0.18134237  0.50000000  1
  Cu  Cu155  1  0.68134237  -0.18134237  0.83333333  1
  Cu  Cu156  1  0.43134237  0.06865763  0.33333333  1
  Cu  Cu157  1  0.43134237  0.06865763  0.66666667  1
  Cu  Cu158  1  0.43134237  0.06865763  1.00000000  1
  Cu  Cu159  1  0.93134237  0.06865763  0.33333333  1
  Cu  Cu160  1  0.93134237  0.06865763  0.66666667  1
  Cu  Cu161  1  0.93134237  0.06865763  1.00000000  1
  Cu  Cu162  1  0.43134237  -0.43134237  0.33333333  1
  Cu  Cu163  1  0.43134237  -0.43134237  0.66666667  1
  Cu  Cu164  1  0.43134237  -0.43134237  1.00000000  1
  Cu  Cu165  1  0.93134237  -0.43134237  0.33333333  1
  Cu  Cu166  1  0.93134237  -0.43134237  0.66666667  1
  Cu  Cu167  1  0.93134237  -0.43134237  1.00000000  1
  Cu  Cu168  1  -0.18134237  0.31865763  0.16666667  1
  Cu  Cu169  1  -0.18134237  0.31865763  0.50000000  1
  Cu  Cu170  1  -0.18134237  0.31865763  0.83333333  1
  Cu  Cu171  1  0.31865763  0.31865763  0.16666667  1
  Cu  Cu172  1  0.31865763  0.31865763  0.50000000  1
  Cu  Cu173  1  0.31865763  0.31865763  0.83333333  1
  Cu  Cu174  1  -0.18134237  -0.18134237  0.16666667  1
  Cu  Cu175  1  -0.18134237  -0.18134237  0.50000000  1
  Cu  Cu176  1  -0.18134237  -0.18134237  0.83333333  1
  Cu  Cu177  1  0.31865763  -0.18134237  0.16666667  1
  Cu  Cu178  1  0.31865763  -0.18134237  0.50000000  1
  Cu  Cu179  1  0.31865763  -0.18134237  0.83333333  1
  Cu  Cu180  1  0.06865763  0.06865763  0.33333333  1
  Cu  Cu181  1  0.06865763  0.06865763  0.66666667  1
  Cu  Cu182  1  0.06865763  0.06865763  1.00000000  1
  Cu  Cu183  1  0.56865763  0.06865763  0.33333333  1
  Cu  Cu184  1  0.56865763  0.06865763  0.66666667  1
  Cu  Cu185  1  0.56865763  0.06865763  1.00000000  1
  Cu  Cu186  1  0.06865763  -0.43134237  0.33333333  1
  Cu  Cu187  1  0.06865763  -0.43134237  0.66666667  1
  Cu  Cu188  1  0.06865763  -0.43134237  1.00000000  1
  Cu  Cu189  1  0.56865763  -0.43134237  0.33333333  1
  Cu  Cu190  1  0.56865763  -0.43134237  0.66666667  1
  Cu  Cu191  1  0.56865763  -0.43134237  1.00000000  1
  O  O192  1  0.36162061  0.50000000  -0.00000000  1
  O  O193  1  0.36162061  0.50000000  0.33333333  1
  O  O194  1  0.36162061  0.50000000  0.66666667  1
  O  O195  1  0.86162061  0.50000000  -0.00000000  1
  O  O196  1  0.86162061  0.50000000  0.33333333  1
  O  O197  1  0.86162061  0.50000000  0.66666667  1
  O  O198  1  0.36162061  0.00000000  -0.00000000  1
  O  O199  1  0.36162061  0.00000000  0.33333333  1
  O  O200  1  0.36162061  0.00000000  0.66666667  1
  O  O201  1  0.86162061  0.00000000  -0.00000000  1
  O  O202  1  0.86162061  0.00000000  0.33333333  1
  O  O203  1  0.86162061  0.00000000  0.66666667  1
  O  O204  1  0.61162061  0.25000000  0.16666667  1
  O  O205  1  0.61162061  0.25000000  0.50000000  1
  O  O206  1  0.61162061  0.25000000  0.83333333  1
  O  O207  1  1.11162061  0.25000000  0.16666667  1
  O  O208  1  1.11162061  0.25000000  0.50000000  1
  O  O209  1  1.11162061  0.25000000  0.83333333  1
  O  O210  1  0.61162061  -0.25000000  0.16666667  1
  O  O211  1  0.61162061  -0.25000000  0.50000000  1
  O  O212  1  0.61162061  -0.25000000  0.83333333  1
  O  O213  1  1.11162061  -0.25000000  0.16666667  1
  O  O214  1  1.11162061  -0.25000000  0.50000000  1
  O  O215  1  1.11162061  -0.25000000  0.83333333  1
  O  O216  1  -0.00000000  0.13837939  -0.00000000  1
  O  O217  1  -0.00000000  0.13837939  0.33333333  1
  O  O218  1  -0.00000000  0.13837939  0.66666667  1
  O  O219  1  0.50000000  0.13837939  -0.00000000  1
  O  O220  1  0.50000000  0.13837939  0.33333333  1
  O  O221  1  0.50000000  0.13837939  0.66666667  1
  O  O222  1  -0.00000000  -0.36162061  -0.00000000  1
  O  O223  1  -0.00000000  -0.36162061  0.33333333  1
  O  O224  1  -0.00000000  -0.36162061  0.66666667  1
  O  O225  1  0.50000000  -0.36162061  -0.00000000  1
  O  O226  1  0.50000000  -0.36162061  0.33333333  1
  O  O227  1  0.50000000  -0.36162061  0.66666667  1
  O  O228  1  0.25000000  -0.11162061  0.16666667  1
  O  O229  1  0.25000000  -0.11162061  0.50000000  1
  O  O230  1  0.25000000  -0.11162061  0.83333333  1
  O  O231  1  0.75000000  -0.11162061  0.16666667  1
  O  O232  1  0.75000000  -0.11162061  0.50000000  1
  O  O233  1  0.75000000  -0.11162061  0.83333333  1
  O  O234  1  0.25000000  -0.61162061  0.16666667  1
  O  O235  1  0.25000000  -0.61162061  0.50000000  1
  O  O236  1  0.25000000  -0.61162061  0.83333333  1
  O  O237  1  0.75000000  -0.61162061  0.16666667  1
  O  O238  1  0.75000000  -0.61162061  0.50000000  1
  O  O239  1  0.75000000  -0.61162061  0.83333333  1
  O  O240  1  -0.00000000  0.36162061  -0.00000000  1
  O  O241  1  -0.00000000  0.36162061  0.33333333  1
  O  O242  1  -0.00000000  0.36162061  0.66666667  1
  O  O243  1  0.50000000  0.36162061  -0.00000000  1
  O  O244  1  0.50000000  0.36162061  0.33333333  1
  O  O245  1  0.50000000  0.36162061  0.66666667  1
  O  O246  1  -0.00000000  -0.13837939  -0.00000000  1
  O  O247  1  -0.00000000  -0.13837939  0.33333333  1
  O  O248  1  -0.00000000  -0.13837939  0.66666667  1
  O  O249  1  0.50000000  -0.13837939  -0.00000000  1
  O  O250  1  0.50000000  -0.13837939  0.33333333  1
  O  O251  1  0.50000000  -0.13837939  0.66666667  1
  O  O252  1  0.25000000  0.11162061  0.16666667  1
  O  O253  1  0.25000000  0.11162061  0.50000000  1
  O  O254  1  0.25000000  0.11162061  0.83333333  1
  O  O255  1  0.75000000  0.11162061  0.16666667  1
  O  O256  1  0.75000000  0.11162061  0.50000000  1
  O  O257  1  0.75000000  0.11162061  0.83333333  1
  O  O258  1  0.25000000  -0.38837939  0.16666667  1
  O  O259  1  0.25000000  -0.38837939  0.50000000  1
  O  O260  1  0.25000000  -0.38837939  0.83333333  1
  O  O261  1  0.75000000  -0.38837939  0.16666667  1
  O  O262  1  0.75000000  -0.38837939  0.50000000  1
  O  O263  1  0.75000000  -0.38837939  0.83333333  1
  O  O264  1  0.13837939  0.50000000  -0.00000000  1
  O  O265  1  0.13837939  0.50000000  0.33333333  1
  O  O266  1  0.13837939  0.50000000  0.66666667  1
  O  O267  1  0.63837939  0.50000000  -0.00000000  1
  O  O268  1  0.63837939  0.50000000  0.33333333  1
  O  O269  1  0.63837939  0.50000000  0.66666667  1
  O  O270  1  0.13837939  0.00000000  -0.00000000  1
  O  O271  1  0.13837939  0.00000000  0.33333333  1
  O  O272  1  0.13837939  0.00000000  0.66666667  1
  O  O273  1  0.63837939  0.00000000  -0.00000000  1
  O  O274  1  0.63837939  0.00000000  0.33333333  1
  O  O275  1  0.63837939  0.00000000  0.66666667  1
  O  O276  1  0.38837939  0.25000000  0.16666667  1
  O  O277  1  0.38837939  0.25000000  0.50000000  1
  O  O278  1  0.38837939  0.25000000  0.83333333  1
  O  O279  1  0.88837939  0.25000000  0.16666667  1
  O  O280  1  0.88837939  0.25000000  0.50000000  1
  O  O281  1  0.88837939  0.25000000  0.83333333  1
  O  O282  1  0.38837939  -0.25000000  0.16666667  1
  O  O283  1  0.38837939  -0.25000000  0.50000000  1
  O  O284  1  0.38837939  -0.25000000  0.83333333  1
  O  O285  1  0.88837939  -0.25000000  0.16666667  1
  O  O286  1  0.88837939  -0.25000000  0.50000000  1
  O  O287  1  0.88837939  -0.25000000  0.83333333  1
