# generated using pymatgen
data_Na3BiO4
_symmetry_space_group_name_H-M   'P 1'
_cell_length_a   11.62370904
_cell_length_b   13.31315532
_cell_length_c   11.30258407
_cell_angle_alpha   90.00000000
_cell_angle_beta   109.81926231
_cell_angle_gamma   90.00000000
_symmetry_Int_Tables_number   1
_chemical_formula_structural   Na3BiO4
_chemical_formula_sum   'Na48 Bi16 O64'
_cell_volume   1645.45296990
_cell_formula_units_Z   16
loop_
 _symmetry_equiv_pos_site_id
 _symmetry_equiv_pos_as_xyz
  1  'x, y, z'
loop_
 _atom_site_type_symbol
 _atom_site_label
 _atom_site_symmetry_multiplicity
 _atom_site_fract_x
 _atom_site_fract_y
 _atom_site_fract_z
 _atom_site_occupancy
  Na  Na0  1  -0.00000000  0.19074287  0.12500000  1
  Na  Na1  1  0.00000000  0.19074287  0.62500000  1
  Na  Na2  1  -0.00000000  0.69074287  0.12500000  1
  Na  Na3  1  0.00000000  0.69074287  0.62500000  1
  Na  Na4  1  0.50000000  0.19074287  0.12500000  1
  Na  Na5  1  0.50000000  0.19074287  0.62500000  1
  Na  Na6  1  0.50000000  0.69074287  0.12500000  1
  Na  Na7  1  0.50000000  0.69074287  0.62500000  1
  Na  Na8  1  0.25000000  0.19899884  0.37500000  1
  Na  Na9  1  0.25000000  0.19899884  0.87500000  1
  Na  Na10  1  0.25000000  0.69899884  0.37500000  1
  Na  Na11  1  0.25000000  0.69899884  0.87500000  1
  Na  Na12  1  0.75000000  0.19899884  0.37500000  1
  Na  Na13  1  0.75000000  0.19899884  0.87500000  1
  Na  Na14  1  0.75000000  0.69899884  0.37500000  1
  Na  Na15  1  0.75000000  0.69899884  0.87500000  1
  Na  Na16  1  0.25000000  0.06516446  0.12500000  1
  Na  Na17  1  0.25000000  0.06516446  0.62500000  1
  Na  Na18  1  0.25000000  0.56516446  0.12500000  1
  Na  Na19  1  0.25000000  0.56516446  0.62500000  1
  Na  Na20  1  0.75000000  0.06516446  0.12500000  1
  Na  Na21  1  0.75000000  0.06516446  0.62500000  1
  Na  Na22  1  0.75000000  0.56516446  0.12500000  1
  Na  Na23  1  0.75000000  0.56516446  0.62500000  1
  Na  Na24  1  0.25000000  0.43483554  0.37500000  1
  Na  Na25  1  0.25000000  0.43483554  0.87500000  1
  Na  Na26  1  0.25000000  0.93483554  0.37500000  1
  Na  Na27  1  0.25000000  0.93483554  0.87500000  1
  Na  Na28  1  0.75000000  0.43483554  0.37500000  1
  Na  Na29  1  0.75000000  0.43483554  0.87500000  1
  Na  Na30  1  0.75000000  0.93483554  0.37500000  1
  Na  Na31  1  0.75000000  0.93483554  0.87500000  1
  Na  Na32  1  0.00000000  0.30925713  0.37500000  1
  Na  Na33  1  0.00000000  0.30925713  0.87500000  1
  Na  Na34  1  0.00000000  0.80925713  0.37500000  1
  Na  Na35  1  0.00000000  0.80925713  0.87500000  1
  Na  Na36  1  0.50000000  0.30925713  0.37500000  1
  Na  Na37  1  0.50000000  0.30925713  0.87500000  1
  Na  Na38  1  0.50000000  0.80925713  0.37500000  1
  Na  Na39  1  0.50000000  0.80925713  0.87500000  1
  Na  Na40  1  0.25000000  0.30100116  0.12500000  1
  Na  Na41  1  0.25000000  0.30100116  0.62500000  1
  Na  Na42  1  0.25000000  0.80100116  0.12500000  1
  Na  Na43  1  0.25000000  0.80100116  0.62500000  1
  Na  Na44  1  0.75000000  0.30100116  0.12500000  1
  Na  Na45  1  0.75000000  0.30100116  0.62500000  1
  Na  Na46  1  0.75000000  0.80100116  0.12500000  1
  Na  Na47  1  0.75000000  0.80100116  0.62500000  1
  Bi  Bi48  1  -0.00000000  0.43109016  0.12500000  1
  Bi  Bi49  1  0.00000000  0.43109016  0.62500000  1
  Bi  Bi50  1  -0.00000000  0.93109016  0.12500000  1
  Bi  Bi51  1  0.00000000  0.93109016  0.62500000  1
  Bi  Bi52  1  0.50000000  0.43109016  0.12500000  1
  Bi  Bi53  1  0.50000000  0.43109016  0.62500000  1
  Bi  Bi54  1  0.50000000  0.93109016  0.12500000  1
  Bi  Bi55  1  0.50000000  0.93109016  0.62500000  1
  Bi  Bi56  1  0.00000000  0.06890984  0.37500000  1
  Bi  Bi57  1  0.00000000  0.06890984  0.87500000  1
  Bi  Bi58  1  0.00000000  0.56890984  0.37500000  1
  Bi  Bi59  1  0.00000000  0.56890984  0.87500000  1
  Bi  Bi60  1  0.50000000  0.06890984  0.37500000  1
  Bi  Bi61  1  0.50000000  0.06890984  0.87500000  1
  Bi  Bi62  1  0.50000000  0.56890984  0.37500000  1
  Bi  Bi63  1  0.50000000  0.56890984  0.87500000  1
  O  O64  1  0.38077905  0.32508581  0.01420171  1
  O  O65  1  0.38077905  0.32508581  0.51420171  1
  O  O66  1  0.38077905  0.82508581  0.01420171  1
  O  O67  1  0.38077905  0.82508581  0.51420171  1
  O  O68  1  0.88077905  0.32508581  0.01420171  1
  O  O69  1  0.88077905  0.32508581  0.51420171  1
  O  O70  1  0.88077905  0.82508581  0.01420171  1
  O  O71  1  0.88077905  0.82508581  0.51420171  1
  O  O72  1  0.11922095  0.32508581  0.23579829  1
  O  O73  1  0.11922095  0.32508581  0.73579829  1
  O  O74  1  0.11922095  0.82508581  0.23579829  1
  O  O75  1  0.11922095  0.82508581  0.73579829  1
  O  O76  1  0.61922095  0.32508581  0.23579829  1
  O  O77  1  0.61922095  0.32508581  0.73579829  1
  O  O78  1  0.61922095  0.82508581  0.23579829  1
  O  O79  1  0.61922095  0.82508581  0.73579829  1
  O  O80  1  0.11922095  0.17491419  0.48579829  1
  O  O81  1  0.11922095  0.17491419  0.98579829  1
  O  O82  1  0.11922095  0.67491419  0.48579829  1
  O  O83  1  0.11922095  0.67491419  0.98579829  1
  O  O84  1  0.61922095  0.17491419  0.48579829  1
  O  O85  1  0.61922095  0.17491419  0.98579829  1
  O  O86  1  0.61922095  0.67491419  0.48579829  1
  O  O87  1  0.61922095  0.67491419  0.98579829  1
  O  O88  1  0.38077905  0.17491419  0.26420171  1
  O  O89  1  0.38077905  0.17491419  0.76420171  1
  O  O90  1  0.38077905  0.67491419  0.26420171  1
  O  O91  1  0.38077905  0.67491419  0.76420171  1
  O  O92  1  0.88077905  0.17491419  0.26420171  1
  O  O93  1  0.88077905  0.17491419  0.76420171  1
  O  O94  1  0.88077905  0.67491419  0.26420171  1
  O  O95  1  0.88077905  0.67491419  0.76420171  1
  O  O96  1  0.39360964  0.44873295  0.25061507  1
  O  O97  1  0.39360964  0.44873295  0.75061507  1
  O  O98  1  0.39360964  0.94873295  0.25061507  1
  O  O99  1  0.39360964  0.94873295  0.75061507  1
  O  O100  1  0.89360964  0.44873295  0.25061507  1
  O  O101  1  0.89360964  0.44873295  0.75061507  1
  O  O102  1  0.89360964  0.94873295  0.25061507  1
  O  O103  1  0.89360964  0.94873295  0.75061507  1
  O  O104  1  0.10639036  0.44873295  0.49938493  1
  O  O105  1  0.10639036  0.44873295  0.99938493  1
  O  O106  1  0.10639036  0.94873295  0.49938493  1
  O  O107  1  0.10639036  0.94873295  0.99938493  1
  O  O108  1  0.60639036  0.44873295  0.49938493  1
  O  O109  1  0.60639036  0.44873295  0.99938493  1
  O  O110  1  0.60639036  0.94873295  0.49938493  1
  O  O111  1  0.60639036  0.94873295  0.99938493  1
  O  O112  1  0.39360964  0.05126705  0.00061507  1
  O  O113  1  0.39360964  0.05126705  0.50061507  1
  O  O114  1  0.39360964  0.55126705  0.00061507  1
  O  O115  1  0.39360964  0.55126705  0.50061507  1
  O  O116  1  0.89360964  0.05126705  0.00061507  1
  O  O117  1  0.89360964  0.05126705  0.50061507  1
  O  O118  1  0.89360964  0.55126705  0.00061507  1
  O  O119  1  0.89360964  0.55126705  0.50061507  1
  O  O120  1  0.10639036  0.05126705  0.24938493  1
  O  O121  1  0.10639036  0.05126705  0.74938493  1
  O  O122  1  0.10639036  0.55126705  0.24938493  1
  O  O123  1  0.10639036  0.55126705  0.74938493  1
  O  O124  1  0.60639036  0.05126705  0.24938493  1
  O  O125  1  0.60639036  0.05126705  0.74938493  1
  O  O126  1  0.60639036  0.55126705  0.24938493  1
  O  O127  1  0.60639036  0.55126705  0.74938493  1
