# generated using pymatgen
data_BiSbO4
_symmetry_space_group_name_H-M   'P 1'
_cell_length_a   11.98485968
_cell_length_b   9.88350854
_cell_length_c   10.97642399
_cell_angle_alpha   90.00000000
_cell_angle_beta   105.90041252
_cell_angle_gamma   90.00000000
_symmetry_Int_Tables_number   1
_chemical_formula_structural   BiSbO4
_chemical_formula_sum   'Bi16 Sb16 O64'
_cell_volume   1250.43853687
_cell_formula_units_Z   16
loop_
 _symmetry_equiv_pos_site_id
 _symmetry_equiv_pos_as_xyz
  1  'x, y, z'
loop_
 _atom_site_type_symbol
 _atom_site_label
 _atom_site_symmetry_multiplicity
 _atom_site_fract_x
 _atom_site_fract_y
 _atom_site_fract_z
 _atom_site_occupancy
  Bi  Bi0  1  0.50000000  0.12326208  0.37500000  1
  Bi  Bi1  1  0.50000000  0.12326208  0.87500000  1
  Bi  Bi2  1  0.50000000  0.62326208  0.37500000  1
  Bi  Bi3  1  0.50000000  0.62326208  0.87500000  1
  Bi  Bi4  1  1.00000000  0.37326208  0.37500000  1
  Bi  Bi5  1  1.00000000  0.37326208  0.87500000  1
  Bi  Bi6  1  1.00000000  0.87326208  0.37500000  1
  Bi  Bi7  1  1.00000000  0.87326208  0.87500000  1
  Bi  Bi8  1  0.50000000  -0.12326208  0.12500000  1
  Bi  Bi9  1  0.50000000  -0.12326208  0.62500000  1
  Bi  Bi10  1  0.50000000  0.37673792  0.12500000  1
  Bi  Bi11  1  0.50000000  0.37673792  0.62500000  1
  Bi  Bi12  1  1.00000000  0.12673792  0.12500000  1
  Bi  Bi13  1  1.00000000  0.12673792  0.62500000  1
  Bi  Bi14  1  1.00000000  0.62673792  0.12500000  1
  Bi  Bi15  1  1.00000000  0.62673792  0.62500000  1
  Sb  Sb16  1  0.25000000  0.12500000  0.00000000  1
  Sb  Sb17  1  0.25000000  0.12500000  0.50000000  1
  Sb  Sb18  1  0.25000000  0.62500000  0.00000000  1
  Sb  Sb19  1  0.25000000  0.62500000  0.50000000  1
  Sb  Sb20  1  0.75000000  0.37500000  0.00000000  1
  Sb  Sb21  1  0.75000000  0.37500000  0.50000000  1
  Sb  Sb22  1  0.75000000  0.87500000  0.00000000  1
  Sb  Sb23  1  0.75000000  0.87500000  0.50000000  1
  Sb  Sb24  1  0.25000000  -0.12500000  0.25000000  1
  Sb  Sb25  1  0.25000000  -0.12500000  0.75000000  1
  Sb  Sb26  1  0.25000000  0.37500000  0.25000000  1
  Sb  Sb27  1  0.25000000  0.37500000  0.75000000  1
  Sb  Sb28  1  0.75000000  0.12500000  0.25000000  1
  Sb  Sb29  1  0.75000000  0.12500000  0.75000000  1
  Sb  Sb30  1  0.75000000  0.62500000  0.25000000  1
  Sb  Sb31  1  0.75000000  0.62500000  0.75000000  1
  O  O32  1  0.59556576  0.04617817  0.23214981  1
  O  O33  1  0.59556576  0.04617817  0.73214981  1
  O  O34  1  0.59556576  0.54617817  0.23214981  1
  O  O35  1  0.59556576  0.54617817  0.73214981  1
  O  O36  1  1.09556576  0.29617817  0.23214981  1
  O  O37  1  1.09556576  0.29617817  0.73214981  1
  O  O38  1  1.09556576  0.79617817  0.23214981  1
  O  O39  1  1.09556576  0.79617817  0.73214981  1
  O  O40  1  0.40443424  0.04617817  0.01785019  1
  O  O41  1  0.40443424  0.04617817  0.51785019  1
  O  O42  1  0.40443424  0.54617817  0.01785019  1
  O  O43  1  0.40443424  0.54617817  0.51785019  1
  O  O44  1  0.90443424  0.29617817  0.01785019  1
  O  O45  1  0.90443424  0.29617817  0.51785019  1
  O  O46  1  0.90443424  0.79617817  0.01785019  1
  O  O47  1  0.90443424  0.79617817  0.51785019  1
  O  O48  1  0.40443424  -0.04617817  0.26785019  1
  O  O49  1  0.40443424  -0.04617817  0.76785019  1
  O  O50  1  0.40443424  0.45382183  0.26785019  1
  O  O51  1  0.40443424  0.45382183  0.76785019  1
  O  O52  1  0.90443424  0.20382183  0.26785019  1
  O  O53  1  0.90443424  0.20382183  0.76785019  1
  O  O54  1  0.90443424  0.70382183  0.26785019  1
  O  O55  1  0.90443424  0.70382183  0.76785019  1
  O  O56  1  0.59556576  -0.04617817  0.48214981  1
  O  O57  1  0.59556576  -0.04617817  0.98214981  1
  O  O58  1  0.59556576  0.45382183  0.48214981  1
  O  O59  1  0.59556576  0.45382183  0.98214981  1
  O  O60  1  1.09556576  0.20382183  0.48214981  1
  O  O61  1  1.09556576  0.20382183  0.98214981  1
  O  O62  1  1.09556576  0.70382183  0.48214981  1
  O  O63  1  1.09556576  0.70382183  0.98214981  1
  O  O64  1  0.18379557  -0.02325384  0.08662025  1
  O  O65  1  0.18379557  -0.02325384  0.58662025  1
  O  O66  1  0.18379557  0.47674616  0.08662025  1
  O  O67  1  0.18379557  0.47674616  0.58662025  1
  O  O68  1  0.68379557  0.22674616  0.08662025  1
  O  O69  1  0.68379557  0.22674616  0.58662025  1
  O  O70  1  0.68379557  0.72674616  0.08662025  1
  O  O71  1  0.68379557  0.72674616  0.58662025  1
  O  O72  1  0.81620443  -0.02325384  0.16337975  1
  O  O73  1  0.81620443  -0.02325384  0.66337975  1
  O  O74  1  0.81620443  0.47674616  0.16337975  1
  O  O75  1  0.81620443  0.47674616  0.66337975  1
  O  O76  1  1.31620443  0.22674616  0.16337975  1
  O  O77  1  1.31620443  0.22674616  0.66337975  1
  O  O78  1  1.31620443  0.72674616  0.16337975  1
  O  O79  1  1.31620443  0.72674616  0.66337975  1
  O  O80  1  0.81620443  0.02325384  0.41337975  1
  O  O81  1  0.81620443  0.02325384  0.91337975  1
  O  O82  1  0.81620443  0.52325384  0.41337975  1
  O  O83  1  0.81620443  0.52325384  0.91337975  1
  O  O84  1  1.31620443  0.27325384  0.41337975  1
  O  O85  1  1.31620443  0.27325384  0.91337975  1
  O  O86  1  1.31620443  0.77325384  0.41337975  1
  O  O87  1  1.31620443  0.77325384  0.91337975  1
  O  O88  1  0.18379557  0.02325384  0.33662025  1
  O  O89  1  0.18379557  0.02325384  0.83662025  1
  O  O90  1  0.18379557  0.52325384  0.33662025  1
  O  O91  1  0.18379557  0.52325384  0.83662025  1
  O  O92  1  0.68379557  0.27325384  0.33662025  1
  O  O93  1  0.68379557  0.27325384  0.83662025  1
  O  O94  1  0.68379557  0.77325384  0.33662025  1
  O  O95  1  0.68379557  0.77325384  0.83662025  1
