# generated using pymatgen
data_B6O
_symmetry_space_group_name_H-M   'P 1'
_cell_length_a   10.74093718
_cell_length_b   10.74093718
_cell_length_c   12.26070541
_cell_angle_alpha   90.00000000
_cell_angle_beta   90.00000000
_cell_angle_gamma   120.00000000
_symmetry_Int_Tables_number   1
_chemical_formula_structural   B6O
_chemical_formula_sum   'B144 O24'
_cell_volume   1224.98407386
_cell_formula_units_Z   24
loop_
 _symmetry_equiv_pos_site_id
 _symmetry_equiv_pos_as_xyz
  1  'x, y, z'
loop_
 _atom_site_type_symbol
 _atom_site_label
 _atom_site_symmetry_multiplicity
 _atom_site_fract_x
 _atom_site_fract_y
 _atom_site_fract_z
 _atom_site_occupancy
  B  B0  1  -0.15800872  -0.07900436  0.64034578  1
  B  B1  1  -0.15800872  0.42099564  0.64034578  1
  B  B2  1  0.34199128  -0.07900436  0.64034578  1
  B  B3  1  0.34199128  0.42099564  0.64034578  1
  B  B4  1  0.17532461  0.08766231  0.97367912  1
  B  B5  1  0.17532461  0.58766231  0.97367912  1
  B  B6  1  0.67532461  0.08766231  0.97367912  1
  B  B7  1  0.67532461  0.58766231  0.97367912  1
  B  B8  1  0.00865795  0.25432897  1.30701245  1
  B  B9  1  0.00865795  0.75432897  1.30701245  1
  B  B10  1  0.50865795  0.25432897  1.30701245  1
  B  B11  1  0.50865795  0.75432897  1.30701245  1
  B  B12  1  0.07900436  0.15800872  0.64034578  1
  B  B13  1  0.07900436  0.65800872  0.64034578  1
  B  B14  1  0.57900436  0.15800872  0.64034578  1
  B  B15  1  0.57900436  0.65800872  0.64034578  1
  B  B16  1  0.41233769  0.32467539  0.97367912  1
  B  B17  1  0.41233769  0.82467539  0.97367912  1
  B  B18  1  0.91233769  0.32467539  0.97367912  1
  B  B19  1  0.91233769  0.82467539  0.97367912  1
  B  B20  1  0.24567103  0.49134205  1.30701245  1
  B  B21  1  0.24567103  0.99134205  1.30701245  1
  B  B22  1  0.74567103  0.49134205  1.30701245  1
  B  B23  1  0.74567103  0.99134205  1.30701245  1
  B  B24  1  0.07900436  -0.07900436  0.64034578  1
  B  B25  1  0.07900436  0.42099564  0.64034578  1
  B  B26  1  0.57900436  -0.07900436  0.64034578  1
  B  B27  1  0.57900436  0.42099564  0.64034578  1
  B  B28  1  0.41233769  0.08766231  0.97367912  1
  B  B29  1  0.41233769  0.58766231  0.97367912  1
  B  B30  1  0.91233769  0.08766231  0.97367912  1
  B  B31  1  0.91233769  0.58766231  0.97367912  1
  B  B32  1  0.24567103  0.25432897  1.30701245  1
  B  B33  1  0.24567103  0.75432897  1.30701245  1
  B  B34  1  0.74567103  0.25432897  1.30701245  1
  B  B35  1  0.74567103  0.75432897  1.30701245  1
  B  B36  1  -0.07900436  0.07900436  0.35965422  1
  B  B37  1  -0.07900436  0.57900436  0.35965422  1
  B  B38  1  0.42099564  0.07900436  0.35965422  1
  B  B39  1  0.42099564  0.57900436  0.35965422  1
  B  B40  1  0.25432897  0.24567103  0.69298755  1
  B  B41  1  0.25432897  0.74567103  0.69298755  1
  B  B42  1  0.75432897  0.24567103  0.69298755  1
  B  B43  1  0.75432897  0.74567103  0.69298755  1
  B  B44  1  0.08766231  0.41233769  1.02632088  1
  B  B45  1  0.08766231  0.91233769  1.02632088  1
  B  B46  1  0.58766231  0.41233769  1.02632088  1
  B  B47  1  0.58766231  0.91233769  1.02632088  1
  B  B48  1  0.15800872  0.07900436  0.35965422  1
  B  B49  1  0.15800872  0.57900436  0.35965422  1
  B  B50  1  0.65800872  0.07900436  0.35965422  1
  B  B51  1  0.65800872  0.57900436  0.35965422  1
  B  B52  1  0.49134205  0.24567103  0.69298755  1
  B  B53  1  0.49134205  0.74567103  0.69298755  1
  B  B54  1  0.99134205  0.24567103  0.69298755  1
  B  B55  1  0.99134205  0.74567103  0.69298755  1
  B  B56  1  0.32467539  0.41233769  1.02632088  1
  B  B57  1  0.32467539  0.91233769  1.02632088  1
  B  B58  1  0.82467539  0.41233769  1.02632088  1
  B  B59  1  0.82467539  0.91233769  1.02632088  1
  B  B60  1  -0.07900436  -0.15800872  0.35965422  1
  B  B61  1  -0.07900436  0.34199128  0.35965422  1
  B  B62  1  0.42099564  -0.15800872  0.35965422  1
  B  B63  1  0.42099564  0.34199128  0.35965422  1
  B  B64  1  0.25432897  0.00865795  0.69298755  1
  B  B65  1  0.25432897  0.50865795  0.69298755  1
  B  B66  1  0.75432897  0.00865795  0.69298755  1
  B  B67  1  0.75432897  0.50865795  0.69298755  1
  B  B68  1  0.08766231  0.17532461  1.02632088  1
  B  B69  1  0.08766231  0.67532461  1.02632088  1
  B  B70  1  0.58766231  0.17532461  1.02632088  1
  B  B71  1  0.58766231  0.67532461  1.02632088  1
  B  B72  1  -0.11036655  -0.05518327  0.88748922  1
  B  B73  1  -0.11036655  0.44481673  0.88748922  1
  B  B74  1  0.38963345  -0.05518327  0.88748922  1
  B  B75  1  0.38963345  0.44481673  0.88748922  1
  B  B76  1  0.22296679  0.11148339  1.22082255  1
  B  B77  1  0.22296679  0.61148339  1.22082255  1
  B  B78  1  0.72296679  0.11148339  1.22082255  1
  B  B79  1  0.72296679  0.61148339  1.22082255  1
  B  B80  1  0.05630012  0.27815006  1.55415589  1
  B  B81  1  0.05630012  0.77815006  1.55415589  1
  B  B82  1  0.55630012  0.27815006  1.55415589  1
  B  B83  1  0.55630012  0.77815006  1.55415589  1
  B  B84  1  0.05518327  0.11036655  0.88748922  1
  B  B85  1  0.05518327  0.61036655  0.88748922  1
  B  B86  1  0.55518327  0.11036655  0.88748922  1
  B  B87  1  0.55518327  0.61036655  0.88748922  1
  B  B88  1  0.38851661  0.27703321  1.22082255  1
  B  B89  1  0.38851661  0.77703321  1.22082255  1
  B  B90  1  0.88851661  0.27703321  1.22082255  1
  B  B91  1  0.88851661  0.77703321  1.22082255  1
  B  B92  1  0.22184994  0.44369988  1.55415589  1
  B  B93  1  0.22184994  0.94369988  1.55415589  1
  B  B94  1  0.72184994  0.44369988  1.55415589  1
  B  B95  1  0.72184994  0.94369988  1.55415589  1
  B  B96  1  0.05518327  -0.05518327  0.88748922  1
  B  B97  1  0.05518327  0.44481673  0.88748922  1
  B  B98  1  0.55518327  -0.05518327  0.88748922  1
  B  B99  1  0.55518327  0.44481673  0.88748922  1
  B  B100  1  0.38851661  0.11148339  1.22082255  1
  B  B101  1  0.38851661  0.61148339  1.22082255  1
  B  B102  1  0.88851661  0.11148339  1.22082255  1
  B  B103  1  0.88851661  0.61148339  1.22082255  1
  B  B104  1  0.22184994  0.27815006  1.55415589  1
  B  B105  1  0.22184994  0.77815006  1.55415589  1
  B  B106  1  0.72184994  0.27815006  1.55415589  1
  B  B107  1  0.72184994  0.77815006  1.55415589  1
  B  B108  1  -0.05518327  0.05518327  0.11251078  1
  B  B109  1  -0.05518327  0.55518327  0.11251078  1
  B  B110  1  0.44481673  0.05518327  0.11251078  1
  B  B111  1  0.44481673  0.55518327  0.11251078  1
  B  B112  1  0.27815006  0.22184994  0.44584411  1
  B  B113  1  0.27815006  0.72184994  0.44584411  1
  B  B114  1  0.77815006  0.22184994  0.44584411  1
  B  B115  1  0.77815006  0.72184994  0.44584411  1
  B  B116  1  0.11148339  0.38851661  0.77917745  1
  B  B117  1  0.11148339  0.88851661  0.77917745  1
  B  B118  1  0.61148339  0.38851661  0.77917745  1
  B  B119  1  0.61148339  0.88851661  0.77917745  1
  B  B120  1  0.11036655  0.05518327  0.11251078  1
  B  B121  1  0.11036655  0.55518327  0.11251078  1
  B  B122  1  0.61036655  0.05518327  0.11251078  1
  B  B123  1  0.61036655  0.55518327  0.11251078  1
  B  B124  1  0.44369988  0.22184994  0.44584411  1
  B  B125  1  0.44369988  0.72184994  0.44584411  1
  B  B126  1  0.94369988  0.22184994  0.44584411  1
  B  B127  1  0.94369988  0.72184994  0.44584411  1
  B  B128  1  0.27703321  0.38851661  0.77917745  1
  B  B129  1  0.27703321  0.88851661  0.77917745  1
  B  B130  1  0.77703321  0.38851661  0.77917745  1
  B  B131  1  0.77703321  0.88851661  0.77917745  1
  B  B132  1  -0.05518327  -0.11036655  0.11251078  1
  B  B133  1  -0.05518327  0.38963345  0.11251078  1
  B  B134  1  0.44481673  -0.11036655  0.11251078  1
  B  B135  1  0.44481673  0.38963345  0.11251078  1
  B  B136  1  0.27815006  0.05630012  0.44584411  1
  B  B137  1  0.27815006  0.55630012  0.44584411  1
  B  B138  1  0.77815006  0.05630012  0.44584411  1
  B  B139  1  0.77815006  0.55630012  0.44584411  1
  B  B140  1  0.11148339  0.22296679  0.77917745  1
  B  B141  1  0.11148339  0.72296679  0.77917745  1
  B  B142  1  0.61148339  0.22296679  0.77917745  1
  B  B143  1  0.61148339  0.72296679  0.77917745  1
  O  O144  1  -0.00000000  0.00000000  0.37814640  1
  O  O145  1  0.00000000  0.50000000  0.37814640  1
  O  O146  1  0.50000000  0.00000000  0.37814640  1
  O  O147  1  0.50000000  0.50000000  0.37814640  1
  O  O148  1  0.33333333  0.16666667  0.71147974  1
  O  O149  1  0.33333333  0.66666667  0.71147974  1
  O  O150  1  0.83333333  0.16666667  0.71147974  1
  O  O151  1  0.83333333  0.66666667  0.71147974  1
  O  O152  1  0.16666667  0.33333333  1.04481307  1
  O  O153  1  0.16666667  0.83333333  1.04481307  1
  O  O154  1  0.66666667  0.33333333  1.04481307  1
  O  O155  1  0.66666667  0.83333333  1.04481307  1
  O  O156  1  0.00000000  0.00000000  0.62185360  1
  O  O157  1  0.00000000  0.50000000  0.62185360  1
  O  O158  1  0.50000000  0.00000000  0.62185360  1
  O  O159  1  0.50000000  0.50000000  0.62185360  1
  O  O160  1  0.33333333  0.16666667  0.95518693  1
  O  O161  1  0.33333333  0.66666667  0.95518693  1
  O  O162  1  0.83333333  0.16666667  0.95518693  1
  O  O163  1  0.83333333  0.66666667  0.95518693  1
  O  O164  1  0.16666667  0.33333333  1.28852026  1
  O  O165  1  0.16666667  0.83333333  1.28852026  1
  O  O166  1  0.66666667  0.33333333  1.28852026  1
  O  O167  1  0.66666667  0.83333333  1.28852026  1
