# generated using pymatgen
data_Na3VO4
_symmetry_space_group_name_H-M   'P 1'
_cell_length_a   13.96029219
_cell_length_b   12.07883333
_cell_length_c   10.98255514
_cell_angle_alpha   90.00000000
_cell_angle_beta   90.00000000
_cell_angle_gamma   90.00000000
_symmetry_Int_Tables_number   1
_chemical_formula_structural   Na3VO4
_chemical_formula_sum   'Na48 V16 O64'
_cell_volume   1851.92284718
_cell_formula_units_Z   16
loop_
 _symmetry_equiv_pos_site_id
 _symmetry_equiv_pos_as_xyz
  1  'x, y, z'
loop_
 _atom_site_type_symbol
 _atom_site_label
 _atom_site_symmetry_multiplicity
 _atom_site_fract_x
 _atom_site_fract_y
 _atom_site_fract_z
 _atom_site_occupancy
  Na  Na0  1  0.00000000  0.32679949  0.24414486  1
  Na  Na1  1  0.00000000  0.32679949  0.74414486  1
  Na  Na2  1  0.00000000  0.82679949  0.24414486  1
  Na  Na3  1  0.00000000  0.82679949  0.74414486  1
  Na  Na4  1  0.50000000  0.32679949  0.24414486  1
  Na  Na5  1  0.50000000  0.32679949  0.74414486  1
  Na  Na6  1  0.50000000  0.82679949  0.24414486  1
  Na  Na7  1  0.50000000  0.82679949  0.74414486  1
  Na  Na8  1  0.37751735  0.41282463  0.49511285  1
  Na  Na9  1  0.37751735  0.41282463  0.99511285  1
  Na  Na10  1  0.37751735  0.91282463  0.49511285  1
  Na  Na11  1  0.37751735  0.91282463  0.99511285  1
  Na  Na12  1  0.87751735  0.41282463  0.49511285  1
  Na  Na13  1  0.87751735  0.41282463  0.99511285  1
  Na  Na14  1  0.87751735  0.91282463  0.49511285  1
  Na  Na15  1  0.87751735  0.91282463  0.99511285  1
  Na  Na16  1  0.37248265  0.08717537  0.24511285  1
  Na  Na17  1  0.37248265  0.08717537  0.74511285  1
  Na  Na18  1  0.37248265  0.58717537  0.24511285  1
  Na  Na19  1  0.37248265  0.58717537  0.74511285  1
  Na  Na20  1  0.87248265  0.08717537  0.24511285  1
  Na  Na21  1  0.87248265  0.08717537  0.74511285  1
  Na  Na22  1  0.87248265  0.58717537  0.24511285  1
  Na  Na23  1  0.87248265  0.58717537  0.74511285  1
  Na  Na24  1  0.25000000  0.17320051  0.49414486  1
  Na  Na25  1  0.25000000  0.17320051  0.99414486  1
  Na  Na26  1  0.25000000  0.67320051  0.49414486  1
  Na  Na27  1  0.25000000  0.67320051  0.99414486  1
  Na  Na28  1  0.75000000  0.17320051  0.49414486  1
  Na  Na29  1  0.75000000  0.17320051  0.99414486  1
  Na  Na30  1  0.75000000  0.67320051  0.49414486  1
  Na  Na31  1  0.75000000  0.67320051  0.99414486  1
  Na  Na32  1  0.12751735  0.08717537  0.24511285  1
  Na  Na33  1  0.12751735  0.08717537  0.74511285  1
  Na  Na34  1  0.12751735  0.58717537  0.24511285  1
  Na  Na35  1  0.12751735  0.58717537  0.74511285  1
  Na  Na36  1  0.62751735  0.08717537  0.24511285  1
  Na  Na37  1  0.62751735  0.08717537  0.74511285  1
  Na  Na38  1  0.62751735  0.58717537  0.24511285  1
  Na  Na39  1  0.62751735  0.58717537  0.74511285  1
  Na  Na40  1  0.12248265  0.41282463  0.49511285  1
  Na  Na41  1  0.12248265  0.41282463  0.99511285  1
  Na  Na42  1  0.12248265  0.91282463  0.49511285  1
  Na  Na43  1  0.12248265  0.91282463  0.99511285  1
  Na  Na44  1  0.62248265  0.41282463  0.49511285  1
  Na  Na45  1  0.62248265  0.41282463  0.99511285  1
  Na  Na46  1  0.62248265  0.91282463  0.49511285  1
  Na  Na47  1  0.62248265  0.91282463  0.99511285  1
  V  V48  1  0.00000000  0.16176766  0.00010197  1
  V  V49  1  0.00000000  0.16176766  0.50010197  1
  V  V50  1  0.00000000  0.66176766  0.00010197  1
  V  V51  1  0.00000000  0.66176766  0.50010197  1
  V  V52  1  0.50000000  0.16176766  0.00010197  1
  V  V53  1  0.50000000  0.16176766  0.50010197  1
  V  V54  1  0.50000000  0.66176766  0.00010197  1
  V  V55  1  0.50000000  0.66176766  0.50010197  1
  V  V56  1  0.25000000  0.33823234  0.25010197  1
  V  V57  1  0.25000000  0.33823234  0.75010197  1
  V  V58  1  0.25000000  0.83823234  0.25010197  1
  V  V59  1  0.25000000  0.83823234  0.75010197  1
  V  V60  1  0.75000000  0.33823234  0.25010197  1
  V  V61  1  0.75000000  0.33823234  0.75010197  1
  V  V62  1  0.75000000  0.83823234  0.25010197  1
  V  V63  1  0.75000000  0.83823234  0.75010197  1
  O  O64  1  0.00000000  0.29780532  0.45109536  1
  O  O65  1  0.00000000  0.29780532  0.95109536  1
  O  O66  1  0.00000000  0.79780532  0.45109536  1
  O  O67  1  0.00000000  0.79780532  0.95109536  1
  O  O68  1  0.50000000  0.29780532  0.45109536  1
  O  O69  1  0.50000000  0.29780532  0.95109536  1
  O  O70  1  0.50000000  0.79780532  0.45109536  1
  O  O71  1  0.50000000  0.79780532  0.95109536  1
  O  O72  1  0.00000000  0.15984171  0.15647811  1
  O  O73  1  0.00000000  0.15984171  0.65647811  1
  O  O74  1  0.00000000  0.65984171  0.15647811  1
  O  O75  1  0.00000000  0.65984171  0.65647811  1
  O  O76  1  0.50000000  0.15984171  0.15647811  1
  O  O77  1  0.50000000  0.15984171  0.65647811  1
  O  O78  1  0.50000000  0.65984171  0.15647811  1
  O  O79  1  0.50000000  0.65984171  0.65647811  1
  O  O80  1  0.39768225  0.09437248  0.45016000  1
  O  O81  1  0.39768225  0.09437248  0.95016000  1
  O  O82  1  0.39768225  0.59437248  0.45016000  1
  O  O83  1  0.39768225  0.59437248  0.95016000  1
  O  O84  1  0.89768225  0.09437248  0.45016000  1
  O  O85  1  0.89768225  0.09437248  0.95016000  1
  O  O86  1  0.89768225  0.59437248  0.45016000  1
  O  O87  1  0.89768225  0.59437248  0.95016000  1
  O  O88  1  0.35231775  0.40562752  0.20016000  1
  O  O89  1  0.35231775  0.40562752  0.70016000  1
  O  O90  1  0.35231775  0.90562752  0.20016000  1
  O  O91  1  0.35231775  0.90562752  0.70016000  1
  O  O92  1  0.85231775  0.40562752  0.20016000  1
  O  O93  1  0.85231775  0.40562752  0.70016000  1
  O  O94  1  0.85231775  0.90562752  0.20016000  1
  O  O95  1  0.85231775  0.90562752  0.70016000  1
  O  O96  1  0.25000000  0.34015829  0.40647811  1
  O  O97  1  0.25000000  0.34015829  0.90647811  1
  O  O98  1  0.25000000  0.84015829  0.40647811  1
  O  O99  1  0.25000000  0.84015829  0.90647811  1
  O  O100  1  0.75000000  0.34015829  0.40647811  1
  O  O101  1  0.75000000  0.34015829  0.90647811  1
  O  O102  1  0.75000000  0.84015829  0.40647811  1
  O  O103  1  0.75000000  0.84015829  0.90647811  1
  O  O104  1  0.25000000  0.20219468  0.20109536  1
  O  O105  1  0.25000000  0.20219468  0.70109536  1
  O  O106  1  0.25000000  0.70219468  0.20109536  1
  O  O107  1  0.25000000  0.70219468  0.70109536  1
  O  O108  1  0.75000000  0.20219468  0.20109536  1
  O  O109  1  0.75000000  0.20219468  0.70109536  1
  O  O110  1  0.75000000  0.70219468  0.20109536  1
  O  O111  1  0.75000000  0.70219468  0.70109536  1
  O  O112  1  0.14768225  0.40562752  0.20016000  1
  O  O113  1  0.14768225  0.40562752  0.70016000  1
  O  O114  1  0.14768225  0.90562752  0.20016000  1
  O  O115  1  0.14768225  0.90562752  0.70016000  1
  O  O116  1  0.64768225  0.40562752  0.20016000  1
  O  O117  1  0.64768225  0.40562752  0.70016000  1
  O  O118  1  0.64768225  0.90562752  0.20016000  1
  O  O119  1  0.64768225  0.90562752  0.70016000  1
  O  O120  1  0.10231775  0.09437248  0.45016000  1
  O  O121  1  0.10231775  0.09437248  0.95016000  1
  O  O122  1  0.10231775  0.59437248  0.45016000  1
  O  O123  1  0.10231775  0.59437248  0.95016000  1
  O  O124  1  0.60231775  0.09437248  0.45016000  1
  O  O125  1  0.60231775  0.09437248  0.95016000  1
  O  O126  1  0.60231775  0.59437248  0.45016000  1
  O  O127  1  0.60231775  0.59437248  0.95016000  1
