# generated using pymatgen
data_NbSbO4
_symmetry_space_group_name_H-M   'P 1'
_cell_length_a   11.13365434
_cell_length_b   9.88302337
_cell_length_c   11.82170228
_cell_angle_alpha   90.00000000
_cell_angle_beta   90.00000000
_cell_angle_gamma   90.00000000
_symmetry_Int_Tables_number   1
_chemical_formula_structural   NbSbO4
_chemical_formula_sum   'Nb16 Sb16 O64'
_cell_volume   1300.79115180
_cell_formula_units_Z   16
loop_
 _symmetry_equiv_pos_site_id
 _symmetry_equiv_pos_as_xyz
  1  'x, y, z'
loop_
 _atom_site_type_symbol
 _atom_site_label
 _atom_site_symmetry_multiplicity
 _atom_site_fract_x
 _atom_site_fract_y
 _atom_site_fract_z
 _atom_site_occupancy
  Nb  Nb0  1  0.30443266  0.25689898  0.50181444  1
  Nb  Nb1  1  0.30443266  0.75689898  0.50181444  1
  Nb  Nb2  1  0.80443266  0.25689898  0.50181444  1
  Nb  Nb3  1  0.80443266  0.75689898  0.50181444  1
  Nb  Nb4  1  0.19556734  0.24310102  0.00181444  1
  Nb  Nb5  1  0.19556734  0.74310102  0.00181444  1
  Nb  Nb6  1  0.69556734  0.24310102  0.00181444  1
  Nb  Nb7  1  0.69556734  0.74310102  0.00181444  1
  Nb  Nb8  1  0.05443266  0.49310102  0.50181444  1
  Nb  Nb9  1  0.05443266  0.99310102  0.50181444  1
  Nb  Nb10  1  0.55443266  0.49310102  0.50181444  1
  Nb  Nb11  1  0.55443266  0.99310102  0.50181444  1
  Nb  Nb12  1  0.44556734  0.00689898  0.00181444  1
  Nb  Nb13  1  0.44556734  0.50689898  0.00181444  1
  Nb  Nb14  1  0.94556734  0.00689898  0.00181444  1
  Nb  Nb15  1  0.94556734  0.50689898  0.00181444  1
  Sb  Sb16  1  0.48204058  0.22803722  0.25486379  1
  Sb  Sb17  1  0.48204058  0.72803722  0.25486379  1
  Sb  Sb18  1  0.98204058  0.22803722  0.25486379  1
  Sb  Sb19  1  0.98204058  0.72803722  0.25486379  1
  Sb  Sb20  1  0.01795942  0.27196278  0.75486379  1
  Sb  Sb21  1  0.01795942  0.77196278  0.75486379  1
  Sb  Sb22  1  0.51795942  0.27196278  0.75486379  1
  Sb  Sb23  1  0.51795942  0.77196278  0.75486379  1
  Sb  Sb24  1  0.23204058  0.02196278  0.25486379  1
  Sb  Sb25  1  0.23204058  0.52196278  0.25486379  1
  Sb  Sb26  1  0.73204058  0.02196278  0.25486379  1
  Sb  Sb27  1  0.73204058  0.52196278  0.25486379  1
  Sb  Sb28  1  0.26795942  0.47803722  0.75486379  1
  Sb  Sb29  1  0.26795942  0.97803722  0.75486379  1
  Sb  Sb30  1  0.76795942  0.47803722  0.75486379  1
  Sb  Sb31  1  0.76795942  0.97803722  0.75486379  1
  O  O32  1  0.42939190  0.10749849  0.54290910  1
  O  O33  1  0.42939190  0.60749849  0.54290910  1
  O  O34  1  0.92939190  0.10749849  0.54290910  1
  O  O35  1  0.92939190  0.60749849  0.54290910  1
  O  O36  1  0.07060810  0.39250151  0.04290910  1
  O  O37  1  0.07060810  0.89250151  0.04290910  1
  O  O38  1  0.57060810  0.39250151  0.04290910  1
  O  O39  1  0.57060810  0.89250151  0.04290910  1
  O  O40  1  0.17939190  0.14250151  0.54290910  1
  O  O41  1  0.17939190  0.64250151  0.54290910  1
  O  O42  1  0.67939190  0.14250151  0.54290910  1
  O  O43  1  0.67939190  0.64250151  0.54290910  1
  O  O44  1  0.32060810  0.35749849  0.04290910  1
  O  O45  1  0.32060810  0.85749849  0.04290910  1
  O  O46  1  0.82060810  0.35749849  0.04290910  1
  O  O47  1  0.82060810  0.85749849  0.04290910  1
  O  O48  1  0.32368154  0.16795742  0.33940230  1
  O  O49  1  0.32368154  0.66795742  0.33940230  1
  O  O50  1  0.82368154  0.16795742  0.33940230  1
  O  O51  1  0.82368154  0.66795742  0.33940230  1
  O  O52  1  0.17631846  0.33204258  0.83940230  1
  O  O53  1  0.17631846  0.83204258  0.83940230  1
  O  O54  1  0.67631846  0.33204258  0.83940230  1
  O  O55  1  0.67631846  0.83204258  0.83940230  1
  O  O56  1  0.07368154  0.08204258  0.33940230  1
  O  O57  1  0.07368154  0.58204258  0.33940230  1
  O  O58  1  0.57368154  0.08204258  0.33940230  1
  O  O59  1  0.57368154  0.58204258  0.33940230  1
  O  O60  1  0.42631846  0.41795742  0.83940230  1
  O  O61  1  0.42631846  0.91795742  0.83940230  1
  O  O62  1  0.92631846  0.41795742  0.83940230  1
  O  O63  1  0.92631846  0.91795742  0.83940230  1
  O  O64  1  0.40723836  0.08354310  0.15020523  1
  O  O65  1  0.40723836  0.58354310  0.15020523  1
  O  O66  1  0.90723836  0.08354310  0.15020523  1
  O  O67  1  0.90723836  0.58354310  0.15020523  1
  O  O68  1  0.09276164  0.41645690  0.65020523  1
  O  O69  1  0.09276164  0.91645690  0.65020523  1
  O  O70  1  0.59276164  0.41645690  0.65020523  1
  O  O71  1  0.59276164  0.91645690  0.65020523  1
  O  O72  1  0.15723836  0.16645690  0.15020523  1
  O  O73  1  0.15723836  0.66645690  0.15020523  1
  O  O74  1  0.65723836  0.16645690  0.15020523  1
  O  O75  1  0.65723836  0.66645690  0.15020523  1
  O  O76  1  0.34276164  0.33354310  0.65020523  1
  O  O77  1  0.34276164  0.83354310  0.65020523  1
  O  O78  1  0.84276164  0.33354310  0.65020523  1
  O  O79  1  0.84276164  0.83354310  0.65020523  1
  O  O80  1  0.28500377  0.09687174  0.93590514  1
  O  O81  1  0.28500377  0.59687174  0.93590514  1
  O  O82  1  0.78500377  0.09687174  0.93590514  1
  O  O83  1  0.78500377  0.59687174  0.93590514  1
  O  O84  1  0.21499623  0.40312826  0.43590514  1
  O  O85  1  0.21499623  0.90312826  0.43590514  1
  O  O86  1  0.71499623  0.40312826  0.43590514  1
  O  O87  1  0.71499623  0.90312826  0.43590514  1
  O  O88  1  0.03500377  0.15312826  0.93590514  1
  O  O89  1  0.03500377  0.65312826  0.93590514  1
  O  O90  1  0.53500377  0.15312826  0.93590514  1
  O  O91  1  0.53500377  0.65312826  0.93590514  1
  O  O92  1  0.46499623  0.34687174  0.43590514  1
  O  O93  1  0.46499623  0.84687174  0.43590514  1
  O  O94  1  0.96499623  0.34687174  0.43590514  1
  O  O95  1  0.96499623  0.84687174  0.43590514  1
