# generated using pymatgen
data_CaMoO4
_symmetry_space_group_name_H-M   'P 1'
_cell_length_a   10.43457567
_cell_length_b   10.43457567
_cell_length_c   11.32223677
_cell_angle_alpha   90.00000000
_cell_angle_beta   90.00000000
_cell_angle_gamma   90.00000000
_symmetry_Int_Tables_number   1
_chemical_formula_structural   CaMoO4
_chemical_formula_sum   'Ca16 Mo16 O64'
_cell_volume   1232.76932188
_cell_formula_units_Z   16
loop_
 _symmetry_equiv_pos_site_id
 _symmetry_equiv_pos_as_xyz
  1  'x, y, z'
loop_
 _atom_site_type_symbol
 _atom_site_label
 _atom_site_symmetry_multiplicity
 _atom_site_fract_x
 _atom_site_fract_y
 _atom_site_fract_z
 _atom_site_occupancy
  Ca  Ca0  1  0.00000000  0.25000000  0.25000000  1
  Ca  Ca1  1  0.50000000  0.25000000  0.25000000  1
  Ca  Ca2  1  0.00000000  -0.25000000  0.25000000  1
  Ca  Ca3  1  0.50000000  -0.25000000  0.25000000  1
  Ca  Ca4  1  0.25000000  0.00000000  0.75000000  1
  Ca  Ca5  1  0.75000000  0.00000000  0.75000000  1
  Ca  Ca6  1  0.25000000  -0.50000000  0.75000000  1
  Ca  Ca7  1  0.75000000  -0.50000000  0.75000000  1
  Ca  Ca8  1  0.00000000  0.50000000  0.50000000  1
  Ca  Ca9  1  0.50000000  0.50000000  0.50000000  1
  Ca  Ca10  1  0.00000000  -0.00000000  0.50000000  1
  Ca  Ca11  1  0.50000000  -0.00000000  0.50000000  1
  Ca  Ca12  1  0.25000000  0.25000000  1.00000000  1
  Ca  Ca13  1  0.75000000  0.25000000  1.00000000  1
  Ca  Ca14  1  0.25000000  -0.25000000  1.00000000  1
  Ca  Ca15  1  0.75000000  -0.25000000  1.00000000  1
  Mo  Mo16  1  0.25000000  0.50000000  0.25000000  1
  Mo  Mo17  1  0.75000000  0.50000000  0.25000000  1
  Mo  Mo18  1  0.25000000  0.00000000  0.25000000  1
  Mo  Mo19  1  0.75000000  0.00000000  0.25000000  1
  Mo  Mo20  1  0.50000000  0.25000000  0.75000000  1
  Mo  Mo21  1  1.00000000  0.25000000  0.75000000  1
  Mo  Mo22  1  0.50000000  -0.25000000  0.75000000  1
  Mo  Mo23  1  1.00000000  -0.25000000  0.75000000  1
  Mo  Mo24  1  0.00000000  0.50000000  -0.00000000  1
  Mo  Mo25  1  0.50000000  0.50000000  -0.00000000  1
  Mo  Mo26  1  0.00000000  -0.00000000  -0.00000000  1
  Mo  Mo27  1  0.50000000  -0.00000000  -0.00000000  1
  Mo  Mo28  1  0.25000000  0.25000000  0.50000000  1
  Mo  Mo29  1  0.75000000  0.25000000  0.50000000  1
  Mo  Mo30  1  0.25000000  -0.25000000  0.50000000  1
  Mo  Mo31  1  0.75000000  -0.25000000  0.50000000  1
  O  O32  1  0.32701376  0.37775895  0.16353498  1
  O  O33  1  0.82701376  0.37775895  0.16353498  1
  O  O34  1  0.32701376  -0.12224105  0.16353498  1
  O  O35  1  0.82701376  -0.12224105  0.16353498  1
  O  O36  1  0.57701376  0.12775895  0.66353498  1
  O  O37  1  1.07701376  0.12775895  0.66353498  1
  O  O38  1  0.57701376  -0.37224105  0.66353498  1
  O  O39  1  1.07701376  -0.37224105  0.66353498  1
  O  O40  1  -0.07701376  0.37224105  0.66353498  1
  O  O41  1  0.42298624  0.37224105  0.66353498  1
  O  O42  1  -0.07701376  -0.12775895  0.66353498  1
  O  O43  1  0.42298624  -0.12775895  0.66353498  1
  O  O44  1  0.17298624  0.12224105  1.16353498  1
  O  O45  1  0.67298624  0.12224105  1.16353498  1
  O  O46  1  0.17298624  -0.37775895  1.16353498  1
  O  O47  1  0.67298624  -0.37775895  1.16353498  1
  O  O48  1  0.37775895  0.42298624  -0.08646502  1
  O  O49  1  0.87775895  0.42298624  -0.08646502  1
  O  O50  1  0.37775895  -0.07701376  -0.08646502  1
  O  O51  1  0.87775895  -0.07701376  -0.08646502  1
  O  O52  1  0.62775895  0.17298624  0.41353498  1
  O  O53  1  1.12775895  0.17298624  0.41353498  1
  O  O54  1  0.62775895  -0.32701376  0.41353498  1
  O  O55  1  1.12775895  -0.32701376  0.41353498  1
  O  O56  1  -0.12775895  0.32701376  0.41353498  1
  O  O57  1  0.37224105  0.32701376  0.41353498  1
  O  O58  1  -0.12775895  -0.17298624  0.41353498  1
  O  O59  1  0.37224105  -0.17298624  0.41353498  1
  O  O60  1  0.12224105  0.07701376  0.91353498  1
  O  O61  1  0.62224105  0.07701376  0.91353498  1
  O  O62  1  0.12224105  -0.42298624  0.91353498  1
  O  O63  1  0.62224105  -0.42298624  0.91353498  1
  O  O64  1  0.17298624  0.37224105  0.58646502  1
  O  O65  1  0.67298624  0.37224105  0.58646502  1
  O  O66  1  0.17298624  -0.12775895  0.58646502  1
  O  O67  1  0.67298624  -0.12775895  0.58646502  1
  O  O68  1  0.42298624  0.12224105  1.08646502  1
  O  O69  1  0.92298624  0.12224105  1.08646502  1
  O  O70  1  0.42298624  -0.37775895  1.08646502  1
  O  O71  1  0.92298624  -0.37775895  1.08646502  1
  O  O72  1  0.07701376  0.37775895  0.08646502  1
  O  O73  1  0.57701376  0.37775895  0.08646502  1
  O  O74  1  0.07701376  -0.12224105  0.08646502  1
  O  O75  1  0.57701376  -0.12224105  0.08646502  1
  O  O76  1  0.32701376  0.12775895  0.58646502  1
  O  O77  1  0.82701376  0.12775895  0.58646502  1
  O  O78  1  0.32701376  -0.37224105  0.58646502  1
  O  O79  1  0.82701376  -0.37224105  0.58646502  1
  O  O80  1  0.12224105  0.32701376  -0.16353498  1
  O  O81  1  0.62224105  0.32701376  -0.16353498  1
  O  O82  1  0.12224105  -0.17298624  -0.16353498  1
  O  O83  1  0.62224105  -0.17298624  -0.16353498  1
  O  O84  1  0.37224105  0.07701376  0.33646502  1
  O  O85  1  0.87224105  0.07701376  0.33646502  1
  O  O86  1  0.37224105  -0.42298624  0.33646502  1
  O  O87  1  0.87224105  -0.42298624  0.33646502  1
  O  O88  1  0.12775895  0.42298624  0.33646502  1
  O  O89  1  0.62775895  0.42298624  0.33646502  1
  O  O90  1  0.12775895  -0.07701376  0.33646502  1
  O  O91  1  0.62775895  -0.07701376  0.33646502  1
  O  O92  1  0.37775895  0.17298624  0.83646502  1
  O  O93  1  0.87775895  0.17298624  0.83646502  1
  O  O94  1  0.37775895  -0.32701376  0.83646502  1
  O  O95  1  0.87775895  -0.32701376  0.83646502  1
