# generated using pymatgen
data_NaBe4SbO7
_symmetry_space_group_name_H-M   'P 1'
_cell_length_a   16.34246344
_cell_length_b   16.34246344
_cell_length_c   17.75945790
_cell_angle_alpha   90.00000000
_cell_angle_beta   90.00000000
_cell_angle_gamma   120.00000000
_symmetry_Int_Tables_number   1
_chemical_formula_structural   NaBe4SbO7
_chemical_formula_sum   'Na36 Be144 Sb36 O252'
_cell_volume   4107.66843425
_cell_formula_units_Z   36
loop_
 _symmetry_equiv_pos_site_id
 _symmetry_equiv_pos_as_xyz
  1  'x, y, z'
loop_
 _atom_site_type_symbol
 _atom_site_label
 _atom_site_symmetry_multiplicity
 _atom_site_fract_x
 _atom_site_fract_y
 _atom_site_fract_z
 _atom_site_occupancy
  Na  Na0  1  0.11111111  0.22222222  0.31303559  1
  Na  Na1  1  0.11111111  0.22222222  0.81303559  1
  Na  Na2  1  0.11111111  0.55555556  0.31303559  1
  Na  Na3  1  0.11111111  0.55555556  0.81303559  1
  Na  Na4  1  0.11111111  0.88888889  0.31303559  1
  Na  Na5  1  0.11111111  0.88888889  0.81303559  1
  Na  Na6  1  0.44444444  0.22222222  0.31303559  1
  Na  Na7  1  0.44444444  0.22222222  0.81303559  1
  Na  Na8  1  0.44444444  0.55555556  0.31303559  1
  Na  Na9  1  0.44444444  0.55555556  0.81303559  1
  Na  Na10  1  0.44444444  0.88888889  0.31303559  1
  Na  Na11  1  0.44444444  0.88888889  0.81303559  1
  Na  Na12  1  0.77777778  0.22222222  0.31303559  1
  Na  Na13  1  0.77777778  0.22222222  0.81303559  1
  Na  Na14  1  0.77777778  0.55555556  0.31303559  1
  Na  Na15  1  0.77777778  0.55555556  0.81303559  1
  Na  Na16  1  0.77777778  0.88888889  0.31303559  1
  Na  Na17  1  0.77777778  0.88888889  0.81303559  1
  Na  Na18  1  0.22222222  0.11111111  0.06303559  1
  Na  Na19  1  0.22222222  0.11111111  0.56303559  1
  Na  Na20  1  0.22222222  0.44444444  0.06303559  1
  Na  Na21  1  0.22222222  0.44444444  0.56303559  1
  Na  Na22  1  0.22222222  0.77777778  0.06303559  1
  Na  Na23  1  0.22222222  0.77777778  0.56303559  1
  Na  Na24  1  0.55555556  0.11111111  0.06303559  1
  Na  Na25  1  0.55555556  0.11111111  0.56303559  1
  Na  Na26  1  0.55555556  0.44444444  0.06303559  1
  Na  Na27  1  0.55555556  0.44444444  0.56303559  1
  Na  Na28  1  0.55555556  0.77777778  0.06303559  1
  Na  Na29  1  0.55555556  0.77777778  0.56303559  1
  Na  Na30  1  0.88888889  0.11111111  0.06303559  1
  Na  Na31  1  0.88888889  0.11111111  0.56303559  1
  Na  Na32  1  0.88888889  0.44444444  0.06303559  1
  Na  Na33  1  0.88888889  0.44444444  0.56303559  1
  Na  Na34  1  0.88888889  0.77777778  0.06303559  1
  Na  Na35  1  0.88888889  0.77777778  0.56303559  1
  Be  Be36  1  0.05519996  0.11039992  0.15667905  1
  Be  Be37  1  0.05519996  0.11039992  0.65667905  1
  Be  Be38  1  0.05519996  0.44373326  0.15667905  1
  Be  Be39  1  0.05519996  0.44373326  0.65667905  1
  Be  Be40  1  0.05519996  0.77706659  0.15667905  1
  Be  Be41  1  0.05519996  0.77706659  0.65667905  1
  Be  Be42  1  0.38853330  0.11039992  0.15667905  1
  Be  Be43  1  0.38853330  0.11039992  0.65667905  1
  Be  Be44  1  0.38853330  0.44373326  0.15667905  1
  Be  Be45  1  0.38853330  0.44373326  0.65667905  1
  Be  Be46  1  0.38853330  0.77706659  0.15667905  1
  Be  Be47  1  0.38853330  0.77706659  0.65667905  1
  Be  Be48  1  0.72186663  0.11039992  0.15667905  1
  Be  Be49  1  0.72186663  0.11039992  0.65667905  1
  Be  Be50  1  0.72186663  0.44373326  0.15667905  1
  Be  Be51  1  0.72186663  0.44373326  0.65667905  1
  Be  Be52  1  0.72186663  0.77706659  0.15667905  1
  Be  Be53  1  0.72186663  0.77706659  0.65667905  1
  Be  Be54  1  0.27813337  0.05519996  0.40667905  1
  Be  Be55  1  0.27813337  0.05519996  0.90667905  1
  Be  Be56  1  0.27813337  0.38853330  0.40667905  1
  Be  Be57  1  0.27813337  0.38853330  0.90667905  1
  Be  Be58  1  0.27813337  0.72186663  0.40667905  1
  Be  Be59  1  0.27813337  0.72186663  0.90667905  1
  Be  Be60  1  0.61146670  0.05519996  0.40667905  1
  Be  Be61  1  0.61146670  0.05519996  0.90667905  1
  Be  Be62  1  0.61146670  0.38853330  0.40667905  1
  Be  Be63  1  0.61146670  0.38853330  0.90667905  1
  Be  Be64  1  0.61146670  0.72186663  0.40667905  1
  Be  Be65  1  0.61146670  0.72186663  0.90667905  1
  Be  Be66  1  0.94480004  0.05519996  0.40667905  1
  Be  Be67  1  0.94480004  0.05519996  0.90667905  1
  Be  Be68  1  0.94480004  0.38853330  0.40667905  1
  Be  Be69  1  0.94480004  0.38853330  0.90667905  1
  Be  Be70  1  0.94480004  0.72186663  0.40667905  1
  Be  Be71  1  0.94480004  0.72186663  0.90667905  1
  Be  Be72  1  0.11039992  0.05519996  0.40667905  1
  Be  Be73  1  0.11039992  0.05519996  0.90667905  1
  Be  Be74  1  0.11039992  0.38853330  0.40667905  1
  Be  Be75  1  0.11039992  0.38853330  0.90667905  1
  Be  Be76  1  0.11039992  0.72186663  0.40667905  1
  Be  Be77  1  0.11039992  0.72186663  0.90667905  1
  Be  Be78  1  0.44373326  0.05519996  0.40667905  1
  Be  Be79  1  0.44373326  0.05519996  0.90667905  1
  Be  Be80  1  0.44373326  0.38853330  0.40667905  1
  Be  Be81  1  0.44373326  0.38853330  0.90667905  1
  Be  Be82  1  0.44373326  0.72186663  0.40667905  1
  Be  Be83  1  0.44373326  0.72186663  0.90667905  1
  Be  Be84  1  0.77706659  0.05519996  0.40667905  1
  Be  Be85  1  0.77706659  0.05519996  0.90667905  1
  Be  Be86  1  0.77706659  0.38853330  0.40667905  1
  Be  Be87  1  0.77706659  0.38853330  0.90667905  1
  Be  Be88  1  0.77706659  0.72186663  0.40667905  1
  Be  Be89  1  0.77706659  0.72186663  0.90667905  1
  Be  Be90  1  0.27813337  0.22293341  0.40667905  1
  Be  Be91  1  0.27813337  0.22293341  0.90667905  1
  Be  Be92  1  0.27813337  0.55626674  0.40667905  1
  Be  Be93  1  0.27813337  0.55626674  0.90667905  1
  Be  Be94  1  0.27813337  0.88960008  0.40667905  1
  Be  Be95  1  0.27813337  0.88960008  0.90667905  1
  Be  Be96  1  0.61146670  0.22293341  0.40667905  1
  Be  Be97  1  0.61146670  0.22293341  0.90667905  1
  Be  Be98  1  0.61146670  0.55626674  0.40667905  1
  Be  Be99  1  0.61146670  0.55626674  0.90667905  1
  Be  Be100  1  0.61146670  0.88960008  0.40667905  1
  Be  Be101  1  0.61146670  0.88960008  0.90667905  1
  Be  Be102  1  0.94480004  0.22293341  0.40667905  1
  Be  Be103  1  0.94480004  0.22293341  0.90667905  1
  Be  Be104  1  0.94480004  0.55626674  0.40667905  1
  Be  Be105  1  0.94480004  0.55626674  0.90667905  1
  Be  Be106  1  0.94480004  0.88960008  0.40667905  1
  Be  Be107  1  0.94480004  0.88960008  0.90667905  1
  Be  Be108  1  0.00000000  0.00000000  0.28033839  1
  Be  Be109  1  0.00000000  0.00000000  0.78033839  1
  Be  Be110  1  -0.00000000  0.33333333  0.28033839  1
  Be  Be111  1  -0.00000000  0.33333333  0.78033839  1
  Be  Be112  1  -0.00000000  0.66666667  0.28033839  1
  Be  Be113  1  -0.00000000  0.66666667  0.78033839  1
  Be  Be114  1  0.33333333  0.00000000  0.28033839  1
  Be  Be115  1  0.33333333  0.00000000  0.78033839  1
  Be  Be116  1  0.33333333  0.33333333  0.28033839  1
  Be  Be117  1  0.33333333  0.33333333  0.78033839  1
  Be  Be118  1  0.33333333  0.66666667  0.28033839  1
  Be  Be119  1  0.33333333  0.66666667  0.78033839  1
  Be  Be120  1  0.66666667  0.00000000  0.28033839  1
  Be  Be121  1  0.66666667  0.00000000  0.78033839  1
  Be  Be122  1  0.66666667  0.33333333  0.28033839  1
  Be  Be123  1  0.66666667  0.33333333  0.78033839  1
  Be  Be124  1  0.66666667  0.66666667  0.28033839  1
  Be  Be125  1  0.66666667  0.66666667  0.78033839  1
  Be  Be126  1  0.00000000  0.00000000  0.03033839  1
  Be  Be127  1  0.00000000  0.00000000  0.53033839  1
  Be  Be128  1  -0.00000000  0.33333333  0.03033839  1
  Be  Be129  1  -0.00000000  0.33333333  0.53033839  1
  Be  Be130  1  -0.00000000  0.66666667  0.03033839  1
  Be  Be131  1  -0.00000000  0.66666667  0.53033839  1
  Be  Be132  1  0.33333333  0.00000000  0.03033839  1
  Be  Be133  1  0.33333333  0.00000000  0.53033839  1
  Be  Be134  1  0.33333333  0.33333333  0.03033839  1
  Be  Be135  1  0.33333333  0.33333333  0.53033839  1
  Be  Be136  1  0.33333333  0.66666667  0.03033839  1
  Be  Be137  1  0.33333333  0.66666667  0.53033839  1
  Be  Be138  1  0.66666667  0.00000000  0.03033839  1
  Be  Be139  1  0.66666667  0.00000000  0.53033839  1
  Be  Be140  1  0.66666667  0.33333333  0.03033839  1
  Be  Be141  1  0.66666667  0.33333333  0.53033839  1
  Be  Be142  1  0.66666667  0.66666667  0.03033839  1
  Be  Be143  1  0.66666667  0.66666667  0.53033839  1
  Be  Be144  1  0.05519996  0.27813337  0.15667905  1
  Be  Be145  1  0.05519996  0.27813337  0.65667905  1
  Be  Be146  1  0.05519996  0.61146670  0.15667905  1
  Be  Be147  1  0.05519996  0.61146670  0.65667905  1
  Be  Be148  1  0.05519996  0.94480004  0.15667905  1
  Be  Be149  1  0.05519996  0.94480004  0.65667905  1
  Be  Be150  1  0.38853330  0.27813337  0.15667905  1
  Be  Be151  1  0.38853330  0.27813337  0.65667905  1
  Be  Be152  1  0.38853330  0.61146670  0.15667905  1
  Be  Be153  1  0.38853330  0.61146670  0.65667905  1
  Be  Be154  1  0.38853330  0.94480004  0.15667905  1
  Be  Be155  1  0.38853330  0.94480004  0.65667905  1
  Be  Be156  1  0.72186663  0.27813337  0.15667905  1
  Be  Be157  1  0.72186663  0.27813337  0.65667905  1
  Be  Be158  1  0.72186663  0.61146670  0.15667905  1
  Be  Be159  1  0.72186663  0.61146670  0.65667905  1
  Be  Be160  1  0.72186663  0.94480004  0.15667905  1
  Be  Be161  1  0.72186663  0.94480004  0.65667905  1
  Be  Be162  1  0.22293341  0.27813337  0.15667905  1
  Be  Be163  1  0.22293341  0.27813337  0.65667905  1
  Be  Be164  1  0.22293341  0.61146670  0.15667905  1
  Be  Be165  1  0.22293341  0.61146670  0.65667905  1
  Be  Be166  1  0.22293341  0.94480004  0.15667905  1
  Be  Be167  1  0.22293341  0.94480004  0.65667905  1
  Be  Be168  1  0.55626674  0.27813337  0.15667905  1
  Be  Be169  1  0.55626674  0.27813337  0.65667905  1
  Be  Be170  1  0.55626674  0.61146670  0.15667905  1
  Be  Be171  1  0.55626674  0.61146670  0.65667905  1
  Be  Be172  1  0.55626674  0.94480004  0.15667905  1
  Be  Be173  1  0.55626674  0.94480004  0.65667905  1
  Be  Be174  1  0.88960008  0.27813337  0.15667905  1
  Be  Be175  1  0.88960008  0.27813337  0.65667905  1
  Be  Be176  1  0.88960008  0.61146670  0.15667905  1
  Be  Be177  1  0.88960008  0.61146670  0.65667905  1
  Be  Be178  1  0.88960008  0.94480004  0.15667905  1
  Be  Be179  1  0.88960008  0.94480004  0.65667905  1
  Sb  Sb180  1  0.11111111  0.22222222  0.00021791  1
  Sb  Sb181  1  0.11111111  0.22222222  0.50021791  1
  Sb  Sb182  1  0.11111111  0.55555556  0.00021791  1
  Sb  Sb183  1  0.11111111  0.55555556  0.50021791  1
  Sb  Sb184  1  0.11111111  0.88888889  0.00021791  1
  Sb  Sb185  1  0.11111111  0.88888889  0.50021791  1
  Sb  Sb186  1  0.44444444  0.22222222  0.00021791  1
  Sb  Sb187  1  0.44444444  0.22222222  0.50021791  1
  Sb  Sb188  1  0.44444444  0.55555556  0.00021791  1
  Sb  Sb189  1  0.44444444  0.55555556  0.50021791  1
  Sb  Sb190  1  0.44444444  0.88888889  0.00021791  1
  Sb  Sb191  1  0.44444444  0.88888889  0.50021791  1
  Sb  Sb192  1  0.77777778  0.22222222  0.00021791  1
  Sb  Sb193  1  0.77777778  0.22222222  0.50021791  1
  Sb  Sb194  1  0.77777778  0.55555556  0.00021791  1
  Sb  Sb195  1  0.77777778  0.55555556  0.50021791  1
  Sb  Sb196  1  0.77777778  0.88888889  0.00021791  1
  Sb  Sb197  1  0.77777778  0.88888889  0.50021791  1
  Sb  Sb198  1  0.22222222  0.11111111  0.25021791  1
  Sb  Sb199  1  0.22222222  0.11111111  0.75021791  1
  Sb  Sb200  1  0.22222222  0.44444444  0.25021791  1
  Sb  Sb201  1  0.22222222  0.44444444  0.75021791  1
  Sb  Sb202  1  0.22222222  0.77777778  0.25021791  1
  Sb  Sb203  1  0.22222222  0.77777778  0.75021791  1
  Sb  Sb204  1  0.55555556  0.11111111  0.25021791  1
  Sb  Sb205  1  0.55555556  0.11111111  0.75021791  1
  Sb  Sb206  1  0.55555556  0.44444444  0.25021791  1
  Sb  Sb207  1  0.55555556  0.44444444  0.75021791  1
  Sb  Sb208  1  0.55555556  0.77777778  0.25021791  1
  Sb  Sb209  1  0.55555556  0.77777778  0.75021791  1
  Sb  Sb210  1  0.88888889  0.11111111  0.25021791  1
  Sb  Sb211  1  0.88888889  0.11111111  0.75021791  1
  Sb  Sb212  1  0.88888889  0.44444444  0.25021791  1
  Sb  Sb213  1  0.88888889  0.44444444  0.75021791  1
  Sb  Sb214  1  0.88888889  0.77777778  0.25021791  1
  Sb  Sb215  1  0.88888889  0.77777778  0.75021791  1
  O  O216  1  0.22609214  0.27971274  0.06441863  1
  O  O217  1  0.22609214  0.27971274  0.56441863  1
  O  O218  1  0.22609214  0.61304607  0.06441863  1
  O  O219  1  0.22609214  0.61304607  0.56441863  1
  O  O220  1  0.22609214  0.94637940  0.06441863  1
  O  O221  1  0.22609214  0.94637940  0.56441863  1
  O  O222  1  0.55942547  0.27971274  0.06441863  1
  O  O223  1  0.55942547  0.27971274  0.56441863  1
  O  O224  1  0.55942547  0.61304607  0.06441863  1
  O  O225  1  0.55942547  0.61304607  0.56441863  1
  O  O226  1  0.55942547  0.94637940  0.06441863  1
  O  O227  1  0.55942547  0.94637940  0.56441863  1
  O  O228  1  0.89275880  0.27971274  0.06441863  1
  O  O229  1  0.89275880  0.27971274  0.56441863  1
  O  O230  1  0.89275880  0.61304607  0.06441863  1
  O  O231  1  0.89275880  0.61304607  0.56441863  1
  O  O232  1  0.89275880  0.94637940  0.06441863  1
  O  O233  1  0.89275880  0.94637940  0.56441863  1
  O  O234  1  0.00000000  0.00000000  0.43759189  1
  O  O235  1  0.00000000  0.00000000  0.93759189  1
  O  O236  1  -0.00000000  0.33333333  0.43759189  1
  O  O237  1  -0.00000000  0.33333333  0.93759189  1
  O  O238  1  -0.00000000  0.66666667  0.43759189  1
  O  O239  1  -0.00000000  0.66666667  0.93759189  1
  O  O240  1  0.33333333  0.00000000  0.43759189  1
  O  O241  1  0.33333333  0.00000000  0.93759189  1
  O  O242  1  0.33333333  0.33333333  0.43759189  1
  O  O243  1  0.33333333  0.33333333  0.93759189  1
  O  O244  1  0.33333333  0.66666667  0.43759189  1
  O  O245  1  0.33333333  0.66666667  0.93759189  1
  O  O246  1  0.66666667  0.00000000  0.43759189  1
  O  O247  1  0.66666667  0.00000000  0.93759189  1
  O  O248  1  0.66666667  0.33333333  0.43759189  1
  O  O249  1  0.66666667  0.33333333  0.93759189  1
  O  O250  1  0.66666667  0.66666667  0.43759189  1
  O  O251  1  0.66666667  0.66666667  0.93759189  1
  O  O252  1  0.00000000  0.00000000  0.18759189  1
  O  O253  1  0.00000000  0.00000000  0.68759189  1
  O  O254  1  -0.00000000  0.33333333  0.18759189  1
  O  O255  1  -0.00000000  0.33333333  0.68759189  1
  O  O256  1  -0.00000000  0.66666667  0.18759189  1
  O  O257  1  -0.00000000  0.66666667  0.68759189  1
  O  O258  1  0.33333333  0.00000000  0.18759189  1
  O  O259  1  0.33333333  0.00000000  0.68759189  1
  O  O260  1  0.33333333  0.33333333  0.18759189  1
  O  O261  1  0.33333333  0.33333333  0.68759189  1
  O  O262  1  0.33333333  0.66666667  0.18759189  1
  O  O263  1  0.33333333  0.66666667  0.68759189  1
  O  O264  1  0.66666667  0.00000000  0.18759189  1
  O  O265  1  0.66666667  0.00000000  0.68759189  1
  O  O266  1  0.66666667  0.33333333  0.18759189  1
  O  O267  1  0.66666667  0.33333333  0.68759189  1
  O  O268  1  0.66666667  0.66666667  0.18759189  1
  O  O269  1  0.66666667  0.66666667  0.68759189  1
  O  O270  1  0.10724120  0.05362060  0.31441863  1
  O  O271  1  0.10724120  0.05362060  0.81441863  1
  O  O272  1  0.10724120  0.38695393  0.31441863  1
  O  O273  1  0.10724120  0.38695393  0.81441863  1
  O  O274  1  0.10724120  0.72028726  0.31441863  1
  O  O275  1  0.10724120  0.72028726  0.81441863  1
  O  O276  1  0.44057453  0.05362060  0.31441863  1
  O  O277  1  0.44057453  0.05362060  0.81441863  1
  O  O278  1  0.44057453  0.38695393  0.31441863  1
  O  O279  1  0.44057453  0.38695393  0.81441863  1
  O  O280  1  0.44057453  0.72028726  0.31441863  1
  O  O281  1  0.44057453  0.72028726  0.81441863  1
  O  O282  1  0.77390786  0.05362060  0.31441863  1
  O  O283  1  0.77390786  0.05362060  0.81441863  1
  O  O284  1  0.77390786  0.38695393  0.31441863  1
  O  O285  1  0.77390786  0.38695393  0.81441863  1
  O  O286  1  0.77390786  0.72028726  0.31441863  1
  O  O287  1  0.77390786  0.72028726  0.81441863  1
  O  O288  1  0.27971274  0.05362060  0.31441863  1
  O  O289  1  0.27971274  0.05362060  0.81441863  1
  O  O290  1  0.27971274  0.38695393  0.31441863  1
  O  O291  1  0.27971274  0.38695393  0.81441863  1
  O  O292  1  0.27971274  0.72028726  0.31441863  1
  O  O293  1  0.27971274  0.72028726  0.81441863  1
  O  O294  1  0.61304607  0.05362060  0.31441863  1
  O  O295  1  0.61304607  0.05362060  0.81441863  1
  O  O296  1  0.61304607  0.38695393  0.31441863  1
  O  O297  1  0.61304607  0.38695393  0.81441863  1
  O  O298  1  0.61304607  0.72028726  0.31441863  1
  O  O299  1  0.61304607  0.72028726  0.81441863  1
  O  O300  1  0.94637940  0.05362060  0.31441863  1
  O  O301  1  0.94637940  0.05362060  0.81441863  1
  O  O302  1  0.94637940  0.38695393  0.31441863  1
  O  O303  1  0.94637940  0.38695393  0.81441863  1
  O  O304  1  0.94637940  0.72028726  0.31441863  1
  O  O305  1  0.94637940  0.72028726  0.81441863  1
  O  O306  1  0.05362060  0.10724120  0.06441863  1
  O  O307  1  0.05362060  0.10724120  0.56441863  1
  O  O308  1  0.05362060  0.44057453  0.06441863  1
  O  O309  1  0.05362060  0.44057453  0.56441863  1
  O  O310  1  0.05362060  0.77390786  0.06441863  1
  O  O311  1  0.05362060  0.77390786  0.56441863  1
  O  O312  1  0.38695393  0.10724120  0.06441863  1
  O  O313  1  0.38695393  0.10724120  0.56441863  1
  O  O314  1  0.38695393  0.44057453  0.06441863  1
  O  O315  1  0.38695393  0.44057453  0.56441863  1
  O  O316  1  0.38695393  0.77390786  0.06441863  1
  O  O317  1  0.38695393  0.77390786  0.56441863  1
  O  O318  1  0.72028726  0.10724120  0.06441863  1
  O  O319  1  0.72028726  0.10724120  0.56441863  1
  O  O320  1  0.72028726  0.44057453  0.06441863  1
  O  O321  1  0.72028726  0.44057453  0.56441863  1
  O  O322  1  0.72028726  0.77390786  0.06441863  1
  O  O323  1  0.72028726  0.77390786  0.56441863  1
  O  O324  1  0.16830913  0.00328493  0.43550839  1
  O  O325  1  0.16830913  0.00328493  0.93550839  1
  O  O326  1  0.16830913  0.33661827  0.43550839  1
  O  O327  1  0.16830913  0.33661827  0.93550839  1
  O  O328  1  0.16830913  0.66995160  0.43550839  1
  O  O329  1  0.16830913  0.66995160  0.93550839  1
  O  O330  1  0.50164247  0.00328493  0.43550839  1
  O  O331  1  0.50164247  0.00328493  0.93550839  1
  O  O332  1  0.50164247  0.33661827  0.43550839  1
  O  O333  1  0.50164247  0.33661827  0.93550839  1
  O  O334  1  0.50164247  0.66995160  0.43550839  1
  O  O335  1  0.50164247  0.66995160  0.93550839  1
  O  O336  1  0.83497580  0.00328493  0.43550839  1
  O  O337  1  0.83497580  0.00328493  0.93550839  1
  O  O338  1  0.83497580  0.33661827  0.43550839  1
  O  O339  1  0.83497580  0.33661827  0.93550839  1
  O  O340  1  0.83497580  0.66995160  0.43550839  1
  O  O341  1  0.83497580  0.66995160  0.93550839  1
  O  O342  1  0.16502420  0.16830913  0.18550839  1
  O  O343  1  0.16502420  0.16830913  0.68550839  1
  O  O344  1  0.16502420  0.50164247  0.18550839  1
  O  O345  1  0.16502420  0.50164247  0.68550839  1
  O  O346  1  0.16502420  0.83497580  0.18550839  1
  O  O347  1  0.16502420  0.83497580  0.68550839  1
  O  O348  1  0.49835753  0.16830913  0.18550839  1
  O  O349  1  0.49835753  0.16830913  0.68550839  1
  O  O350  1  0.49835753  0.50164247  0.18550839  1
  O  O351  1  0.49835753  0.50164247  0.68550839  1
  O  O352  1  0.49835753  0.83497580  0.18550839  1
  O  O353  1  0.49835753  0.83497580  0.68550839  1
  O  O354  1  0.83169087  0.16830913  0.18550839  1
  O  O355  1  0.83169087  0.16830913  0.68550839  1
  O  O356  1  0.83169087  0.50164247  0.18550839  1
  O  O357  1  0.83169087  0.50164247  0.68550839  1
  O  O358  1  0.83169087  0.83497580  0.18550839  1
  O  O359  1  0.83169087  0.83497580  0.68550839  1
  O  O360  1  0.00328493  0.16830913  0.18550839  1
  O  O361  1  0.00328493  0.16830913  0.68550839  1
  O  O362  1  0.00328493  0.50164247  0.18550839  1
  O  O363  1  0.00328493  0.50164247  0.68550839  1
  O  O364  1  0.00328493  0.83497580  0.18550839  1
  O  O365  1  0.00328493  0.83497580  0.68550839  1
  O  O366  1  0.33661827  0.16830913  0.18550839  1
  O  O367  1  0.33661827  0.16830913  0.68550839  1
  O  O368  1  0.33661827  0.50164247  0.18550839  1
  O  O369  1  0.33661827  0.50164247  0.68550839  1
  O  O370  1  0.33661827  0.83497580  0.18550839  1
  O  O371  1  0.33661827  0.83497580  0.68550839  1
  O  O372  1  0.66995160  0.16830913  0.18550839  1
  O  O373  1  0.66995160  0.16830913  0.68550839  1
  O  O374  1  0.66995160  0.50164247  0.18550839  1
  O  O375  1  0.66995160  0.50164247  0.68550839  1
  O  O376  1  0.66995160  0.83497580  0.18550839  1
  O  O377  1  0.66995160  0.83497580  0.68550839  1
  O  O378  1  0.33004840  0.16502420  0.43550839  1
  O  O379  1  0.33004840  0.16502420  0.93550839  1
  O  O380  1  0.33004840  0.49835753  0.43550839  1
  O  O381  1  0.33004840  0.49835753  0.93550839  1
  O  O382  1  0.33004840  0.83169087  0.43550839  1
  O  O383  1  0.33004840  0.83169087  0.93550839  1
  O  O384  1  0.66338173  0.16502420  0.43550839  1
  O  O385  1  0.66338173  0.16502420  0.93550839  1
  O  O386  1  0.66338173  0.49835753  0.43550839  1
  O  O387  1  0.66338173  0.49835753  0.93550839  1
  O  O388  1  0.66338173  0.83169087  0.43550839  1
  O  O389  1  0.66338173  0.83169087  0.93550839  1
  O  O390  1  0.99671507  0.16502420  0.43550839  1
  O  O391  1  0.99671507  0.16502420  0.93550839  1
  O  O392  1  0.99671507  0.49835753  0.43550839  1
  O  O393  1  0.99671507  0.49835753  0.93550839  1
  O  O394  1  0.99671507  0.83169087  0.43550839  1
  O  O395  1  0.99671507  0.83169087  0.93550839  1
  O  O396  1  0.16830913  0.16502420  0.43550839  1
  O  O397  1  0.16830913  0.16502420  0.93550839  1
  O  O398  1  0.16830913  0.49835753  0.43550839  1
  O  O399  1  0.16830913  0.49835753  0.93550839  1
  O  O400  1  0.16830913  0.83169087  0.43550839  1
  O  O401  1  0.16830913  0.83169087  0.93550839  1
  O  O402  1  0.50164247  0.16502420  0.43550839  1
  O  O403  1  0.50164247  0.16502420  0.93550839  1
  O  O404  1  0.50164247  0.49835753  0.43550839  1
  O  O405  1  0.50164247  0.49835753  0.93550839  1
  O  O406  1  0.50164247  0.83169087  0.43550839  1
  O  O407  1  0.50164247  0.83169087  0.93550839  1
  O  O408  1  0.83497580  0.16502420  0.43550839  1
  O  O409  1  0.83497580  0.16502420  0.93550839  1
  O  O410  1  0.83497580  0.49835753  0.43550839  1
  O  O411  1  0.83497580  0.49835753  0.93550839  1
  O  O412  1  0.83497580  0.83169087  0.43550839  1
  O  O413  1  0.83497580  0.83169087  0.93550839  1
  O  O414  1  0.16502420  0.33004840  0.18550839  1
  O  O415  1  0.16502420  0.33004840  0.68550839  1
  O  O416  1  0.16502420  0.66338173  0.18550839  1
  O  O417  1  0.16502420  0.66338173  0.68550839  1
  O  O418  1  0.16502420  0.99671507  0.18550839  1
  O  O419  1  0.16502420  0.99671507  0.68550839  1
  O  O420  1  0.49835753  0.33004840  0.18550839  1
  O  O421  1  0.49835753  0.33004840  0.68550839  1
  O  O422  1  0.49835753  0.66338173  0.18550839  1
  O  O423  1  0.49835753  0.66338173  0.68550839  1
  O  O424  1  0.49835753  0.99671507  0.18550839  1
  O  O425  1  0.49835753  0.99671507  0.68550839  1
  O  O426  1  0.83169087  0.33004840  0.18550839  1
  O  O427  1  0.83169087  0.33004840  0.68550839  1
  O  O428  1  0.83169087  0.66338173  0.18550839  1
  O  O429  1  0.83169087  0.66338173  0.68550839  1
  O  O430  1  0.83169087  0.99671507  0.18550839  1
  O  O431  1  0.83169087  0.99671507  0.68550839  1
  O  O432  1  0.27971274  0.22609214  0.31441863  1
  O  O433  1  0.27971274  0.22609214  0.81441863  1
  O  O434  1  0.27971274  0.55942547  0.31441863  1
  O  O435  1  0.27971274  0.55942547  0.81441863  1
  O  O436  1  0.27971274  0.89275880  0.31441863  1
  O  O437  1  0.27971274  0.89275880  0.81441863  1
  O  O438  1  0.61304607  0.22609214  0.31441863  1
  O  O439  1  0.61304607  0.22609214  0.81441863  1
  O  O440  1  0.61304607  0.55942547  0.31441863  1
  O  O441  1  0.61304607  0.55942547  0.81441863  1
  O  O442  1  0.61304607  0.89275880  0.31441863  1
  O  O443  1  0.61304607  0.89275880  0.81441863  1
  O  O444  1  0.94637940  0.22609214  0.31441863  1
  O  O445  1  0.94637940  0.22609214  0.81441863  1
  O  O446  1  0.94637940  0.55942547  0.31441863  1
  O  O447  1  0.94637940  0.55942547  0.81441863  1
  O  O448  1  0.94637940  0.89275880  0.31441863  1
  O  O449  1  0.94637940  0.89275880  0.81441863  1
  O  O450  1  0.05362060  0.27971274  0.06441863  1
  O  O451  1  0.05362060  0.27971274  0.56441863  1
  O  O452  1  0.05362060  0.61304607  0.06441863  1
  O  O453  1  0.05362060  0.61304607  0.56441863  1
  O  O454  1  0.05362060  0.94637940  0.06441863  1
  O  O455  1  0.05362060  0.94637940  0.56441863  1
  O  O456  1  0.38695393  0.27971274  0.06441863  1
  O  O457  1  0.38695393  0.27971274  0.56441863  1
  O  O458  1  0.38695393  0.61304607  0.06441863  1
  O  O459  1  0.38695393  0.61304607  0.56441863  1
  O  O460  1  0.38695393  0.94637940  0.06441863  1
  O  O461  1  0.38695393  0.94637940  0.56441863  1
  O  O462  1  0.72028726  0.27971274  0.06441863  1
  O  O463  1  0.72028726  0.27971274  0.56441863  1
  O  O464  1  0.72028726  0.61304607  0.06441863  1
  O  O465  1  0.72028726  0.61304607  0.56441863  1
  O  O466  1  0.72028726  0.94637940  0.06441863  1
  O  O467  1  0.72028726  0.94637940  0.56441863  1
