# generated using pymatgen
data_In6Ge2PtO9
_symmetry_space_group_name_H-M   'P 1'
_cell_length_a   10.12896652
_cell_length_b   10.12896652
_cell_length_c   10.12896652
_cell_angle_alpha   90.00000000
_cell_angle_beta   90.00000000
_cell_angle_gamma   90.00000000
_symmetry_Int_Tables_number   1
_chemical_formula_structural   In6Ge2PtO9
_chemical_formula_sum   'In24 Ge8 Pt4 O36'
_cell_volume   1039.19107182
_cell_formula_units_Z   4
loop_
 _symmetry_equiv_pos_site_id
 _symmetry_equiv_pos_as_xyz
  1  'x, y, z'
loop_
 _atom_site_type_symbol
 _atom_site_label
 _atom_site_symmetry_multiplicity
 _atom_site_fract_x
 _atom_site_fract_y
 _atom_site_fract_z
 _atom_site_occupancy
  In  In0  1  0.50000000  0.50000000  0.26078640  1
  In  In1  1  1.00000000  1.00000000  0.26078640  1
  In  In2  1  1.00000000  0.50000000  0.76078640  1
  In  In3  1  0.50000000  1.00000000  0.76078640  1
  In  In4  1  0.50000000  0.73921360  0.50000000  1
  In  In5  1  1.00000000  1.23921360  0.50000000  1
  In  In6  1  1.00000000  0.73921360  1.00000000  1
  In  In7  1  0.50000000  1.23921360  1.00000000  1
  In  In8  1  0.50000000  0.26078640  0.50000000  1
  In  In9  1  1.00000000  0.76078640  0.50000000  1
  In  In10  1  1.00000000  0.26078640  1.00000000  1
  In  In11  1  0.50000000  0.76078640  1.00000000  1
  In  In12  1  0.50000000  0.50000000  0.73921360  1
  In  In13  1  1.00000000  1.00000000  0.73921360  1
  In  In14  1  1.00000000  0.50000000  1.23921360  1
  In  In15  1  0.50000000  1.00000000  1.23921360  1
  In  In16  1  0.73921360  0.50000000  0.50000000  1
  In  In17  1  1.23921360  1.00000000  0.50000000  1
  In  In18  1  1.23921360  0.50000000  1.00000000  1
  In  In19  1  0.73921360  1.00000000  1.00000000  1
  In  In20  1  0.26078640  0.50000000  0.50000000  1
  In  In21  1  0.76078640  1.00000000  0.50000000  1
  In  In22  1  0.76078640  0.50000000  1.00000000  1
  In  In23  1  0.26078640  1.00000000  1.00000000  1
  Ge  Ge24  1  0.25000000  0.25000000  0.25000000  1
  Ge  Ge25  1  0.75000000  0.75000000  0.25000000  1
  Ge  Ge26  1  0.75000000  0.25000000  0.75000000  1
  Ge  Ge27  1  0.25000000  0.75000000  0.75000000  1
  Ge  Ge28  1  0.75000000  0.75000000  0.75000000  1
  Ge  Ge29  1  1.25000000  1.25000000  0.75000000  1
  Ge  Ge30  1  1.25000000  0.75000000  1.25000000  1
  Ge  Ge31  1  0.75000000  1.25000000  1.25000000  1
  Pt  Pt32  1  0.00000000  0.00000000  0.00000000  1
  Pt  Pt33  1  0.50000000  0.50000000  0.00000000  1
  Pt  Pt34  1  0.50000000  0.00000000  0.50000000  1
  Pt  Pt35  1  0.00000000  0.50000000  0.50000000  1
  O  O36  1  0.50000000  0.50000000  0.50000000  1
  O  O37  1  1.00000000  1.00000000  0.50000000  1
  O  O38  1  1.00000000  0.50000000  1.00000000  1
  O  O39  1  0.50000000  1.00000000  1.00000000  1
  O  O40  1  0.35177528  0.64822472  0.35177528  1
  O  O41  1  0.85177528  1.14822472  0.35177528  1
  O  O42  1  0.85177528  0.64822472  0.85177528  1
  O  O43  1  0.35177528  1.14822472  0.85177528  1
  O  O44  1  0.35177528  0.35177528  0.35177528  1
  O  O45  1  0.85177528  0.85177528  0.35177528  1
  O  O46  1  0.85177528  0.35177528  0.85177528  1
  O  O47  1  0.35177528  0.85177528  0.85177528  1
  O  O48  1  0.35177528  0.64822472  0.64822472  1
  O  O49  1  0.85177528  1.14822472  0.64822472  1
  O  O50  1  0.85177528  0.64822472  1.14822472  1
  O  O51  1  0.35177528  1.14822472  1.14822472  1
  O  O52  1  0.64822472  0.64822472  0.35177528  1
  O  O53  1  1.14822472  1.14822472  0.35177528  1
  O  O54  1  1.14822472  0.64822472  0.85177528  1
  O  O55  1  0.64822472  1.14822472  0.85177528  1
  O  O56  1  0.64822472  0.35177528  0.64822472  1
  O  O57  1  1.14822472  0.85177528  0.64822472  1
  O  O58  1  1.14822472  0.35177528  1.14822472  1
  O  O59  1  0.64822472  0.85177528  1.14822472  1
  O  O60  1  0.35177528  0.35177528  0.64822472  1
  O  O61  1  0.85177528  0.85177528  0.64822472  1
  O  O62  1  0.85177528  0.35177528  1.14822472  1
  O  O63  1  0.35177528  0.85177528  1.14822472  1
  O  O64  1  0.64822472  0.64822472  0.64822472  1
  O  O65  1  1.14822472  1.14822472  0.64822472  1
  O  O66  1  1.14822472  0.64822472  1.14822472  1
  O  O67  1  0.64822472  1.14822472  1.14822472  1
  O  O68  1  0.64822472  0.35177528  0.35177528  1
  O  O69  1  1.14822472  0.85177528  0.35177528  1
  O  O70  1  1.14822472  0.35177528  0.85177528  1
  O  O71  1  0.64822472  0.85177528  0.85177528  1
