# generated using pymatgen
data_Ba2SiO4
_symmetry_space_group_name_H-M   'P 1'
_cell_length_a   15.01778481
_cell_length_b   17.34958985
_cell_length_c   20.46862482
_cell_angle_alpha   90.00000000
_cell_angle_beta   90.00000000
_cell_angle_gamma   90.00000000
_symmetry_Int_Tables_number   1
_chemical_formula_structural   Ba2SiO4
_chemical_formula_sum   'Ba96 Si48 O192'
_cell_volume   5333.14946493
_cell_formula_units_Z   48
loop_
 _symmetry_equiv_pos_site_id
 _symmetry_equiv_pos_as_xyz
  1  'x, y, z'
loop_
 _atom_site_type_symbol
 _atom_site_label
 _atom_site_symmetry_multiplicity
 _atom_site_fract_x
 _atom_site_fract_y
 _atom_site_fract_z
 _atom_site_occupancy
  Ba  Ba0  1  0.24551529  0.08333333  0.40336081  1
  Ba  Ba1  1  0.24551529  0.08333333  0.90336081  1
  Ba  Ba2  1  0.24551529  0.41666667  0.40336081  1
  Ba  Ba3  1  0.24551529  0.41666667  0.90336081  1
  Ba  Ba4  1  0.24551529  0.75000000  0.40336081  1
  Ba  Ba5  1  0.24551529  0.75000000  0.90336081  1
  Ba  Ba6  1  0.74551529  0.08333333  0.40336081  1
  Ba  Ba7  1  0.74551529  0.08333333  0.90336081  1
  Ba  Ba8  1  0.74551529  0.41666667  0.40336081  1
  Ba  Ba9  1  0.74551529  0.41666667  0.90336081  1
  Ba  Ba10  1  0.74551529  0.75000000  0.40336081  1
  Ba  Ba11  1  0.74551529  0.75000000  0.90336081  1
  Ba  Ba12  1  0.25448471  0.25000000  0.09663919  1
  Ba  Ba13  1  0.25448471  0.25000000  0.59663919  1
  Ba  Ba14  1  0.25448471  0.58333333  0.09663919  1
  Ba  Ba15  1  0.25448471  0.58333333  0.59663919  1
  Ba  Ba16  1  0.25448471  0.91666667  0.09663919  1
  Ba  Ba17  1  0.25448471  0.91666667  0.59663919  1
  Ba  Ba18  1  0.75448471  0.25000000  0.09663919  1
  Ba  Ba19  1  0.75448471  0.25000000  0.59663919  1
  Ba  Ba20  1  0.75448471  0.58333333  0.09663919  1
  Ba  Ba21  1  0.75448471  0.58333333  0.59663919  1
  Ba  Ba22  1  0.75448471  0.91666667  0.09663919  1
  Ba  Ba23  1  0.75448471  0.91666667  0.59663919  1
  Ba  Ba24  1  0.49551529  0.08333333  0.34663919  1
  Ba  Ba25  1  0.49551529  0.08333333  0.84663919  1
  Ba  Ba26  1  0.49551529  0.41666667  0.34663919  1
  Ba  Ba27  1  0.49551529  0.41666667  0.84663919  1
  Ba  Ba28  1  0.49551529  0.75000000  0.34663919  1
  Ba  Ba29  1  0.49551529  0.75000000  0.84663919  1
  Ba  Ba30  1  0.99551529  0.08333333  0.34663919  1
  Ba  Ba31  1  0.99551529  0.08333333  0.84663919  1
  Ba  Ba32  1  0.99551529  0.41666667  0.34663919  1
  Ba  Ba33  1  0.99551529  0.41666667  0.84663919  1
  Ba  Ba34  1  0.99551529  0.75000000  0.34663919  1
  Ba  Ba35  1  0.99551529  0.75000000  0.84663919  1
  Ba  Ba36  1  0.00448471  0.25000000  0.15336081  1
  Ba  Ba37  1  0.00448471  0.25000000  0.65336081  1
  Ba  Ba38  1  0.00448471  0.58333333  0.15336081  1
  Ba  Ba39  1  0.00448471  0.58333333  0.65336081  1
  Ba  Ba40  1  0.00448471  0.91666667  0.15336081  1
  Ba  Ba41  1  0.00448471  0.91666667  0.65336081  1
  Ba  Ba42  1  0.50448471  0.25000000  0.15336081  1
  Ba  Ba43  1  0.50448471  0.25000000  0.65336081  1
  Ba  Ba44  1  0.50448471  0.58333333  0.15336081  1
  Ba  Ba45  1  0.50448471  0.58333333  0.65336081  1
  Ba  Ba46  1  0.50448471  0.91666667  0.15336081  1
  Ba  Ba47  1  0.50448471  0.91666667  0.65336081  1
  Ba  Ba48  1  0.32938904  0.08333333  0.20818734  1
  Ba  Ba49  1  0.32938904  0.08333333  0.70818734  1
  Ba  Ba50  1  0.32938904  0.41666667  0.20818734  1
  Ba  Ba51  1  0.32938904  0.41666667  0.70818734  1
  Ba  Ba52  1  0.32938904  0.75000000  0.20818734  1
  Ba  Ba53  1  0.32938904  0.75000000  0.70818734  1
  Ba  Ba54  1  0.82938904  0.08333333  0.20818734  1
  Ba  Ba55  1  0.82938904  0.08333333  0.70818734  1
  Ba  Ba56  1  0.82938904  0.41666667  0.20818734  1
  Ba  Ba57  1  0.82938904  0.41666667  0.70818734  1
  Ba  Ba58  1  0.82938904  0.75000000  0.20818734  1
  Ba  Ba59  1  0.82938904  0.75000000  0.70818734  1
  Ba  Ba60  1  0.17061096  0.25000000  0.29181266  1
  Ba  Ba61  1  0.17061096  0.25000000  0.79181266  1
  Ba  Ba62  1  0.17061096  0.58333333  0.29181266  1
  Ba  Ba63  1  0.17061096  0.58333333  0.79181266  1
  Ba  Ba64  1  0.17061096  0.91666667  0.29181266  1
  Ba  Ba65  1  0.17061096  0.91666667  0.79181266  1
  Ba  Ba66  1  0.67061096  0.25000000  0.29181266  1
  Ba  Ba67  1  0.67061096  0.25000000  0.79181266  1
  Ba  Ba68  1  0.67061096  0.58333333  0.29181266  1
  Ba  Ba69  1  0.67061096  0.58333333  0.79181266  1
  Ba  Ba70  1  0.67061096  0.91666667  0.29181266  1
  Ba  Ba71  1  0.67061096  0.91666667  0.79181266  1
  Ba  Ba72  1  0.07938904  0.08333333  0.04181266  1
  Ba  Ba73  1  0.07938904  0.08333333  0.54181266  1
  Ba  Ba74  1  0.07938904  0.41666667  0.04181266  1
  Ba  Ba75  1  0.07938904  0.41666667  0.54181266  1
  Ba  Ba76  1  0.07938904  0.75000000  0.04181266  1
  Ba  Ba77  1  0.07938904  0.75000000  0.54181266  1
  Ba  Ba78  1  0.57938904  0.08333333  0.04181266  1
  Ba  Ba79  1  0.57938904  0.08333333  0.54181266  1
  Ba  Ba80  1  0.57938904  0.41666667  0.04181266  1
  Ba  Ba81  1  0.57938904  0.41666667  0.54181266  1
  Ba  Ba82  1  0.57938904  0.75000000  0.04181266  1
  Ba  Ba83  1  0.57938904  0.75000000  0.54181266  1
  Ba  Ba84  1  0.42061096  0.25000000  0.45818734  1
  Ba  Ba85  1  0.42061096  0.25000000  0.95818734  1
  Ba  Ba86  1  0.42061096  0.58333333  0.45818734  1
  Ba  Ba87  1  0.42061096  0.58333333  0.95818734  1
  Ba  Ba88  1  0.42061096  0.91666667  0.45818734  1
  Ba  Ba89  1  0.42061096  0.91666667  0.95818734  1
  Ba  Ba90  1  0.92061096  0.25000000  0.45818734  1
  Ba  Ba91  1  0.92061096  0.25000000  0.95818734  1
  Ba  Ba92  1  0.92061096  0.58333333  0.45818734  1
  Ba  Ba93  1  0.92061096  0.58333333  0.95818734  1
  Ba  Ba94  1  0.92061096  0.91666667  0.45818734  1
  Ba  Ba95  1  0.92061096  0.91666667  0.95818734  1
  Si  Si96  1  0.36411373  0.08333333  0.03964965  1
  Si  Si97  1  0.36411373  0.08333333  0.53964965  1
  Si  Si98  1  0.36411373  0.41666667  0.03964965  1
  Si  Si99  1  0.36411373  0.41666667  0.53964965  1
  Si  Si100  1  0.36411373  0.75000000  0.03964965  1
  Si  Si101  1  0.36411373  0.75000000  0.53964965  1
  Si  Si102  1  0.86411373  0.08333333  0.03964965  1
  Si  Si103  1  0.86411373  0.08333333  0.53964965  1
  Si  Si104  1  0.86411373  0.41666667  0.03964965  1
  Si  Si105  1  0.86411373  0.41666667  0.53964965  1
  Si  Si106  1  0.86411373  0.75000000  0.03964965  1
  Si  Si107  1  0.86411373  0.75000000  0.53964965  1
  Si  Si108  1  0.13588627  0.25000000  0.46035035  1
  Si  Si109  1  0.13588627  0.25000000  0.96035035  1
  Si  Si110  1  0.13588627  0.58333333  0.46035035  1
  Si  Si111  1  0.13588627  0.58333333  0.96035035  1
  Si  Si112  1  0.13588627  0.91666667  0.46035035  1
  Si  Si113  1  0.13588627  0.91666667  0.96035035  1
  Si  Si114  1  0.63588627  0.25000000  0.46035035  1
  Si  Si115  1  0.63588627  0.25000000  0.96035035  1
  Si  Si116  1  0.63588627  0.58333333  0.46035035  1
  Si  Si117  1  0.63588627  0.58333333  0.96035035  1
  Si  Si118  1  0.63588627  0.91666667  0.46035035  1
  Si  Si119  1  0.63588627  0.91666667  0.96035035  1
  Si  Si120  1  0.11411373  0.08333333  0.21035035  1
  Si  Si121  1  0.11411373  0.08333333  0.71035035  1
  Si  Si122  1  0.11411373  0.41666667  0.21035035  1
  Si  Si123  1  0.11411373  0.41666667  0.71035035  1
  Si  Si124  1  0.11411373  0.75000000  0.21035035  1
  Si  Si125  1  0.11411373  0.75000000  0.71035035  1
  Si  Si126  1  0.61411373  0.08333333  0.21035035  1
  Si  Si127  1  0.61411373  0.08333333  0.71035035  1
  Si  Si128  1  0.61411373  0.41666667  0.21035035  1
  Si  Si129  1  0.61411373  0.41666667  0.71035035  1
  Si  Si130  1  0.61411373  0.75000000  0.21035035  1
  Si  Si131  1  0.61411373  0.75000000  0.71035035  1
  Si  Si132  1  0.38588627  0.25000000  0.28964965  1
  Si  Si133  1  0.38588627  0.25000000  0.78964965  1
  Si  Si134  1  0.38588627  0.58333333  0.28964965  1
  Si  Si135  1  0.38588627  0.58333333  0.78964965  1
  Si  Si136  1  0.38588627  0.91666667  0.28964965  1
  Si  Si137  1  0.38588627  0.91666667  0.78964965  1
  Si  Si138  1  0.88588627  0.25000000  0.28964965  1
  Si  Si139  1  0.88588627  0.25000000  0.78964965  1
  Si  Si140  1  0.88588627  0.58333333  0.28964965  1
  Si  Si141  1  0.88588627  0.58333333  0.78964965  1
  Si  Si142  1  0.88588627  0.91666667  0.28964965  1
  Si  Si143  1  0.88588627  0.91666667  0.78964965  1
  O  O144  1  0.09570033  0.32778290  0.42506687  1
  O  O145  1  0.09570033  0.32778290  0.92506687  1
  O  O146  1  0.09570033  0.66111623  0.42506687  1
  O  O147  1  0.09570033  0.66111623  0.92506687  1
  O  O148  1  0.09570033  0.99444957  0.42506687  1
  O  O149  1  0.09570033  0.99444957  0.92506687  1
  O  O150  1  0.59570033  0.32778290  0.42506687  1
  O  O151  1  0.59570033  0.32778290  0.92506687  1
  O  O152  1  0.59570033  0.66111623  0.42506687  1
  O  O153  1  0.59570033  0.66111623  0.92506687  1
  O  O154  1  0.59570033  0.99444957  0.42506687  1
  O  O155  1  0.59570033  0.99444957  0.92506687  1
  O  O156  1  0.40429967  0.16111623  0.07493313  1
  O  O157  1  0.40429967  0.16111623  0.57493313  1
  O  O158  1  0.40429967  0.49444957  0.07493313  1
  O  O159  1  0.40429967  0.49444957  0.57493313  1
  O  O160  1  0.40429967  0.82778290  0.07493313  1
  O  O161  1  0.40429967  0.82778290  0.57493313  1
  O  O162  1  0.90429967  0.16111623  0.07493313  1
  O  O163  1  0.90429967  0.16111623  0.57493313  1
  O  O164  1  0.90429967  0.49444957  0.07493313  1
  O  O165  1  0.90429967  0.49444957  0.57493313  1
  O  O166  1  0.90429967  0.82778290  0.07493313  1
  O  O167  1  0.90429967  0.82778290  0.57493313  1
  O  O168  1  0.34570033  0.17221710  0.32493313  1
  O  O169  1  0.34570033  0.17221710  0.82493313  1
  O  O170  1  0.34570033  0.50555043  0.32493313  1
  O  O171  1  0.34570033  0.50555043  0.82493313  1
  O  O172  1  0.34570033  0.83888377  0.32493313  1
  O  O173  1  0.34570033  0.83888377  0.82493313  1
  O  O174  1  0.84570033  0.17221710  0.32493313  1
  O  O175  1  0.84570033  0.17221710  0.82493313  1
  O  O176  1  0.84570033  0.50555043  0.32493313  1
  O  O177  1  0.84570033  0.50555043  0.82493313  1
  O  O178  1  0.84570033  0.83888377  0.32493313  1
  O  O179  1  0.84570033  0.83888377  0.82493313  1
  O  O180  1  0.15429967  0.00555043  0.17506687  1
  O  O181  1  0.15429967  0.00555043  0.67506687  1
  O  O182  1  0.15429967  0.33888377  0.17506687  1
  O  O183  1  0.15429967  0.33888377  0.67506687  1
  O  O184  1  0.15429967  0.67221710  0.17506687  1
  O  O185  1  0.15429967  0.67221710  0.67506687  1
  O  O186  1  0.65429967  0.00555043  0.17506687  1
  O  O187  1  0.65429967  0.00555043  0.67506687  1
  O  O188  1  0.65429967  0.33888377  0.17506687  1
  O  O189  1  0.65429967  0.33888377  0.67506687  1
  O  O190  1  0.65429967  0.67221710  0.17506687  1
  O  O191  1  0.65429967  0.67221710  0.67506687  1
  O  O192  1  0.40429967  0.00555043  0.07493313  1
  O  O193  1  0.40429967  0.00555043  0.57493313  1
  O  O194  1  0.40429967  0.33888377  0.07493313  1
  O  O195  1  0.40429967  0.33888377  0.57493313  1
  O  O196  1  0.40429967  0.67221710  0.07493313  1
  O  O197  1  0.40429967  0.67221710  0.57493313  1
  O  O198  1  0.90429967  0.00555043  0.07493313  1
  O  O199  1  0.90429967  0.00555043  0.57493313  1
  O  O200  1  0.90429967  0.33888377  0.07493313  1
  O  O201  1  0.90429967  0.33888377  0.57493313  1
  O  O202  1  0.90429967  0.67221710  0.07493313  1
  O  O203  1  0.90429967  0.67221710  0.57493313  1
  O  O204  1  0.09570033  0.17221710  0.42506687  1
  O  O205  1  0.09570033  0.17221710  0.92506687  1
  O  O206  1  0.09570033  0.50555043  0.42506687  1
  O  O207  1  0.09570033  0.50555043  0.92506687  1
  O  O208  1  0.09570033  0.83888377  0.42506687  1
  O  O209  1  0.09570033  0.83888377  0.92506687  1
  O  O210  1  0.59570033  0.17221710  0.42506687  1
  O  O211  1  0.59570033  0.17221710  0.92506687  1
  O  O212  1  0.59570033  0.50555043  0.42506687  1
  O  O213  1  0.59570033  0.50555043  0.92506687  1
  O  O214  1  0.59570033  0.83888377  0.42506687  1
  O  O215  1  0.59570033  0.83888377  0.92506687  1
  O  O216  1  0.15429967  0.16111623  0.17506687  1
  O  O217  1  0.15429967  0.16111623  0.67506687  1
  O  O218  1  0.15429967  0.49444957  0.17506687  1
  O  O219  1  0.15429967  0.49444957  0.67506687  1
  O  O220  1  0.15429967  0.82778290  0.17506687  1
  O  O221  1  0.15429967  0.82778290  0.67506687  1
  O  O222  1  0.65429967  0.16111623  0.17506687  1
  O  O223  1  0.65429967  0.16111623  0.67506687  1
  O  O224  1  0.65429967  0.49444957  0.17506687  1
  O  O225  1  0.65429967  0.49444957  0.67506687  1
  O  O226  1  0.65429967  0.82778290  0.17506687  1
  O  O227  1  0.65429967  0.82778290  0.67506687  1
  O  O228  1  0.34570033  0.32778290  0.32493313  1
  O  O229  1  0.34570033  0.32778290  0.82493313  1
  O  O230  1  0.34570033  0.66111623  0.32493313  1
  O  O231  1  0.34570033  0.66111623  0.82493313  1
  O  O232  1  0.34570033  0.99444957  0.32493313  1
  O  O233  1  0.34570033  0.99444957  0.82493313  1
  O  O234  1  0.84570033  0.32778290  0.32493313  1
  O  O235  1  0.84570033  0.32778290  0.82493313  1
  O  O236  1  0.84570033  0.66111623  0.32493313  1
  O  O237  1  0.84570033  0.66111623  0.82493313  1
  O  O238  1  0.84570033  0.99444957  0.32493313  1
  O  O239  1  0.84570033  0.99444957  0.82493313  1
  O  O240  1  0.40368465  0.08333333  0.46389967  1
  O  O241  1  0.40368465  0.08333333  0.96389967  1
  O  O242  1  0.40368465  0.41666667  0.46389967  1
  O  O243  1  0.40368465  0.41666667  0.96389967  1
  O  O244  1  0.40368465  0.75000000  0.46389967  1
  O  O245  1  0.40368465  0.75000000  0.96389967  1
  O  O246  1  0.90368465  0.08333333  0.46389967  1
  O  O247  1  0.90368465  0.08333333  0.96389967  1
  O  O248  1  0.90368465  0.41666667  0.46389967  1
  O  O249  1  0.90368465  0.41666667  0.96389967  1
  O  O250  1  0.90368465  0.75000000  0.46389967  1
  O  O251  1  0.90368465  0.75000000  0.96389967  1
  O  O252  1  0.09631535  0.25000000  0.03610033  1
  O  O253  1  0.09631535  0.25000000  0.53610033  1
  O  O254  1  0.09631535  0.58333333  0.03610033  1
  O  O255  1  0.09631535  0.58333333  0.53610033  1
  O  O256  1  0.09631535  0.91666667  0.03610033  1
  O  O257  1  0.09631535  0.91666667  0.53610033  1
  O  O258  1  0.59631535  0.25000000  0.03610033  1
  O  O259  1  0.59631535  0.25000000  0.53610033  1
  O  O260  1  0.59631535  0.58333333  0.03610033  1
  O  O261  1  0.59631535  0.58333333  0.53610033  1
  O  O262  1  0.59631535  0.91666667  0.03610033  1
  O  O263  1  0.59631535  0.91666667  0.53610033  1
  O  O264  1  0.15368465  0.08333333  0.28610033  1
  O  O265  1  0.15368465  0.08333333  0.78610033  1
  O  O266  1  0.15368465  0.41666667  0.28610033  1
  O  O267  1  0.15368465  0.41666667  0.78610033  1
  O  O268  1  0.15368465  0.75000000  0.28610033  1
  O  O269  1  0.15368465  0.75000000  0.78610033  1
  O  O270  1  0.65368465  0.08333333  0.28610033  1
  O  O271  1  0.65368465  0.08333333  0.78610033  1
  O  O272  1  0.65368465  0.41666667  0.28610033  1
  O  O273  1  0.65368465  0.41666667  0.78610033  1
  O  O274  1  0.65368465  0.75000000  0.28610033  1
  O  O275  1  0.65368465  0.75000000  0.78610033  1
  O  O276  1  0.34631535  0.25000000  0.21389967  1
  O  O277  1  0.34631535  0.25000000  0.71389967  1
  O  O278  1  0.34631535  0.58333333  0.21389967  1
  O  O279  1  0.34631535  0.58333333  0.71389967  1
  O  O280  1  0.34631535  0.91666667  0.21389967  1
  O  O281  1  0.34631535  0.91666667  0.71389967  1
  O  O282  1  0.84631535  0.25000000  0.21389967  1
  O  O283  1  0.84631535  0.25000000  0.71389967  1
  O  O284  1  0.84631535  0.58333333  0.21389967  1
  O  O285  1  0.84631535  0.58333333  0.71389967  1
  O  O286  1  0.84631535  0.91666667  0.21389967  1
  O  O287  1  0.84631535  0.91666667  0.71389967  1
  O  O288  1  0.49503919  0.25000000  0.29215267  1
  O  O289  1  0.49503919  0.25000000  0.79215267  1
  O  O290  1  0.49503919  0.58333333  0.29215267  1
  O  O291  1  0.49503919  0.58333333  0.79215267  1
  O  O292  1  0.49503919  0.91666667  0.29215267  1
  O  O293  1  0.49503919  0.91666667  0.79215267  1
  O  O294  1  0.99503919  0.25000000  0.29215267  1
  O  O295  1  0.99503919  0.25000000  0.79215267  1
  O  O296  1  0.99503919  0.58333333  0.29215267  1
  O  O297  1  0.99503919  0.58333333  0.79215267  1
  O  O298  1  0.99503919  0.91666667  0.29215267  1
  O  O299  1  0.99503919  0.91666667  0.79215267  1
  O  O300  1  0.00496081  0.08333333  0.20784733  1
  O  O301  1  0.00496081  0.08333333  0.70784733  1
  O  O302  1  0.00496081  0.41666667  0.20784733  1
  O  O303  1  0.00496081  0.41666667  0.70784733  1
  O  O304  1  0.00496081  0.75000000  0.20784733  1
  O  O305  1  0.00496081  0.75000000  0.70784733  1
  O  O306  1  0.50496081  0.08333333  0.20784733  1
  O  O307  1  0.50496081  0.08333333  0.70784733  1
  O  O308  1  0.50496081  0.41666667  0.20784733  1
  O  O309  1  0.50496081  0.41666667  0.70784733  1
  O  O310  1  0.50496081  0.75000000  0.20784733  1
  O  O311  1  0.50496081  0.75000000  0.70784733  1
  O  O312  1  0.24503919  0.25000000  0.45784733  1
  O  O313  1  0.24503919  0.25000000  0.95784733  1
  O  O314  1  0.24503919  0.58333333  0.45784733  1
  O  O315  1  0.24503919  0.58333333  0.95784733  1
  O  O316  1  0.24503919  0.91666667  0.45784733  1
  O  O317  1  0.24503919  0.91666667  0.95784733  1
  O  O318  1  0.74503919  0.25000000  0.45784733  1
  O  O319  1  0.74503919  0.25000000  0.95784733  1
  O  O320  1  0.74503919  0.58333333  0.45784733  1
  O  O321  1  0.74503919  0.58333333  0.95784733  1
  O  O322  1  0.74503919  0.91666667  0.45784733  1
  O  O323  1  0.74503919  0.91666667  0.95784733  1
  O  O324  1  0.25496081  0.08333333  0.04215267  1
  O  O325  1  0.25496081  0.08333333  0.54215267  1
  O  O326  1  0.25496081  0.41666667  0.04215267  1
  O  O327  1  0.25496081  0.41666667  0.54215267  1
  O  O328  1  0.25496081  0.75000000  0.04215267  1
  O  O329  1  0.25496081  0.75000000  0.54215267  1
  O  O330  1  0.75496081  0.08333333  0.04215267  1
  O  O331  1  0.75496081  0.08333333  0.54215267  1
  O  O332  1  0.75496081  0.41666667  0.04215267  1
  O  O333  1  0.75496081  0.41666667  0.54215267  1
  O  O334  1  0.75496081  0.75000000  0.04215267  1
  O  O335  1  0.75496081  0.75000000  0.54215267  1
