# generated using pymatgen
data_Li2CaGeO4
_symmetry_space_group_name_H-M   'P 1'
_cell_length_a   14.53743399
_cell_length_b   14.53743399
_cell_length_c   13.15720862
_cell_angle_alpha   90.00000000
_cell_angle_beta   90.00000000
_cell_angle_gamma   90.00000000
_symmetry_Int_Tables_number   1
_chemical_formula_structural   Li2CaGeO4
_chemical_formula_sum   'Li64 Ca32 Ge32 O128'
_cell_volume   2780.60482714
_cell_formula_units_Z   32
loop_
 _symmetry_equiv_pos_site_id
 _symmetry_equiv_pos_as_xyz
  1  'x, y, z'
loop_
 _atom_site_type_symbol
 _atom_site_label
 _atom_site_symmetry_multiplicity
 _atom_site_fract_x
 _atom_site_fract_y
 _atom_site_fract_z
 _atom_site_occupancy
  Li  Li0  1  0.62500000  0.62500000  0.12500000  1
  Li  Li1  1  0.62500000  0.62500000  0.62500000  1
  Li  Li2  1  0.12500000  0.62500000  0.12500000  1
  Li  Li3  1  0.12500000  0.62500000  0.62500000  1
  Li  Li4  1  0.37500000  0.37500000  0.12500000  1
  Li  Li5  1  0.37500000  0.37500000  0.62500000  1
  Li  Li6  1  0.62500000  0.12500000  0.12500000  1
  Li  Li7  1  0.62500000  0.12500000  0.62500000  1
  Li  Li8  1  -0.12500000  0.37500000  0.12500000  1
  Li  Li9  1  -0.12500000  0.37500000  0.62500000  1
  Li  Li10  1  0.12500000  0.12500000  0.12500000  1
  Li  Li11  1  0.12500000  0.12500000  0.62500000  1
  Li  Li12  1  0.37500000  -0.12500000  0.12500000  1
  Li  Li13  1  0.37500000  -0.12500000  0.62500000  1
  Li  Li14  1  -0.12500000  -0.12500000  0.12500000  1
  Li  Li15  1  -0.12500000  -0.12500000  0.62500000  1
  Li  Li16  1  0.62500000  0.37500000  0.37500000  1
  Li  Li17  1  0.62500000  0.37500000  0.87500000  1
  Li  Li18  1  0.12500000  0.37500000  0.37500000  1
  Li  Li19  1  0.12500000  0.37500000  0.87500000  1
  Li  Li20  1  0.37500000  0.12500000  0.37500000  1
  Li  Li21  1  0.37500000  0.12500000  0.87500000  1
  Li  Li22  1  0.62500000  -0.12500000  0.37500000  1
  Li  Li23  1  0.62500000  -0.12500000  0.87500000  1
  Li  Li24  1  -0.12500000  0.12500000  0.37500000  1
  Li  Li25  1  -0.12500000  0.12500000  0.87500000  1
  Li  Li26  1  0.12500000  -0.12500000  0.37500000  1
  Li  Li27  1  0.12500000  -0.12500000  0.87500000  1
  Li  Li28  1  0.37500000  -0.37500000  0.37500000  1
  Li  Li29  1  0.37500000  -0.37500000  0.87500000  1
  Li  Li30  1  -0.12500000  -0.37500000  0.37500000  1
  Li  Li31  1  -0.12500000  -0.37500000  0.87500000  1
  Li  Li32  1  0.87500000  0.62500000  0.12500000  1
  Li  Li33  1  0.87500000  0.62500000  0.62500000  1
  Li  Li34  1  0.37500000  0.62500000  0.12500000  1
  Li  Li35  1  0.37500000  0.62500000  0.62500000  1
  Li  Li36  1  0.62500000  0.37500000  0.12500000  1
  Li  Li37  1  0.62500000  0.37500000  0.62500000  1
  Li  Li38  1  0.87500000  0.12500000  0.12500000  1
  Li  Li39  1  0.87500000  0.12500000  0.62500000  1
  Li  Li40  1  0.12500000  0.37500000  0.12500000  1
  Li  Li41  1  0.12500000  0.37500000  0.62500000  1
  Li  Li42  1  0.37500000  0.12500000  0.12500000  1
  Li  Li43  1  0.37500000  0.12500000  0.62500000  1
  Li  Li44  1  0.62500000  -0.12500000  0.12500000  1
  Li  Li45  1  0.62500000  -0.12500000  0.62500000  1
  Li  Li46  1  0.12500000  -0.12500000  0.12500000  1
  Li  Li47  1  0.12500000  -0.12500000  0.62500000  1
  Li  Li48  1  0.87500000  0.37500000  0.37500000  1
  Li  Li49  1  0.87500000  0.37500000  0.87500000  1
  Li  Li50  1  0.37500000  0.37500000  0.37500000  1
  Li  Li51  1  0.37500000  0.37500000  0.87500000  1
  Li  Li52  1  0.62500000  0.12500000  0.37500000  1
  Li  Li53  1  0.62500000  0.12500000  0.87500000  1
  Li  Li54  1  0.87500000  -0.12500000  0.37500000  1
  Li  Li55  1  0.87500000  -0.12500000  0.87500000  1
  Li  Li56  1  0.12500000  0.12500000  0.37500000  1
  Li  Li57  1  0.12500000  0.12500000  0.87500000  1
  Li  Li58  1  0.37500000  -0.12500000  0.37500000  1
  Li  Li59  1  0.37500000  -0.12500000  0.87500000  1
  Li  Li60  1  0.62500000  -0.37500000  0.37500000  1
  Li  Li61  1  0.62500000  -0.37500000  0.87500000  1
  Li  Li62  1  0.12500000  -0.37500000  0.37500000  1
  Li  Li63  1  0.12500000  -0.37500000  0.87500000  1
  Ca  Ca64  1  0.75000000  0.75000000  0.25000000  1
  Ca  Ca65  1  0.75000000  0.75000000  0.75000000  1
  Ca  Ca66  1  0.25000000  0.75000000  0.25000000  1
  Ca  Ca67  1  0.25000000  0.75000000  0.75000000  1
  Ca  Ca68  1  0.50000000  0.50000000  0.25000000  1
  Ca  Ca69  1  0.50000000  0.50000000  0.75000000  1
  Ca  Ca70  1  0.75000000  0.25000000  0.25000000  1
  Ca  Ca71  1  0.75000000  0.25000000  0.75000000  1
  Ca  Ca72  1  0.00000000  0.50000000  0.25000000  1
  Ca  Ca73  1  0.00000000  0.50000000  0.75000000  1
  Ca  Ca74  1  0.25000000  0.25000000  0.25000000  1
  Ca  Ca75  1  0.25000000  0.25000000  0.75000000  1
  Ca  Ca76  1  0.50000000  0.00000000  0.25000000  1
  Ca  Ca77  1  0.50000000  0.00000000  0.75000000  1
  Ca  Ca78  1  0.00000000  0.00000000  0.25000000  1
  Ca  Ca79  1  0.00000000  0.00000000  0.75000000  1
  Ca  Ca80  1  0.75000000  0.50000000  0.50000000  1
  Ca  Ca81  1  0.75000000  0.50000000  1.00000000  1
  Ca  Ca82  1  0.25000000  0.50000000  0.50000000  1
  Ca  Ca83  1  0.25000000  0.50000000  1.00000000  1
  Ca  Ca84  1  0.50000000  0.25000000  0.50000000  1
  Ca  Ca85  1  0.50000000  0.25000000  1.00000000  1
  Ca  Ca86  1  0.75000000  -0.00000000  0.50000000  1
  Ca  Ca87  1  0.75000000  -0.00000000  1.00000000  1
  Ca  Ca88  1  0.00000000  0.25000000  0.50000000  1
  Ca  Ca89  1  0.00000000  0.25000000  1.00000000  1
  Ca  Ca90  1  0.25000000  0.00000000  0.50000000  1
  Ca  Ca91  1  0.25000000  0.00000000  1.00000000  1
  Ca  Ca92  1  0.50000000  -0.25000000  0.50000000  1
  Ca  Ca93  1  0.50000000  -0.25000000  1.00000000  1
  Ca  Ca94  1  0.00000000  -0.25000000  0.50000000  1
  Ca  Ca95  1  0.00000000  -0.25000000  1.00000000  1
  Ge  Ge96  1  0.75000000  0.75000000  0.00000000  1
  Ge  Ge97  1  0.75000000  0.75000000  0.50000000  1
  Ge  Ge98  1  0.25000000  0.75000000  0.00000000  1
  Ge  Ge99  1  0.25000000  0.75000000  0.50000000  1
  Ge  Ge100  1  0.50000000  0.50000000  0.00000000  1
  Ge  Ge101  1  0.50000000  0.50000000  0.50000000  1
  Ge  Ge102  1  0.75000000  0.25000000  0.00000000  1
  Ge  Ge103  1  0.75000000  0.25000000  0.50000000  1
  Ge  Ge104  1  0.00000000  0.50000000  0.00000000  1
  Ge  Ge105  1  0.00000000  0.50000000  0.50000000  1
  Ge  Ge106  1  0.25000000  0.25000000  0.00000000  1
  Ge  Ge107  1  0.25000000  0.25000000  0.50000000  1
  Ge  Ge108  1  0.50000000  0.00000000  0.00000000  1
  Ge  Ge109  1  0.50000000  0.00000000  0.50000000  1
  Ge  Ge110  1  0.00000000  0.00000000  0.00000000  1
  Ge  Ge111  1  0.00000000  0.00000000  0.50000000  1
  Ge  Ge112  1  0.75000000  0.50000000  0.25000000  1
  Ge  Ge113  1  0.75000000  0.50000000  0.75000000  1
  Ge  Ge114  1  0.25000000  0.50000000  0.25000000  1
  Ge  Ge115  1  0.25000000  0.50000000  0.75000000  1
  Ge  Ge116  1  0.50000000  0.25000000  0.25000000  1
  Ge  Ge117  1  0.50000000  0.25000000  0.75000000  1
  Ge  Ge118  1  0.75000000  -0.00000000  0.25000000  1
  Ge  Ge119  1  0.75000000  -0.00000000  0.75000000  1
  Ge  Ge120  1  0.00000000  0.25000000  0.25000000  1
  Ge  Ge121  1  0.00000000  0.25000000  0.75000000  1
  Ge  Ge122  1  0.25000000  0.00000000  0.25000000  1
  Ge  Ge123  1  0.25000000  0.00000000  0.75000000  1
  Ge  Ge124  1  0.50000000  -0.25000000  0.25000000  1
  Ge  Ge125  1  0.50000000  -0.25000000  0.75000000  1
  Ge  Ge126  1  0.00000000  -0.25000000  0.25000000  1
  Ge  Ge127  1  0.00000000  -0.25000000  0.75000000  1
  O  O128  1  0.89723456  0.75000000  0.32547984  1
  O  O129  1  0.89723456  0.75000000  0.82547984  1
  O  O130  1  0.39723456  0.75000000  0.32547984  1
  O  O131  1  0.39723456  0.75000000  0.82547984  1
  O  O132  1  0.64723456  0.50000000  0.32547984  1
  O  O133  1  0.64723456  0.50000000  0.82547984  1
  O  O134  1  0.89723456  0.25000000  0.32547984  1
  O  O135  1  0.89723456  0.25000000  0.82547984  1
  O  O136  1  0.14723456  0.50000000  0.32547984  1
  O  O137  1  0.14723456  0.50000000  0.82547984  1
  O  O138  1  0.39723456  0.25000000  0.32547984  1
  O  O139  1  0.39723456  0.25000000  0.82547984  1
  O  O140  1  0.64723456  -0.00000000  0.32547984  1
  O  O141  1  0.64723456  -0.00000000  0.82547984  1
  O  O142  1  0.14723456  0.00000000  0.32547984  1
  O  O143  1  0.14723456  0.00000000  0.82547984  1
  O  O144  1  0.89723456  0.50000000  0.57547984  1
  O  O145  1  0.89723456  0.50000000  1.07547984  1
  O  O146  1  0.39723456  0.50000000  0.57547984  1
  O  O147  1  0.39723456  0.50000000  1.07547984  1
  O  O148  1  0.64723456  0.25000000  0.57547984  1
  O  O149  1  0.64723456  0.25000000  1.07547984  1
  O  O150  1  0.89723456  -0.00000000  0.57547984  1
  O  O151  1  0.89723456  -0.00000000  1.07547984  1
  O  O152  1  0.14723456  0.25000000  0.57547984  1
  O  O153  1  0.14723456  0.25000000  1.07547984  1
  O  O154  1  0.39723456  -0.00000000  0.57547984  1
  O  O155  1  0.39723456  -0.00000000  1.07547984  1
  O  O156  1  0.64723456  -0.25000000  0.57547984  1
  O  O157  1  0.64723456  -0.25000000  1.07547984  1
  O  O158  1  0.14723456  -0.25000000  0.57547984  1
  O  O159  1  0.14723456  -0.25000000  1.07547984  1
  O  O160  1  0.60276544  0.75000000  0.32547984  1
  O  O161  1  0.60276544  0.75000000  0.82547984  1
  O  O162  1  0.10276544  0.75000000  0.32547984  1
  O  O163  1  0.10276544  0.75000000  0.82547984  1
  O  O164  1  0.35276544  0.50000000  0.32547984  1
  O  O165  1  0.35276544  0.50000000  0.82547984  1
  O  O166  1  0.60276544  0.25000000  0.32547984  1
  O  O167  1  0.60276544  0.25000000  0.82547984  1
  O  O168  1  -0.14723456  0.50000000  0.32547984  1
  O  O169  1  -0.14723456  0.50000000  0.82547984  1
  O  O170  1  0.10276544  0.25000000  0.32547984  1
  O  O171  1  0.10276544  0.25000000  0.82547984  1
  O  O172  1  0.35276544  -0.00000000  0.32547984  1
  O  O173  1  0.35276544  -0.00000000  0.82547984  1
  O  O174  1  -0.14723456  -0.00000000  0.32547984  1
  O  O175  1  -0.14723456  -0.00000000  0.82547984  1
  O  O176  1  0.60276544  0.50000000  0.57547984  1
  O  O177  1  0.60276544  0.50000000  1.07547984  1
  O  O178  1  0.10276544  0.50000000  0.57547984  1
  O  O179  1  0.10276544  0.50000000  1.07547984  1
  O  O180  1  0.35276544  0.25000000  0.57547984  1
  O  O181  1  0.35276544  0.25000000  1.07547984  1
  O  O182  1  0.60276544  -0.00000000  0.57547984  1
  O  O183  1  0.60276544  -0.00000000  1.07547984  1
  O  O184  1  -0.14723456  0.25000000  0.57547984  1
  O  O185  1  -0.14723456  0.25000000  1.07547984  1
  O  O186  1  0.10276544  0.00000000  0.57547984  1
  O  O187  1  0.10276544  0.00000000  1.07547984  1
  O  O188  1  0.35276544  -0.25000000  0.57547984  1
  O  O189  1  0.35276544  -0.25000000  1.07547984  1
  O  O190  1  -0.14723456  -0.25000000  0.57547984  1
  O  O191  1  -0.14723456  -0.25000000  1.07547984  1
  O  O192  1  0.75000000  0.60276544  0.17452016  1
  O  O193  1  0.75000000  0.60276544  0.67452016  1
  O  O194  1  0.25000000  0.60276544  0.17452016  1
  O  O195  1  0.25000000  0.60276544  0.67452016  1
  O  O196  1  0.50000000  0.35276544  0.17452016  1
  O  O197  1  0.50000000  0.35276544  0.67452016  1
  O  O198  1  0.75000000  0.10276544  0.17452016  1
  O  O199  1  0.75000000  0.10276544  0.67452016  1
  O  O200  1  0.00000000  0.35276544  0.17452016  1
  O  O201  1  0.00000000  0.35276544  0.67452016  1
  O  O202  1  0.25000000  0.10276544  0.17452016  1
  O  O203  1  0.25000000  0.10276544  0.67452016  1
  O  O204  1  0.50000000  -0.14723456  0.17452016  1
  O  O205  1  0.50000000  -0.14723456  0.67452016  1
  O  O206  1  0.00000000  -0.14723456  0.17452016  1
  O  O207  1  0.00000000  -0.14723456  0.67452016  1
  O  O208  1  0.75000000  0.35276544  0.42452016  1
  O  O209  1  0.75000000  0.35276544  0.92452016  1
  O  O210  1  0.25000000  0.35276544  0.42452016  1
  O  O211  1  0.25000000  0.35276544  0.92452016  1
  O  O212  1  0.50000000  0.10276544  0.42452016  1
  O  O213  1  0.50000000  0.10276544  0.92452016  1
  O  O214  1  0.75000000  -0.14723456  0.42452016  1
  O  O215  1  0.75000000  -0.14723456  0.92452016  1
  O  O216  1  -0.00000000  0.10276544  0.42452016  1
  O  O217  1  -0.00000000  0.10276544  0.92452016  1
  O  O218  1  0.25000000  -0.14723456  0.42452016  1
  O  O219  1  0.25000000  -0.14723456  0.92452016  1
  O  O220  1  0.50000000  -0.39723456  0.42452016  1
  O  O221  1  0.50000000  -0.39723456  0.92452016  1
  O  O222  1  0.00000000  -0.39723456  0.42452016  1
  O  O223  1  0.00000000  -0.39723456  0.92452016  1
  O  O224  1  0.75000000  0.64723456  -0.07547984  1
  O  O225  1  0.75000000  0.64723456  0.42452016  1
  O  O226  1  0.25000000  0.64723456  -0.07547984  1
  O  O227  1  0.25000000  0.64723456  0.42452016  1
  O  O228  1  0.50000000  0.39723456  -0.07547984  1
  O  O229  1  0.50000000  0.39723456  0.42452016  1
  O  O230  1  0.75000000  0.14723456  -0.07547984  1
  O  O231  1  0.75000000  0.14723456  0.42452016  1
  O  O232  1  -0.00000000  0.39723456  -0.07547984  1
  O  O233  1  -0.00000000  0.39723456  0.42452016  1
  O  O234  1  0.25000000  0.14723456  -0.07547984  1
  O  O235  1  0.25000000  0.14723456  0.42452016  1
  O  O236  1  0.50000000  -0.10276544  -0.07547984  1
  O  O237  1  0.50000000  -0.10276544  0.42452016  1
  O  O238  1  -0.00000000  -0.10276544  -0.07547984  1
  O  O239  1  -0.00000000  -0.10276544  0.42452016  1
  O  O240  1  0.75000000  0.39723456  0.17452016  1
  O  O241  1  0.75000000  0.39723456  0.67452016  1
  O  O242  1  0.25000000  0.39723456  0.17452016  1
  O  O243  1  0.25000000  0.39723456  0.67452016  1
  O  O244  1  0.50000000  0.14723456  0.17452016  1
  O  O245  1  0.50000000  0.14723456  0.67452016  1
  O  O246  1  0.75000000  -0.10276544  0.17452016  1
  O  O247  1  0.75000000  -0.10276544  0.67452016  1
  O  O248  1  -0.00000000  0.14723456  0.17452016  1
  O  O249  1  -0.00000000  0.14723456  0.67452016  1
  O  O250  1  0.25000000  -0.10276544  0.17452016  1
  O  O251  1  0.25000000  -0.10276544  0.67452016  1
  O  O252  1  0.50000000  -0.35276544  0.17452016  1
  O  O253  1  0.50000000  -0.35276544  0.67452016  1
  O  O254  1  -0.00000000  -0.35276544  0.17452016  1
  O  O255  1  -0.00000000  -0.35276544  0.67452016  1
