# generated using pymatgen
data_Ba(CuO)2
_symmetry_space_group_name_H-M   'P 1'
_cell_length_a   11.32847410
_cell_length_b   11.32847410
_cell_length_c   10.05370012
_cell_angle_alpha   90.00000000
_cell_angle_beta   90.00000000
_cell_angle_gamma   90.00000000
_symmetry_Int_Tables_number   1
_chemical_formula_structural   Ba(CuO)2
_chemical_formula_sum   'Ba16 Cu32 O32'
_cell_volume   1290.23482162
_cell_formula_units_Z   16
loop_
 _symmetry_equiv_pos_site_id
 _symmetry_equiv_pos_as_xyz
  1  'x, y, z'
loop_
 _atom_site_type_symbol
 _atom_site_label
 _atom_site_symmetry_multiplicity
 _atom_site_fract_x
 _atom_site_fract_y
 _atom_site_fract_z
 _atom_site_occupancy
  Ba  Ba0  1  0.00000000  0.50000000  0.00000000  1
  Ba  Ba1  1  0.50000000  0.50000000  0.00000000  1
  Ba  Ba2  1  0.00000000  0.00000000  0.00000000  1
  Ba  Ba3  1  0.50000000  0.00000000  0.00000000  1
  Ba  Ba4  1  0.25000000  0.25000000  0.50000000  1
  Ba  Ba5  1  0.75000000  0.25000000  0.50000000  1
  Ba  Ba6  1  0.25000000  -0.25000000  0.50000000  1
  Ba  Ba7  1  0.75000000  -0.25000000  0.50000000  1
  Ba  Ba8  1  0.25000000  0.50000000  0.25000000  1
  Ba  Ba9  1  0.75000000  0.50000000  0.25000000  1
  Ba  Ba10  1  0.25000000  -0.00000000  0.25000000  1
  Ba  Ba11  1  0.75000000  -0.00000000  0.25000000  1
  Ba  Ba12  1  0.50000000  0.25000000  0.75000000  1
  Ba  Ba13  1  1.00000000  0.25000000  0.75000000  1
  Ba  Ba14  1  0.50000000  -0.25000000  0.75000000  1
  Ba  Ba15  1  1.00000000  -0.25000000  0.75000000  1
  Cu  Cu16  1  -0.00000000  0.37500000  0.37500000  1
  Cu  Cu17  1  0.50000000  0.37500000  0.37500000  1
  Cu  Cu18  1  -0.00000000  -0.12500000  0.37500000  1
  Cu  Cu19  1  0.50000000  -0.12500000  0.37500000  1
  Cu  Cu20  1  0.25000000  0.12500000  0.87500000  1
  Cu  Cu21  1  0.75000000  0.12500000  0.87500000  1
  Cu  Cu22  1  0.25000000  -0.37500000  0.87500000  1
  Cu  Cu23  1  0.75000000  -0.37500000  0.87500000  1
  Cu  Cu24  1  0.12500000  0.50000000  0.62500000  1
  Cu  Cu25  1  0.62500000  0.50000000  0.62500000  1
  Cu  Cu26  1  0.12500000  -0.00000000  0.62500000  1
  Cu  Cu27  1  0.62500000  -0.00000000  0.62500000  1
  Cu  Cu28  1  0.37500000  0.25000000  1.12500000  1
  Cu  Cu29  1  0.87500000  0.25000000  1.12500000  1
  Cu  Cu30  1  0.37500000  -0.25000000  1.12500000  1
  Cu  Cu31  1  0.87500000  -0.25000000  1.12500000  1
  Cu  Cu32  1  0.25000000  0.37500000  -0.12500000  1
  Cu  Cu33  1  0.75000000  0.37500000  -0.12500000  1
  Cu  Cu34  1  0.25000000  -0.12500000  -0.12500000  1
  Cu  Cu35  1  0.75000000  -0.12500000  -0.12500000  1
  Cu  Cu36  1  0.50000000  0.12500000  0.37500000  1
  Cu  Cu37  1  1.00000000  0.12500000  0.37500000  1
  Cu  Cu38  1  0.50000000  -0.37500000  0.37500000  1
  Cu  Cu39  1  1.00000000  -0.37500000  0.37500000  1
  Cu  Cu40  1  0.12500000  0.25000000  0.12500000  1
  Cu  Cu41  1  0.62500000  0.25000000  0.12500000  1
  Cu  Cu42  1  0.12500000  -0.25000000  0.12500000  1
  Cu  Cu43  1  0.62500000  -0.25000000  0.12500000  1
  Cu  Cu44  1  0.37500000  0.00000000  0.62500000  1
  Cu  Cu45  1  0.87500000  0.00000000  0.62500000  1
  Cu  Cu46  1  0.37500000  -0.50000000  0.62500000  1
  Cu  Cu47  1  0.87500000  -0.50000000  0.62500000  1
  O  O48  1  0.00000000  0.50000000  0.73793941  1
  O  O49  1  0.50000000  0.50000000  0.73793941  1
  O  O50  1  0.00000000  0.00000000  0.73793941  1
  O  O51  1  0.50000000  0.00000000  0.73793941  1
  O  O52  1  0.25000000  0.25000000  1.23793941  1
  O  O53  1  0.75000000  0.25000000  1.23793941  1
  O  O54  1  0.25000000  -0.25000000  1.23793941  1
  O  O55  1  0.75000000  -0.25000000  1.23793941  1
  O  O56  1  0.00000000  0.25000000  0.48793941  1
  O  O57  1  0.50000000  0.25000000  0.48793941  1
  O  O58  1  0.00000000  -0.25000000  0.48793941  1
  O  O59  1  0.50000000  -0.25000000  0.48793941  1
  O  O60  1  0.25000000  0.00000000  0.98793941  1
  O  O61  1  0.75000000  0.00000000  0.98793941  1
  O  O62  1  0.25000000  -0.50000000  0.98793941  1
  O  O63  1  0.75000000  -0.50000000  0.98793941  1
  O  O64  1  0.00000000  0.25000000  0.01206059  1
  O  O65  1  0.50000000  0.25000000  0.01206059  1
  O  O66  1  0.00000000  -0.25000000  0.01206059  1
  O  O67  1  0.50000000  -0.25000000  0.01206059  1
  O  O68  1  0.25000000  0.00000000  0.51206059  1
  O  O69  1  0.75000000  0.00000000  0.51206059  1
  O  O70  1  0.25000000  -0.50000000  0.51206059  1
  O  O71  1  0.75000000  -0.50000000  0.51206059  1
  O  O72  1  -0.00000000  0.50000000  0.26206059  1
  O  O73  1  0.50000000  0.50000000  0.26206059  1
  O  O74  1  -0.00000000  -0.00000000  0.26206059  1
  O  O75  1  0.50000000  -0.00000000  0.26206059  1
  O  O76  1  0.25000000  0.25000000  0.76206059  1
  O  O77  1  0.75000000  0.25000000  0.76206059  1
  O  O78  1  0.25000000  -0.25000000  0.76206059  1
  O  O79  1  0.75000000  -0.25000000  0.76206059  1
