# generated using pymatgen
data_Ge3Sb2O9
_symmetry_space_group_name_H-M   'P 1'
_cell_length_a   14.09953528
_cell_length_b   14.09953528
_cell_length_c   9.83230727
_cell_angle_alpha   90.00000000
_cell_angle_beta   90.00000000
_cell_angle_gamma   120.00000000
_symmetry_Int_Tables_number   1
_chemical_formula_structural   Ge3Sb2O9
_chemical_formula_sum   'Ge24 Sb16 O72'
_cell_volume   1692.76110356
_cell_formula_units_Z   8
loop_
 _symmetry_equiv_pos_site_id
 _symmetry_equiv_pos_as_xyz
  1  'x, y, z'
loop_
 _atom_site_type_symbol
 _atom_site_label
 _atom_site_symmetry_multiplicity
 _atom_site_fract_x
 _atom_site_fract_y
 _atom_site_fract_z
 _atom_site_occupancy
  Ge  Ge0  1  0.45999904  0.35346387  0.75000000  1
  Ge  Ge1  1  0.45999904  0.85346387  0.75000000  1
  Ge  Ge2  1  0.95999904  0.35346387  0.75000000  1
  Ge  Ge3  1  0.95999904  0.85346387  0.75000000  1
  Ge  Ge4  1  0.10653517  0.45999904  0.25000000  1
  Ge  Ge5  1  0.10653517  0.95999904  0.25000000  1
  Ge  Ge6  1  0.60653517  0.45999904  0.25000000  1
  Ge  Ge7  1  0.60653517  0.95999904  0.25000000  1
  Ge  Ge8  1  0.35346387  0.39346483  0.25000000  1
  Ge  Ge9  1  0.35346387  0.89346483  0.25000000  1
  Ge  Ge10  1  0.85346387  0.39346483  0.25000000  1
  Ge  Ge11  1  0.85346387  0.89346483  0.25000000  1
  Ge  Ge12  1  0.14653613  0.10653517  0.75000000  1
  Ge  Ge13  1  0.14653613  0.60653517  0.75000000  1
  Ge  Ge14  1  0.64653613  0.10653517  0.75000000  1
  Ge  Ge15  1  0.64653613  0.60653517  0.75000000  1
  Ge  Ge16  1  0.04000096  0.14653613  0.25000000  1
  Ge  Ge17  1  0.04000096  0.64653613  0.25000000  1
  Ge  Ge18  1  0.54000096  0.14653613  0.25000000  1
  Ge  Ge19  1  0.54000096  0.64653613  0.25000000  1
  Ge  Ge20  1  0.39346483  0.04000096  0.75000000  1
  Ge  Ge21  1  0.39346483  0.54000096  0.75000000  1
  Ge  Ge22  1  0.89346483  0.04000096  0.75000000  1
  Ge  Ge23  1  0.89346483  0.54000096  0.75000000  1
  Sb  Sb24  1  0.16666667  0.33333333  0.98432256  1
  Sb  Sb25  1  0.16666667  0.83333333  0.98432256  1
  Sb  Sb26  1  0.66666667  0.33333333  0.98432256  1
  Sb  Sb27  1  0.66666667  0.83333333  0.98432256  1
  Sb  Sb28  1  0.33333333  0.16666667  0.48432256  1
  Sb  Sb29  1  0.33333333  0.66666667  0.48432256  1
  Sb  Sb30  1  0.83333333  0.16666667  0.48432256  1
  Sb  Sb31  1  0.83333333  0.66666667  0.48432256  1
  Sb  Sb32  1  0.33333333  0.16666667  0.01567744  1
  Sb  Sb33  1  0.33333333  0.66666667  0.01567744  1
  Sb  Sb34  1  0.83333333  0.16666667  0.01567744  1
  Sb  Sb35  1  0.83333333  0.66666667  0.01567744  1
  Sb  Sb36  1  0.16666667  0.33333333  0.51567744  1
  Sb  Sb37  1  0.16666667  0.83333333  0.51567744  1
  Sb  Sb38  1  0.66666667  0.33333333  0.51567744  1
  Sb  Sb39  1  0.66666667  0.83333333  0.51567744  1
  O  O40  1  0.04515922  0.21771966  0.40054251  1
  O  O41  1  0.04515922  0.71771966  0.40054251  1
  O  O42  1  0.54515922  0.21771966  0.40054251  1
  O  O43  1  0.54515922  0.71771966  0.40054251  1
  O  O44  1  0.32743956  0.04515922  0.90054251  1
  O  O45  1  0.32743956  0.54515922  0.90054251  1
  O  O46  1  0.82743956  0.04515922  0.90054251  1
  O  O47  1  0.82743956  0.54515922  0.90054251  1
  O  O48  1  0.21771966  0.17256044  0.90054251  1
  O  O49  1  0.21771966  0.67256044  0.90054251  1
  O  O50  1  0.71771966  0.17256044  0.90054251  1
  O  O51  1  0.71771966  0.67256044  0.90054251  1
  O  O52  1  0.28228034  0.32743956  0.40054251  1
  O  O53  1  0.28228034  0.82743956  0.40054251  1
  O  O54  1  0.78228034  0.32743956  0.40054251  1
  O  O55  1  0.78228034  0.82743956  0.40054251  1
  O  O56  1  0.17256044  0.45484078  0.40054251  1
  O  O57  1  0.17256044  0.95484078  0.40054251  1
  O  O58  1  0.67256044  0.45484078  0.40054251  1
  O  O59  1  0.67256044  0.95484078  0.40054251  1
  O  O60  1  0.45484078  0.28228034  0.90054251  1
  O  O61  1  0.45484078  0.78228034  0.90054251  1
  O  O62  1  0.95484078  0.28228034  0.90054251  1
  O  O63  1  0.95484078  0.78228034  0.90054251  1
  O  O64  1  0.45484078  0.28228034  0.59945749  1
  O  O65  1  0.45484078  0.78228034  0.59945749  1
  O  O66  1  0.95484078  0.28228034  0.59945749  1
  O  O67  1  0.95484078  0.78228034  0.59945749  1
  O  O68  1  0.17256044  0.45484078  0.09945749  1
  O  O69  1  0.17256044  0.95484078  0.09945749  1
  O  O70  1  0.67256044  0.45484078  0.09945749  1
  O  O71  1  0.67256044  0.95484078  0.09945749  1
  O  O72  1  0.28228034  0.32743956  0.09945749  1
  O  O73  1  0.28228034  0.82743956  0.09945749  1
  O  O74  1  0.78228034  0.32743956  0.09945749  1
  O  O75  1  0.78228034  0.82743956  0.09945749  1
  O  O76  1  0.21771966  0.17256044  0.59945749  1
  O  O77  1  0.21771966  0.67256044  0.59945749  1
  O  O78  1  0.71771966  0.17256044  0.59945749  1
  O  O79  1  0.71771966  0.67256044  0.59945749  1
  O  O80  1  0.32743956  0.04515922  0.59945749  1
  O  O81  1  0.32743956  0.54515922  0.59945749  1
  O  O82  1  0.82743956  0.04515922  0.59945749  1
  O  O83  1  0.82743956  0.54515922  0.59945749  1
  O  O84  1  0.04515922  0.21771966  0.09945749  1
  O  O85  1  0.04515922  0.71771966  0.09945749  1
  O  O86  1  0.54515922  0.21771966  0.09945749  1
  O  O87  1  0.54515922  0.71771966  0.09945749  1
  O  O88  1  0.40041290  0.03657259  0.25000000  1
  O  O89  1  0.40041290  0.53657259  0.25000000  1
  O  O90  1  0.90041290  0.03657259  0.25000000  1
  O  O91  1  0.90041290  0.53657259  0.25000000  1
  O  O92  1  0.36384031  0.40041290  0.75000000  1
  O  O93  1  0.36384031  0.90041290  0.75000000  1
  O  O94  1  0.86384031  0.40041290  0.75000000  1
  O  O95  1  0.86384031  0.90041290  0.75000000  1
  O  O96  1  0.03657259  0.13615969  0.75000000  1
  O  O97  1  0.03657259  0.63615969  0.75000000  1
  O  O98  1  0.53657259  0.13615969  0.75000000  1
  O  O99  1  0.53657259  0.63615969  0.75000000  1
  O  O100  1  0.46342741  0.36384031  0.25000000  1
  O  O101  1  0.46342741  0.86384031  0.25000000  1
  O  O102  1  0.96342741  0.36384031  0.25000000  1
  O  O103  1  0.96342741  0.86384031  0.25000000  1
  O  O104  1  0.13615969  0.09958710  0.25000000  1
  O  O105  1  0.13615969  0.59958710  0.25000000  1
  O  O106  1  0.63615969  0.09958710  0.25000000  1
  O  O107  1  0.63615969  0.59958710  0.25000000  1
  O  O108  1  0.09958710  0.46342741  0.75000000  1
  O  O109  1  0.09958710  0.96342741  0.75000000  1
  O  O110  1  0.59958710  0.46342741  0.75000000  1
  O  O111  1  0.59958710  0.96342741  0.75000000  1
