# generated using pymatgen
data_BaZr(BO3)2
_symmetry_space_group_name_H-M   'P 1'
_cell_length_a   10.33996377
_cell_length_b   10.33996377
_cell_length_c   33.85913154
_cell_angle_alpha   90.00000000
_cell_angle_beta   90.00000000
_cell_angle_gamma   120.00000000
_symmetry_Int_Tables_number   1
_chemical_formula_structural   BaZr(BO3)2
_chemical_formula_sum   'Ba24 Zr24 B48 O144'
_cell_volume   3135.05006038
_cell_formula_units_Z   24
loop_
 _symmetry_equiv_pos_site_id
 _symmetry_equiv_pos_as_xyz
  1  'x, y, z'
loop_
 _atom_site_type_symbol
 _atom_site_label
 _atom_site_symmetry_multiplicity
 _atom_site_fract_x
 _atom_site_fract_y
 _atom_site_fract_z
 _atom_site_occupancy
  Ba  Ba0  1  0.00000000  0.00000000  0.75000000  1
  Ba  Ba1  1  -0.00000000  0.50000000  0.75000000  1
  Ba  Ba2  1  0.50000000  0.00000000  0.75000000  1
  Ba  Ba3  1  0.50000000  0.50000000  0.75000000  1
  Ba  Ba4  1  0.33333333  0.16666667  1.08333333  1
  Ba  Ba5  1  0.33333333  0.66666667  1.08333333  1
  Ba  Ba6  1  0.83333333  0.16666667  1.08333333  1
  Ba  Ba7  1  0.83333333  0.66666667  1.08333333  1
  Ba  Ba8  1  0.16666667  0.33333333  1.41666667  1
  Ba  Ba9  1  0.16666667  0.83333333  1.41666667  1
  Ba  Ba10  1  0.66666667  0.33333333  1.41666667  1
  Ba  Ba11  1  0.66666667  0.83333333  1.41666667  1
  Ba  Ba12  1  -0.00000000  -0.00000000  0.25000000  1
  Ba  Ba13  1  -0.00000000  0.50000000  0.25000000  1
  Ba  Ba14  1  0.50000000  -0.00000000  0.25000000  1
  Ba  Ba15  1  0.50000000  0.50000000  0.25000000  1
  Ba  Ba16  1  0.33333333  0.16666667  0.58333333  1
  Ba  Ba17  1  0.33333333  0.66666667  0.58333333  1
  Ba  Ba18  1  0.83333333  0.16666667  0.58333333  1
  Ba  Ba19  1  0.83333333  0.66666667  0.58333333  1
  Ba  Ba20  1  0.16666667  0.33333333  0.91666667  1
  Ba  Ba21  1  0.16666667  0.83333333  0.91666667  1
  Ba  Ba22  1  0.66666667  0.33333333  0.91666667  1
  Ba  Ba23  1  0.66666667  0.83333333  0.91666667  1
  Zr  Zr24  1  -0.00000000  -0.00000000  -0.00000000  1
  Zr  Zr25  1  -0.00000000  0.50000000  -0.00000000  1
  Zr  Zr26  1  0.50000000  -0.00000000  -0.00000000  1
  Zr  Zr27  1  0.50000000  0.50000000  -0.00000000  1
  Zr  Zr28  1  0.33333333  0.16666667  0.33333333  1
  Zr  Zr29  1  0.33333333  0.66666667  0.33333333  1
  Zr  Zr30  1  0.83333333  0.16666667  0.33333333  1
  Zr  Zr31  1  0.83333333  0.66666667  0.33333333  1
  Zr  Zr32  1  0.16666667  0.33333333  0.66666667  1
  Zr  Zr33  1  0.16666667  0.83333333  0.66666667  1
  Zr  Zr34  1  0.66666667  0.33333333  0.66666667  1
  Zr  Zr35  1  0.66666667  0.83333333  0.66666667  1
  Zr  Zr36  1  -0.00000000  -0.00000000  0.50000000  1
  Zr  Zr37  1  -0.00000000  0.50000000  0.50000000  1
  Zr  Zr38  1  0.50000000  -0.00000000  0.50000000  1
  Zr  Zr39  1  0.50000000  0.50000000  0.50000000  1
  Zr  Zr40  1  0.33333333  0.16666667  0.83333333  1
  Zr  Zr41  1  0.33333333  0.66666667  0.83333333  1
  Zr  Zr42  1  0.83333333  0.16666667  0.83333333  1
  Zr  Zr43  1  0.83333333  0.66666667  0.83333333  1
  Zr  Zr44  1  0.16666667  0.33333333  1.16666667  1
  Zr  Zr45  1  0.16666667  0.83333333  1.16666667  1
  Zr  Zr46  1  0.66666667  0.33333333  1.16666667  1
  Zr  Zr47  1  0.66666667  0.83333333  1.16666667  1
  B  B48  1  -0.00000000  -0.00000000  0.63088021  1
  B  B49  1  -0.00000000  0.50000000  0.63088021  1
  B  B50  1  0.50000000  -0.00000000  0.63088021  1
  B  B51  1  0.50000000  0.50000000  0.63088021  1
  B  B52  1  0.33333333  0.16666667  0.96421355  1
  B  B53  1  0.33333333  0.66666667  0.96421355  1
  B  B54  1  0.83333333  0.16666667  0.96421355  1
  B  B55  1  0.83333333  0.66666667  0.96421355  1
  B  B56  1  0.16666667  0.33333333  1.29754688  1
  B  B57  1  0.16666667  0.83333333  1.29754688  1
  B  B58  1  0.66666667  0.33333333  1.29754688  1
  B  B59  1  0.66666667  0.83333333  1.29754688  1
  B  B60  1  -0.00000000  -0.00000000  0.86911979  1
  B  B61  1  -0.00000000  0.50000000  0.86911979  1
  B  B62  1  0.50000000  -0.00000000  0.86911979  1
  B  B63  1  0.50000000  0.50000000  0.86911979  1
  B  B64  1  0.33333333  0.16666667  1.20245312  1
  B  B65  1  0.33333333  0.66666667  1.20245312  1
  B  B66  1  0.83333333  0.16666667  1.20245312  1
  B  B67  1  0.83333333  0.66666667  1.20245312  1
  B  B68  1  0.16666667  0.33333333  1.53578645  1
  B  B69  1  0.16666667  0.83333333  1.53578645  1
  B  B70  1  0.66666667  0.33333333  1.53578645  1
  B  B71  1  0.66666667  0.83333333  1.53578645  1
  B  B72  1  -0.00000000  -0.00000000  0.36911979  1
  B  B73  1  -0.00000000  0.50000000  0.36911979  1
  B  B74  1  0.50000000  -0.00000000  0.36911979  1
  B  B75  1  0.50000000  0.50000000  0.36911979  1
  B  B76  1  0.33333333  0.16666667  0.70245312  1
  B  B77  1  0.33333333  0.66666667  0.70245312  1
  B  B78  1  0.83333333  0.16666667  0.70245312  1
  B  B79  1  0.83333333  0.66666667  0.70245312  1
  B  B80  1  0.16666667  0.33333333  1.03578645  1
  B  B81  1  0.16666667  0.83333333  1.03578645  1
  B  B82  1  0.66666667  0.33333333  1.03578645  1
  B  B83  1  0.66666667  0.83333333  1.03578645  1
  B  B84  1  0.00000000  -0.00000000  0.13088021  1
  B  B85  1  0.00000000  0.50000000  0.13088021  1
  B  B86  1  0.50000000  -0.00000000  0.13088021  1
  B  B87  1  0.50000000  0.50000000  0.13088021  1
  B  B88  1  0.33333333  0.16666667  0.46421355  1
  B  B89  1  0.33333333  0.66666667  0.46421355  1
  B  B90  1  0.83333333  0.16666667  0.46421355  1
  B  B91  1  0.83333333  0.66666667  0.46421355  1
  B  B92  1  0.16666667  0.33333333  0.79754688  1
  B  B93  1  0.16666667  0.83333333  0.79754688  1
  B  B94  1  0.66666667  0.33333333  0.79754688  1
  B  B95  1  0.66666667  0.83333333  0.79754688  1
  O  O96  1  -0.06170023  0.12176316  0.46343447  1
  O  O97  1  -0.06170023  0.62176316  0.46343447  1
  O  O98  1  0.43829977  0.12176316  0.46343447  1
  O  O99  1  0.43829977  0.62176316  0.46343447  1
  O  O100  1  0.27163311  0.28842983  0.79676780  1
  O  O101  1  0.27163311  0.78842983  0.79676780  1
  O  O102  1  0.77163311  0.28842983  0.79676780  1
  O  O103  1  0.77163311  0.78842983  0.79676780  1
  O  O104  1  0.10496644  0.45509650  1.13010113  1
  O  O105  1  0.10496644  0.95509650  1.13010113  1
  O  O106  1  0.60496644  0.45509650  1.13010113  1
  O  O107  1  0.60496644  0.95509650  1.13010113  1
  O  O108  1  -0.14986994  -0.04490350  0.63010113  1
  O  O109  1  -0.14986994  0.45509650  0.63010113  1
  O  O110  1  0.35013006  -0.04490350  0.63010113  1
  O  O111  1  0.35013006  0.45509650  0.63010113  1
  O  O112  1  0.18346339  0.12176316  0.96343447  1
  O  O113  1  0.18346339  0.62176316  0.96343447  1
  O  O114  1  0.68346339  0.12176316  0.96343447  1
  O  O115  1  0.68346339  0.62176316  0.96343447  1
  O  O116  1  0.01679672  0.28842983  1.29676780  1
  O  O117  1  0.01679672  0.78842983  1.29676780  1
  O  O118  1  0.51679672  0.28842983  1.29676780  1
  O  O119  1  0.51679672  0.78842983  1.29676780  1
  O  O120  1  -0.10496644  -0.14986994  0.36989887  1
  O  O121  1  -0.10496644  0.35013006  0.36989887  1
  O  O122  1  0.39503356  -0.14986994  0.36989887  1
  O  O123  1  0.39503356  0.35013006  0.36989887  1
  O  O124  1  0.22836689  0.01679672  0.70323220  1
  O  O125  1  0.22836689  0.51679672  0.70323220  1
  O  O126  1  0.72836689  0.01679672  0.70323220  1
  O  O127  1  0.72836689  0.51679672  0.70323220  1
  O  O128  1  0.06170023  0.18346339  1.03656553  1
  O  O129  1  0.06170023  0.68346339  1.03656553  1
  O  O130  1  0.56170023  0.18346339  1.03656553  1
  O  O131  1  0.56170023  0.68346339  1.03656553  1
  O  O132  1  0.04490350  -0.10496644  0.63010113  1
  O  O133  1  0.04490350  0.39503356  0.63010113  1
  O  O134  1  0.54490350  -0.10496644  0.63010113  1
  O  O135  1  0.54490350  0.39503356  0.63010113  1
  O  O136  1  0.37823684  0.06170023  0.96343447  1
  O  O137  1  0.37823684  0.56170023  0.96343447  1
  O  O138  1  0.87823684  0.06170023  0.96343447  1
  O  O139  1  0.87823684  0.56170023  0.96343447  1
  O  O140  1  0.21157017  0.22836689  1.29676780  1
  O  O141  1  0.21157017  0.72836689  1.29676780  1
  O  O142  1  0.71157017  0.22836689  1.29676780  1
  O  O143  1  0.71157017  0.72836689  1.29676780  1
  O  O144  1  0.06170023  -0.12176316  0.53656553  1
  O  O145  1  0.06170023  0.37823684  0.53656553  1
  O  O146  1  0.56170023  -0.12176316  0.53656553  1
  O  O147  1  0.56170023  0.37823684  0.53656553  1
  O  O148  1  0.39503356  0.04490350  0.86989887  1
  O  O149  1  0.39503356  0.54490350  0.86989887  1
  O  O150  1  0.89503356  0.04490350  0.86989887  1
  O  O151  1  0.89503356  0.54490350  0.86989887  1
  O  O152  1  0.22836689  0.21157017  1.20323220  1
  O  O153  1  0.22836689  0.71157017  1.20323220  1
  O  O154  1  0.72836689  0.21157017  1.20323220  1
  O  O155  1  0.72836689  0.71157017  1.20323220  1
  O  O156  1  -0.04490350  0.10496644  0.36989887  1
  O  O157  1  -0.04490350  0.60496644  0.36989887  1
  O  O158  1  0.45509650  0.10496644  0.36989887  1
  O  O159  1  0.45509650  0.60496644  0.36989887  1
  O  O160  1  0.28842983  0.27163311  0.70323220  1
  O  O161  1  0.28842983  0.77163311  0.70323220  1
  O  O162  1  0.78842983  0.27163311  0.70323220  1
  O  O163  1  0.78842983  0.77163311  0.70323220  1
  O  O164  1  0.12176316  0.43829977  1.03656553  1
  O  O165  1  0.12176316  0.93829977  1.03656553  1
  O  O166  1  0.62176316  0.43829977  1.03656553  1
  O  O167  1  0.62176316  0.93829977  1.03656553  1
  O  O168  1  0.14986994  0.04490350  0.36989887  1
  O  O169  1  0.14986994  0.54490350  0.36989887  1
  O  O170  1  0.64986994  0.04490350  0.36989887  1
  O  O171  1  0.64986994  0.54490350  0.36989887  1
  O  O172  1  0.48320328  0.21157017  0.70323220  1
  O  O173  1  0.48320328  0.71157017  0.70323220  1
  O  O174  1  0.98320328  0.21157017  0.70323220  1
  O  O175  1  0.98320328  0.71157017  0.70323220  1
  O  O176  1  0.31653661  0.37823684  1.03656553  1
  O  O177  1  0.31653661  0.87823684  1.03656553  1
  O  O178  1  0.81653661  0.37823684  1.03656553  1
  O  O179  1  0.81653661  0.87823684  1.03656553  1
  O  O180  1  0.18346339  0.06170023  0.46343447  1
  O  O181  1  0.18346339  0.56170023  0.46343447  1
  O  O182  1  0.68346339  0.06170023  0.46343447  1
  O  O183  1  0.68346339  0.56170023  0.46343447  1
  O  O184  1  0.51679672  0.22836689  0.79676780  1
  O  O185  1  0.51679672  0.72836689  0.79676780  1
  O  O186  1  1.01679672  0.22836689  0.79676780  1
  O  O187  1  1.01679672  0.72836689  0.79676780  1
  O  O188  1  0.35013006  0.39503356  1.13010113  1
  O  O189  1  0.35013006  0.89503356  1.13010113  1
  O  O190  1  0.85013006  0.39503356  1.13010113  1
  O  O191  1  0.85013006  0.89503356  1.13010113  1
  O  O192  1  -0.18346339  -0.06170023  0.53656553  1
  O  O193  1  -0.18346339  0.43829977  0.53656553  1
  O  O194  1  0.31653661  -0.06170023  0.53656553  1
  O  O195  1  0.31653661  0.43829977  0.53656553  1
  O  O196  1  0.14986994  0.10496644  0.86989887  1
  O  O197  1  0.14986994  0.60496644  0.86989887  1
  O  O198  1  0.64986994  0.10496644  0.86989887  1
  O  O199  1  0.64986994  0.60496644  0.86989887  1
  O  O200  1  -0.01679672  0.27163311  1.20323220  1
  O  O201  1  -0.01679672  0.77163311  1.20323220  1
  O  O202  1  0.48320328  0.27163311  1.20323220  1
  O  O203  1  0.48320328  0.77163311  1.20323220  1
  O  O204  1  0.12176316  0.18346339  0.53656553  1
  O  O205  1  0.12176316  0.68346339  0.53656553  1
  O  O206  1  0.62176316  0.18346339  0.53656553  1
  O  O207  1  0.62176316  0.68346339  0.53656553  1
  O  O208  1  0.45509650  0.35013006  0.86989887  1
  O  O209  1  0.45509650  0.85013006  0.86989887  1
  O  O210  1  0.95509650  0.35013006  0.86989887  1
  O  O211  1  0.95509650  0.85013006  0.86989887  1
  O  O212  1  0.28842983  0.51679672  1.20323220  1
  O  O213  1  0.28842983  1.01679672  1.20323220  1
  O  O214  1  0.78842983  0.51679672  1.20323220  1
  O  O215  1  0.78842983  1.01679672  1.20323220  1
  O  O216  1  -0.12176316  -0.18346339  0.46343447  1
  O  O217  1  -0.12176316  0.31653661  0.46343447  1
  O  O218  1  0.37823684  -0.18346339  0.46343447  1
  O  O219  1  0.37823684  0.31653661  0.46343447  1
  O  O220  1  0.21157017  -0.01679672  0.79676780  1
  O  O221  1  0.21157017  0.48320328  0.79676780  1
  O  O222  1  0.71157017  -0.01679672  0.79676780  1
  O  O223  1  0.71157017  0.48320328  0.79676780  1
  O  O224  1  0.04490350  0.14986994  1.13010113  1
  O  O225  1  0.04490350  0.64986994  1.13010113  1
  O  O226  1  0.54490350  0.14986994  1.13010113  1
  O  O227  1  0.54490350  0.64986994  1.13010113  1
  O  O228  1  0.10496644  0.14986994  0.63010113  1
  O  O229  1  0.10496644  0.64986994  0.63010113  1
  O  O230  1  0.60496644  0.14986994  0.63010113  1
  O  O231  1  0.60496644  0.64986994  0.63010113  1
  O  O232  1  0.43829977  0.31653661  0.96343447  1
  O  O233  1  0.43829977  0.81653661  0.96343447  1
  O  O234  1  0.93829977  0.31653661  0.96343447  1
  O  O235  1  0.93829977  0.81653661  0.96343447  1
  O  O236  1  0.27163311  0.48320328  1.29676780  1
  O  O237  1  0.27163311  0.98320328  1.29676780  1
  O  O238  1  0.77163311  0.48320328  1.29676780  1
  O  O239  1  0.77163311  0.98320328  1.29676780  1
