# generated using pymatgen
data_Na5TaO5
_symmetry_space_group_name_H-M   'P 1'
_cell_length_a   12.46070303
_cell_length_b   10.12232627
_cell_length_c   9.93874097
_cell_angle_alpha   90.00000000
_cell_angle_beta   106.68280868
_cell_angle_gamma   90.00000000
_symmetry_Int_Tables_number   1
_chemical_formula_structural   Na5TaO5
_chemical_formula_sum   'Na40 Ta8 O40'
_cell_volume   1200.82122192
_cell_formula_units_Z   8
loop_
 _symmetry_equiv_pos_site_id
 _symmetry_equiv_pos_as_xyz
  1  'x, y, z'
loop_
 _atom_site_type_symbol
 _atom_site_label
 _atom_site_symmetry_multiplicity
 _atom_site_fract_x
 _atom_site_fract_y
 _atom_site_fract_z
 _atom_site_occupancy
  Na  Na0  1  0.08159812  0.15850693  0.07752837  1
  Na  Na1  1  0.58159812  0.15850693  0.07752837  1
  Na  Na2  1  0.33159812  0.65850693  0.07752837  1
  Na  Na3  1  0.83159812  0.65850693  0.07752837  1
  Na  Na4  1  0.41840188  0.15850693  0.42247163  1
  Na  Na5  1  0.91840188  0.15850693  0.42247163  1
  Na  Na6  1  0.66840188  0.65850693  0.42247163  1
  Na  Na7  1  1.16840188  0.65850693  0.42247163  1
  Na  Na8  1  0.16458445  0.11490004  0.44990317  1
  Na  Na9  1  0.66458445  0.11490004  0.44990317  1
  Na  Na10  1  0.41458445  0.61490004  0.44990317  1
  Na  Na11  1  0.91458445  0.61490004  0.44990317  1
  Na  Na12  1  0.33541555  0.11490004  0.05009683  1
  Na  Na13  1  0.83541555  0.11490004  0.05009683  1
  Na  Na14  1  0.58541555  0.61490004  0.05009683  1
  Na  Na15  1  1.08541555  0.61490004  0.05009683  1
  Na  Na16  1  0.33541555  -0.11490004  0.55009683  1
  Na  Na17  1  0.83541555  -0.11490004  0.55009683  1
  Na  Na18  1  0.58541555  0.38509996  0.55009683  1
  Na  Na19  1  1.08541555  0.38509996  0.55009683  1
  Na  Na20  1  0.16458445  -0.11490004  0.94990317  1
  Na  Na21  1  0.66458445  -0.11490004  0.94990317  1
  Na  Na22  1  0.41458445  0.38509996  0.94990317  1
  Na  Na23  1  0.91458445  0.38509996  0.94990317  1
  Na  Na24  1  0.25000000  0.16817245  0.75000000  1
  Na  Na25  1  0.75000000  0.16817245  0.75000000  1
  Na  Na26  1  0.50000000  0.66817245  0.75000000  1
  Na  Na27  1  1.00000000  0.66817245  0.75000000  1
  Na  Na28  1  0.25000000  -0.16817245  0.25000000  1
  Na  Na29  1  0.75000000  -0.16817245  0.25000000  1
  Na  Na30  1  0.50000000  0.33182755  0.25000000  1
  Na  Na31  1  1.00000000  0.33182755  0.25000000  1
  Na  Na32  1  0.08159812  -0.15850693  0.57752837  1
  Na  Na33  1  0.58159812  -0.15850693  0.57752837  1
  Na  Na34  1  0.33159812  0.34149307  0.57752837  1
  Na  Na35  1  0.83159812  0.34149307  0.57752837  1
  Na  Na36  1  0.41840188  -0.15850693  0.92247163  1
  Na  Na37  1  0.91840188  -0.15850693  0.92247163  1
  Na  Na38  1  0.66840188  0.34149307  0.92247163  1
  Na  Na39  1  1.16840188  0.34149307  0.92247163  1
  Ta  Ta40  1  0.25000000  -0.40807063  0.75000000  1
  Ta  Ta41  1  0.75000000  -0.40807063  0.75000000  1
  Ta  Ta42  1  0.50000000  0.09192937  0.75000000  1
  Ta  Ta43  1  1.00000000  0.09192937  0.75000000  1
  Ta  Ta44  1  0.25000000  0.40807063  0.25000000  1
  Ta  Ta45  1  0.75000000  0.40807063  0.25000000  1
  Ta  Ta46  1  0.50000000  0.90807063  0.25000000  1
  Ta  Ta47  1  1.00000000  0.90807063  0.25000000  1
  O  O48  1  0.25000000  0.40419515  0.75000000  1
  O  O49  1  0.75000000  0.40419515  0.75000000  1
  O  O50  1  0.50000000  0.90419515  0.75000000  1
  O  O51  1  1.00000000  0.90419515  0.75000000  1
  O  O52  1  0.25000000  -0.40419515  0.25000000  1
  O  O53  1  0.75000000  -0.40419515  0.25000000  1
  O  O54  1  0.50000000  0.09580485  0.25000000  1
  O  O55  1  1.00000000  0.09580485  0.25000000  1
  O  O56  1  0.31727145  -0.32905308  0.61712031  1
  O  O57  1  0.81727145  -0.32905308  0.61712031  1
  O  O58  1  0.56727145  0.17094692  0.61712031  1
  O  O59  1  1.06727145  0.17094692  0.61712031  1
  O  O60  1  0.18272855  -0.32905308  0.88287969  1
  O  O61  1  0.68272855  -0.32905308  0.88287969  1
  O  O62  1  0.43272855  0.17094692  0.88287969  1
  O  O63  1  0.93272855  0.17094692  0.88287969  1
  O  O64  1  0.14903735  0.10720224  0.89640785  1
  O  O65  1  0.64903735  0.10720224  0.89640785  1
  O  O66  1  0.39903735  0.60720224  0.89640785  1
  O  O67  1  0.89903735  0.60720224  0.89640785  1
  O  O68  1  0.35096265  0.10720224  0.60359215  1
  O  O69  1  0.85096265  0.10720224  0.60359215  1
  O  O70  1  0.60096265  0.60720224  0.60359215  1
  O  O71  1  1.10096265  0.60720224  0.60359215  1
  O  O72  1  0.35096265  -0.10720224  0.10359215  1
  O  O73  1  0.85096265  -0.10720224  0.10359215  1
  O  O74  1  0.60096265  0.39279776  0.10359215  1
  O  O75  1  1.10096265  0.39279776  0.10359215  1
  O  O76  1  0.14903735  -0.10720224  0.39640785  1
  O  O77  1  0.64903735  -0.10720224  0.39640785  1
  O  O78  1  0.39903735  0.39279776  0.39640785  1
  O  O79  1  0.89903735  0.39279776  0.39640785  1
  O  O80  1  0.18272855  0.32905308  0.38287969  1
  O  O81  1  0.68272855  0.32905308  0.38287969  1
  O  O82  1  0.43272855  0.82905308  0.38287969  1
  O  O83  1  0.93272855  0.82905308  0.38287969  1
  O  O84  1  0.31727145  0.32905308  0.11712031  1
  O  O85  1  0.81727145  0.32905308  0.11712031  1
  O  O86  1  0.56727145  0.82905308  0.11712031  1
  O  O87  1  1.06727145  0.82905308  0.11712031  1
