# generated using pymatgen
data_Na4B2O5
_symmetry_space_group_name_H-M   'P 1'
_cell_length_a   10.56447705
_cell_length_b   15.80402053
_cell_length_c   12.37781541
_cell_angle_alpha   90.00000000
_cell_angle_beta   110.41282368
_cell_angle_gamma   90.00000000
_symmetry_Int_Tables_number   1
_chemical_formula_structural   Na4B2O5
_chemical_formula_sum   'Na64 B32 O80'
_cell_volume   1936.83980374
_cell_formula_units_Z   16
loop_
 _symmetry_equiv_pos_site_id
 _symmetry_equiv_pos_as_xyz
  1  'x, y, z'
loop_
 _atom_site_type_symbol
 _atom_site_label
 _atom_site_symmetry_multiplicity
 _atom_site_fract_x
 _atom_site_fract_y
 _atom_site_fract_z
 _atom_site_occupancy
  Na  Na0  1  0.64149424  0.16303810  0.13680651  1
  Na  Na1  1  0.64149424  0.16303810  0.63680651  1
  Na  Na2  1  0.64149424  0.66303810  0.13680651  1
  Na  Na3  1  0.64149424  0.66303810  0.63680651  1
  Na  Na4  1  1.14149424  0.41303810  0.13680651  1
  Na  Na5  1  1.14149424  0.41303810  0.63680651  1
  Na  Na6  1  1.14149424  0.91303810  0.13680651  1
  Na  Na7  1  1.14149424  0.91303810  0.63680651  1
  Na  Na8  1  0.35850576  0.16303810  0.11319349  1
  Na  Na9  1  0.35850576  0.16303810  0.61319349  1
  Na  Na10  1  0.35850576  0.66303810  0.11319349  1
  Na  Na11  1  0.35850576  0.66303810  0.61319349  1
  Na  Na12  1  0.85850576  0.41303810  0.11319349  1
  Na  Na13  1  0.85850576  0.41303810  0.61319349  1
  Na  Na14  1  0.85850576  0.91303810  0.11319349  1
  Na  Na15  1  0.85850576  0.91303810  0.61319349  1
  Na  Na16  1  0.35850576  -0.16303810  0.36319349  1
  Na  Na17  1  0.35850576  -0.16303810  0.86319349  1
  Na  Na18  1  0.35850576  0.33696190  0.36319349  1
  Na  Na19  1  0.35850576  0.33696190  0.86319349  1
  Na  Na20  1  0.85850576  0.08696190  0.36319349  1
  Na  Na21  1  0.85850576  0.08696190  0.86319349  1
  Na  Na22  1  0.85850576  0.58696190  0.36319349  1
  Na  Na23  1  0.85850576  0.58696190  0.86319349  1
  Na  Na24  1  0.64149424  -0.16303810  0.38680651  1
  Na  Na25  1  0.64149424  -0.16303810  0.88680651  1
  Na  Na26  1  0.64149424  0.33696190  0.38680651  1
  Na  Na27  1  0.64149424  0.33696190  0.88680651  1
  Na  Na28  1  1.14149424  0.08696190  0.38680651  1
  Na  Na29  1  1.14149424  0.08696190  0.88680651  1
  Na  Na30  1  1.14149424  0.58696190  0.38680651  1
  Na  Na31  1  1.14149424  0.58696190  0.88680651  1
  Na  Na32  1  0.63292882  0.01849647  0.46233014  1
  Na  Na33  1  0.63292882  0.01849647  0.96233014  1
  Na  Na34  1  0.63292882  0.51849647  0.46233014  1
  Na  Na35  1  0.63292882  0.51849647  0.96233014  1
  Na  Na36  1  1.13292882  0.26849647  0.46233014  1
  Na  Na37  1  1.13292882  0.26849647  0.96233014  1
  Na  Na38  1  1.13292882  0.76849647  0.46233014  1
  Na  Na39  1  1.13292882  0.76849647  0.96233014  1
  Na  Na40  1  0.36707118  0.01849647  0.28766986  1
  Na  Na41  1  0.36707118  0.01849647  0.78766986  1
  Na  Na42  1  0.36707118  0.51849647  0.28766986  1
  Na  Na43  1  0.36707118  0.51849647  0.78766986  1
  Na  Na44  1  0.86707118  0.26849647  0.28766986  1
  Na  Na45  1  0.86707118  0.26849647  0.78766986  1
  Na  Na46  1  0.86707118  0.76849647  0.28766986  1
  Na  Na47  1  0.86707118  0.76849647  0.78766986  1
  Na  Na48  1  0.36707118  -0.01849647  0.03766986  1
  Na  Na49  1  0.36707118  -0.01849647  0.53766986  1
  Na  Na50  1  0.36707118  0.48150353  0.03766986  1
  Na  Na51  1  0.36707118  0.48150353  0.53766986  1
  Na  Na52  1  0.86707118  0.23150353  0.03766986  1
  Na  Na53  1  0.86707118  0.23150353  0.53766986  1
  Na  Na54  1  0.86707118  0.73150353  0.03766986  1
  Na  Na55  1  0.86707118  0.73150353  0.53766986  1
  Na  Na56  1  0.63292882  -0.01849647  0.21233014  1
  Na  Na57  1  0.63292882  -0.01849647  0.71233014  1
  Na  Na58  1  0.63292882  0.48150353  0.21233014  1
  Na  Na59  1  0.63292882  0.48150353  0.71233014  1
  Na  Na60  1  1.13292882  0.23150353  0.21233014  1
  Na  Na61  1  1.13292882  0.23150353  0.71233014  1
  Na  Na62  1  1.13292882  0.73150353  0.21233014  1
  Na  Na63  1  1.13292882  0.73150353  0.71233014  1
  B  B64  1  0.40845706  -0.16952095  0.16701400  1
  B  B65  1  0.40845706  -0.16952095  0.66701400  1
  B  B66  1  0.40845706  0.33047905  0.16701400  1
  B  B67  1  0.40845706  0.33047905  0.66701400  1
  B  B68  1  0.90845706  0.08047905  0.16701400  1
  B  B69  1  0.90845706  0.08047905  0.66701400  1
  B  B70  1  0.90845706  0.58047905  0.16701400  1
  B  B71  1  0.90845706  0.58047905  0.66701400  1
  B  B72  1  0.59154294  -0.16952095  0.08298600  1
  B  B73  1  0.59154294  -0.16952095  0.58298600  1
  B  B74  1  0.59154294  0.33047905  0.08298600  1
  B  B75  1  0.59154294  0.33047905  0.58298600  1
  B  B76  1  1.09154294  0.08047905  0.08298600  1
  B  B77  1  1.09154294  0.08047905  0.58298600  1
  B  B78  1  1.09154294  0.58047905  0.08298600  1
  B  B79  1  1.09154294  0.58047905  0.58298600  1
  B  B80  1  0.59154294  0.16952095  0.33298600  1
  B  B81  1  0.59154294  0.16952095  0.83298600  1
  B  B82  1  0.59154294  0.66952095  0.33298600  1
  B  B83  1  0.59154294  0.66952095  0.83298600  1
  B  B84  1  1.09154294  0.41952095  0.33298600  1
  B  B85  1  1.09154294  0.41952095  0.83298600  1
  B  B86  1  1.09154294  0.91952095  0.33298600  1
  B  B87  1  1.09154294  0.91952095  0.83298600  1
  B  B88  1  0.40845706  0.16952095  0.41701400  1
  B  B89  1  0.40845706  0.16952095  0.91701400  1
  B  B90  1  0.40845706  0.66952095  0.41701400  1
  B  B91  1  0.40845706  0.66952095  0.91701400  1
  B  B92  1  0.90845706  0.41952095  0.41701400  1
  B  B93  1  0.90845706  0.41952095  0.91701400  1
  B  B94  1  0.90845706  0.91952095  0.41701400  1
  B  B95  1  0.90845706  0.91952095  0.91701400  1
  O  O96  1  0.50000000  0.21562395  0.37500000  1
  O  O97  1  0.50000000  0.21562395  0.87500000  1
  O  O98  1  0.50000000  0.71562395  0.37500000  1
  O  O99  1  0.50000000  0.71562395  0.87500000  1
  O  O100  1  1.00000000  0.46562395  0.37500000  1
  O  O101  1  1.00000000  0.46562395  0.87500000  1
  O  O102  1  1.00000000  0.96562395  0.37500000  1
  O  O103  1  1.00000000  0.96562395  0.87500000  1
  O  O104  1  0.50000000  -0.21562395  0.12500000  1
  O  O105  1  0.50000000  -0.21562395  0.62500000  1
  O  O106  1  0.50000000  0.28437605  0.12500000  1
  O  O107  1  0.50000000  0.28437605  0.62500000  1
  O  O108  1  1.00000000  0.03437605  0.12500000  1
  O  O109  1  1.00000000  0.03437605  0.62500000  1
  O  O110  1  1.00000000  0.53437605  0.12500000  1
  O  O111  1  1.00000000  0.53437605  0.62500000  1
  O  O112  1  0.45569978  0.09825453  0.48084506  1
  O  O113  1  0.45569978  0.09825453  0.98084506  1
  O  O114  1  0.45569978  0.59825453  0.48084506  1
  O  O115  1  0.45569978  0.59825453  0.98084506  1
  O  O116  1  0.95569978  0.34825453  0.48084506  1
  O  O117  1  0.95569978  0.34825453  0.98084506  1
  O  O118  1  0.95569978  0.84825453  0.48084506  1
  O  O119  1  0.95569978  0.84825453  0.98084506  1
  O  O120  1  0.54430022  0.09825453  0.26915494  1
  O  O121  1  0.54430022  0.09825453  0.76915494  1
  O  O122  1  0.54430022  0.59825453  0.26915494  1
  O  O123  1  0.54430022  0.59825453  0.76915494  1
  O  O124  1  1.04430022  0.34825453  0.26915494  1
  O  O125  1  1.04430022  0.34825453  0.76915494  1
  O  O126  1  1.04430022  0.84825453  0.26915494  1
  O  O127  1  1.04430022  0.84825453  0.76915494  1
  O  O128  1  0.78175932  0.04818670  0.14286087  1
  O  O129  1  0.78175932  0.04818670  0.64286087  1
  O  O130  1  0.78175932  0.54818670  0.14286087  1
  O  O131  1  0.78175932  0.54818670  0.64286087  1
  O  O132  1  1.28175932  0.29818670  0.14286087  1
  O  O133  1  1.28175932  0.29818670  0.64286087  1
  O  O134  1  1.28175932  0.79818670  0.14286087  1
  O  O135  1  1.28175932  0.79818670  0.64286087  1
  O  O136  1  0.21824068  0.04818670  0.10713913  1
  O  O137  1  0.21824068  0.04818670  0.60713913  1
  O  O138  1  0.21824068  0.54818670  0.10713913  1
  O  O139  1  0.21824068  0.54818670  0.60713913  1
  O  O140  1  0.71824068  0.29818670  0.10713913  1
  O  O141  1  0.71824068  0.29818670  0.60713913  1
  O  O142  1  0.71824068  0.79818670  0.10713913  1
  O  O143  1  0.71824068  0.79818670  0.60713913  1
  O  O144  1  0.21824068  -0.04818670  0.35713913  1
  O  O145  1  0.21824068  -0.04818670  0.85713913  1
  O  O146  1  0.21824068  0.45181330  0.35713913  1
  O  O147  1  0.21824068  0.45181330  0.85713913  1
  O  O148  1  0.71824068  0.20181330  0.35713913  1
  O  O149  1  0.71824068  0.20181330  0.85713913  1
  O  O150  1  0.71824068  0.70181330  0.35713913  1
  O  O151  1  0.71824068  0.70181330  0.85713913  1
  O  O152  1  0.78175932  -0.04818670  0.39286087  1
  O  O153  1  0.78175932  -0.04818670  0.89286087  1
  O  O154  1  0.78175932  0.45181330  0.39286087  1
  O  O155  1  0.78175932  0.45181330  0.89286087  1
  O  O156  1  1.28175932  0.20181330  0.39286087  1
  O  O157  1  1.28175932  0.20181330  0.89286087  1
  O  O158  1  1.28175932  0.70181330  0.39286087  1
  O  O159  1  1.28175932  0.70181330  0.89286087  1
  O  O160  1  0.45569978  -0.09825453  0.23084506  1
  O  O161  1  0.45569978  -0.09825453  0.73084506  1
  O  O162  1  0.45569978  0.40174547  0.23084506  1
  O  O163  1  0.45569978  0.40174547  0.73084506  1
  O  O164  1  0.95569978  0.15174547  0.23084506  1
  O  O165  1  0.95569978  0.15174547  0.73084506  1
  O  O166  1  0.95569978  0.65174547  0.23084506  1
  O  O167  1  0.95569978  0.65174547  0.73084506  1
  O  O168  1  0.54430022  -0.09825453  0.01915494  1
  O  O169  1  0.54430022  -0.09825453  0.51915494  1
  O  O170  1  0.54430022  0.40174547  0.01915494  1
  O  O171  1  0.54430022  0.40174547  0.51915494  1
  O  O172  1  1.04430022  0.15174547  0.01915494  1
  O  O173  1  1.04430022  0.15174547  0.51915494  1
  O  O174  1  1.04430022  0.65174547  0.01915494  1
  O  O175  1  1.04430022  0.65174547  0.51915494  1
