# generated using pymatgen
data_K2Cd2O3
_symmetry_space_group_name_H-M   'P 1'
_cell_length_a   19.36221260
_cell_length_b   19.89375118
_cell_length_c   20.46446973
_cell_angle_alpha   90.00000000
_cell_angle_beta   118.16999746
_cell_angle_gamma   90.00000000
_symmetry_Int_Tables_number   1
_chemical_formula_structural   K2Cd2O3
_chemical_formula_sum   'K108 Cd108 O162'
_cell_volume   6948.95494016
_cell_formula_units_Z   54
loop_
 _symmetry_equiv_pos_site_id
 _symmetry_equiv_pos_as_xyz
  1  'x, y, z'
loop_
 _atom_site_type_symbol
 _atom_site_label
 _atom_site_symmetry_multiplicity
 _atom_site_fract_x
 _atom_site_fract_y
 _atom_site_fract_z
 _atom_site_occupancy
  K  K0  1  0.05321914  0.11558062  0.30401267  1
  K  K1  1  0.05321914  0.11558062  0.63734600  1
  K  K2  1  0.05321914  0.11558062  0.97067934  1
  K  K3  1  0.05321914  0.44891395  0.30401267  1
  K  K4  1  0.05321914  0.44891395  0.63734600  1
  K  K5  1  0.05321914  0.44891395  0.97067934  1
  K  K6  1  0.05321914  0.78224728  0.30401267  1
  K  K7  1  0.05321914  0.78224728  0.63734600  1
  K  K8  1  0.05321914  0.78224728  0.97067934  1
  K  K9  1  0.38655248  0.11558062  0.30401267  1
  K  K10  1  0.38655248  0.11558062  0.63734600  1
  K  K11  1  0.38655248  0.11558062  0.97067934  1
  K  K12  1  0.38655248  0.44891395  0.30401267  1
  K  K13  1  0.38655248  0.44891395  0.63734600  1
  K  K14  1  0.38655248  0.44891395  0.97067934  1
  K  K15  1  0.38655248  0.78224728  0.30401267  1
  K  K16  1  0.38655248  0.78224728  0.63734600  1
  K  K17  1  0.38655248  0.78224728  0.97067934  1
  K  K18  1  0.71988581  0.11558062  0.30401267  1
  K  K19  1  0.71988581  0.11558062  0.63734600  1
  K  K20  1  0.71988581  0.11558062  0.97067934  1
  K  K21  1  0.71988581  0.44891395  0.30401267  1
  K  K22  1  0.71988581  0.44891395  0.63734600  1
  K  K23  1  0.71988581  0.44891395  0.97067934  1
  K  K24  1  0.71988581  0.78224728  0.30401267  1
  K  K25  1  0.71988581  0.78224728  0.63734600  1
  K  K26  1  0.71988581  0.78224728  0.97067934  1
  K  K27  1  0.05321914  0.05108605  0.13734600  1
  K  K28  1  0.05321914  0.05108605  0.47067934  1
  K  K29  1  0.05321914  0.05108605  0.80401267  1
  K  K30  1  0.05321914  0.38441938  0.13734600  1
  K  K31  1  0.05321914  0.38441938  0.47067934  1
  K  K32  1  0.05321914  0.38441938  0.80401267  1
  K  K33  1  0.05321914  0.71775272  0.13734600  1
  K  K34  1  0.05321914  0.71775272  0.47067934  1
  K  K35  1  0.05321914  0.71775272  0.80401267  1
  K  K36  1  0.38655248  0.05108605  0.13734600  1
  K  K37  1  0.38655248  0.05108605  0.47067934  1
  K  K38  1  0.38655248  0.05108605  0.80401267  1
  K  K39  1  0.38655248  0.38441938  0.13734600  1
  K  K40  1  0.38655248  0.38441938  0.47067934  1
  K  K41  1  0.38655248  0.38441938  0.80401267  1
  K  K42  1  0.38655248  0.71775272  0.13734600  1
  K  K43  1  0.38655248  0.71775272  0.47067934  1
  K  K44  1  0.38655248  0.71775272  0.80401267  1
  K  K45  1  0.71988581  0.05108605  0.13734600  1
  K  K46  1  0.71988581  0.05108605  0.47067934  1
  K  K47  1  0.71988581  0.05108605  0.80401267  1
  K  K48  1  0.71988581  0.38441938  0.13734600  1
  K  K49  1  0.71988581  0.38441938  0.47067934  1
  K  K50  1  0.71988581  0.38441938  0.80401267  1
  K  K51  1  0.71988581  0.71775272  0.13734600  1
  K  K52  1  0.71988581  0.71775272  0.47067934  1
  K  K53  1  0.71988581  0.71775272  0.80401267  1
  K  K54  1  0.28011419  0.21775272  0.02932066  1
  K  K55  1  0.28011419  0.21775272  0.36265400  1
  K  K56  1  0.28011419  0.21775272  0.69598733  1
  K  K57  1  0.28011419  0.55108605  0.02932066  1
  K  K58  1  0.28011419  0.55108605  0.36265400  1
  K  K59  1  0.28011419  0.55108605  0.69598733  1
  K  K60  1  0.28011419  0.88441938  0.02932066  1
  K  K61  1  0.28011419  0.88441938  0.36265400  1
  K  K62  1  0.28011419  0.88441938  0.69598733  1
  K  K63  1  0.61344752  0.21775272  0.02932066  1
  K  K64  1  0.61344752  0.21775272  0.36265400  1
  K  K65  1  0.61344752  0.21775272  0.69598733  1
  K  K66  1  0.61344752  0.55108605  0.02932066  1
  K  K67  1  0.61344752  0.55108605  0.36265400  1
  K  K68  1  0.61344752  0.55108605  0.69598733  1
  K  K69  1  0.61344752  0.88441938  0.02932066  1
  K  K70  1  0.61344752  0.88441938  0.36265400  1
  K  K71  1  0.61344752  0.88441938  0.69598733  1
  K  K72  1  0.94678086  0.21775272  0.02932066  1
  K  K73  1  0.94678086  0.21775272  0.36265400  1
  K  K74  1  0.94678086  0.21775272  0.69598733  1
  K  K75  1  0.94678086  0.55108605  0.02932066  1
  K  K76  1  0.94678086  0.55108605  0.36265400  1
  K  K77  1  0.94678086  0.55108605  0.69598733  1
  K  K78  1  0.94678086  0.88441938  0.02932066  1
  K  K79  1  0.94678086  0.88441938  0.36265400  1
  K  K80  1  0.94678086  0.88441938  0.69598733  1
  K  K81  1  0.28011419  0.28224728  0.19598733  1
  K  K82  1  0.28011419  0.28224728  0.52932066  1
  K  K83  1  0.28011419  0.28224728  0.86265400  1
  K  K84  1  0.28011419  0.61558062  0.19598733  1
  K  K85  1  0.28011419  0.61558062  0.52932066  1
  K  K86  1  0.28011419  0.61558062  0.86265400  1
  K  K87  1  0.28011419  0.94891395  0.19598733  1
  K  K88  1  0.28011419  0.94891395  0.52932066  1
  K  K89  1  0.28011419  0.94891395  0.86265400  1
  K  K90  1  0.61344752  0.28224728  0.19598733  1
  K  K91  1  0.61344752  0.28224728  0.52932066  1
  K  K92  1  0.61344752  0.28224728  0.86265400  1
  K  K93  1  0.61344752  0.61558062  0.19598733  1
  K  K94  1  0.61344752  0.61558062  0.52932066  1
  K  K95  1  0.61344752  0.61558062  0.86265400  1
  K  K96  1  0.61344752  0.94891395  0.19598733  1
  K  K97  1  0.61344752  0.94891395  0.52932066  1
  K  K98  1  0.61344752  0.94891395  0.86265400  1
  K  K99  1  0.94678086  0.28224728  0.19598733  1
  K  K100  1  0.94678086  0.28224728  0.52932066  1
  K  K101  1  0.94678086  0.28224728  0.86265400  1
  K  K102  1  0.94678086  0.61558062  0.19598733  1
  K  K103  1  0.94678086  0.61558062  0.52932066  1
  K  K104  1  0.94678086  0.61558062  0.86265400  1
  K  K105  1  0.94678086  0.94891395  0.19598733  1
  K  K106  1  0.94678086  0.94891395  0.52932066  1
  K  K107  1  0.94678086  0.94891395  0.86265400  1
  Cd  Cd108  1  0.22020555  0.04167294  0.30701622  1
  Cd  Cd109  1  0.22020555  0.04167294  0.64034956  1
  Cd  Cd110  1  0.22020555  0.04167294  0.97368289  1
  Cd  Cd111  1  0.22020555  0.37500627  0.30701622  1
  Cd  Cd112  1  0.22020555  0.37500627  0.64034956  1
  Cd  Cd113  1  0.22020555  0.37500627  0.97368289  1
  Cd  Cd114  1  0.22020555  0.70833961  0.30701622  1
  Cd  Cd115  1  0.22020555  0.70833961  0.64034956  1
  Cd  Cd116  1  0.22020555  0.70833961  0.97368289  1
  Cd  Cd117  1  0.55353889  0.04167294  0.30701622  1
  Cd  Cd118  1  0.55353889  0.04167294  0.64034956  1
  Cd  Cd119  1  0.55353889  0.04167294  0.97368289  1
  Cd  Cd120  1  0.55353889  0.37500627  0.30701622  1
  Cd  Cd121  1  0.55353889  0.37500627  0.64034956  1
  Cd  Cd122  1  0.55353889  0.37500627  0.97368289  1
  Cd  Cd123  1  0.55353889  0.70833961  0.30701622  1
  Cd  Cd124  1  0.55353889  0.70833961  0.64034956  1
  Cd  Cd125  1  0.55353889  0.70833961  0.97368289  1
  Cd  Cd126  1  0.88687222  0.04167294  0.30701622  1
  Cd  Cd127  1  0.88687222  0.04167294  0.64034956  1
  Cd  Cd128  1  0.88687222  0.04167294  0.97368289  1
  Cd  Cd129  1  0.88687222  0.37500627  0.30701622  1
  Cd  Cd130  1  0.88687222  0.37500627  0.64034956  1
  Cd  Cd131  1  0.88687222  0.37500627  0.97368289  1
  Cd  Cd132  1  0.88687222  0.70833961  0.30701622  1
  Cd  Cd133  1  0.88687222  0.70833961  0.64034956  1
  Cd  Cd134  1  0.88687222  0.70833961  0.97368289  1
  Cd  Cd135  1  0.22020555  0.12499373  0.14034956  1
  Cd  Cd136  1  0.22020555  0.12499373  0.47368289  1
  Cd  Cd137  1  0.22020555  0.12499373  0.80701622  1
  Cd  Cd138  1  0.22020555  0.45832706  0.14034956  1
  Cd  Cd139  1  0.22020555  0.45832706  0.47368289  1
  Cd  Cd140  1  0.22020555  0.45832706  0.80701622  1
  Cd  Cd141  1  0.22020555  0.79166039  0.14034956  1
  Cd  Cd142  1  0.22020555  0.79166039  0.47368289  1
  Cd  Cd143  1  0.22020555  0.79166039  0.80701622  1
  Cd  Cd144  1  0.55353889  0.12499373  0.14034956  1
  Cd  Cd145  1  0.55353889  0.12499373  0.47368289  1
  Cd  Cd146  1  0.55353889  0.12499373  0.80701622  1
  Cd  Cd147  1  0.55353889  0.45832706  0.14034956  1
  Cd  Cd148  1  0.55353889  0.45832706  0.47368289  1
  Cd  Cd149  1  0.55353889  0.45832706  0.80701622  1
  Cd  Cd150  1  0.55353889  0.79166039  0.14034956  1
  Cd  Cd151  1  0.55353889  0.79166039  0.47368289  1
  Cd  Cd152  1  0.55353889  0.79166039  0.80701622  1
  Cd  Cd153  1  0.88687222  0.12499373  0.14034956  1
  Cd  Cd154  1  0.88687222  0.12499373  0.47368289  1
  Cd  Cd155  1  0.88687222  0.12499373  0.80701622  1
  Cd  Cd156  1  0.88687222  0.45832706  0.14034956  1
  Cd  Cd157  1  0.88687222  0.45832706  0.47368289  1
  Cd  Cd158  1  0.88687222  0.45832706  0.80701622  1
  Cd  Cd159  1  0.88687222  0.79166039  0.14034956  1
  Cd  Cd160  1  0.88687222  0.79166039  0.47368289  1
  Cd  Cd161  1  0.88687222  0.79166039  0.80701622  1
  Cd  Cd162  1  0.11312778  0.29166039  0.02631711  1
  Cd  Cd163  1  0.11312778  0.29166039  0.35965044  1
  Cd  Cd164  1  0.11312778  0.29166039  0.69298378  1
  Cd  Cd165  1  0.11312778  0.62499373  0.02631711  1
  Cd  Cd166  1  0.11312778  0.62499373  0.35965044  1
  Cd  Cd167  1  0.11312778  0.62499373  0.69298378  1
  Cd  Cd168  1  0.11312778  0.95832706  0.02631711  1
  Cd  Cd169  1  0.11312778  0.95832706  0.35965044  1
  Cd  Cd170  1  0.11312778  0.95832706  0.69298378  1
  Cd  Cd171  1  0.44646111  0.29166039  0.02631711  1
  Cd  Cd172  1  0.44646111  0.29166039  0.35965044  1
  Cd  Cd173  1  0.44646111  0.29166039  0.69298378  1
  Cd  Cd174  1  0.44646111  0.62499373  0.02631711  1
  Cd  Cd175  1  0.44646111  0.62499373  0.35965044  1
  Cd  Cd176  1  0.44646111  0.62499373  0.69298378  1
  Cd  Cd177  1  0.44646111  0.95832706  0.02631711  1
  Cd  Cd178  1  0.44646111  0.95832706  0.35965044  1
  Cd  Cd179  1  0.44646111  0.95832706  0.69298378  1
  Cd  Cd180  1  0.77979445  0.29166039  0.02631711  1
  Cd  Cd181  1  0.77979445  0.29166039  0.35965044  1
  Cd  Cd182  1  0.77979445  0.29166039  0.69298378  1
  Cd  Cd183  1  0.77979445  0.62499373  0.02631711  1
  Cd  Cd184  1  0.77979445  0.62499373  0.35965044  1
  Cd  Cd185  1  0.77979445  0.62499373  0.69298378  1
  Cd  Cd186  1  0.77979445  0.95832706  0.02631711  1
  Cd  Cd187  1  0.77979445  0.95832706  0.35965044  1
  Cd  Cd188  1  0.77979445  0.95832706  0.69298378  1
  Cd  Cd189  1  0.11312778  0.20833961  0.19298378  1
  Cd  Cd190  1  0.11312778  0.20833961  0.52631711  1
  Cd  Cd191  1  0.11312778  0.20833961  0.85965044  1
  Cd  Cd192  1  0.11312778  0.54167294  0.19298378  1
  Cd  Cd193  1  0.11312778  0.54167294  0.52631711  1
  Cd  Cd194  1  0.11312778  0.54167294  0.85965044  1
  Cd  Cd195  1  0.11312778  0.87500627  0.19298378  1
  Cd  Cd196  1  0.11312778  0.87500627  0.52631711  1
  Cd  Cd197  1  0.11312778  0.87500627  0.85965044  1
  Cd  Cd198  1  0.44646111  0.20833961  0.19298378  1
  Cd  Cd199  1  0.44646111  0.20833961  0.52631711  1
  Cd  Cd200  1  0.44646111  0.20833961  0.85965044  1
  Cd  Cd201  1  0.44646111  0.54167294  0.19298378  1
  Cd  Cd202  1  0.44646111  0.54167294  0.52631711  1
  Cd  Cd203  1  0.44646111  0.54167294  0.85965044  1
  Cd  Cd204  1  0.44646111  0.87500627  0.19298378  1
  Cd  Cd205  1  0.44646111  0.87500627  0.52631711  1
  Cd  Cd206  1  0.44646111  0.87500627  0.85965044  1
  Cd  Cd207  1  0.77979445  0.20833961  0.19298378  1
  Cd  Cd208  1  0.77979445  0.20833961  0.52631711  1
  Cd  Cd209  1  0.77979445  0.20833961  0.85965044  1
  Cd  Cd210  1  0.77979445  0.54167294  0.19298378  1
  Cd  Cd211  1  0.77979445  0.54167294  0.52631711  1
  Cd  Cd212  1  0.77979445  0.54167294  0.85965044  1
  Cd  Cd213  1  0.77979445  0.87500627  0.19298378  1
  Cd  Cd214  1  0.77979445  0.87500627  0.52631711  1
  Cd  Cd215  1  0.77979445  0.87500627  0.85965044  1
  O  O216  1  0.00000000  0.16666667  0.16666667  1
  O  O217  1  0.00000000  0.16666667  0.50000000  1
  O  O218  1  0.00000000  0.16666667  0.83333333  1
  O  O219  1  0.00000000  0.50000000  0.16666667  1
  O  O220  1  0.00000000  0.50000000  0.50000000  1
  O  O221  1  0.00000000  0.50000000  0.83333333  1
  O  O222  1  0.00000000  0.83333333  0.16666667  1
  O  O223  1  0.00000000  0.83333333  0.50000000  1
  O  O224  1  0.00000000  0.83333333  0.83333333  1
  O  O225  1  0.33333333  0.16666667  0.16666667  1
  O  O226  1  0.33333333  0.16666667  0.50000000  1
  O  O227  1  0.33333333  0.16666667  0.83333333  1
  O  O228  1  0.33333333  0.50000000  0.16666667  1
  O  O229  1  0.33333333  0.50000000  0.50000000  1
  O  O230  1  0.33333333  0.50000000  0.83333333  1
  O  O231  1  0.33333333  0.83333333  0.16666667  1
  O  O232  1  0.33333333  0.83333333  0.50000000  1
  O  O233  1  0.33333333  0.83333333  0.83333333  1
  O  O234  1  0.66666667  0.16666667  0.16666667  1
  O  O235  1  0.66666667  0.16666667  0.50000000  1
  O  O236  1  0.66666667  0.16666667  0.83333333  1
  O  O237  1  0.66666667  0.50000000  0.16666667  1
  O  O238  1  0.66666667  0.50000000  0.50000000  1
  O  O239  1  0.66666667  0.50000000  0.83333333  1
  O  O240  1  0.66666667  0.83333333  0.16666667  1
  O  O241  1  0.66666667  0.83333333  0.50000000  1
  O  O242  1  0.66666667  0.83333333  0.83333333  1
  O  O243  1  0.12344374  0.20042182  0.08866215  1
  O  O244  1  0.12344374  0.20042182  0.42199548  1
  O  O245  1  0.12344374  0.20042182  0.75532882  1
  O  O246  1  0.12344374  0.53375515  0.08866215  1
  O  O247  1  0.12344374  0.53375515  0.42199548  1
  O  O248  1  0.12344374  0.53375515  0.75532882  1
  O  O249  1  0.12344374  0.86708848  0.08866215  1
  O  O250  1  0.12344374  0.86708848  0.42199548  1
  O  O251  1  0.12344374  0.86708848  0.75532882  1
  O  O252  1  0.45677708  0.20042182  0.08866215  1
  O  O253  1  0.45677708  0.20042182  0.42199548  1
  O  O254  1  0.45677708  0.20042182  0.75532882  1
  O  O255  1  0.45677708  0.53375515  0.08866215  1
  O  O256  1  0.45677708  0.53375515  0.42199548  1
  O  O257  1  0.45677708  0.53375515  0.75532882  1
  O  O258  1  0.45677708  0.86708848  0.08866215  1
  O  O259  1  0.45677708  0.86708848  0.42199548  1
  O  O260  1  0.45677708  0.86708848  0.75532882  1
  O  O261  1  0.79011041  0.20042182  0.08866215  1
  O  O262  1  0.79011041  0.20042182  0.42199548  1
  O  O263  1  0.79011041  0.20042182  0.75532882  1
  O  O264  1  0.79011041  0.53375515  0.08866215  1
  O  O265  1  0.79011041  0.53375515  0.42199548  1
  O  O266  1  0.79011041  0.53375515  0.75532882  1
  O  O267  1  0.79011041  0.86708848  0.08866215  1
  O  O268  1  0.79011041  0.86708848  0.42199548  1
  O  O269  1  0.79011041  0.86708848  0.75532882  1
  O  O270  1  0.20988959  0.03375515  0.07800452  1
  O  O271  1  0.20988959  0.03375515  0.41133785  1
  O  O272  1  0.20988959  0.03375515  0.74467118  1
  O  O273  1  0.20988959  0.36708848  0.07800452  1
  O  O274  1  0.20988959  0.36708848  0.41133785  1
  O  O275  1  0.20988959  0.36708848  0.74467118  1
  O  O276  1  0.20988959  0.70042182  0.07800452  1
  O  O277  1  0.20988959  0.70042182  0.41133785  1
  O  O278  1  0.20988959  0.70042182  0.74467118  1
  O  O279  1  0.54322292  0.03375515  0.07800452  1
  O  O280  1  0.54322292  0.03375515  0.41133785  1
  O  O281  1  0.54322292  0.03375515  0.74467118  1
  O  O282  1  0.54322292  0.36708848  0.07800452  1
  O  O283  1  0.54322292  0.36708848  0.41133785  1
  O  O284  1  0.54322292  0.36708848  0.74467118  1
  O  O285  1  0.54322292  0.70042182  0.07800452  1
  O  O286  1  0.54322292  0.70042182  0.41133785  1
  O  O287  1  0.54322292  0.70042182  0.74467118  1
  O  O288  1  0.87655626  0.03375515  0.07800452  1
  O  O289  1  0.87655626  0.03375515  0.41133785  1
  O  O290  1  0.87655626  0.03375515  0.74467118  1
  O  O291  1  0.87655626  0.36708848  0.07800452  1
  O  O292  1  0.87655626  0.36708848  0.41133785  1
  O  O293  1  0.87655626  0.36708848  0.74467118  1
  O  O294  1  0.87655626  0.70042182  0.07800452  1
  O  O295  1  0.87655626  0.70042182  0.41133785  1
  O  O296  1  0.87655626  0.70042182  0.74467118  1
  O  O297  1  0.20988959  0.13291152  0.24467118  1
  O  O298  1  0.20988959  0.13291152  0.57800452  1
  O  O299  1  0.20988959  0.13291152  0.91133785  1
  O  O300  1  0.20988959  0.46624485  0.24467118  1
  O  O301  1  0.20988959  0.46624485  0.57800452  1
  O  O302  1  0.20988959  0.46624485  0.91133785  1
  O  O303  1  0.20988959  0.79957818  0.24467118  1
  O  O304  1  0.20988959  0.79957818  0.57800452  1
  O  O305  1  0.20988959  0.79957818  0.91133785  1
  O  O306  1  0.54322292  0.13291152  0.24467118  1
  O  O307  1  0.54322292  0.13291152  0.57800452  1
  O  O308  1  0.54322292  0.13291152  0.91133785  1
  O  O309  1  0.54322292  0.46624485  0.24467118  1
  O  O310  1  0.54322292  0.46624485  0.57800452  1
  O  O311  1  0.54322292  0.46624485  0.91133785  1
  O  O312  1  0.54322292  0.79957818  0.24467118  1
  O  O313  1  0.54322292  0.79957818  0.57800452  1
  O  O314  1  0.54322292  0.79957818  0.91133785  1
  O  O315  1  0.87655626  0.13291152  0.24467118  1
  O  O316  1  0.87655626  0.13291152  0.57800452  1
  O  O317  1  0.87655626  0.13291152  0.91133785  1
  O  O318  1  0.87655626  0.46624485  0.24467118  1
  O  O319  1  0.87655626  0.46624485  0.57800452  1
  O  O320  1  0.87655626  0.46624485  0.91133785  1
  O  O321  1  0.87655626  0.79957818  0.24467118  1
  O  O322  1  0.87655626  0.79957818  0.57800452  1
  O  O323  1  0.87655626  0.79957818  0.91133785  1
  O  O324  1  0.00000000  0.00000000  0.00000000  1
  O  O325  1  0.00000000  0.00000000  0.33333333  1
  O  O326  1  0.00000000  0.00000000  0.66666667  1
  O  O327  1  0.00000000  0.33333333  0.00000000  1
  O  O328  1  0.00000000  0.33333333  0.33333333  1
  O  O329  1  0.00000000  0.33333333  0.66666667  1
  O  O330  1  0.00000000  0.66666667  0.00000000  1
  O  O331  1  0.00000000  0.66666667  0.33333333  1
  O  O332  1  0.00000000  0.66666667  0.66666667  1
  O  O333  1  0.33333333  0.00000000  0.00000000  1
  O  O334  1  0.33333333  0.00000000  0.33333333  1
  O  O335  1  0.33333333  0.00000000  0.66666667  1
  O  O336  1  0.33333333  0.33333333  0.00000000  1
  O  O337  1  0.33333333  0.33333333  0.33333333  1
  O  O338  1  0.33333333  0.33333333  0.66666667  1
  O  O339  1  0.33333333  0.66666667  0.00000000  1
  O  O340  1  0.33333333  0.66666667  0.33333333  1
  O  O341  1  0.33333333  0.66666667  0.66666667  1
  O  O342  1  0.66666667  0.00000000  0.00000000  1
  O  O343  1  0.66666667  0.00000000  0.33333333  1
  O  O344  1  0.66666667  0.00000000  0.66666667  1
  O  O345  1  0.66666667  0.33333333  0.00000000  1
  O  O346  1  0.66666667  0.33333333  0.33333333  1
  O  O347  1  0.66666667  0.33333333  0.66666667  1
  O  O348  1  0.66666667  0.66666667  0.00000000  1
  O  O349  1  0.66666667  0.66666667  0.33333333  1
  O  O350  1  0.66666667  0.66666667  0.66666667  1
  O  O351  1  0.12344374  0.29957818  0.25532882  1
  O  O352  1  0.12344374  0.29957818  0.58866215  1
  O  O353  1  0.12344374  0.29957818  0.92199548  1
  O  O354  1  0.12344374  0.63291152  0.25532882  1
  O  O355  1  0.12344374  0.63291152  0.58866215  1
  O  O356  1  0.12344374  0.63291152  0.92199548  1
  O  O357  1  0.12344374  0.96624485  0.25532882  1
  O  O358  1  0.12344374  0.96624485  0.58866215  1
  O  O359  1  0.12344374  0.96624485  0.92199548  1
  O  O360  1  0.45677708  0.29957818  0.25532882  1
  O  O361  1  0.45677708  0.29957818  0.58866215  1
  O  O362  1  0.45677708  0.29957818  0.92199548  1
  O  O363  1  0.45677708  0.63291152  0.25532882  1
  O  O364  1  0.45677708  0.63291152  0.58866215  1
  O  O365  1  0.45677708  0.63291152  0.92199548  1
  O  O366  1  0.45677708  0.96624485  0.25532882  1
  O  O367  1  0.45677708  0.96624485  0.58866215  1
  O  O368  1  0.45677708  0.96624485  0.92199548  1
  O  O369  1  0.79011041  0.29957818  0.25532882  1
  O  O370  1  0.79011041  0.29957818  0.58866215  1
  O  O371  1  0.79011041  0.29957818  0.92199548  1
  O  O372  1  0.79011041  0.63291152  0.25532882  1
  O  O373  1  0.79011041  0.63291152  0.58866215  1
  O  O374  1  0.79011041  0.63291152  0.92199548  1
  O  O375  1  0.79011041  0.96624485  0.25532882  1
  O  O376  1  0.79011041  0.96624485  0.58866215  1
  O  O377  1  0.79011041  0.96624485  0.92199548  1
