# generated using pymatgen
data_Mg3V2O8
_symmetry_space_group_name_H-M   'P 1'
_cell_length_a   12.08733335
_cell_length_b   11.43644156
_cell_length_c   8.30469524
_cell_angle_alpha   90.00000000
_cell_angle_beta   90.00000000
_cell_angle_gamma   90.00000000
_symmetry_Int_Tables_number   1
_chemical_formula_structural   Mg3V2O8
_chemical_formula_sum   'Mg24 V16 O64'
_cell_volume   1148.00852878
_cell_formula_units_Z   8
loop_
 _symmetry_equiv_pos_site_id
 _symmetry_equiv_pos_as_xyz
  1  'x, y, z'
loop_
 _atom_site_type_symbol
 _atom_site_label
 _atom_site_symmetry_multiplicity
 _atom_site_fract_x
 _atom_site_fract_y
 _atom_site_fract_z
 _atom_site_occupancy
  Mg  Mg0  1  0.25000000  0.00000000  0.00000000  1
  Mg  Mg1  1  0.75000000  0.00000000  0.00000000  1
  Mg  Mg2  1  0.50000000  0.50000000  0.00000000  1
  Mg  Mg3  1  1.00000000  0.50000000  0.00000000  1
  Mg  Mg4  1  0.00000000  0.00000000  0.50000000  1
  Mg  Mg5  1  0.50000000  0.00000000  0.50000000  1
  Mg  Mg6  1  0.25000000  0.50000000  0.50000000  1
  Mg  Mg7  1  0.75000000  0.50000000  0.50000000  1
  Mg  Mg8  1  0.12500000  0.13608527  0.75000000  1
  Mg  Mg9  1  0.62500000  0.13608527  0.75000000  1
  Mg  Mg10  1  0.37500000  0.63608527  0.75000000  1
  Mg  Mg11  1  0.87500000  0.63608527  0.75000000  1
  Mg  Mg12  1  0.12500000  -0.13608527  0.25000000  1
  Mg  Mg13  1  0.62500000  -0.13608527  0.25000000  1
  Mg  Mg14  1  0.37500000  0.36391473  0.25000000  1
  Mg  Mg15  1  0.87500000  0.36391473  0.25000000  1
  Mg  Mg16  1  0.37500000  0.13608527  0.75000000  1
  Mg  Mg17  1  0.87500000  0.13608527  0.75000000  1
  Mg  Mg18  1  0.62500000  0.63608527  0.75000000  1
  Mg  Mg19  1  1.12500000  0.63608527  0.75000000  1
  Mg  Mg20  1  0.37500000  -0.13608527  0.25000000  1
  Mg  Mg21  1  0.87500000  -0.13608527  0.25000000  1
  Mg  Mg22  1  0.62500000  0.36391473  0.25000000  1
  Mg  Mg23  1  1.12500000  0.36391473  0.25000000  1
  V  V24  1  0.25000000  0.38052009  0.88007513  1
  V  V25  1  0.75000000  0.38052009  0.88007513  1
  V  V26  1  0.50000000  0.88052009  0.88007513  1
  V  V27  1  1.00000000  0.88052009  0.88007513  1
  V  V28  1  0.25000000  -0.38052009  0.11992487  1
  V  V29  1  0.75000000  -0.38052009  0.11992487  1
  V  V30  1  0.50000000  0.11947991  0.11992487  1
  V  V31  1  1.00000000  0.11947991  0.11992487  1
  V  V32  1  0.25000000  0.11947991  0.38007513  1
  V  V33  1  0.75000000  0.11947991  0.38007513  1
  V  V34  1  0.50000000  0.61947991  0.38007513  1
  V  V35  1  1.00000000  0.61947991  0.38007513  1
  V  V36  1  0.25000000  -0.11947991  0.61992487  1
  V  V37  1  0.75000000  -0.11947991  0.61992487  1
  V  V38  1  0.50000000  0.38052009  0.61992487  1
  V  V39  1  1.00000000  0.38052009  0.61992487  1
  O  O40  1  0.36493870  -0.11747909  0.50045453  1
  O  O41  1  0.86493870  -0.11747909  0.50045453  1
  O  O42  1  0.61493870  0.38252091  0.50045453  1
  O  O43  1  1.11493870  0.38252091  0.50045453  1
  O  O44  1  0.36493870  0.11747909  0.49954547  1
  O  O45  1  0.86493870  0.11747909  0.49954547  1
  O  O46  1  0.61493870  0.61747909  0.49954547  1
  O  O47  1  1.11493870  0.61747909  0.49954547  1
  O  O48  1  0.38506130  0.11747909  0.00045453  1
  O  O49  1  0.88506130  0.11747909  0.00045453  1
  O  O50  1  0.63506130  0.61747909  0.00045453  1
  O  O51  1  1.13506130  0.61747909  0.00045453  1
  O  O52  1  0.38506130  -0.11747909  0.99954547  1
  O  O53  1  0.88506130  -0.11747909  0.99954547  1
  O  O54  1  0.63506130  0.38252091  0.99954547  1
  O  O55  1  1.13506130  0.38252091  0.99954547  1
  O  O56  1  0.13506130  0.11747909  0.49954547  1
  O  O57  1  0.63506130  0.11747909  0.49954547  1
  O  O58  1  0.38506130  0.61747909  0.49954547  1
  O  O59  1  0.88506130  0.61747909  0.49954547  1
  O  O60  1  0.13506130  -0.11747909  0.50045453  1
  O  O61  1  0.63506130  -0.11747909  0.50045453  1
  O  O62  1  0.38506130  0.38252091  0.50045453  1
  O  O63  1  0.88506130  0.38252091  0.50045453  1
  O  O64  1  0.11493870  -0.11747909  0.99954547  1
  O  O65  1  0.61493870  -0.11747909  0.99954547  1
  O  O66  1  0.36493870  0.38252091  0.99954547  1
  O  O67  1  0.86493870  0.38252091  0.99954547  1
  O  O68  1  0.11493870  0.11747909  0.00045453  1
  O  O69  1  0.61493870  0.11747909  0.00045453  1
  O  O70  1  0.36493870  0.61747909  0.00045453  1
  O  O71  1  0.86493870  0.61747909  0.00045453  1
  O  O72  1  0.25000000  -0.49668591  0.74558444  1
  O  O73  1  0.75000000  -0.49668591  0.74558444  1
  O  O74  1  0.50000000  0.00331409  0.74558444  1
  O  O75  1  1.00000000  0.00331409  0.74558444  1
  O  O76  1  0.25000000  0.49668591  0.25441556  1
  O  O77  1  0.75000000  0.49668591  0.25441556  1
  O  O78  1  0.50000000  0.99668591  0.25441556  1
  O  O79  1  1.00000000  0.99668591  0.25441556  1
  O  O80  1  0.25000000  0.25185236  0.77300776  1
  O  O81  1  0.75000000  0.25185236  0.77300776  1
  O  O82  1  0.50000000  0.75185236  0.77300776  1
  O  O83  1  1.00000000  0.75185236  0.77300776  1
  O  O84  1  0.25000000  -0.25185236  0.22699224  1
  O  O85  1  0.75000000  -0.25185236  0.22699224  1
  O  O86  1  0.50000000  0.24814764  0.22699224  1
  O  O87  1  1.00000000  0.24814764  0.22699224  1
  O  O88  1  0.25000000  0.24814764  0.27300776  1
  O  O89  1  0.75000000  0.24814764  0.27300776  1
  O  O90  1  0.50000000  0.74814764  0.27300776  1
  O  O91  1  1.00000000  0.74814764  0.27300776  1
  O  O92  1  0.25000000  -0.24814764  0.72699224  1
  O  O93  1  0.75000000  -0.24814764  0.72699224  1
  O  O94  1  0.50000000  0.25185236  0.72699224  1
  O  O95  1  1.00000000  0.25185236  0.72699224  1
  O  O96  1  0.25000000  0.00331409  0.75441556  1
  O  O97  1  0.75000000  0.00331409  0.75441556  1
  O  O98  1  0.50000000  0.50331409  0.75441556  1
  O  O99  1  1.00000000  0.50331409  0.75441556  1
  O  O100  1  0.25000000  -0.00331409  0.24558444  1
  O  O101  1  0.75000000  -0.00331409  0.24558444  1
  O  O102  1  0.50000000  0.49668591  0.24558444  1
  O  O103  1  1.00000000  0.49668591  0.24558444  1
