# generated using pymatgen
data_VAg3HgO4
_symmetry_space_group_name_H-M   'P 1'
_cell_length_a   18.31605927
_cell_length_b   17.40047213
_cell_length_c   17.80254567
_cell_angle_alpha   81.60967711
_cell_angle_beta   68.06741356
_cell_angle_gamma   67.20972253
_symmetry_Int_Tables_number   1
_chemical_formula_structural   VAg3HgO4
_chemical_formula_sum   'V36 Ag108 Hg36 O144'
_cell_volume   4852.26063466
_cell_formula_units_Z   36
loop_
 _symmetry_equiv_pos_site_id
 _symmetry_equiv_pos_as_xyz
  1  'x, y, z'
loop_
 _atom_site_type_symbol
 _atom_site_label
 _atom_site_symmetry_multiplicity
 _atom_site_fract_x
 _atom_site_fract_y
 _atom_site_fract_z
 _atom_site_occupancy
  V  V0  1  0.00254732  0.00105972  0.33034730  1
  V  V1  1  0.00254732  0.00105972  0.66368063  1
  V  V2  1  0.00254732  0.00105972  0.99701397  1
  V  V3  1  0.00254732  0.33439306  0.33034730  1
  V  V4  1  0.00254732  0.33439306  0.66368063  1
  V  V5  1  0.00254732  0.33439306  0.99701397  1
  V  V6  1  0.00254732  0.66772639  0.33034730  1
  V  V7  1  0.00254732  0.66772639  0.66368063  1
  V  V8  1  0.00254732  0.66772639  0.99701397  1
  V  V9  1  0.25254732  0.00105972  0.33034730  1
  V  V10  1  0.25254732  0.00105972  0.66368063  1
  V  V11  1  0.25254732  0.00105972  0.99701397  1
  V  V12  1  0.25254732  0.33439306  0.33034730  1
  V  V13  1  0.25254732  0.33439306  0.66368063  1
  V  V14  1  0.25254732  0.33439306  0.99701397  1
  V  V15  1  0.25254732  0.66772639  0.33034730  1
  V  V16  1  0.25254732  0.66772639  0.66368063  1
  V  V17  1  0.25254732  0.66772639  0.99701397  1
  V  V18  1  0.50254732  0.00105972  0.33034730  1
  V  V19  1  0.50254732  0.00105972  0.66368063  1
  V  V20  1  0.50254732  0.00105972  0.99701397  1
  V  V21  1  0.50254732  0.33439306  0.33034730  1
  V  V22  1  0.50254732  0.33439306  0.66368063  1
  V  V23  1  0.50254732  0.33439306  0.99701397  1
  V  V24  1  0.50254732  0.66772639  0.33034730  1
  V  V25  1  0.50254732  0.66772639  0.66368063  1
  V  V26  1  0.50254732  0.66772639  0.99701397  1
  V  V27  1  0.75254732  0.00105972  0.33034730  1
  V  V28  1  0.75254732  0.00105972  0.66368063  1
  V  V29  1  0.75254732  0.00105972  0.99701397  1
  V  V30  1  0.75254732  0.33439306  0.33034730  1
  V  V31  1  0.75254732  0.33439306  0.66368063  1
  V  V32  1  0.75254732  0.33439306  0.99701397  1
  V  V33  1  0.75254732  0.66772639  0.33034730  1
  V  V34  1  0.75254732  0.66772639  0.66368063  1
  V  V35  1  0.75254732  0.66772639  0.99701397  1
  Ag  Ag36  1  0.09688154  0.13598739  0.24778613  1
  Ag  Ag37  1  0.09688154  0.13598739  0.58111946  1
  Ag  Ag38  1  0.09688154  0.13598739  0.91445279  1
  Ag  Ag39  1  0.09688154  0.46932072  0.24778613  1
  Ag  Ag40  1  0.09688154  0.46932072  0.58111946  1
  Ag  Ag41  1  0.09688154  0.46932072  0.91445279  1
  Ag  Ag42  1  0.09688154  0.80265405  0.24778613  1
  Ag  Ag43  1  0.09688154  0.80265405  0.58111946  1
  Ag  Ag44  1  0.09688154  0.80265405  0.91445279  1
  Ag  Ag45  1  0.34688154  0.13598739  0.24778613  1
  Ag  Ag46  1  0.34688154  0.13598739  0.58111946  1
  Ag  Ag47  1  0.34688154  0.13598739  0.91445279  1
  Ag  Ag48  1  0.34688154  0.46932072  0.24778613  1
  Ag  Ag49  1  0.34688154  0.46932072  0.58111946  1
  Ag  Ag50  1  0.34688154  0.46932072  0.91445279  1
  Ag  Ag51  1  0.34688154  0.80265405  0.24778613  1
  Ag  Ag52  1  0.34688154  0.80265405  0.58111946  1
  Ag  Ag53  1  0.34688154  0.80265405  0.91445279  1
  Ag  Ag54  1  0.59688154  0.13598739  0.24778613  1
  Ag  Ag55  1  0.59688154  0.13598739  0.58111946  1
  Ag  Ag56  1  0.59688154  0.13598739  0.91445279  1
  Ag  Ag57  1  0.59688154  0.46932072  0.24778613  1
  Ag  Ag58  1  0.59688154  0.46932072  0.58111946  1
  Ag  Ag59  1  0.59688154  0.46932072  0.91445279  1
  Ag  Ag60  1  0.59688154  0.80265405  0.24778613  1
  Ag  Ag61  1  0.59688154  0.80265405  0.58111946  1
  Ag  Ag62  1  0.59688154  0.80265405  0.91445279  1
  Ag  Ag63  1  0.84688154  0.13598739  0.24778613  1
  Ag  Ag64  1  0.84688154  0.13598739  0.58111946  1
  Ag  Ag65  1  0.84688154  0.13598739  0.91445279  1
  Ag  Ag66  1  0.84688154  0.46932072  0.24778613  1
  Ag  Ag67  1  0.84688154  0.46932072  0.58111946  1
  Ag  Ag68  1  0.84688154  0.46932072  0.91445279  1
  Ag  Ag69  1  0.84688154  0.80265405  0.24778613  1
  Ag  Ag70  1  0.84688154  0.80265405  0.58111946  1
  Ag  Ag71  1  0.84688154  0.80265405  0.91445279  1
  Ag  Ag72  1  0.04816786  0.08339364  0.13876677  1
  Ag  Ag73  1  0.04816786  0.08339364  0.47210010  1
  Ag  Ag74  1  0.04816786  0.08339364  0.80543344  1
  Ag  Ag75  1  0.04816786  0.41672697  0.13876677  1
  Ag  Ag76  1  0.04816786  0.41672697  0.47210010  1
  Ag  Ag77  1  0.04816786  0.41672697  0.80543344  1
  Ag  Ag78  1  0.04816786  0.75006030  0.13876677  1
  Ag  Ag79  1  0.04816786  0.75006030  0.47210010  1
  Ag  Ag80  1  0.04816786  0.75006030  0.80543344  1
  Ag  Ag81  1  0.29816786  0.08339364  0.13876677  1
  Ag  Ag82  1  0.29816786  0.08339364  0.47210010  1
  Ag  Ag83  1  0.29816786  0.08339364  0.80543344  1
  Ag  Ag84  1  0.29816786  0.41672697  0.13876677  1
  Ag  Ag85  1  0.29816786  0.41672697  0.47210010  1
  Ag  Ag86  1  0.29816786  0.41672697  0.80543344  1
  Ag  Ag87  1  0.29816786  0.75006030  0.13876677  1
  Ag  Ag88  1  0.29816786  0.75006030  0.47210010  1
  Ag  Ag89  1  0.29816786  0.75006030  0.80543344  1
  Ag  Ag90  1  0.54816786  0.08339364  0.13876677  1
  Ag  Ag91  1  0.54816786  0.08339364  0.47210010  1
  Ag  Ag92  1  0.54816786  0.08339364  0.80543344  1
  Ag  Ag93  1  0.54816786  0.41672697  0.13876677  1
  Ag  Ag94  1  0.54816786  0.41672697  0.47210010  1
  Ag  Ag95  1  0.54816786  0.41672697  0.80543344  1
  Ag  Ag96  1  0.54816786  0.75006030  0.13876677  1
  Ag  Ag97  1  0.54816786  0.75006030  0.47210010  1
  Ag  Ag98  1  0.54816786  0.75006030  0.80543344  1
  Ag  Ag99  1  0.79816786  0.08339364  0.13876677  1
  Ag  Ag100  1  0.79816786  0.08339364  0.47210010  1
  Ag  Ag101  1  0.79816786  0.08339364  0.80543344  1
  Ag  Ag102  1  0.79816786  0.41672697  0.13876677  1
  Ag  Ag103  1  0.79816786  0.41672697  0.47210010  1
  Ag  Ag104  1  0.79816786  0.41672697  0.80543344  1
  Ag  Ag105  1  0.79816786  0.75006030  0.13876677  1
  Ag  Ag106  1  0.79816786  0.75006030  0.47210010  1
  Ag  Ag107  1  0.79816786  0.75006030  0.80543344  1
  Ag  Ag108  1  0.21356251  0.24533734  0.19758319  1
  Ag  Ag109  1  0.21356251  0.24533734  0.53091652  1
  Ag  Ag110  1  0.21356251  0.24533734  0.86424985  1
  Ag  Ag111  1  0.21356251  0.57867068  0.19758319  1
  Ag  Ag112  1  0.21356251  0.57867068  0.53091652  1
  Ag  Ag113  1  0.21356251  0.57867068  0.86424985  1
  Ag  Ag114  1  0.21356251  0.91200401  0.19758319  1
  Ag  Ag115  1  0.21356251  0.91200401  0.53091652  1
  Ag  Ag116  1  0.21356251  0.91200401  0.86424985  1
  Ag  Ag117  1  0.46356251  0.24533734  0.19758319  1
  Ag  Ag118  1  0.46356251  0.24533734  0.53091652  1
  Ag  Ag119  1  0.46356251  0.24533734  0.86424985  1
  Ag  Ag120  1  0.46356251  0.57867068  0.19758319  1
  Ag  Ag121  1  0.46356251  0.57867068  0.53091652  1
  Ag  Ag122  1  0.46356251  0.57867068  0.86424985  1
  Ag  Ag123  1  0.46356251  0.91200401  0.19758319  1
  Ag  Ag124  1  0.46356251  0.91200401  0.53091652  1
  Ag  Ag125  1  0.46356251  0.91200401  0.86424985  1
  Ag  Ag126  1  0.71356251  0.24533734  0.19758319  1
  Ag  Ag127  1  0.71356251  0.24533734  0.53091652  1
  Ag  Ag128  1  0.71356251  0.24533734  0.86424985  1
  Ag  Ag129  1  0.71356251  0.57867068  0.19758319  1
  Ag  Ag130  1  0.71356251  0.57867068  0.53091652  1
  Ag  Ag131  1  0.71356251  0.57867068  0.86424985  1
  Ag  Ag132  1  0.71356251  0.91200401  0.19758319  1
  Ag  Ag133  1  0.71356251  0.91200401  0.53091652  1
  Ag  Ag134  1  0.71356251  0.91200401  0.86424985  1
  Ag  Ag135  1  0.96356251  0.24533734  0.19758319  1
  Ag  Ag136  1  0.96356251  0.24533734  0.53091652  1
  Ag  Ag137  1  0.96356251  0.24533734  0.86424985  1
  Ag  Ag138  1  0.96356251  0.57867068  0.19758319  1
  Ag  Ag139  1  0.96356251  0.57867068  0.53091652  1
  Ag  Ag140  1  0.96356251  0.57867068  0.86424985  1
  Ag  Ag141  1  0.96356251  0.91200401  0.19758319  1
  Ag  Ag142  1  0.96356251  0.91200401  0.53091652  1
  Ag  Ag143  1  0.96356251  0.91200401  0.86424985  1
  Hg  Hg144  1  0.12883322  0.19646057  0.09484688  1
  Hg  Hg145  1  0.12883322  0.19646057  0.42818021  1
  Hg  Hg146  1  0.12883322  0.19646057  0.76151355  1
  Hg  Hg147  1  0.12883322  0.52979391  0.09484688  1
  Hg  Hg148  1  0.12883322  0.52979391  0.42818021  1
  Hg  Hg149  1  0.12883322  0.52979391  0.76151355  1
  Hg  Hg150  1  0.12883322  0.86312724  0.09484688  1
  Hg  Hg151  1  0.12883322  0.86312724  0.42818021  1
  Hg  Hg152  1  0.12883322  0.86312724  0.76151355  1
  Hg  Hg153  1  0.37883322  0.19646057  0.09484688  1
  Hg  Hg154  1  0.37883322  0.19646057  0.42818021  1
  Hg  Hg155  1  0.37883322  0.19646057  0.76151355  1
  Hg  Hg156  1  0.37883322  0.52979391  0.09484688  1
  Hg  Hg157  1  0.37883322  0.52979391  0.42818021  1
  Hg  Hg158  1  0.37883322  0.52979391  0.76151355  1
  Hg  Hg159  1  0.37883322  0.86312724  0.09484688  1
  Hg  Hg160  1  0.37883322  0.86312724  0.42818021  1
  Hg  Hg161  1  0.37883322  0.86312724  0.76151355  1
  Hg  Hg162  1  0.62883322  0.19646057  0.09484688  1
  Hg  Hg163  1  0.62883322  0.19646057  0.42818021  1
  Hg  Hg164  1  0.62883322  0.19646057  0.76151355  1
  Hg  Hg165  1  0.62883322  0.52979391  0.09484688  1
  Hg  Hg166  1  0.62883322  0.52979391  0.42818021  1
  Hg  Hg167  1  0.62883322  0.52979391  0.76151355  1
  Hg  Hg168  1  0.62883322  0.86312724  0.09484688  1
  Hg  Hg169  1  0.62883322  0.86312724  0.42818021  1
  Hg  Hg170  1  0.62883322  0.86312724  0.76151355  1
  Hg  Hg171  1  0.87883322  0.19646057  0.09484688  1
  Hg  Hg172  1  0.87883322  0.19646057  0.42818021  1
  Hg  Hg173  1  0.87883322  0.19646057  0.76151355  1
  Hg  Hg174  1  0.87883322  0.52979391  0.09484688  1
  Hg  Hg175  1  0.87883322  0.52979391  0.42818021  1
  Hg  Hg176  1  0.87883322  0.52979391  0.76151355  1
  Hg  Hg177  1  0.87883322  0.86312724  0.09484688  1
  Hg  Hg178  1  0.87883322  0.86312724  0.42818021  1
  Hg  Hg179  1  0.87883322  0.86312724  0.76151355  1
  O  O180  1  0.09825058  0.24979507  0.30630042  1
  O  O181  1  0.09825058  0.24979507  0.63963376  1
  O  O182  1  0.09825058  0.24979507  0.97296709  1
  O  O183  1  0.09825058  0.58312840  0.30630042  1
  O  O184  1  0.09825058  0.58312840  0.63963376  1
  O  O185  1  0.09825058  0.58312840  0.97296709  1
  O  O186  1  0.09825058  0.91646173  0.30630042  1
  O  O187  1  0.09825058  0.91646173  0.63963376  1
  O  O188  1  0.09825058  0.91646173  0.97296709  1
  O  O189  1  0.34825058  0.24979507  0.30630042  1
  O  O190  1  0.34825058  0.24979507  0.63963376  1
  O  O191  1  0.34825058  0.24979507  0.97296709  1
  O  O192  1  0.34825058  0.58312840  0.30630042  1
  O  O193  1  0.34825058  0.58312840  0.63963376  1
  O  O194  1  0.34825058  0.58312840  0.97296709  1
  O  O195  1  0.34825058  0.91646173  0.30630042  1
  O  O196  1  0.34825058  0.91646173  0.63963376  1
  O  O197  1  0.34825058  0.91646173  0.97296709  1
  O  O198  1  0.59825058  0.24979507  0.30630042  1
  O  O199  1  0.59825058  0.24979507  0.63963376  1
  O  O200  1  0.59825058  0.24979507  0.97296709  1
  O  O201  1  0.59825058  0.58312840  0.30630042  1
  O  O202  1  0.59825058  0.58312840  0.63963376  1
  O  O203  1  0.59825058  0.58312840  0.97296709  1
  O  O204  1  0.59825058  0.91646173  0.30630042  1
  O  O205  1  0.59825058  0.91646173  0.63963376  1
  O  O206  1  0.59825058  0.91646173  0.97296709  1
  O  O207  1  0.84825058  0.24979507  0.30630042  1
  O  O208  1  0.84825058  0.24979507  0.63963376  1
  O  O209  1  0.84825058  0.24979507  0.97296709  1
  O  O210  1  0.84825058  0.58312840  0.30630042  1
  O  O211  1  0.84825058  0.58312840  0.63963376  1
  O  O212  1  0.84825058  0.58312840  0.97296709  1
  O  O213  1  0.84825058  0.91646173  0.30630042  1
  O  O214  1  0.84825058  0.91646173  0.63963376  1
  O  O215  1  0.84825058  0.91646173  0.97296709  1
  O  O216  1  0.01334224  0.08745283  0.02399254  1
  O  O217  1  0.01334224  0.08745283  0.35732588  1
  O  O218  1  0.01334224  0.08745283  0.69065921  1
  O  O219  1  0.01334224  0.42078616  0.02399254  1
  O  O220  1  0.01334224  0.42078616  0.35732588  1
  O  O221  1  0.01334224  0.42078616  0.69065921  1
  O  O222  1  0.01334224  0.75411949  0.02399254  1
  O  O223  1  0.01334224  0.75411949  0.35732588  1
  O  O224  1  0.01334224  0.75411949  0.69065921  1
  O  O225  1  0.26334224  0.08745283  0.02399254  1
  O  O226  1  0.26334224  0.08745283  0.35732588  1
  O  O227  1  0.26334224  0.08745283  0.69065921  1
  O  O228  1  0.26334224  0.42078616  0.02399254  1
  O  O229  1  0.26334224  0.42078616  0.35732588  1
  O  O230  1  0.26334224  0.42078616  0.69065921  1
  O  O231  1  0.26334224  0.75411949  0.02399254  1
  O  O232  1  0.26334224  0.75411949  0.35732588  1
  O  O233  1  0.26334224  0.75411949  0.69065921  1
  O  O234  1  0.51334224  0.08745283  0.02399254  1
  O  O235  1  0.51334224  0.08745283  0.35732588  1
  O  O236  1  0.51334224  0.08745283  0.69065921  1
  O  O237  1  0.51334224  0.42078616  0.02399254  1
  O  O238  1  0.51334224  0.42078616  0.35732588  1
  O  O239  1  0.51334224  0.42078616  0.69065921  1
  O  O240  1  0.51334224  0.75411949  0.02399254  1
  O  O241  1  0.51334224  0.75411949  0.35732588  1
  O  O242  1  0.51334224  0.75411949  0.69065921  1
  O  O243  1  0.76334224  0.08745283  0.02399254  1
  O  O244  1  0.76334224  0.08745283  0.35732588  1
  O  O245  1  0.76334224  0.08745283  0.69065921  1
  O  O246  1  0.76334224  0.42078616  0.02399254  1
  O  O247  1  0.76334224  0.42078616  0.35732588  1
  O  O248  1  0.76334224  0.42078616  0.69065921  1
  O  O249  1  0.76334224  0.75411949  0.02399254  1
  O  O250  1  0.76334224  0.75411949  0.35732588  1
  O  O251  1  0.76334224  0.75411949  0.69065921  1
  O  O252  1  0.17849489  0.30778582  0.07957545  1
  O  O253  1  0.17849489  0.30778582  0.41290878  1
  O  O254  1  0.17849489  0.30778582  0.74624212  1
  O  O255  1  0.17849489  0.64111916  0.07957545  1
  O  O256  1  0.17849489  0.64111916  0.41290878  1
  O  O257  1  0.17849489  0.64111916  0.74624212  1
  O  O258  1  0.17849489  0.97445249  0.07957545  1
  O  O259  1  0.17849489  0.97445249  0.41290878  1
  O  O260  1  0.17849489  0.97445249  0.74624212  1
  O  O261  1  0.42849489  0.30778582  0.07957545  1
  O  O262  1  0.42849489  0.30778582  0.41290878  1
  O  O263  1  0.42849489  0.30778582  0.74624212  1
  O  O264  1  0.42849489  0.64111916  0.07957545  1
  O  O265  1  0.42849489  0.64111916  0.41290878  1
  O  O266  1  0.42849489  0.64111916  0.74624212  1
  O  O267  1  0.42849489  0.97445249  0.07957545  1
  O  O268  1  0.42849489  0.97445249  0.41290878  1
  O  O269  1  0.42849489  0.97445249  0.74624212  1
  O  O270  1  0.67849489  0.30778582  0.07957545  1
  O  O271  1  0.67849489  0.30778582  0.41290878  1
  O  O272  1  0.67849489  0.30778582  0.74624212  1
  O  O273  1  0.67849489  0.64111916  0.07957545  1
  O  O274  1  0.67849489  0.64111916  0.41290878  1
  O  O275  1  0.67849489  0.64111916  0.74624212  1
  O  O276  1  0.67849489  0.97445249  0.07957545  1
  O  O277  1  0.67849489  0.97445249  0.41290878  1
  O  O278  1  0.67849489  0.97445249  0.74624212  1
  O  O279  1  0.92849489  0.30778582  0.07957545  1
  O  O280  1  0.92849489  0.30778582  0.41290878  1
  O  O281  1  0.92849489  0.30778582  0.74624212  1
  O  O282  1  0.92849489  0.64111916  0.07957545  1
  O  O283  1  0.92849489  0.64111916  0.41290878  1
  O  O284  1  0.92849489  0.64111916  0.74624212  1
  O  O285  1  0.92849489  0.97445249  0.07957545  1
  O  O286  1  0.92849489  0.97445249  0.41290878  1
  O  O287  1  0.92849489  0.97445249  0.74624212  1
  O  O288  1  0.21992008  0.02606095  0.24746799  1
  O  O289  1  0.21992008  0.02606095  0.58080132  1
  O  O290  1  0.21992008  0.02606095  0.91413465  1
  O  O291  1  0.21992008  0.35939429  0.24746799  1
  O  O292  1  0.21992008  0.35939429  0.58080132  1
  O  O293  1  0.21992008  0.35939429  0.91413465  1
  O  O294  1  0.21992008  0.69272762  0.24746799  1
  O  O295  1  0.21992008  0.69272762  0.58080132  1
  O  O296  1  0.21992008  0.69272762  0.91413465  1
  O  O297  1  0.46992008  0.02606095  0.24746799  1
  O  O298  1  0.46992008  0.02606095  0.58080132  1
  O  O299  1  0.46992008  0.02606095  0.91413465  1
  O  O300  1  0.46992008  0.35939429  0.24746799  1
  O  O301  1  0.46992008  0.35939429  0.58080132  1
  O  O302  1  0.46992008  0.35939429  0.91413465  1
  O  O303  1  0.46992008  0.69272762  0.24746799  1
  O  O304  1  0.46992008  0.69272762  0.58080132  1
  O  O305  1  0.46992008  0.69272762  0.91413465  1
  O  O306  1  0.71992008  0.02606095  0.24746799  1
  O  O307  1  0.71992008  0.02606095  0.58080132  1
  O  O308  1  0.71992008  0.02606095  0.91413465  1
  O  O309  1  0.71992008  0.35939429  0.24746799  1
  O  O310  1  0.71992008  0.35939429  0.58080132  1
  O  O311  1  0.71992008  0.35939429  0.91413465  1
  O  O312  1  0.71992008  0.69272762  0.24746799  1
  O  O313  1  0.71992008  0.69272762  0.58080132  1
  O  O314  1  0.71992008  0.69272762  0.91413465  1
  O  O315  1  0.96992008  0.02606095  0.24746799  1
  O  O316  1  0.96992008  0.02606095  0.58080132  1
  O  O317  1  0.96992008  0.02606095  0.91413465  1
  O  O318  1  0.96992008  0.35939429  0.24746799  1
  O  O319  1  0.96992008  0.35939429  0.58080132  1
  O  O320  1  0.96992008  0.35939429  0.91413465  1
  O  O321  1  0.96992008  0.69272762  0.24746799  1
  O  O322  1  0.96992008  0.69272762  0.58080132  1
  O  O323  1  0.96992008  0.69272762  0.91413465  1
