# generated using pymatgen
data_Cs2Al2Sb2O7
_symmetry_space_group_name_H-M   'P 1'
_cell_length_a   17.17011715
_cell_length_b   17.17011715
_cell_length_c   17.73575963
_cell_angle_alpha   90.00000000
_cell_angle_beta   90.00000000
_cell_angle_gamma   120.00000000
_symmetry_Int_Tables_number   1
_chemical_formula_structural   Cs2Al2Sb2O7
_chemical_formula_sum   'Cs36 Al36 Sb36 O126'
_cell_volume   4528.21399507
_cell_formula_units_Z   18
loop_
 _symmetry_equiv_pos_site_id
 _symmetry_equiv_pos_as_xyz
  1  'x, y, z'
loop_
 _atom_site_type_symbol
 _atom_site_label
 _atom_site_symmetry_multiplicity
 _atom_site_fract_x
 _atom_site_fract_y
 _atom_site_fract_z
 _atom_site_occupancy
  Cs  Cs0  1  0.11111111  0.22222222  0.29815505  1
  Cs  Cs1  1  0.11111111  0.22222222  0.79815505  1
  Cs  Cs2  1  0.11111111  0.55555556  0.29815505  1
  Cs  Cs3  1  0.11111111  0.55555556  0.79815505  1
  Cs  Cs4  1  0.11111111  0.88888889  0.29815505  1
  Cs  Cs5  1  0.11111111  0.88888889  0.79815505  1
  Cs  Cs6  1  0.44444444  0.22222222  0.29815505  1
  Cs  Cs7  1  0.44444444  0.22222222  0.79815505  1
  Cs  Cs8  1  0.44444444  0.55555556  0.29815505  1
  Cs  Cs9  1  0.44444444  0.55555556  0.79815505  1
  Cs  Cs10  1  0.44444444  0.88888889  0.29815505  1
  Cs  Cs11  1  0.44444444  0.88888889  0.79815505  1
  Cs  Cs12  1  0.77777778  0.22222222  0.29815505  1
  Cs  Cs13  1  0.77777778  0.22222222  0.79815505  1
  Cs  Cs14  1  0.77777778  0.55555556  0.29815505  1
  Cs  Cs15  1  0.77777778  0.55555556  0.79815505  1
  Cs  Cs16  1  0.77777778  0.88888889  0.29815505  1
  Cs  Cs17  1  0.77777778  0.88888889  0.79815505  1
  Cs  Cs18  1  0.22222222  0.11111111  0.20184495  1
  Cs  Cs19  1  0.22222222  0.11111111  0.70184495  1
  Cs  Cs20  1  0.22222222  0.44444444  0.20184495  1
  Cs  Cs21  1  0.22222222  0.44444444  0.70184495  1
  Cs  Cs22  1  0.22222222  0.77777778  0.20184495  1
  Cs  Cs23  1  0.22222222  0.77777778  0.70184495  1
  Cs  Cs24  1  0.55555556  0.11111111  0.20184495  1
  Cs  Cs25  1  0.55555556  0.11111111  0.70184495  1
  Cs  Cs26  1  0.55555556  0.44444444  0.20184495  1
  Cs  Cs27  1  0.55555556  0.44444444  0.70184495  1
  Cs  Cs28  1  0.55555556  0.77777778  0.20184495  1
  Cs  Cs29  1  0.55555556  0.77777778  0.70184495  1
  Cs  Cs30  1  0.88888889  0.11111111  0.20184495  1
  Cs  Cs31  1  0.88888889  0.11111111  0.70184495  1
  Cs  Cs32  1  0.88888889  0.44444444  0.20184495  1
  Cs  Cs33  1  0.88888889  0.44444444  0.70184495  1
  Cs  Cs34  1  0.88888889  0.77777778  0.20184495  1
  Cs  Cs35  1  0.88888889  0.77777778  0.70184495  1
  Al  Al36  1  0.00000000  0.00000000  0.09677188  1
  Al  Al37  1  0.00000000  0.00000000  0.59677188  1
  Al  Al38  1  0.00000000  0.33333333  0.09677188  1
  Al  Al39  1  0.00000000  0.33333333  0.59677188  1
  Al  Al40  1  0.00000000  0.66666667  0.09677188  1
  Al  Al41  1  0.00000000  0.66666667  0.59677188  1
  Al  Al42  1  0.33333333  0.00000000  0.09677188  1
  Al  Al43  1  0.33333333  0.00000000  0.59677188  1
  Al  Al44  1  0.33333333  0.33333333  0.09677188  1
  Al  Al45  1  0.33333333  0.33333333  0.59677188  1
  Al  Al46  1  0.33333333  0.66666667  0.09677188  1
  Al  Al47  1  0.33333333  0.66666667  0.59677188  1
  Al  Al48  1  0.66666667  0.00000000  0.09677188  1
  Al  Al49  1  0.66666667  0.00000000  0.59677188  1
  Al  Al50  1  0.66666667  0.33333333  0.09677188  1
  Al  Al51  1  0.66666667  0.33333333  0.59677188  1
  Al  Al52  1  0.66666667  0.66666667  0.09677188  1
  Al  Al53  1  0.66666667  0.66666667  0.59677188  1
  Al  Al54  1  0.00000000  0.00000000  0.40322812  1
  Al  Al55  1  0.00000000  0.00000000  0.90322812  1
  Al  Al56  1  0.00000000  0.33333333  0.40322812  1
  Al  Al57  1  0.00000000  0.33333333  0.90322812  1
  Al  Al58  1  0.00000000  0.66666667  0.40322812  1
  Al  Al59  1  0.00000000  0.66666667  0.90322812  1
  Al  Al60  1  0.33333333  0.00000000  0.40322812  1
  Al  Al61  1  0.33333333  0.00000000  0.90322812  1
  Al  Al62  1  0.33333333  0.33333333  0.40322812  1
  Al  Al63  1  0.33333333  0.33333333  0.90322812  1
  Al  Al64  1  0.33333333  0.66666667  0.40322812  1
  Al  Al65  1  0.33333333  0.66666667  0.90322812  1
  Al  Al66  1  0.66666667  0.00000000  0.40322812  1
  Al  Al67  1  0.66666667  0.00000000  0.90322812  1
  Al  Al68  1  0.66666667  0.33333333  0.40322812  1
  Al  Al69  1  0.66666667  0.33333333  0.90322812  1
  Al  Al70  1  0.66666667  0.66666667  0.40322812  1
  Al  Al71  1  0.66666667  0.66666667  0.90322812  1
  Sb  Sb72  1  0.11111111  0.22222222  0.07315043  1
  Sb  Sb73  1  0.11111111  0.22222222  0.57315043  1
  Sb  Sb74  1  0.11111111  0.55555556  0.07315043  1
  Sb  Sb75  1  0.11111111  0.55555556  0.57315043  1
  Sb  Sb76  1  0.11111111  0.88888889  0.07315043  1
  Sb  Sb77  1  0.11111111  0.88888889  0.57315043  1
  Sb  Sb78  1  0.44444444  0.22222222  0.07315043  1
  Sb  Sb79  1  0.44444444  0.22222222  0.57315043  1
  Sb  Sb80  1  0.44444444  0.55555556  0.07315043  1
  Sb  Sb81  1  0.44444444  0.55555556  0.57315043  1
  Sb  Sb82  1  0.44444444  0.88888889  0.07315043  1
  Sb  Sb83  1  0.44444444  0.88888889  0.57315043  1
  Sb  Sb84  1  0.77777778  0.22222222  0.07315043  1
  Sb  Sb85  1  0.77777778  0.22222222  0.57315043  1
  Sb  Sb86  1  0.77777778  0.55555556  0.07315043  1
  Sb  Sb87  1  0.77777778  0.55555556  0.57315043  1
  Sb  Sb88  1  0.77777778  0.88888889  0.07315043  1
  Sb  Sb89  1  0.77777778  0.88888889  0.57315043  1
  Sb  Sb90  1  0.22222222  0.11111111  0.42684957  1
  Sb  Sb91  1  0.22222222  0.11111111  0.92684957  1
  Sb  Sb92  1  0.22222222  0.44444444  0.42684957  1
  Sb  Sb93  1  0.22222222  0.44444444  0.92684957  1
  Sb  Sb94  1  0.22222222  0.77777778  0.42684957  1
  Sb  Sb95  1  0.22222222  0.77777778  0.92684957  1
  Sb  Sb96  1  0.55555556  0.11111111  0.42684957  1
  Sb  Sb97  1  0.55555556  0.11111111  0.92684957  1
  Sb  Sb98  1  0.55555556  0.44444444  0.42684957  1
  Sb  Sb99  1  0.55555556  0.44444444  0.92684957  1
  Sb  Sb100  1  0.55555556  0.77777778  0.42684957  1
  Sb  Sb101  1  0.55555556  0.77777778  0.92684957  1
  Sb  Sb102  1  0.88888889  0.11111111  0.42684957  1
  Sb  Sb103  1  0.88888889  0.11111111  0.92684957  1
  Sb  Sb104  1  0.88888889  0.44444444  0.42684957  1
  Sb  Sb105  1  0.88888889  0.44444444  0.92684957  1
  Sb  Sb106  1  0.88888889  0.77777778  0.42684957  1
  Sb  Sb107  1  0.88888889  0.77777778  0.92684957  1
  O  O108  1  0.11149568  0.05574784  0.36618460  1
  O  O109  1  0.11149568  0.05574784  0.86618460  1
  O  O110  1  0.11149568  0.38908118  0.36618460  1
  O  O111  1  0.11149568  0.38908118  0.86618460  1
  O  O112  1  0.11149568  0.72241451  0.36618460  1
  O  O113  1  0.11149568  0.72241451  0.86618460  1
  O  O114  1  0.44482902  0.05574784  0.36618460  1
  O  O115  1  0.44482902  0.05574784  0.86618460  1
  O  O116  1  0.44482902  0.38908118  0.36618460  1
  O  O117  1  0.44482902  0.38908118  0.86618460  1
  O  O118  1  0.44482902  0.72241451  0.36618460  1
  O  O119  1  0.44482902  0.72241451  0.86618460  1
  O  O120  1  0.77816235  0.05574784  0.36618460  1
  O  O121  1  0.77816235  0.05574784  0.86618460  1
  O  O122  1  0.77816235  0.38908118  0.36618460  1
  O  O123  1  0.77816235  0.38908118  0.86618460  1
  O  O124  1  0.77816235  0.72241451  0.36618460  1
  O  O125  1  0.77816235  0.72241451  0.86618460  1
  O  O126  1  0.05574784  0.27758549  0.13381540  1
  O  O127  1  0.05574784  0.27758549  0.63381540  1
  O  O128  1  0.05574784  0.61091882  0.13381540  1
  O  O129  1  0.05574784  0.61091882  0.63381540  1
  O  O130  1  0.05574784  0.94425216  0.13381540  1
  O  O131  1  0.05574784  0.94425216  0.63381540  1
  O  O132  1  0.38908118  0.27758549  0.13381540  1
  O  O133  1  0.38908118  0.27758549  0.63381540  1
  O  O134  1  0.38908118  0.61091882  0.13381540  1
  O  O135  1  0.38908118  0.61091882  0.63381540  1
  O  O136  1  0.38908118  0.94425216  0.13381540  1
  O  O137  1  0.38908118  0.94425216  0.63381540  1
  O  O138  1  0.72241451  0.27758549  0.13381540  1
  O  O139  1  0.72241451  0.27758549  0.63381540  1
  O  O140  1  0.72241451  0.61091882  0.13381540  1
  O  O141  1  0.72241451  0.61091882  0.63381540  1
  O  O142  1  0.72241451  0.94425216  0.13381540  1
  O  O143  1  0.72241451  0.94425216  0.63381540  1
  O  O144  1  0.27758549  0.05574784  0.36618460  1
  O  O145  1  0.27758549  0.05574784  0.86618460  1
  O  O146  1  0.27758549  0.38908118  0.36618460  1
  O  O147  1  0.27758549  0.38908118  0.86618460  1
  O  O148  1  0.27758549  0.72241451  0.36618460  1
  O  O149  1  0.27758549  0.72241451  0.86618460  1
  O  O150  1  0.61091882  0.05574784  0.36618460  1
  O  O151  1  0.61091882  0.05574784  0.86618460  1
  O  O152  1  0.61091882  0.38908118  0.36618460  1
  O  O153  1  0.61091882  0.38908118  0.86618460  1
  O  O154  1  0.61091882  0.72241451  0.36618460  1
  O  O155  1  0.61091882  0.72241451  0.86618460  1
  O  O156  1  0.94425216  0.05574784  0.36618460  1
  O  O157  1  0.94425216  0.05574784  0.86618460  1
  O  O158  1  0.94425216  0.38908118  0.36618460  1
  O  O159  1  0.94425216  0.38908118  0.86618460  1
  O  O160  1  0.94425216  0.72241451  0.36618460  1
  O  O161  1  0.94425216  0.72241451  0.86618460  1
  O  O162  1  0.22183765  0.27758549  0.13381540  1
  O  O163  1  0.22183765  0.27758549  0.63381540  1
  O  O164  1  0.22183765  0.61091882  0.13381540  1
  O  O165  1  0.22183765  0.61091882  0.63381540  1
  O  O166  1  0.22183765  0.94425216  0.13381540  1
  O  O167  1  0.22183765  0.94425216  0.63381540  1
  O  O168  1  0.55517098  0.27758549  0.13381540  1
  O  O169  1  0.55517098  0.27758549  0.63381540  1
  O  O170  1  0.55517098  0.61091882  0.13381540  1
  O  O171  1  0.55517098  0.61091882  0.63381540  1
  O  O172  1  0.55517098  0.94425216  0.13381540  1
  O  O173  1  0.55517098  0.94425216  0.63381540  1
  O  O174  1  0.88850432  0.27758549  0.13381540  1
  O  O175  1  0.88850432  0.27758549  0.63381540  1
  O  O176  1  0.88850432  0.61091882  0.13381540  1
  O  O177  1  0.88850432  0.61091882  0.63381540  1
  O  O178  1  0.88850432  0.94425216  0.13381540  1
  O  O179  1  0.88850432  0.94425216  0.63381540  1
  O  O180  1  0.00000000  0.00000000  0.00000000  1
  O  O181  1  0.00000000  0.00000000  0.50000000  1
  O  O182  1  0.00000000  0.33333333  0.00000000  1
  O  O183  1  0.00000000  0.33333333  0.50000000  1
  O  O184  1  0.00000000  0.66666667  0.00000000  1
  O  O185  1  0.00000000  0.66666667  0.50000000  1
  O  O186  1  0.33333333  0.00000000  0.00000000  1
  O  O187  1  0.33333333  0.00000000  0.50000000  1
  O  O188  1  0.33333333  0.33333333  0.00000000  1
  O  O189  1  0.33333333  0.33333333  0.50000000  1
  O  O190  1  0.33333333  0.66666667  0.00000000  1
  O  O191  1  0.33333333  0.66666667  0.50000000  1
  O  O192  1  0.66666667  0.00000000  0.00000000  1
  O  O193  1  0.66666667  0.00000000  0.50000000  1
  O  O194  1  0.66666667  0.33333333  0.00000000  1
  O  O195  1  0.66666667  0.33333333  0.50000000  1
  O  O196  1  0.66666667  0.66666667  0.00000000  1
  O  O197  1  0.66666667  0.66666667  0.50000000  1
  O  O198  1  0.05574784  0.11149568  0.13381540  1
  O  O199  1  0.05574784  0.11149568  0.63381540  1
  O  O200  1  0.05574784  0.44482902  0.13381540  1
  O  O201  1  0.05574784  0.44482902  0.63381540  1
  O  O202  1  0.05574784  0.77816235  0.13381540  1
  O  O203  1  0.05574784  0.77816235  0.63381540  1
  O  O204  1  0.38908118  0.11149568  0.13381540  1
  O  O205  1  0.38908118  0.11149568  0.63381540  1
  O  O206  1  0.38908118  0.44482902  0.13381540  1
  O  O207  1  0.38908118  0.44482902  0.63381540  1
  O  O208  1  0.38908118  0.77816235  0.13381540  1
  O  O209  1  0.38908118  0.77816235  0.63381540  1
  O  O210  1  0.72241451  0.11149568  0.13381540  1
  O  O211  1  0.72241451  0.11149568  0.63381540  1
  O  O212  1  0.72241451  0.44482902  0.13381540  1
  O  O213  1  0.72241451  0.44482902  0.63381540  1
  O  O214  1  0.72241451  0.77816235  0.13381540  1
  O  O215  1  0.72241451  0.77816235  0.63381540  1
  O  O216  1  0.27758549  0.22183765  0.36618460  1
  O  O217  1  0.27758549  0.22183765  0.86618460  1
  O  O218  1  0.27758549  0.55517098  0.36618460  1
  O  O219  1  0.27758549  0.55517098  0.86618460  1
  O  O220  1  0.27758549  0.88850432  0.36618460  1
  O  O221  1  0.27758549  0.88850432  0.86618460  1
  O  O222  1  0.61091882  0.22183765  0.36618460  1
  O  O223  1  0.61091882  0.22183765  0.86618460  1
  O  O224  1  0.61091882  0.55517098  0.36618460  1
  O  O225  1  0.61091882  0.55517098  0.86618460  1
  O  O226  1  0.61091882  0.88850432  0.36618460  1
  O  O227  1  0.61091882  0.88850432  0.86618460  1
  O  O228  1  0.94425216  0.22183765  0.36618460  1
  O  O229  1  0.94425216  0.22183765  0.86618460  1
  O  O230  1  0.94425216  0.55517098  0.36618460  1
  O  O231  1  0.94425216  0.55517098  0.86618460  1
  O  O232  1  0.94425216  0.88850432  0.36618460  1
  O  O233  1  0.94425216  0.88850432  0.86618460  1
