# generated using pymatgen
data_RbLa(MoO4)2
_symmetry_space_group_name_H-M   'P 1'
_cell_length_a   19.01881019
_cell_length_b   19.01881019
_cell_length_c   19.38044487
_cell_angle_alpha   90.00000000
_cell_angle_beta   90.00000000
_cell_angle_gamma   90.00000000
_symmetry_Int_Tables_number   1
_chemical_formula_structural   RbLa(MoO4)2
_chemical_formula_sum   'Rb36 La36 Mo72 O288'
_cell_volume   7010.20034770
_cell_formula_units_Z   36
loop_
 _symmetry_equiv_pos_site_id
 _symmetry_equiv_pos_as_xyz
  1  'x, y, z'
loop_
 _atom_site_type_symbol
 _atom_site_label
 _atom_site_symmetry_multiplicity
 _atom_site_fract_x
 _atom_site_fract_y
 _atom_site_fract_z
 _atom_site_occupancy
  Rb  Rb0  1  0.00000000  0.00000000  0.25000000  1
  Rb  Rb1  1  0.00000000  0.00000000  0.75000000  1
  Rb  Rb2  1  0.00000000  0.33333333  0.25000000  1
  Rb  Rb3  1  0.00000000  0.33333333  0.75000000  1
  Rb  Rb4  1  0.00000000  0.66666667  0.25000000  1
  Rb  Rb5  1  0.00000000  0.66666667  0.75000000  1
  Rb  Rb6  1  0.33333333  0.00000000  0.25000000  1
  Rb  Rb7  1  0.33333333  0.00000000  0.75000000  1
  Rb  Rb8  1  0.33333333  0.33333333  0.25000000  1
  Rb  Rb9  1  0.33333333  0.33333333  0.75000000  1
  Rb  Rb10  1  0.33333333  0.66666667  0.25000000  1
  Rb  Rb11  1  0.33333333  0.66666667  0.75000000  1
  Rb  Rb12  1  0.66666667  0.00000000  0.25000000  1
  Rb  Rb13  1  0.66666667  0.00000000  0.75000000  1
  Rb  Rb14  1  0.66666667  0.33333333  0.25000000  1
  Rb  Rb15  1  0.66666667  0.33333333  0.75000000  1
  Rb  Rb16  1  0.66666667  0.66666667  0.25000000  1
  Rb  Rb17  1  0.66666667  0.66666667  0.75000000  1
  Rb  Rb18  1  0.16666667  0.16666667  0.00000000  1
  Rb  Rb19  1  0.16666667  0.16666667  0.50000000  1
  Rb  Rb20  1  0.16666667  0.50000000  0.00000000  1
  Rb  Rb21  1  0.16666667  0.50000000  0.50000000  1
  Rb  Rb22  1  0.16666667  0.83333333  0.00000000  1
  Rb  Rb23  1  0.16666667  0.83333333  0.50000000  1
  Rb  Rb24  1  0.50000000  0.16666667  0.00000000  1
  Rb  Rb25  1  0.50000000  0.16666667  0.50000000  1
  Rb  Rb26  1  0.50000000  0.50000000  0.00000000  1
  Rb  Rb27  1  0.50000000  0.50000000  0.50000000  1
  Rb  Rb28  1  0.50000000  0.83333333  0.00000000  1
  Rb  Rb29  1  0.50000000  0.83333333  0.50000000  1
  Rb  Rb30  1  0.83333333  0.16666667  0.00000000  1
  Rb  Rb31  1  0.83333333  0.16666667  0.50000000  1
  Rb  Rb32  1  0.83333333  0.50000000  0.00000000  1
  Rb  Rb33  1  0.83333333  0.50000000  0.50000000  1
  Rb  Rb34  1  0.83333333  0.83333333  0.00000000  1
  Rb  Rb35  1  0.83333333  0.83333333  0.50000000  1
  La  La36  1  0.00000000  0.00000000  0.00000000  1
  La  La37  1  0.00000000  0.00000000  0.50000000  1
  La  La38  1  0.00000000  0.33333333  0.00000000  1
  La  La39  1  0.00000000  0.33333333  0.50000000  1
  La  La40  1  0.00000000  0.66666667  0.00000000  1
  La  La41  1  0.00000000  0.66666667  0.50000000  1
  La  La42  1  0.33333333  0.00000000  0.00000000  1
  La  La43  1  0.33333333  0.00000000  0.50000000  1
  La  La44  1  0.33333333  0.33333333  0.00000000  1
  La  La45  1  0.33333333  0.33333333  0.50000000  1
  La  La46  1  0.33333333  0.66666667  0.00000000  1
  La  La47  1  0.33333333  0.66666667  0.50000000  1
  La  La48  1  0.66666667  0.00000000  0.00000000  1
  La  La49  1  0.66666667  0.00000000  0.50000000  1
  La  La50  1  0.66666667  0.33333333  0.00000000  1
  La  La51  1  0.66666667  0.33333333  0.50000000  1
  La  La52  1  0.66666667  0.66666667  0.00000000  1
  La  La53  1  0.66666667  0.66666667  0.50000000  1
  La  La54  1  0.16666667  0.16666667  0.25000000  1
  La  La55  1  0.16666667  0.16666667  0.75000000  1
  La  La56  1  0.16666667  0.50000000  0.25000000  1
  La  La57  1  0.16666667  0.50000000  0.75000000  1
  La  La58  1  0.16666667  0.83333333  0.25000000  1
  La  La59  1  0.16666667  0.83333333  0.75000000  1
  La  La60  1  0.50000000  0.16666667  0.25000000  1
  La  La61  1  0.50000000  0.16666667  0.75000000  1
  La  La62  1  0.50000000  0.50000000  0.25000000  1
  La  La63  1  0.50000000  0.50000000  0.75000000  1
  La  La64  1  0.50000000  0.83333333  0.25000000  1
  La  La65  1  0.50000000  0.83333333  0.75000000  1
  La  La66  1  0.83333333  0.16666667  0.25000000  1
  La  La67  1  0.83333333  0.16666667  0.75000000  1
  La  La68  1  0.83333333  0.50000000  0.25000000  1
  La  La69  1  0.83333333  0.50000000  0.75000000  1
  La  La70  1  0.83333333  0.83333333  0.25000000  1
  La  La71  1  0.83333333  0.83333333  0.75000000  1
  Mo  Mo72  1  0.00000000  0.16666667  0.37500000  1
  Mo  Mo73  1  0.00000000  0.16666667  0.87500000  1
  Mo  Mo74  1  0.00000000  0.50000000  0.37500000  1
  Mo  Mo75  1  0.00000000  0.50000000  0.87500000  1
  Mo  Mo76  1  0.00000000  0.83333333  0.37500000  1
  Mo  Mo77  1  0.00000000  0.83333333  0.87500000  1
  Mo  Mo78  1  0.33333333  0.16666667  0.37500000  1
  Mo  Mo79  1  0.33333333  0.16666667  0.87500000  1
  Mo  Mo80  1  0.33333333  0.50000000  0.37500000  1
  Mo  Mo81  1  0.33333333  0.50000000  0.87500000  1
  Mo  Mo82  1  0.33333333  0.83333333  0.37500000  1
  Mo  Mo83  1  0.33333333  0.83333333  0.87500000  1
  Mo  Mo84  1  0.66666667  0.16666667  0.37500000  1
  Mo  Mo85  1  0.66666667  0.16666667  0.87500000  1
  Mo  Mo86  1  0.66666667  0.50000000  0.37500000  1
  Mo  Mo87  1  0.66666667  0.50000000  0.87500000  1
  Mo  Mo88  1  0.66666667  0.83333333  0.37500000  1
  Mo  Mo89  1  0.66666667  0.83333333  0.87500000  1
  Mo  Mo90  1  0.00000000  0.16666667  0.12500000  1
  Mo  Mo91  1  0.00000000  0.16666667  0.62500000  1
  Mo  Mo92  1  0.00000000  0.50000000  0.12500000  1
  Mo  Mo93  1  0.00000000  0.50000000  0.62500000  1
  Mo  Mo94  1  0.00000000  0.83333333  0.12500000  1
  Mo  Mo95  1  0.00000000  0.83333333  0.62500000  1
  Mo  Mo96  1  0.33333333  0.16666667  0.12500000  1
  Mo  Mo97  1  0.33333333  0.16666667  0.62500000  1
  Mo  Mo98  1  0.33333333  0.50000000  0.12500000  1
  Mo  Mo99  1  0.33333333  0.50000000  0.62500000  1
  Mo  Mo100  1  0.33333333  0.83333333  0.12500000  1
  Mo  Mo101  1  0.33333333  0.83333333  0.62500000  1
  Mo  Mo102  1  0.66666667  0.16666667  0.12500000  1
  Mo  Mo103  1  0.66666667  0.16666667  0.62500000  1
  Mo  Mo104  1  0.66666667  0.50000000  0.12500000  1
  Mo  Mo105  1  0.66666667  0.50000000  0.62500000  1
  Mo  Mo106  1  0.66666667  0.83333333  0.12500000  1
  Mo  Mo107  1  0.66666667  0.83333333  0.62500000  1
  Mo  Mo108  1  0.16666667  0.00000000  0.37500000  1
  Mo  Mo109  1  0.16666667  0.00000000  0.87500000  1
  Mo  Mo110  1  0.16666667  0.33333333  0.37500000  1
  Mo  Mo111  1  0.16666667  0.33333333  0.87500000  1
  Mo  Mo112  1  0.16666667  0.66666667  0.37500000  1
  Mo  Mo113  1  0.16666667  0.66666667  0.87500000  1
  Mo  Mo114  1  0.50000000  0.00000000  0.37500000  1
  Mo  Mo115  1  0.50000000  0.00000000  0.87500000  1
  Mo  Mo116  1  0.50000000  0.33333333  0.37500000  1
  Mo  Mo117  1  0.50000000  0.33333333  0.87500000  1
  Mo  Mo118  1  0.50000000  0.66666667  0.37500000  1
  Mo  Mo119  1  0.50000000  0.66666667  0.87500000  1
  Mo  Mo120  1  0.83333333  0.00000000  0.37500000  1
  Mo  Mo121  1  0.83333333  0.00000000  0.87500000  1
  Mo  Mo122  1  0.83333333  0.33333333  0.37500000  1
  Mo  Mo123  1  0.83333333  0.33333333  0.87500000  1
  Mo  Mo124  1  0.83333333  0.66666667  0.37500000  1
  Mo  Mo125  1  0.83333333  0.66666667  0.87500000  1
  Mo  Mo126  1  0.16666667  0.00000000  0.12500000  1
  Mo  Mo127  1  0.16666667  0.00000000  0.62500000  1
  Mo  Mo128  1  0.16666667  0.33333333  0.12500000  1
  Mo  Mo129  1  0.16666667  0.33333333  0.62500000  1
  Mo  Mo130  1  0.16666667  0.66666667  0.12500000  1
  Mo  Mo131  1  0.16666667  0.66666667  0.62500000  1
  Mo  Mo132  1  0.50000000  0.00000000  0.12500000  1
  Mo  Mo133  1  0.50000000  0.00000000  0.62500000  1
  Mo  Mo134  1  0.50000000  0.33333333  0.12500000  1
  Mo  Mo135  1  0.50000000  0.33333333  0.62500000  1
  Mo  Mo136  1  0.50000000  0.66666667  0.12500000  1
  Mo  Mo137  1  0.50000000  0.66666667  0.62500000  1
  Mo  Mo138  1  0.83333333  0.00000000  0.12500000  1
  Mo  Mo139  1  0.83333333  0.00000000  0.62500000  1
  Mo  Mo140  1  0.83333333  0.33333333  0.12500000  1
  Mo  Mo141  1  0.83333333  0.33333333  0.62500000  1
  Mo  Mo142  1  0.83333333  0.66666667  0.12500000  1
  Mo  Mo143  1  0.83333333  0.66666667  0.62500000  1
  O  O144  1  0.26890518  0.20595697  0.31977213  1
  O  O145  1  0.26890518  0.20595697  0.81977213  1
  O  O146  1  0.26890518  0.53929030  0.31977213  1
  O  O147  1  0.26890518  0.53929030  0.81977213  1
  O  O148  1  0.26890518  0.87262364  0.31977213  1
  O  O149  1  0.26890518  0.87262364  0.81977213  1
  O  O150  1  0.60223851  0.20595697  0.31977213  1
  O  O151  1  0.60223851  0.20595697  0.81977213  1
  O  O152  1  0.60223851  0.53929030  0.31977213  1
  O  O153  1  0.60223851  0.53929030  0.81977213  1
  O  O154  1  0.60223851  0.87262364  0.31977213  1
  O  O155  1  0.60223851  0.87262364  0.81977213  1
  O  O156  1  0.93557184  0.20595697  0.31977213  1
  O  O157  1  0.93557184  0.20595697  0.81977213  1
  O  O158  1  0.93557184  0.53929030  0.31977213  1
  O  O159  1  0.93557184  0.53929030  0.81977213  1
  O  O160  1  0.93557184  0.87262364  0.31977213  1
  O  O161  1  0.93557184  0.87262364  0.81977213  1
  O  O162  1  0.06442816  0.12737636  0.31977213  1
  O  O163  1  0.06442816  0.12737636  0.81977213  1
  O  O164  1  0.06442816  0.46070970  0.31977213  1
  O  O165  1  0.06442816  0.46070970  0.81977213  1
  O  O166  1  0.06442816  0.79404303  0.31977213  1
  O  O167  1  0.06442816  0.79404303  0.81977213  1
  O  O168  1  0.39776149  0.12737636  0.31977213  1
  O  O169  1  0.39776149  0.12737636  0.81977213  1
  O  O170  1  0.39776149  0.46070970  0.31977213  1
  O  O171  1  0.39776149  0.46070970  0.81977213  1
  O  O172  1  0.39776149  0.79404303  0.31977213  1
  O  O173  1  0.39776149  0.79404303  0.81977213  1
  O  O174  1  0.73109482  0.12737636  0.31977213  1
  O  O175  1  0.73109482  0.12737636  0.81977213  1
  O  O176  1  0.73109482  0.46070970  0.31977213  1
  O  O177  1  0.73109482  0.46070970  0.81977213  1
  O  O178  1  0.73109482  0.79404303  0.31977213  1
  O  O179  1  0.73109482  0.79404303  0.81977213  1
  O  O180  1  0.20595697  0.26890518  0.18022787  1
  O  O181  1  0.20595697  0.26890518  0.68022787  1
  O  O182  1  0.20595697  0.60223851  0.18022787  1
  O  O183  1  0.20595697  0.60223851  0.68022787  1
  O  O184  1  0.20595697  0.93557184  0.18022787  1
  O  O185  1  0.20595697  0.93557184  0.68022787  1
  O  O186  1  0.53929030  0.26890518  0.18022787  1
  O  O187  1  0.53929030  0.26890518  0.68022787  1
  O  O188  1  0.53929030  0.60223851  0.18022787  1
  O  O189  1  0.53929030  0.60223851  0.68022787  1
  O  O190  1  0.53929030  0.93557184  0.18022787  1
  O  O191  1  0.53929030  0.93557184  0.68022787  1
  O  O192  1  0.87262364  0.26890518  0.18022787  1
  O  O193  1  0.87262364  0.26890518  0.68022787  1
  O  O194  1  0.87262364  0.60223851  0.18022787  1
  O  O195  1  0.87262364  0.60223851  0.68022787  1
  O  O196  1  0.87262364  0.93557184  0.18022787  1
  O  O197  1  0.87262364  0.93557184  0.68022787  1
  O  O198  1  0.20595697  0.06442816  0.31977213  1
  O  O199  1  0.20595697  0.06442816  0.81977213  1
  O  O200  1  0.20595697  0.39776149  0.31977213  1
  O  O201  1  0.20595697  0.39776149  0.81977213  1
  O  O202  1  0.20595697  0.73109482  0.31977213  1
  O  O203  1  0.20595697  0.73109482  0.81977213  1
  O  O204  1  0.53929030  0.06442816  0.31977213  1
  O  O205  1  0.53929030  0.06442816  0.81977213  1
  O  O206  1  0.53929030  0.39776149  0.31977213  1
  O  O207  1  0.53929030  0.39776149  0.81977213  1
  O  O208  1  0.53929030  0.73109482  0.31977213  1
  O  O209  1  0.53929030  0.73109482  0.81977213  1
  O  O210  1  0.87262364  0.06442816  0.31977213  1
  O  O211  1  0.87262364  0.06442816  0.81977213  1
  O  O212  1  0.87262364  0.39776149  0.31977213  1
  O  O213  1  0.87262364  0.39776149  0.81977213  1
  O  O214  1  0.87262364  0.73109482  0.31977213  1
  O  O215  1  0.87262364  0.73109482  0.81977213  1
  O  O216  1  0.12737636  0.26890518  0.31977213  1
  O  O217  1  0.12737636  0.26890518  0.81977213  1
  O  O218  1  0.12737636  0.60223851  0.31977213  1
  O  O219  1  0.12737636  0.60223851  0.81977213  1
  O  O220  1  0.12737636  0.93557184  0.31977213  1
  O  O221  1  0.12737636  0.93557184  0.81977213  1
  O  O222  1  0.46070970  0.26890518  0.31977213  1
  O  O223  1  0.46070970  0.26890518  0.81977213  1
  O  O224  1  0.46070970  0.60223851  0.31977213  1
  O  O225  1  0.46070970  0.60223851  0.81977213  1
  O  O226  1  0.46070970  0.93557184  0.31977213  1
  O  O227  1  0.46070970  0.93557184  0.81977213  1
  O  O228  1  0.79404303  0.26890518  0.31977213  1
  O  O229  1  0.79404303  0.26890518  0.81977213  1
  O  O230  1  0.79404303  0.60223851  0.31977213  1
  O  O231  1  0.79404303  0.60223851  0.81977213  1
  O  O232  1  0.79404303  0.93557184  0.31977213  1
  O  O233  1  0.79404303  0.93557184  0.81977213  1
  O  O234  1  0.06442816  0.20595697  0.18022787  1
  O  O235  1  0.06442816  0.20595697  0.68022787  1
  O  O236  1  0.06442816  0.53929030  0.18022787  1
  O  O237  1  0.06442816  0.53929030  0.68022787  1
  O  O238  1  0.06442816  0.87262364  0.18022787  1
  O  O239  1  0.06442816  0.87262364  0.68022787  1
  O  O240  1  0.39776149  0.20595697  0.18022787  1
  O  O241  1  0.39776149  0.20595697  0.68022787  1
  O  O242  1  0.39776149  0.53929030  0.18022787  1
  O  O243  1  0.39776149  0.53929030  0.68022787  1
  O  O244  1  0.39776149  0.87262364  0.18022787  1
  O  O245  1  0.39776149  0.87262364  0.68022787  1
  O  O246  1  0.73109482  0.20595697  0.18022787  1
  O  O247  1  0.73109482  0.20595697  0.68022787  1
  O  O248  1  0.73109482  0.53929030  0.18022787  1
  O  O249  1  0.73109482  0.53929030  0.68022787  1
  O  O250  1  0.73109482  0.87262364  0.18022787  1
  O  O251  1  0.73109482  0.87262364  0.68022787  1
  O  O252  1  0.26890518  0.12737636  0.18022787  1
  O  O253  1  0.26890518  0.12737636  0.68022787  1
  O  O254  1  0.26890518  0.46070970  0.18022787  1
  O  O255  1  0.26890518  0.46070970  0.68022787  1
  O  O256  1  0.26890518  0.79404303  0.18022787  1
  O  O257  1  0.26890518  0.79404303  0.68022787  1
  O  O258  1  0.60223851  0.12737636  0.18022787  1
  O  O259  1  0.60223851  0.12737636  0.68022787  1
  O  O260  1  0.60223851  0.46070970  0.18022787  1
  O  O261  1  0.60223851  0.46070970  0.68022787  1
  O  O262  1  0.60223851  0.79404303  0.18022787  1
  O  O263  1  0.60223851  0.79404303  0.68022787  1
  O  O264  1  0.93557184  0.12737636  0.18022787  1
  O  O265  1  0.93557184  0.12737636  0.68022787  1
  O  O266  1  0.93557184  0.46070970  0.18022787  1
  O  O267  1  0.93557184  0.46070970  0.68022787  1
  O  O268  1  0.93557184  0.79404303  0.18022787  1
  O  O269  1  0.93557184  0.79404303  0.68022787  1
  O  O270  1  0.12737636  0.06442816  0.18022787  1
  O  O271  1  0.12737636  0.06442816  0.68022787  1
  O  O272  1  0.12737636  0.39776149  0.18022787  1
  O  O273  1  0.12737636  0.39776149  0.68022787  1
  O  O274  1  0.12737636  0.73109482  0.18022787  1
  O  O275  1  0.12737636  0.73109482  0.68022787  1
  O  O276  1  0.46070970  0.06442816  0.18022787  1
  O  O277  1  0.46070970  0.06442816  0.68022787  1
  O  O278  1  0.46070970  0.39776149  0.18022787  1
  O  O279  1  0.46070970  0.39776149  0.68022787  1
  O  O280  1  0.46070970  0.73109482  0.18022787  1
  O  O281  1  0.46070970  0.73109482  0.68022787  1
  O  O282  1  0.79404303  0.06442816  0.18022787  1
  O  O283  1  0.79404303  0.06442816  0.68022787  1
  O  O284  1  0.79404303  0.39776149  0.18022787  1
  O  O285  1  0.79404303  0.39776149  0.68022787  1
  O  O286  1  0.79404303  0.73109482  0.18022787  1
  O  O287  1  0.79404303  0.73109482  0.68022787  1
  O  O288  1  0.03929030  0.10223851  0.06977213  1
  O  O289  1  0.03929030  0.10223851  0.56977213  1
  O  O290  1  0.03929030  0.43557184  0.06977213  1
  O  O291  1  0.03929030  0.43557184  0.56977213  1
  O  O292  1  0.03929030  0.76890518  0.06977213  1
  O  O293  1  0.03929030  0.76890518  0.56977213  1
  O  O294  1  0.37262364  0.10223851  0.06977213  1
  O  O295  1  0.37262364  0.10223851  0.56977213  1
  O  O296  1  0.37262364  0.43557184  0.06977213  1
  O  O297  1  0.37262364  0.43557184  0.56977213  1
  O  O298  1  0.37262364  0.76890518  0.06977213  1
  O  O299  1  0.37262364  0.76890518  0.56977213  1
  O  O300  1  0.70595697  0.10223851  0.06977213  1
  O  O301  1  0.70595697  0.10223851  0.56977213  1
  O  O302  1  0.70595697  0.43557184  0.06977213  1
  O  O303  1  0.70595697  0.43557184  0.56977213  1
  O  O304  1  0.70595697  0.76890518  0.06977213  1
  O  O305  1  0.70595697  0.76890518  0.56977213  1
  O  O306  1  0.23109482  0.03929030  0.06977213  1
  O  O307  1  0.23109482  0.03929030  0.56977213  1
  O  O308  1  0.23109482  0.37262364  0.06977213  1
  O  O309  1  0.23109482  0.37262364  0.56977213  1
  O  O310  1  0.23109482  0.70595697  0.06977213  1
  O  O311  1  0.23109482  0.70595697  0.56977213  1
  O  O312  1  0.56442816  0.03929030  0.06977213  1
  O  O313  1  0.56442816  0.03929030  0.56977213  1
  O  O314  1  0.56442816  0.37262364  0.06977213  1
  O  O315  1  0.56442816  0.37262364  0.56977213  1
  O  O316  1  0.56442816  0.70595697  0.06977213  1
  O  O317  1  0.56442816  0.70595697  0.56977213  1
  O  O318  1  0.89776149  0.03929030  0.06977213  1
  O  O319  1  0.89776149  0.03929030  0.56977213  1
  O  O320  1  0.89776149  0.37262364  0.06977213  1
  O  O321  1  0.89776149  0.37262364  0.56977213  1
  O  O322  1  0.89776149  0.70595697  0.06977213  1
  O  O323  1  0.89776149  0.70595697  0.56977213  1
  O  O324  1  0.10223851  0.29404303  0.06977213  1
  O  O325  1  0.10223851  0.29404303  0.56977213  1
  O  O326  1  0.10223851  0.62737636  0.06977213  1
  O  O327  1  0.10223851  0.62737636  0.56977213  1
  O  O328  1  0.10223851  0.96070970  0.06977213  1
  O  O329  1  0.10223851  0.96070970  0.56977213  1
  O  O330  1  0.43557184  0.29404303  0.06977213  1
  O  O331  1  0.43557184  0.29404303  0.56977213  1
  O  O332  1  0.43557184  0.62737636  0.06977213  1
  O  O333  1  0.43557184  0.62737636  0.56977213  1
  O  O334  1  0.43557184  0.96070970  0.06977213  1
  O  O335  1  0.43557184  0.96070970  0.56977213  1
  O  O336  1  0.76890518  0.29404303  0.06977213  1
  O  O337  1  0.76890518  0.29404303  0.56977213  1
  O  O338  1  0.76890518  0.62737636  0.06977213  1
  O  O339  1  0.76890518  0.62737636  0.56977213  1
  O  O340  1  0.76890518  0.96070970  0.06977213  1
  O  O341  1  0.76890518  0.96070970  0.56977213  1
  O  O342  1  0.03929030  0.23109482  0.43022787  1
  O  O343  1  0.03929030  0.23109482  0.93022787  1
  O  O344  1  0.03929030  0.56442816  0.43022787  1
  O  O345  1  0.03929030  0.56442816  0.93022787  1
  O  O346  1  0.03929030  0.89776149  0.43022787  1
  O  O347  1  0.03929030  0.89776149  0.93022787  1
  O  O348  1  0.37262364  0.23109482  0.43022787  1
  O  O349  1  0.37262364  0.23109482  0.93022787  1
  O  O350  1  0.37262364  0.56442816  0.43022787  1
  O  O351  1  0.37262364  0.56442816  0.93022787  1
  O  O352  1  0.37262364  0.89776149  0.43022787  1
  O  O353  1  0.37262364  0.89776149  0.93022787  1
  O  O354  1  0.70595697  0.23109482  0.43022787  1
  O  O355  1  0.70595697  0.23109482  0.93022787  1
  O  O356  1  0.70595697  0.56442816  0.43022787  1
  O  O357  1  0.70595697  0.56442816  0.93022787  1
  O  O358  1  0.70595697  0.89776149  0.43022787  1
  O  O359  1  0.70595697  0.89776149  0.93022787  1
  O  O360  1  0.29404303  0.10223851  0.43022787  1
  O  O361  1  0.29404303  0.10223851  0.93022787  1
  O  O362  1  0.29404303  0.43557184  0.43022787  1
  O  O363  1  0.29404303  0.43557184  0.93022787  1
  O  O364  1  0.29404303  0.76890518  0.43022787  1
  O  O365  1  0.29404303  0.76890518  0.93022787  1
  O  O366  1  0.62737636  0.10223851  0.43022787  1
  O  O367  1  0.62737636  0.10223851  0.93022787  1
  O  O368  1  0.62737636  0.43557184  0.43022787  1
  O  O369  1  0.62737636  0.43557184  0.93022787  1
  O  O370  1  0.62737636  0.76890518  0.43022787  1
  O  O371  1  0.62737636  0.76890518  0.93022787  1
  O  O372  1  0.96070970  0.10223851  0.43022787  1
  O  O373  1  0.96070970  0.10223851  0.93022787  1
  O  O374  1  0.96070970  0.43557184  0.43022787  1
  O  O375  1  0.96070970  0.43557184  0.93022787  1
  O  O376  1  0.96070970  0.76890518  0.43022787  1
  O  O377  1  0.96070970  0.76890518  0.93022787  1
  O  O378  1  0.29404303  0.23109482  0.06977213  1
  O  O379  1  0.29404303  0.23109482  0.56977213  1
  O  O380  1  0.29404303  0.56442816  0.06977213  1
  O  O381  1  0.29404303  0.56442816  0.56977213  1
  O  O382  1  0.29404303  0.89776149  0.06977213  1
  O  O383  1  0.29404303  0.89776149  0.56977213  1
  O  O384  1  0.62737636  0.23109482  0.06977213  1
  O  O385  1  0.62737636  0.23109482  0.56977213  1
  O  O386  1  0.62737636  0.56442816  0.06977213  1
  O  O387  1  0.62737636  0.56442816  0.56977213  1
  O  O388  1  0.62737636  0.89776149  0.06977213  1
  O  O389  1  0.62737636  0.89776149  0.56977213  1
  O  O390  1  0.96070970  0.23109482  0.06977213  1
  O  O391  1  0.96070970  0.23109482  0.56977213  1
  O  O392  1  0.96070970  0.56442816  0.06977213  1
  O  O393  1  0.96070970  0.56442816  0.56977213  1
  O  O394  1  0.96070970  0.89776149  0.06977213  1
  O  O395  1  0.96070970  0.89776149  0.56977213  1
  O  O396  1  0.10223851  0.03929030  0.43022787  1
  O  O397  1  0.10223851  0.03929030  0.93022787  1
  O  O398  1  0.10223851  0.37262364  0.43022787  1
  O  O399  1  0.10223851  0.37262364  0.93022787  1
  O  O400  1  0.10223851  0.70595697  0.43022787  1
  O  O401  1  0.10223851  0.70595697  0.93022787  1
  O  O402  1  0.43557184  0.03929030  0.43022787  1
  O  O403  1  0.43557184  0.03929030  0.93022787  1
  O  O404  1  0.43557184  0.37262364  0.43022787  1
  O  O405  1  0.43557184  0.37262364  0.93022787  1
  O  O406  1  0.43557184  0.70595697  0.43022787  1
  O  O407  1  0.43557184  0.70595697  0.93022787  1
  O  O408  1  0.76890518  0.03929030  0.43022787  1
  O  O409  1  0.76890518  0.03929030  0.93022787  1
  O  O410  1  0.76890518  0.37262364  0.43022787  1
  O  O411  1  0.76890518  0.37262364  0.93022787  1
  O  O412  1  0.76890518  0.70595697  0.43022787  1
  O  O413  1  0.76890518  0.70595697  0.93022787  1
  O  O414  1  0.23109482  0.29404303  0.43022787  1
  O  O415  1  0.23109482  0.29404303  0.93022787  1
  O  O416  1  0.23109482  0.62737636  0.43022787  1
  O  O417  1  0.23109482  0.62737636  0.93022787  1
  O  O418  1  0.23109482  0.96070970  0.43022787  1
  O  O419  1  0.23109482  0.96070970  0.93022787  1
  O  O420  1  0.56442816  0.29404303  0.43022787  1
  O  O421  1  0.56442816  0.29404303  0.93022787  1
  O  O422  1  0.56442816  0.62737636  0.43022787  1
  O  O423  1  0.56442816  0.62737636  0.93022787  1
  O  O424  1  0.56442816  0.96070970  0.43022787  1
  O  O425  1  0.56442816  0.96070970  0.93022787  1
  O  O426  1  0.89776149  0.29404303  0.43022787  1
  O  O427  1  0.89776149  0.29404303  0.93022787  1
  O  O428  1  0.89776149  0.62737636  0.43022787  1
  O  O429  1  0.89776149  0.62737636  0.93022787  1
  O  O430  1  0.89776149  0.96070970  0.43022787  1
  O  O431  1  0.89776149  0.96070970  0.93022787  1
