# generated using pymatgen
data_CdWO4
_symmetry_space_group_name_H-M   'P 1'
_cell_length_a   10.05841052
_cell_length_b   11.80219767
_cell_length_c   10.14718147
_cell_angle_alpha   90.00000000
_cell_angle_beta   91.26591347
_cell_angle_gamma   90.00000000
_symmetry_Int_Tables_number   1
_chemical_formula_structural   CdWO4
_chemical_formula_sum   'Cd16 W16 O64'
_cell_volume   1204.29159926
_cell_formula_units_Z   16
loop_
 _symmetry_equiv_pos_site_id
 _symmetry_equiv_pos_as_xyz
  1  'x, y, z'
loop_
 _atom_site_type_symbol
 _atom_site_label
 _atom_site_symmetry_multiplicity
 _atom_site_fract_x
 _atom_site_fract_y
 _atom_site_fract_z
 _atom_site_occupancy
  Cd  Cd0  1  0.25000000  0.34506753  0.37500000  1
  Cd  Cd1  1  0.25000000  0.34506753  0.87500000  1
  Cd  Cd2  1  0.25000000  0.84506753  0.37500000  1
  Cd  Cd3  1  0.25000000  0.84506753  0.87500000  1
  Cd  Cd4  1  0.75000000  0.34506753  0.37500000  1
  Cd  Cd5  1  0.75000000  0.34506753  0.87500000  1
  Cd  Cd6  1  0.75000000  0.84506753  0.37500000  1
  Cd  Cd7  1  0.75000000  0.84506753  0.87500000  1
  Cd  Cd8  1  0.25000000  0.15493247  0.12500000  1
  Cd  Cd9  1  0.25000000  0.15493247  0.62500000  1
  Cd  Cd10  1  0.25000000  0.65493247  0.12500000  1
  Cd  Cd11  1  0.25000000  0.65493247  0.62500000  1
  Cd  Cd12  1  0.75000000  0.15493247  0.12500000  1
  Cd  Cd13  1  0.75000000  0.15493247  0.62500000  1
  Cd  Cd14  1  0.75000000  0.65493247  0.12500000  1
  Cd  Cd15  1  0.75000000  0.65493247  0.62500000  1
  W  W16  1  0.00000000  0.08763603  0.37500000  1
  W  W17  1  0.00000000  0.08763603  0.87500000  1
  W  W18  1  0.00000000  0.58763603  0.37500000  1
  W  W19  1  0.00000000  0.58763603  0.87500000  1
  W  W20  1  0.50000000  0.08763603  0.37500000  1
  W  W21  1  0.50000000  0.08763603  0.87500000  1
  W  W22  1  0.50000000  0.58763603  0.37500000  1
  W  W23  1  0.50000000  0.58763603  0.87500000  1
  W  W24  1  0.00000000  0.41236397  0.12500000  1
  W  W25  1  0.00000000  0.41236397  0.62500000  1
  W  W26  1  0.00000000  0.91236397  0.12500000  1
  W  W27  1  0.00000000  0.91236397  0.62500000  1
  W  W28  1  0.50000000  0.41236397  0.12500000  1
  W  W29  1  0.50000000  0.41236397  0.62500000  1
  W  W30  1  0.50000000  0.91236397  0.12500000  1
  W  W31  1  0.50000000  0.91236397  0.62500000  1
  O  O32  1  0.39952244  0.04784725  0.02720252  1
  O  O33  1  0.39952244  0.04784725  0.52720252  1
  O  O34  1  0.39952244  0.54784725  0.02720252  1
  O  O35  1  0.39952244  0.54784725  0.52720252  1
  O  O36  1  0.89952244  0.04784725  0.02720252  1
  O  O37  1  0.89952244  0.04784725  0.52720252  1
  O  O38  1  0.89952244  0.54784725  0.02720252  1
  O  O39  1  0.89952244  0.54784725  0.52720252  1
  O  O40  1  0.10047756  0.04784725  0.22279748  1
  O  O41  1  0.10047756  0.04784725  0.72279748  1
  O  O42  1  0.10047756  0.54784725  0.22279748  1
  O  O43  1  0.10047756  0.54784725  0.72279748  1
  O  O44  1  0.60047756  0.04784725  0.22279748  1
  O  O45  1  0.60047756  0.04784725  0.72279748  1
  O  O46  1  0.60047756  0.54784725  0.22279748  1
  O  O47  1  0.60047756  0.54784725  0.72279748  1
  O  O48  1  0.10047756  0.45215275  0.47279748  1
  O  O49  1  0.10047756  0.45215275  0.97279748  1
  O  O50  1  0.10047756  0.95215275  0.47279748  1
  O  O51  1  0.10047756  0.95215275  0.97279748  1
  O  O52  1  0.60047756  0.45215275  0.47279748  1
  O  O53  1  0.60047756  0.45215275  0.97279748  1
  O  O54  1  0.60047756  0.95215275  0.47279748  1
  O  O55  1  0.60047756  0.95215275  0.97279748  1
  O  O56  1  0.39952244  0.45215275  0.27720252  1
  O  O57  1  0.39952244  0.45215275  0.77720252  1
  O  O58  1  0.39952244  0.95215275  0.27720252  1
  O  O59  1  0.39952244  0.95215275  0.77720252  1
  O  O60  1  0.89952244  0.45215275  0.27720252  1
  O  O61  1  0.89952244  0.45215275  0.77720252  1
  O  O62  1  0.89952244  0.95215275  0.27720252  1
  O  O63  1  0.89952244  0.95215275  0.77720252  1
  O  O64  1  0.37780192  0.18461394  0.30826919  1
  O  O65  1  0.37780192  0.18461394  0.80826919  1
  O  O66  1  0.37780192  0.68461394  0.30826919  1
  O  O67  1  0.37780192  0.68461394  0.80826919  1
  O  O68  1  0.87780192  0.18461394  0.30826919  1
  O  O69  1  0.87780192  0.18461394  0.80826919  1
  O  O70  1  0.87780192  0.68461394  0.30826919  1
  O  O71  1  0.87780192  0.68461394  0.80826919  1
  O  O72  1  0.12219808  0.18461394  0.44173081  1
  O  O73  1  0.12219808  0.18461394  0.94173081  1
  O  O74  1  0.12219808  0.68461394  0.44173081  1
  O  O75  1  0.12219808  0.68461394  0.94173081  1
  O  O76  1  0.62219808  0.18461394  0.44173081  1
  O  O77  1  0.62219808  0.18461394  0.94173081  1
  O  O78  1  0.62219808  0.68461394  0.44173081  1
  O  O79  1  0.62219808  0.68461394  0.94173081  1
  O  O80  1  0.12219808  0.31538606  0.19173081  1
  O  O81  1  0.12219808  0.31538606  0.69173081  1
  O  O82  1  0.12219808  0.81538606  0.19173081  1
  O  O83  1  0.12219808  0.81538606  0.69173081  1
  O  O84  1  0.62219808  0.31538606  0.19173081  1
  O  O85  1  0.62219808  0.31538606  0.69173081  1
  O  O86  1  0.62219808  0.81538606  0.19173081  1
  O  O87  1  0.62219808  0.81538606  0.69173081  1
  O  O88  1  0.37780192  0.31538606  0.05826919  1
  O  O89  1  0.37780192  0.31538606  0.55826919  1
  O  O90  1  0.37780192  0.81538606  0.05826919  1
  O  O91  1  0.37780192  0.81538606  0.55826919  1
  O  O92  1  0.87780192  0.31538606  0.05826919  1
  O  O93  1  0.87780192  0.31538606  0.55826919  1
  O  O94  1  0.87780192  0.81538606  0.05826919  1
  O  O95  1  0.87780192  0.81538606  0.55826919  1
