# generated using pymatgen
data_Ca2SnO4
_symmetry_space_group_name_H-M   'P 1'
_cell_length_a   17.18872913
_cell_length_b   19.34605167
_cell_length_c   16.31988376
_cell_angle_alpha   90.00000000
_cell_angle_beta   90.00000000
_cell_angle_gamma   90.00000000
_symmetry_Int_Tables_number   1
_chemical_formula_structural   Ca2SnO4
_chemical_formula_sum   'Ca120 Sn60 O240'
_cell_volume   5426.91690893
_cell_formula_units_Z   60
loop_
 _symmetry_equiv_pos_site_id
 _symmetry_equiv_pos_as_xyz
  1  'x, y, z'
loop_
 _atom_site_type_symbol
 _atom_site_label
 _atom_site_symmetry_multiplicity
 _atom_site_fract_x
 _atom_site_fract_y
 _atom_site_fract_z
 _atom_site_occupancy
  Ca  Ca0  1  0.02364251  0.15904651  0.10000000  1
  Ca  Ca1  1  0.02364251  0.15904651  0.30000000  1
  Ca  Ca2  1  0.02364251  0.15904651  0.50000000  1
  Ca  Ca3  1  0.02364251  0.15904651  0.70000000  1
  Ca  Ca4  1  0.02364251  0.15904651  0.90000000  1
  Ca  Ca5  1  0.02364251  0.65904651  0.10000000  1
  Ca  Ca6  1  0.02364251  0.65904651  0.30000000  1
  Ca  Ca7  1  0.02364251  0.65904651  0.50000000  1
  Ca  Ca8  1  0.02364251  0.65904651  0.70000000  1
  Ca  Ca9  1  0.02364251  0.65904651  0.90000000  1
  Ca  Ca10  1  0.35697584  0.15904651  0.10000000  1
  Ca  Ca11  1  0.35697584  0.15904651  0.30000000  1
  Ca  Ca12  1  0.35697584  0.15904651  0.50000000  1
  Ca  Ca13  1  0.35697584  0.15904651  0.70000000  1
  Ca  Ca14  1  0.35697584  0.15904651  0.90000000  1
  Ca  Ca15  1  0.35697584  0.65904651  0.10000000  1
  Ca  Ca16  1  0.35697584  0.65904651  0.30000000  1
  Ca  Ca17  1  0.35697584  0.65904651  0.50000000  1
  Ca  Ca18  1  0.35697584  0.65904651  0.70000000  1
  Ca  Ca19  1  0.35697584  0.65904651  0.90000000  1
  Ca  Ca20  1  0.69030918  0.15904651  0.10000000  1
  Ca  Ca21  1  0.69030918  0.15904651  0.30000000  1
  Ca  Ca22  1  0.69030918  0.15904651  0.50000000  1
  Ca  Ca23  1  0.69030918  0.15904651  0.70000000  1
  Ca  Ca24  1  0.69030918  0.15904651  0.90000000  1
  Ca  Ca25  1  0.69030918  0.65904651  0.10000000  1
  Ca  Ca26  1  0.69030918  0.65904651  0.30000000  1
  Ca  Ca27  1  0.69030918  0.65904651  0.50000000  1
  Ca  Ca28  1  0.69030918  0.65904651  0.70000000  1
  Ca  Ca29  1  0.69030918  0.65904651  0.90000000  1
  Ca  Ca30  1  0.30969082  0.34095349  0.10000000  1
  Ca  Ca31  1  0.30969082  0.34095349  0.30000000  1
  Ca  Ca32  1  0.30969082  0.34095349  0.50000000  1
  Ca  Ca33  1  0.30969082  0.34095349  0.70000000  1
  Ca  Ca34  1  0.30969082  0.34095349  0.90000000  1
  Ca  Ca35  1  0.30969082  0.84095349  0.10000000  1
  Ca  Ca36  1  0.30969082  0.84095349  0.30000000  1
  Ca  Ca37  1  0.30969082  0.84095349  0.50000000  1
  Ca  Ca38  1  0.30969082  0.84095349  0.70000000  1
  Ca  Ca39  1  0.30969082  0.84095349  0.90000000  1
  Ca  Ca40  1  0.64302416  0.34095349  0.10000000  1
  Ca  Ca41  1  0.64302416  0.34095349  0.30000000  1
  Ca  Ca42  1  0.64302416  0.34095349  0.50000000  1
  Ca  Ca43  1  0.64302416  0.34095349  0.70000000  1
  Ca  Ca44  1  0.64302416  0.34095349  0.90000000  1
  Ca  Ca45  1  0.64302416  0.84095349  0.10000000  1
  Ca  Ca46  1  0.64302416  0.84095349  0.30000000  1
  Ca  Ca47  1  0.64302416  0.84095349  0.50000000  1
  Ca  Ca48  1  0.64302416  0.84095349  0.70000000  1
  Ca  Ca49  1  0.64302416  0.84095349  0.90000000  1
  Ca  Ca50  1  0.97635749  0.34095349  0.10000000  1
  Ca  Ca51  1  0.97635749  0.34095349  0.30000000  1
  Ca  Ca52  1  0.97635749  0.34095349  0.50000000  1
  Ca  Ca53  1  0.97635749  0.34095349  0.70000000  1
  Ca  Ca54  1  0.97635749  0.34095349  0.90000000  1
  Ca  Ca55  1  0.97635749  0.84095349  0.10000000  1
  Ca  Ca56  1  0.97635749  0.84095349  0.30000000  1
  Ca  Ca57  1  0.97635749  0.84095349  0.50000000  1
  Ca  Ca58  1  0.97635749  0.84095349  0.70000000  1
  Ca  Ca59  1  0.97635749  0.84095349  0.90000000  1
  Ca  Ca60  1  0.14302416  0.40904651  0.10000000  1
  Ca  Ca61  1  0.14302416  0.40904651  0.30000000  1
  Ca  Ca62  1  0.14302416  0.40904651  0.50000000  1
  Ca  Ca63  1  0.14302416  0.40904651  0.70000000  1
  Ca  Ca64  1  0.14302416  0.40904651  0.90000000  1
  Ca  Ca65  1  0.14302416  0.90904651  0.10000000  1
  Ca  Ca66  1  0.14302416  0.90904651  0.30000000  1
  Ca  Ca67  1  0.14302416  0.90904651  0.50000000  1
  Ca  Ca68  1  0.14302416  0.90904651  0.70000000  1
  Ca  Ca69  1  0.14302416  0.90904651  0.90000000  1
  Ca  Ca70  1  0.47635749  0.40904651  0.10000000  1
  Ca  Ca71  1  0.47635749  0.40904651  0.30000000  1
  Ca  Ca72  1  0.47635749  0.40904651  0.50000000  1
  Ca  Ca73  1  0.47635749  0.40904651  0.70000000  1
  Ca  Ca74  1  0.47635749  0.40904651  0.90000000  1
  Ca  Ca75  1  0.47635749  0.90904651  0.10000000  1
  Ca  Ca76  1  0.47635749  0.90904651  0.30000000  1
  Ca  Ca77  1  0.47635749  0.90904651  0.50000000  1
  Ca  Ca78  1  0.47635749  0.90904651  0.70000000  1
  Ca  Ca79  1  0.47635749  0.90904651  0.90000000  1
  Ca  Ca80  1  0.80969082  0.40904651  0.10000000  1
  Ca  Ca81  1  0.80969082  0.40904651  0.30000000  1
  Ca  Ca82  1  0.80969082  0.40904651  0.50000000  1
  Ca  Ca83  1  0.80969082  0.40904651  0.70000000  1
  Ca  Ca84  1  0.80969082  0.40904651  0.90000000  1
  Ca  Ca85  1  0.80969082  0.90904651  0.10000000  1
  Ca  Ca86  1  0.80969082  0.90904651  0.30000000  1
  Ca  Ca87  1  0.80969082  0.90904651  0.50000000  1
  Ca  Ca88  1  0.80969082  0.90904651  0.70000000  1
  Ca  Ca89  1  0.80969082  0.90904651  0.90000000  1
  Ca  Ca90  1  0.19030918  0.09095349  0.10000000  1
  Ca  Ca91  1  0.19030918  0.09095349  0.30000000  1
  Ca  Ca92  1  0.19030918  0.09095349  0.50000000  1
  Ca  Ca93  1  0.19030918  0.09095349  0.70000000  1
  Ca  Ca94  1  0.19030918  0.09095349  0.90000000  1
  Ca  Ca95  1  0.19030918  0.59095349  0.10000000  1
  Ca  Ca96  1  0.19030918  0.59095349  0.30000000  1
  Ca  Ca97  1  0.19030918  0.59095349  0.50000000  1
  Ca  Ca98  1  0.19030918  0.59095349  0.70000000  1
  Ca  Ca99  1  0.19030918  0.59095349  0.90000000  1
  Ca  Ca100  1  0.52364251  0.09095349  0.10000000  1
  Ca  Ca101  1  0.52364251  0.09095349  0.30000000  1
  Ca  Ca102  1  0.52364251  0.09095349  0.50000000  1
  Ca  Ca103  1  0.52364251  0.09095349  0.70000000  1
  Ca  Ca104  1  0.52364251  0.09095349  0.90000000  1
  Ca  Ca105  1  0.52364251  0.59095349  0.10000000  1
  Ca  Ca106  1  0.52364251  0.59095349  0.30000000  1
  Ca  Ca107  1  0.52364251  0.59095349  0.50000000  1
  Ca  Ca108  1  0.52364251  0.59095349  0.70000000  1
  Ca  Ca109  1  0.52364251  0.59095349  0.90000000  1
  Ca  Ca110  1  0.85697584  0.09095349  0.10000000  1
  Ca  Ca111  1  0.85697584  0.09095349  0.30000000  1
  Ca  Ca112  1  0.85697584  0.09095349  0.50000000  1
  Ca  Ca113  1  0.85697584  0.09095349  0.70000000  1
  Ca  Ca114  1  0.85697584  0.09095349  0.90000000  1
  Ca  Ca115  1  0.85697584  0.59095349  0.10000000  1
  Ca  Ca116  1  0.85697584  0.59095349  0.30000000  1
  Ca  Ca117  1  0.85697584  0.59095349  0.50000000  1
  Ca  Ca118  1  0.85697584  0.59095349  0.70000000  1
  Ca  Ca119  1  0.85697584  0.59095349  0.90000000  1
  Sn  Sn120  1  0.00000000  0.00000000  0.00000000  1
  Sn  Sn121  1  0.00000000  0.00000000  0.20000000  1
  Sn  Sn122  1  0.00000000  0.00000000  0.40000000  1
  Sn  Sn123  1  0.00000000  0.00000000  0.60000000  1
  Sn  Sn124  1  0.00000000  0.00000000  0.80000000  1
  Sn  Sn125  1  0.00000000  0.50000000  0.00000000  1
  Sn  Sn126  1  0.00000000  0.50000000  0.20000000  1
  Sn  Sn127  1  0.00000000  0.50000000  0.40000000  1
  Sn  Sn128  1  0.00000000  0.50000000  0.60000000  1
  Sn  Sn129  1  0.00000000  0.50000000  0.80000000  1
  Sn  Sn130  1  0.33333333  0.00000000  0.00000000  1
  Sn  Sn131  1  0.33333333  0.00000000  0.20000000  1
  Sn  Sn132  1  0.33333333  0.00000000  0.40000000  1
  Sn  Sn133  1  0.33333333  0.00000000  0.60000000  1
  Sn  Sn134  1  0.33333333  0.00000000  0.80000000  1
  Sn  Sn135  1  0.33333333  0.50000000  0.00000000  1
  Sn  Sn136  1  0.33333333  0.50000000  0.20000000  1
  Sn  Sn137  1  0.33333333  0.50000000  0.40000000  1
  Sn  Sn138  1  0.33333333  0.50000000  0.60000000  1
  Sn  Sn139  1  0.33333333  0.50000000  0.80000000  1
  Sn  Sn140  1  0.66666667  0.00000000  0.00000000  1
  Sn  Sn141  1  0.66666667  0.00000000  0.20000000  1
  Sn  Sn142  1  0.66666667  0.00000000  0.40000000  1
  Sn  Sn143  1  0.66666667  0.00000000  0.60000000  1
  Sn  Sn144  1  0.66666667  0.00000000  0.80000000  1
  Sn  Sn145  1  0.66666667  0.50000000  0.00000000  1
  Sn  Sn146  1  0.66666667  0.50000000  0.20000000  1
  Sn  Sn147  1  0.66666667  0.50000000  0.40000000  1
  Sn  Sn148  1  0.66666667  0.50000000  0.60000000  1
  Sn  Sn149  1  0.66666667  0.50000000  0.80000000  1
  Sn  Sn150  1  0.16666667  0.25000000  0.00000000  1
  Sn  Sn151  1  0.16666667  0.25000000  0.20000000  1
  Sn  Sn152  1  0.16666667  0.25000000  0.40000000  1
  Sn  Sn153  1  0.16666667  0.25000000  0.60000000  1
  Sn  Sn154  1  0.16666667  0.25000000  0.80000000  1
  Sn  Sn155  1  0.16666667  0.75000000  0.00000000  1
  Sn  Sn156  1  0.16666667  0.75000000  0.20000000  1
  Sn  Sn157  1  0.16666667  0.75000000  0.40000000  1
  Sn  Sn158  1  0.16666667  0.75000000  0.60000000  1
  Sn  Sn159  1  0.16666667  0.75000000  0.80000000  1
  Sn  Sn160  1  0.50000000  0.25000000  0.00000000  1
  Sn  Sn161  1  0.50000000  0.25000000  0.20000000  1
  Sn  Sn162  1  0.50000000  0.25000000  0.40000000  1
  Sn  Sn163  1  0.50000000  0.25000000  0.60000000  1
  Sn  Sn164  1  0.50000000  0.25000000  0.80000000  1
  Sn  Sn165  1  0.50000000  0.75000000  0.00000000  1
  Sn  Sn166  1  0.50000000  0.75000000  0.20000000  1
  Sn  Sn167  1  0.50000000  0.75000000  0.40000000  1
  Sn  Sn168  1  0.50000000  0.75000000  0.60000000  1
  Sn  Sn169  1  0.50000000  0.75000000  0.80000000  1
  Sn  Sn170  1  0.83333333  0.25000000  0.00000000  1
  Sn  Sn171  1  0.83333333  0.25000000  0.20000000  1
  Sn  Sn172  1  0.83333333  0.25000000  0.40000000  1
  Sn  Sn173  1  0.83333333  0.25000000  0.60000000  1
  Sn  Sn174  1  0.83333333  0.25000000  0.80000000  1
  Sn  Sn175  1  0.83333333  0.75000000  0.00000000  1
  Sn  Sn176  1  0.83333333  0.75000000  0.20000000  1
  Sn  Sn177  1  0.83333333  0.75000000  0.40000000  1
  Sn  Sn178  1  0.83333333  0.75000000  0.60000000  1
  Sn  Sn179  1  0.83333333  0.75000000  0.80000000  1
  O  O180  1  0.04559325  0.40255464  0.00000000  1
  O  O181  1  0.04559325  0.40255464  0.20000000  1
  O  O182  1  0.04559325  0.40255464  0.40000000  1
  O  O183  1  0.04559325  0.40255464  0.60000000  1
  O  O184  1  0.04559325  0.40255464  0.80000000  1
  O  O185  1  0.04559325  0.90255464  0.00000000  1
  O  O186  1  0.04559325  0.90255464  0.20000000  1
  O  O187  1  0.04559325  0.90255464  0.40000000  1
  O  O188  1  0.04559325  0.90255464  0.60000000  1
  O  O189  1  0.04559325  0.90255464  0.80000000  1
  O  O190  1  0.37892658  0.40255464  0.00000000  1
  O  O191  1  0.37892658  0.40255464  0.20000000  1
  O  O192  1  0.37892658  0.40255464  0.40000000  1
  O  O193  1  0.37892658  0.40255464  0.60000000  1
  O  O194  1  0.37892658  0.40255464  0.80000000  1
  O  O195  1  0.37892658  0.90255464  0.00000000  1
  O  O196  1  0.37892658  0.90255464  0.20000000  1
  O  O197  1  0.37892658  0.90255464  0.40000000  1
  O  O198  1  0.37892658  0.90255464  0.60000000  1
  O  O199  1  0.37892658  0.90255464  0.80000000  1
  O  O200  1  0.71225991  0.40255464  0.00000000  1
  O  O201  1  0.71225991  0.40255464  0.20000000  1
  O  O202  1  0.71225991  0.40255464  0.40000000  1
  O  O203  1  0.71225991  0.40255464  0.60000000  1
  O  O204  1  0.71225991  0.40255464  0.80000000  1
  O  O205  1  0.71225991  0.90255464  0.00000000  1
  O  O206  1  0.71225991  0.90255464  0.20000000  1
  O  O207  1  0.71225991  0.90255464  0.40000000  1
  O  O208  1  0.71225991  0.90255464  0.60000000  1
  O  O209  1  0.71225991  0.90255464  0.80000000  1
  O  O210  1  0.28774009  0.09744536  0.00000000  1
  O  O211  1  0.28774009  0.09744536  0.20000000  1
  O  O212  1  0.28774009  0.09744536  0.40000000  1
  O  O213  1  0.28774009  0.09744536  0.60000000  1
  O  O214  1  0.28774009  0.09744536  0.80000000  1
  O  O215  1  0.28774009  0.59744536  0.00000000  1
  O  O216  1  0.28774009  0.59744536  0.20000000  1
  O  O217  1  0.28774009  0.59744536  0.40000000  1
  O  O218  1  0.28774009  0.59744536  0.60000000  1
  O  O219  1  0.28774009  0.59744536  0.80000000  1
  O  O220  1  0.62107342  0.09744536  0.00000000  1
  O  O221  1  0.62107342  0.09744536  0.20000000  1
  O  O222  1  0.62107342  0.09744536  0.40000000  1
  O  O223  1  0.62107342  0.09744536  0.60000000  1
  O  O224  1  0.62107342  0.09744536  0.80000000  1
  O  O225  1  0.62107342  0.59744536  0.00000000  1
  O  O226  1  0.62107342  0.59744536  0.20000000  1
  O  O227  1  0.62107342  0.59744536  0.40000000  1
  O  O228  1  0.62107342  0.59744536  0.60000000  1
  O  O229  1  0.62107342  0.59744536  0.80000000  1
  O  O230  1  0.95440675  0.09744536  0.00000000  1
  O  O231  1  0.95440675  0.09744536  0.20000000  1
  O  O232  1  0.95440675  0.09744536  0.40000000  1
  O  O233  1  0.95440675  0.09744536  0.60000000  1
  O  O234  1  0.95440675  0.09744536  0.80000000  1
  O  O235  1  0.95440675  0.59744536  0.00000000  1
  O  O236  1  0.95440675  0.59744536  0.20000000  1
  O  O237  1  0.95440675  0.59744536  0.40000000  1
  O  O238  1  0.95440675  0.59744536  0.60000000  1
  O  O239  1  0.95440675  0.59744536  0.80000000  1
  O  O240  1  0.21225991  0.34744536  0.00000000  1
  O  O241  1  0.21225991  0.34744536  0.20000000  1
  O  O242  1  0.21225991  0.34744536  0.40000000  1
  O  O243  1  0.21225991  0.34744536  0.60000000  1
  O  O244  1  0.21225991  0.34744536  0.80000000  1
  O  O245  1  0.21225991  0.84744536  0.00000000  1
  O  O246  1  0.21225991  0.84744536  0.20000000  1
  O  O247  1  0.21225991  0.84744536  0.40000000  1
  O  O248  1  0.21225991  0.84744536  0.60000000  1
  O  O249  1  0.21225991  0.84744536  0.80000000  1
  O  O250  1  0.54559325  0.34744536  0.00000000  1
  O  O251  1  0.54559325  0.34744536  0.20000000  1
  O  O252  1  0.54559325  0.34744536  0.40000000  1
  O  O253  1  0.54559325  0.34744536  0.60000000  1
  O  O254  1  0.54559325  0.34744536  0.80000000  1
  O  O255  1  0.54559325  0.84744536  0.00000000  1
  O  O256  1  0.54559325  0.84744536  0.20000000  1
  O  O257  1  0.54559325  0.84744536  0.40000000  1
  O  O258  1  0.54559325  0.84744536  0.60000000  1
  O  O259  1  0.54559325  0.84744536  0.80000000  1
  O  O260  1  0.87892658  0.34744536  0.00000000  1
  O  O261  1  0.87892658  0.34744536  0.20000000  1
  O  O262  1  0.87892658  0.34744536  0.40000000  1
  O  O263  1  0.87892658  0.34744536  0.60000000  1
  O  O264  1  0.87892658  0.34744536  0.80000000  1
  O  O265  1  0.87892658  0.84744536  0.00000000  1
  O  O266  1  0.87892658  0.84744536  0.20000000  1
  O  O267  1  0.87892658  0.84744536  0.40000000  1
  O  O268  1  0.87892658  0.84744536  0.60000000  1
  O  O269  1  0.87892658  0.84744536  0.80000000  1
  O  O270  1  0.12107342  0.15255464  0.00000000  1
  O  O271  1  0.12107342  0.15255464  0.20000000  1
  O  O272  1  0.12107342  0.15255464  0.40000000  1
  O  O273  1  0.12107342  0.15255464  0.60000000  1
  O  O274  1  0.12107342  0.15255464  0.80000000  1
  O  O275  1  0.12107342  0.65255464  0.00000000  1
  O  O276  1  0.12107342  0.65255464  0.20000000  1
  O  O277  1  0.12107342  0.65255464  0.40000000  1
  O  O278  1  0.12107342  0.65255464  0.60000000  1
  O  O279  1  0.12107342  0.65255464  0.80000000  1
  O  O280  1  0.45440675  0.15255464  0.00000000  1
  O  O281  1  0.45440675  0.15255464  0.20000000  1
  O  O282  1  0.45440675  0.15255464  0.40000000  1
  O  O283  1  0.45440675  0.15255464  0.60000000  1
  O  O284  1  0.45440675  0.15255464  0.80000000  1
  O  O285  1  0.45440675  0.65255464  0.00000000  1
  O  O286  1  0.45440675  0.65255464  0.20000000  1
  O  O287  1  0.45440675  0.65255464  0.40000000  1
  O  O288  1  0.45440675  0.65255464  0.60000000  1
  O  O289  1  0.45440675  0.65255464  0.80000000  1
  O  O290  1  0.78774009  0.15255464  0.00000000  1
  O  O291  1  0.78774009  0.15255464  0.20000000  1
  O  O292  1  0.78774009  0.15255464  0.40000000  1
  O  O293  1  0.78774009  0.15255464  0.60000000  1
  O  O294  1  0.78774009  0.15255464  0.80000000  1
  O  O295  1  0.78774009  0.65255464  0.00000000  1
  O  O296  1  0.78774009  0.65255464  0.20000000  1
  O  O297  1  0.78774009  0.65255464  0.40000000  1
  O  O298  1  0.78774009  0.65255464  0.60000000  1
  O  O299  1  0.78774009  0.65255464  0.80000000  1
  O  O300  1  0.09014770  0.27426980  0.10000000  1
  O  O301  1  0.09014770  0.27426980  0.30000000  1
  O  O302  1  0.09014770  0.27426980  0.50000000  1
  O  O303  1  0.09014770  0.27426980  0.70000000  1
  O  O304  1  0.09014770  0.27426980  0.90000000  1
  O  O305  1  0.09014770  0.77426980  0.10000000  1
  O  O306  1  0.09014770  0.77426980  0.30000000  1
  O  O307  1  0.09014770  0.77426980  0.50000000  1
  O  O308  1  0.09014770  0.77426980  0.70000000  1
  O  O309  1  0.09014770  0.77426980  0.90000000  1
  O  O310  1  0.42348104  0.27426980  0.10000000  1
  O  O311  1  0.42348104  0.27426980  0.30000000  1
  O  O312  1  0.42348104  0.27426980  0.50000000  1
  O  O313  1  0.42348104  0.27426980  0.70000000  1
  O  O314  1  0.42348104  0.27426980  0.90000000  1
  O  O315  1  0.42348104  0.77426980  0.10000000  1
  O  O316  1  0.42348104  0.77426980  0.30000000  1
  O  O317  1  0.42348104  0.77426980  0.50000000  1
  O  O318  1  0.42348104  0.77426980  0.70000000  1
  O  O319  1  0.42348104  0.77426980  0.90000000  1
  O  O320  1  0.75681437  0.27426980  0.10000000  1
  O  O321  1  0.75681437  0.27426980  0.30000000  1
  O  O322  1  0.75681437  0.27426980  0.50000000  1
  O  O323  1  0.75681437  0.27426980  0.70000000  1
  O  O324  1  0.75681437  0.27426980  0.90000000  1
  O  O325  1  0.75681437  0.77426980  0.10000000  1
  O  O326  1  0.75681437  0.77426980  0.30000000  1
  O  O327  1  0.75681437  0.77426980  0.50000000  1
  O  O328  1  0.75681437  0.77426980  0.70000000  1
  O  O329  1  0.75681437  0.77426980  0.90000000  1
  O  O330  1  0.24318563  0.22573020  0.10000000  1
  O  O331  1  0.24318563  0.22573020  0.30000000  1
  O  O332  1  0.24318563  0.22573020  0.50000000  1
  O  O333  1  0.24318563  0.22573020  0.70000000  1
  O  O334  1  0.24318563  0.22573020  0.90000000  1
  O  O335  1  0.24318563  0.72573020  0.10000000  1
  O  O336  1  0.24318563  0.72573020  0.30000000  1
  O  O337  1  0.24318563  0.72573020  0.50000000  1
  O  O338  1  0.24318563  0.72573020  0.70000000  1
  O  O339  1  0.24318563  0.72573020  0.90000000  1
  O  O340  1  0.57651896  0.22573020  0.10000000  1
  O  O341  1  0.57651896  0.22573020  0.30000000  1
  O  O342  1  0.57651896  0.22573020  0.50000000  1
  O  O343  1  0.57651896  0.22573020  0.70000000  1
  O  O344  1  0.57651896  0.22573020  0.90000000  1
  O  O345  1  0.57651896  0.72573020  0.10000000  1
  O  O346  1  0.57651896  0.72573020  0.30000000  1
  O  O347  1  0.57651896  0.72573020  0.50000000  1
  O  O348  1  0.57651896  0.72573020  0.70000000  1
  O  O349  1  0.57651896  0.72573020  0.90000000  1
  O  O350  1  0.90985230  0.22573020  0.10000000  1
  O  O351  1  0.90985230  0.22573020  0.30000000  1
  O  O352  1  0.90985230  0.22573020  0.50000000  1
  O  O353  1  0.90985230  0.22573020  0.70000000  1
  O  O354  1  0.90985230  0.22573020  0.90000000  1
  O  O355  1  0.90985230  0.72573020  0.10000000  1
  O  O356  1  0.90985230  0.72573020  0.30000000  1
  O  O357  1  0.90985230  0.72573020  0.50000000  1
  O  O358  1  0.90985230  0.72573020  0.70000000  1
  O  O359  1  0.90985230  0.72573020  0.90000000  1
  O  O360  1  0.07651896  0.02426980  0.10000000  1
  O  O361  1  0.07651896  0.02426980  0.30000000  1
  O  O362  1  0.07651896  0.02426980  0.50000000  1
  O  O363  1  0.07651896  0.02426980  0.70000000  1
  O  O364  1  0.07651896  0.02426980  0.90000000  1
  O  O365  1  0.07651896  0.52426980  0.10000000  1
  O  O366  1  0.07651896  0.52426980  0.30000000  1
  O  O367  1  0.07651896  0.52426980  0.50000000  1
  O  O368  1  0.07651896  0.52426980  0.70000000  1
  O  O369  1  0.07651896  0.52426980  0.90000000  1
  O  O370  1  0.40985230  0.02426980  0.10000000  1
  O  O371  1  0.40985230  0.02426980  0.30000000  1
  O  O372  1  0.40985230  0.02426980  0.50000000  1
  O  O373  1  0.40985230  0.02426980  0.70000000  1
  O  O374  1  0.40985230  0.02426980  0.90000000  1
  O  O375  1  0.40985230  0.52426980  0.10000000  1
  O  O376  1  0.40985230  0.52426980  0.30000000  1
  O  O377  1  0.40985230  0.52426980  0.50000000  1
  O  O378  1  0.40985230  0.52426980  0.70000000  1
  O  O379  1  0.40985230  0.52426980  0.90000000  1
  O  O380  1  0.74318563  0.02426980  0.10000000  1
  O  O381  1  0.74318563  0.02426980  0.30000000  1
  O  O382  1  0.74318563  0.02426980  0.50000000  1
  O  O383  1  0.74318563  0.02426980  0.70000000  1
  O  O384  1  0.74318563  0.02426980  0.90000000  1
  O  O385  1  0.74318563  0.52426980  0.10000000  1
  O  O386  1  0.74318563  0.52426980  0.30000000  1
  O  O387  1  0.74318563  0.52426980  0.50000000  1
  O  O388  1  0.74318563  0.52426980  0.70000000  1
  O  O389  1  0.74318563  0.52426980  0.90000000  1
  O  O390  1  0.25681437  0.47573020  0.10000000  1
  O  O391  1  0.25681437  0.47573020  0.30000000  1
  O  O392  1  0.25681437  0.47573020  0.50000000  1
  O  O393  1  0.25681437  0.47573020  0.70000000  1
  O  O394  1  0.25681437  0.47573020  0.90000000  1
  O  O395  1  0.25681437  0.97573020  0.10000000  1
  O  O396  1  0.25681437  0.97573020  0.30000000  1
  O  O397  1  0.25681437  0.97573020  0.50000000  1
  O  O398  1  0.25681437  0.97573020  0.70000000  1
  O  O399  1  0.25681437  0.97573020  0.90000000  1
  O  O400  1  0.59014770  0.47573020  0.10000000  1
  O  O401  1  0.59014770  0.47573020  0.30000000  1
  O  O402  1  0.59014770  0.47573020  0.50000000  1
  O  O403  1  0.59014770  0.47573020  0.70000000  1
  O  O404  1  0.59014770  0.47573020  0.90000000  1
  O  O405  1  0.59014770  0.97573020  0.10000000  1
  O  O406  1  0.59014770  0.97573020  0.30000000  1
  O  O407  1  0.59014770  0.97573020  0.50000000  1
  O  O408  1  0.59014770  0.97573020  0.70000000  1
  O  O409  1  0.59014770  0.97573020  0.90000000  1
  O  O410  1  0.92348104  0.47573020  0.10000000  1
  O  O411  1  0.92348104  0.47573020  0.30000000  1
  O  O412  1  0.92348104  0.47573020  0.50000000  1
  O  O413  1  0.92348104  0.47573020  0.70000000  1
  O  O414  1  0.92348104  0.47573020  0.90000000  1
  O  O415  1  0.92348104  0.97573020  0.10000000  1
  O  O416  1  0.92348104  0.97573020  0.30000000  1
  O  O417  1  0.92348104  0.97573020  0.50000000  1
  O  O418  1  0.92348104  0.97573020  0.70000000  1
  O  O419  1  0.92348104  0.97573020  0.90000000  1
