# generated using pymatgen
data_Al2PbO4
_symmetry_space_group_name_H-M   'P 1'
_cell_length_a   16.89091324
_cell_length_b   18.37614340
_cell_length_c   15.26323627
_cell_angle_alpha   90.00000000
_cell_angle_beta   90.00000000
_cell_angle_gamma   90.00000000
_symmetry_Int_Tables_number   1
_chemical_formula_structural   Al2PbO4
_chemical_formula_sum   'Al96 Pb48 O192'
_cell_volume   4737.55352080
_cell_formula_units_Z   48
loop_
 _symmetry_equiv_pos_site_id
 _symmetry_equiv_pos_as_xyz
  1  'x, y, z'
loop_
 _atom_site_type_symbol
 _atom_site_label
 _atom_site_symmetry_multiplicity
 _atom_site_fract_x
 _atom_site_fract_y
 _atom_site_fract_z
 _atom_site_occupancy
  Al  Al0  1  0.27694680  -0.08623735  0.15604551  1
  Al  Al1  1  0.27694680  -0.08623735  0.48937884  1
  Al  Al2  1  0.27694680  -0.08623735  0.82271218  1
  Al  Al3  1  0.27694680  0.41376265  0.15604551  1
  Al  Al4  1  0.27694680  0.41376265  0.48937884  1
  Al  Al5  1  0.27694680  0.41376265  0.82271218  1
  Al  Al6  1  0.77694680  -0.08623735  0.15604551  1
  Al  Al7  1  0.77694680  -0.08623735  0.48937884  1
  Al  Al8  1  0.77694680  -0.08623735  0.82271218  1
  Al  Al9  1  0.77694680  0.41376265  0.15604551  1
  Al  Al10  1  0.77694680  0.41376265  0.48937884  1
  Al  Al11  1  0.77694680  0.41376265  0.82271218  1
  Al  Al12  1  0.27694680  0.16376265  0.32271218  1
  Al  Al13  1  0.27694680  0.16376265  0.65604551  1
  Al  Al14  1  0.27694680  0.16376265  0.98937884  1
  Al  Al15  1  0.27694680  0.66376265  0.32271218  1
  Al  Al16  1  0.27694680  0.66376265  0.65604551  1
  Al  Al17  1  0.27694680  0.66376265  0.98937884  1
  Al  Al18  1  0.77694680  0.16376265  0.32271218  1
  Al  Al19  1  0.77694680  0.16376265  0.65604551  1
  Al  Al20  1  0.77694680  0.16376265  0.98937884  1
  Al  Al21  1  0.77694680  0.66376265  0.32271218  1
  Al  Al22  1  0.77694680  0.66376265  0.65604551  1
  Al  Al23  1  0.77694680  0.66376265  0.98937884  1
  Al  Al24  1  0.22305320  0.08623735  0.15604551  1
  Al  Al25  1  0.22305320  0.08623735  0.48937884  1
  Al  Al26  1  0.22305320  0.08623735  0.82271218  1
  Al  Al27  1  0.22305320  0.58623735  0.15604551  1
  Al  Al28  1  0.22305320  0.58623735  0.48937884  1
  Al  Al29  1  0.22305320  0.58623735  0.82271218  1
  Al  Al30  1  0.72305320  0.08623735  0.15604551  1
  Al  Al31  1  0.72305320  0.08623735  0.48937884  1
  Al  Al32  1  0.72305320  0.08623735  0.82271218  1
  Al  Al33  1  0.72305320  0.58623735  0.15604551  1
  Al  Al34  1  0.72305320  0.58623735  0.48937884  1
  Al  Al35  1  0.72305320  0.58623735  0.82271218  1
  Al  Al36  1  0.22305320  0.33623735  0.32271218  1
  Al  Al37  1  0.22305320  0.33623735  0.65604551  1
  Al  Al38  1  0.22305320  0.33623735  0.98937884  1
  Al  Al39  1  0.22305320  0.83623735  0.32271218  1
  Al  Al40  1  0.22305320  0.83623735  0.65604551  1
  Al  Al41  1  0.22305320  0.83623735  0.98937884  1
  Al  Al42  1  0.72305320  0.33623735  0.32271218  1
  Al  Al43  1  0.72305320  0.33623735  0.65604551  1
  Al  Al44  1  0.72305320  0.33623735  0.98937884  1
  Al  Al45  1  0.72305320  0.83623735  0.32271218  1
  Al  Al46  1  0.72305320  0.83623735  0.65604551  1
  Al  Al47  1  0.72305320  0.83623735  0.98937884  1
  Al  Al48  1  0.47305320  -0.08623735  0.15604551  1
  Al  Al49  1  0.47305320  -0.08623735  0.48937884  1
  Al  Al50  1  0.47305320  -0.08623735  0.82271218  1
  Al  Al51  1  0.47305320  0.41376265  0.15604551  1
  Al  Al52  1  0.47305320  0.41376265  0.48937884  1
  Al  Al53  1  0.47305320  0.41376265  0.82271218  1
  Al  Al54  1  0.97305320  -0.08623735  0.15604551  1
  Al  Al55  1  0.97305320  -0.08623735  0.48937884  1
  Al  Al56  1  0.97305320  -0.08623735  0.82271218  1
  Al  Al57  1  0.97305320  0.41376265  0.15604551  1
  Al  Al58  1  0.97305320  0.41376265  0.48937884  1
  Al  Al59  1  0.97305320  0.41376265  0.82271218  1
  Al  Al60  1  0.47305320  0.16376265  0.32271218  1
  Al  Al61  1  0.47305320  0.16376265  0.65604551  1
  Al  Al62  1  0.47305320  0.16376265  0.98937884  1
  Al  Al63  1  0.47305320  0.66376265  0.32271218  1
  Al  Al64  1  0.47305320  0.66376265  0.65604551  1
  Al  Al65  1  0.47305320  0.66376265  0.98937884  1
  Al  Al66  1  0.97305320  0.16376265  0.32271218  1
  Al  Al67  1  0.97305320  0.16376265  0.65604551  1
  Al  Al68  1  0.97305320  0.16376265  0.98937884  1
  Al  Al69  1  0.97305320  0.66376265  0.32271218  1
  Al  Al70  1  0.97305320  0.66376265  0.65604551  1
  Al  Al71  1  0.97305320  0.66376265  0.98937884  1
  Al  Al72  1  0.02694680  0.08623735  0.15604551  1
  Al  Al73  1  0.02694680  0.08623735  0.48937884  1
  Al  Al74  1  0.02694680  0.08623735  0.82271218  1
  Al  Al75  1  0.02694680  0.58623735  0.15604551  1
  Al  Al76  1  0.02694680  0.58623735  0.48937884  1
  Al  Al77  1  0.02694680  0.58623735  0.82271218  1
  Al  Al78  1  0.52694680  0.08623735  0.15604551  1
  Al  Al79  1  0.52694680  0.08623735  0.48937884  1
  Al  Al80  1  0.52694680  0.08623735  0.82271218  1
  Al  Al81  1  0.52694680  0.58623735  0.15604551  1
  Al  Al82  1  0.52694680  0.58623735  0.48937884  1
  Al  Al83  1  0.52694680  0.58623735  0.82271218  1
  Al  Al84  1  0.02694680  0.33623735  0.32271218  1
  Al  Al85  1  0.02694680  0.33623735  0.65604551  1
  Al  Al86  1  0.02694680  0.33623735  0.98937884  1
  Al  Al87  1  0.02694680  0.83623735  0.32271218  1
  Al  Al88  1  0.02694680  0.83623735  0.65604551  1
  Al  Al89  1  0.02694680  0.83623735  0.98937884  1
  Al  Al90  1  0.52694680  0.33623735  0.32271218  1
  Al  Al91  1  0.52694680  0.33623735  0.65604551  1
  Al  Al92  1  0.52694680  0.33623735  0.98937884  1
  Al  Al93  1  0.52694680  0.83623735  0.32271218  1
  Al  Al94  1  0.52694680  0.83623735  0.65604551  1
  Al  Al95  1  0.52694680  0.83623735  0.98937884  1
  Pb  Pb96  1  0.37500000  0.23674577  0.16789824  1
  Pb  Pb97  1  0.37500000  0.23674577  0.50123157  1
  Pb  Pb98  1  0.37500000  0.23674577  0.83456491  1
  Pb  Pb99  1  0.37500000  0.73674577  0.16789824  1
  Pb  Pb100  1  0.37500000  0.73674577  0.50123157  1
  Pb  Pb101  1  0.37500000  0.73674577  0.83456491  1
  Pb  Pb102  1  0.87500000  0.23674577  0.16789824  1
  Pb  Pb103  1  0.87500000  0.23674577  0.50123157  1
  Pb  Pb104  1  0.87500000  0.23674577  0.83456491  1
  Pb  Pb105  1  0.87500000  0.73674577  0.16789824  1
  Pb  Pb106  1  0.87500000  0.73674577  0.50123157  1
  Pb  Pb107  1  0.87500000  0.73674577  0.83456491  1
  Pb  Pb108  1  0.37500000  0.48674577  0.33456491  1
  Pb  Pb109  1  0.37500000  0.48674577  0.66789824  1
  Pb  Pb110  1  0.37500000  0.48674577  1.00123157  1
  Pb  Pb111  1  0.37500000  0.98674577  0.33456491  1
  Pb  Pb112  1  0.37500000  0.98674577  0.66789824  1
  Pb  Pb113  1  0.37500000  0.98674577  1.00123157  1
  Pb  Pb114  1  0.87500000  0.48674577  0.33456491  1
  Pb  Pb115  1  0.87500000  0.48674577  0.66789824  1
  Pb  Pb116  1  0.87500000  0.48674577  1.00123157  1
  Pb  Pb117  1  0.87500000  0.98674577  0.33456491  1
  Pb  Pb118  1  0.87500000  0.98674577  0.66789824  1
  Pb  Pb119  1  0.87500000  0.98674577  1.00123157  1
  Pb  Pb120  1  0.12500000  -0.23674577  0.16789824  1
  Pb  Pb121  1  0.12500000  -0.23674577  0.50123157  1
  Pb  Pb122  1  0.12500000  -0.23674577  0.83456491  1
  Pb  Pb123  1  0.12500000  0.26325423  0.16789824  1
  Pb  Pb124  1  0.12500000  0.26325423  0.50123157  1
  Pb  Pb125  1  0.12500000  0.26325423  0.83456491  1
  Pb  Pb126  1  0.62500000  -0.23674577  0.16789824  1
  Pb  Pb127  1  0.62500000  -0.23674577  0.50123157  1
  Pb  Pb128  1  0.62500000  -0.23674577  0.83456491  1
  Pb  Pb129  1  0.62500000  0.26325423  0.16789824  1
  Pb  Pb130  1  0.62500000  0.26325423  0.50123157  1
  Pb  Pb131  1  0.62500000  0.26325423  0.83456491  1
  Pb  Pb132  1  0.12500000  0.01325423  0.33456491  1
  Pb  Pb133  1  0.12500000  0.01325423  0.66789824  1
  Pb  Pb134  1  0.12500000  0.01325423  1.00123157  1
  Pb  Pb135  1  0.12500000  0.51325423  0.33456491  1
  Pb  Pb136  1  0.12500000  0.51325423  0.66789824  1
  Pb  Pb137  1  0.12500000  0.51325423  1.00123157  1
  Pb  Pb138  1  0.62500000  0.01325423  0.33456491  1
  Pb  Pb139  1  0.62500000  0.01325423  0.66789824  1
  Pb  Pb140  1  0.62500000  0.01325423  1.00123157  1
  Pb  Pb141  1  0.62500000  0.51325423  0.33456491  1
  Pb  Pb142  1  0.62500000  0.51325423  0.66789824  1
  Pb  Pb143  1  0.62500000  0.51325423  1.00123157  1
  O  O144  1  0.37500000  -0.09438165  0.11617329  1
  O  O145  1  0.37500000  -0.09438165  0.44950662  1
  O  O146  1  0.37500000  -0.09438165  0.78283995  1
  O  O147  1  0.37500000  0.40561835  0.11617329  1
  O  O148  1  0.37500000  0.40561835  0.44950662  1
  O  O149  1  0.37500000  0.40561835  0.78283995  1
  O  O150  1  0.87500000  -0.09438165  0.11617329  1
  O  O151  1  0.87500000  -0.09438165  0.44950662  1
  O  O152  1  0.87500000  -0.09438165  0.78283995  1
  O  O153  1  0.87500000  0.40561835  0.11617329  1
  O  O154  1  0.87500000  0.40561835  0.44950662  1
  O  O155  1  0.87500000  0.40561835  0.78283995  1
  O  O156  1  0.37500000  0.15561835  0.28283995  1
  O  O157  1  0.37500000  0.15561835  0.61617329  1
  O  O158  1  0.37500000  0.15561835  0.94950662  1
  O  O159  1  0.37500000  0.65561835  0.28283995  1
  O  O160  1  0.37500000  0.65561835  0.61617329  1
  O  O161  1  0.37500000  0.65561835  0.94950662  1
  O  O162  1  0.87500000  0.15561835  0.28283995  1
  O  O163  1  0.87500000  0.15561835  0.61617329  1
  O  O164  1  0.87500000  0.15561835  0.94950662  1
  O  O165  1  0.87500000  0.65561835  0.28283995  1
  O  O166  1  0.87500000  0.65561835  0.61617329  1
  O  O167  1  0.87500000  0.65561835  0.94950662  1
  O  O168  1  0.12500000  0.09438165  0.11617329  1
  O  O169  1  0.12500000  0.09438165  0.44950662  1
  O  O170  1  0.12500000  0.09438165  0.78283995  1
  O  O171  1  0.12500000  0.59438165  0.11617329  1
  O  O172  1  0.12500000  0.59438165  0.44950662  1
  O  O173  1  0.12500000  0.59438165  0.78283995  1
  O  O174  1  0.62500000  0.09438165  0.11617329  1
  O  O175  1  0.62500000  0.09438165  0.44950662  1
  O  O176  1  0.62500000  0.09438165  0.78283995  1
  O  O177  1  0.62500000  0.59438165  0.11617329  1
  O  O178  1  0.62500000  0.59438165  0.44950662  1
  O  O179  1  0.62500000  0.59438165  0.78283995  1
  O  O180  1  0.12500000  0.34438165  0.28283995  1
  O  O181  1  0.12500000  0.34438165  0.61617329  1
  O  O182  1  0.12500000  0.34438165  0.94950662  1
  O  O183  1  0.12500000  0.84438165  0.28283995  1
  O  O184  1  0.12500000  0.84438165  0.61617329  1
  O  O185  1  0.12500000  0.84438165  0.94950662  1
  O  O186  1  0.62500000  0.34438165  0.28283995  1
  O  O187  1  0.62500000  0.34438165  0.61617329  1
  O  O188  1  0.62500000  0.34438165  0.94950662  1
  O  O189  1  0.62500000  0.84438165  0.28283995  1
  O  O190  1  0.62500000  0.84438165  0.61617329  1
  O  O191  1  0.62500000  0.84438165  0.94950662  1
  O  O192  1  0.25000000  -0.00000000  0.11631338  1
  O  O193  1  0.25000000  -0.00000000  0.44964672  1
  O  O194  1  0.25000000  -0.00000000  0.78298005  1
  O  O195  1  0.25000000  0.50000000  0.11631338  1
  O  O196  1  0.25000000  0.50000000  0.44964672  1
  O  O197  1  0.25000000  0.50000000  0.78298005  1
  O  O198  1  0.75000000  -0.00000000  0.11631338  1
  O  O199  1  0.75000000  -0.00000000  0.44964672  1
  O  O200  1  0.75000000  -0.00000000  0.78298005  1
  O  O201  1  0.75000000  0.50000000  0.11631338  1
  O  O202  1  0.75000000  0.50000000  0.44964672  1
  O  O203  1  0.75000000  0.50000000  0.78298005  1
  O  O204  1  0.25000000  0.25000000  0.28298005  1
  O  O205  1  0.25000000  0.25000000  0.61631338  1
  O  O206  1  0.25000000  0.25000000  0.94964672  1
  O  O207  1  0.25000000  0.75000000  0.28298005  1
  O  O208  1  0.25000000  0.75000000  0.61631338  1
  O  O209  1  0.25000000  0.75000000  0.94964672  1
  O  O210  1  0.75000000  0.25000000  0.28298005  1
  O  O211  1  0.75000000  0.25000000  0.61631338  1
  O  O212  1  0.75000000  0.25000000  0.94964672  1
  O  O213  1  0.75000000  0.75000000  0.28298005  1
  O  O214  1  0.75000000  0.75000000  0.61631338  1
  O  O215  1  0.75000000  0.75000000  0.94964672  1
  O  O216  1  0.00000000  -0.00000000  0.11631338  1
  O  O217  1  0.00000000  -0.00000000  0.44964672  1
  O  O218  1  0.00000000  -0.00000000  0.78298005  1
  O  O219  1  0.00000000  0.50000000  0.11631338  1
  O  O220  1  0.00000000  0.50000000  0.44964672  1
  O  O221  1  0.00000000  0.50000000  0.78298005  1
  O  O222  1  0.50000000  -0.00000000  0.11631338  1
  O  O223  1  0.50000000  -0.00000000  0.44964672  1
  O  O224  1  0.50000000  -0.00000000  0.78298005  1
  O  O225  1  0.50000000  0.50000000  0.11631338  1
  O  O226  1  0.50000000  0.50000000  0.44964672  1
  O  O227  1  0.50000000  0.50000000  0.78298005  1
  O  O228  1  0.00000000  0.25000000  0.28298005  1
  O  O229  1  0.00000000  0.25000000  0.61631338  1
  O  O230  1  0.00000000  0.25000000  0.94964672  1
  O  O231  1  0.00000000  0.75000000  0.28298005  1
  O  O232  1  0.00000000  0.75000000  0.61631338  1
  O  O233  1  0.00000000  0.75000000  0.94964672  1
  O  O234  1  0.50000000  0.25000000  0.28298005  1
  O  O235  1  0.50000000  0.25000000  0.61631338  1
  O  O236  1  0.50000000  0.25000000  0.94964672  1
  O  O237  1  0.50000000  0.75000000  0.28298005  1
  O  O238  1  0.50000000  0.75000000  0.61631338  1
  O  O239  1  0.50000000  0.75000000  0.94964672  1
  O  O240  1  0.27787687  0.15617915  0.10459520  1
  O  O241  1  0.27787687  0.15617915  0.43792854  1
  O  O242  1  0.27787687  0.15617915  0.77126187  1
  O  O243  1  0.27787687  0.65617915  0.10459520  1
  O  O244  1  0.27787687  0.65617915  0.43792854  1
  O  O245  1  0.27787687  0.65617915  0.77126187  1
  O  O246  1  0.77787687  0.15617915  0.10459520  1
  O  O247  1  0.77787687  0.15617915  0.43792854  1
  O  O248  1  0.77787687  0.15617915  0.77126187  1
  O  O249  1  0.77787687  0.65617915  0.10459520  1
  O  O250  1  0.77787687  0.65617915  0.43792854  1
  O  O251  1  0.77787687  0.65617915  0.77126187  1
  O  O252  1  0.27787687  0.40617915  0.27126187  1
  O  O253  1  0.27787687  0.40617915  0.60459520  1
  O  O254  1  0.27787687  0.40617915  0.93792854  1
  O  O255  1  0.27787687  0.90617915  0.27126187  1
  O  O256  1  0.27787687  0.90617915  0.60459520  1
  O  O257  1  0.27787687  0.90617915  0.93792854  1
  O  O258  1  0.77787687  0.40617915  0.27126187  1
  O  O259  1  0.77787687  0.40617915  0.60459520  1
  O  O260  1  0.77787687  0.40617915  0.93792854  1
  O  O261  1  0.77787687  0.90617915  0.27126187  1
  O  O262  1  0.77787687  0.90617915  0.60459520  1
  O  O263  1  0.77787687  0.90617915  0.93792854  1
  O  O264  1  0.22212313  -0.15617915  0.10459520  1
  O  O265  1  0.22212313  -0.15617915  0.43792854  1
  O  O266  1  0.22212313  -0.15617915  0.77126187  1
  O  O267  1  0.22212313  0.34382085  0.10459520  1
  O  O268  1  0.22212313  0.34382085  0.43792854  1
  O  O269  1  0.22212313  0.34382085  0.77126187  1
  O  O270  1  0.72212313  -0.15617915  0.10459520  1
  O  O271  1  0.72212313  -0.15617915  0.43792854  1
  O  O272  1  0.72212313  -0.15617915  0.77126187  1
  O  O273  1  0.72212313  0.34382085  0.10459520  1
  O  O274  1  0.72212313  0.34382085  0.43792854  1
  O  O275  1  0.72212313  0.34382085  0.77126187  1
  O  O276  1  0.22212313  0.09382085  0.27126187  1
  O  O277  1  0.22212313  0.09382085  0.60459520  1
  O  O278  1  0.22212313  0.09382085  0.93792854  1
  O  O279  1  0.22212313  0.59382085  0.27126187  1
  O  O280  1  0.22212313  0.59382085  0.60459520  1
  O  O281  1  0.22212313  0.59382085  0.93792854  1
  O  O282  1  0.72212313  0.09382085  0.27126187  1
  O  O283  1  0.72212313  0.09382085  0.60459520  1
  O  O284  1  0.72212313  0.09382085  0.93792854  1
  O  O285  1  0.72212313  0.59382085  0.27126187  1
  O  O286  1  0.72212313  0.59382085  0.60459520  1
  O  O287  1  0.72212313  0.59382085  0.93792854  1
  O  O288  1  0.02787687  -0.15617915  0.10459520  1
  O  O289  1  0.02787687  -0.15617915  0.43792854  1
  O  O290  1  0.02787687  -0.15617915  0.77126187  1
  O  O291  1  0.02787687  0.34382085  0.10459520  1
  O  O292  1  0.02787687  0.34382085  0.43792854  1
  O  O293  1  0.02787687  0.34382085  0.77126187  1
  O  O294  1  0.52787687  -0.15617915  0.10459520  1
  O  O295  1  0.52787687  -0.15617915  0.43792854  1
  O  O296  1  0.52787687  -0.15617915  0.77126187  1
  O  O297  1  0.52787687  0.34382085  0.10459520  1
  O  O298  1  0.52787687  0.34382085  0.43792854  1
  O  O299  1  0.52787687  0.34382085  0.77126187  1
  O  O300  1  0.02787687  0.09382085  0.27126187  1
  O  O301  1  0.02787687  0.09382085  0.60459520  1
  O  O302  1  0.02787687  0.09382085  0.93792854  1
  O  O303  1  0.02787687  0.59382085  0.27126187  1
  O  O304  1  0.02787687  0.59382085  0.60459520  1
  O  O305  1  0.02787687  0.59382085  0.93792854  1
  O  O306  1  0.52787687  0.09382085  0.27126187  1
  O  O307  1  0.52787687  0.09382085  0.60459520  1
  O  O308  1  0.52787687  0.09382085  0.93792854  1
  O  O309  1  0.52787687  0.59382085  0.27126187  1
  O  O310  1  0.52787687  0.59382085  0.60459520  1
  O  O311  1  0.52787687  0.59382085  0.93792854  1
  O  O312  1  0.47212313  0.15617915  0.10459520  1
  O  O313  1  0.47212313  0.15617915  0.43792854  1
  O  O314  1  0.47212313  0.15617915  0.77126187  1
  O  O315  1  0.47212313  0.65617915  0.10459520  1
  O  O316  1  0.47212313  0.65617915  0.43792854  1
  O  O317  1  0.47212313  0.65617915  0.77126187  1
  O  O318  1  0.97212313  0.15617915  0.10459520  1
  O  O319  1  0.97212313  0.15617915  0.43792854  1
  O  O320  1  0.97212313  0.15617915  0.77126187  1
  O  O321  1  0.97212313  0.65617915  0.10459520  1
  O  O322  1  0.97212313  0.65617915  0.43792854  1
  O  O323  1  0.97212313  0.65617915  0.77126187  1
  O  O324  1  0.47212313  0.40617915  0.27126187  1
  O  O325  1  0.47212313  0.40617915  0.60459520  1
  O  O326  1  0.47212313  0.40617915  0.93792854  1
  O  O327  1  0.47212313  0.90617915  0.27126187  1
  O  O328  1  0.47212313  0.90617915  0.60459520  1
  O  O329  1  0.47212313  0.90617915  0.93792854  1
  O  O330  1  0.97212313  0.40617915  0.27126187  1
  O  O331  1  0.97212313  0.40617915  0.60459520  1
  O  O332  1  0.97212313  0.40617915  0.93792854  1
  O  O333  1  0.97212313  0.90617915  0.27126187  1
  O  O334  1  0.97212313  0.90617915  0.60459520  1
  O  O335  1  0.97212313  0.90617915  0.93792854  1
