# generated using pymatgen
data_Ba2MgGe2O7
_symmetry_space_group_name_H-M   'P 1'
_cell_length_a   16.82859400
_cell_length_b   16.82859400
_cell_length_c   16.71550758
_cell_angle_alpha   90.00000000
_cell_angle_beta   90.00000000
_cell_angle_gamma   90.00000000
_symmetry_Int_Tables_number   1
_chemical_formula_structural   Ba2MgGe2O7
_chemical_formula_sum   'Ba48 Mg24 Ge48 O168'
_cell_volume   4733.85808947
_cell_formula_units_Z   24
loop_
 _symmetry_equiv_pos_site_id
 _symmetry_equiv_pos_as_xyz
  1  'x, y, z'
loop_
 _atom_site_type_symbol
 _atom_site_label
 _atom_site_symmetry_multiplicity
 _atom_site_fract_x
 _atom_site_fract_y
 _atom_site_fract_z
 _atom_site_occupancy
  Ba  Ba0  1  0.41758120  0.33241880  0.16970616  1
  Ba  Ba1  1  0.41758120  0.33241880  0.50303949  1
  Ba  Ba2  1  0.41758120  0.33241880  0.83637283  1
  Ba  Ba3  1  0.91758120  0.33241880  0.16970616  1
  Ba  Ba4  1  0.91758120  0.33241880  0.50303949  1
  Ba  Ba5  1  0.91758120  0.33241880  0.83637283  1
  Ba  Ba6  1  0.41758120  -0.16758120  0.16970616  1
  Ba  Ba7  1  0.41758120  -0.16758120  0.50303949  1
  Ba  Ba8  1  0.41758120  -0.16758120  0.83637283  1
  Ba  Ba9  1  0.91758120  -0.16758120  0.16970616  1
  Ba  Ba10  1  0.91758120  -0.16758120  0.50303949  1
  Ba  Ba11  1  0.91758120  -0.16758120  0.83637283  1
  Ba  Ba12  1  0.16758120  0.41758120  0.16362717  1
  Ba  Ba13  1  0.16758120  0.41758120  0.49696051  1
  Ba  Ba14  1  0.16758120  0.41758120  0.83029384  1
  Ba  Ba15  1  0.66758120  0.41758120  0.16362717  1
  Ba  Ba16  1  0.66758120  0.41758120  0.49696051  1
  Ba  Ba17  1  0.66758120  0.41758120  0.83029384  1
  Ba  Ba18  1  0.16758120  -0.08241880  0.16362717  1
  Ba  Ba19  1  0.16758120  -0.08241880  0.49696051  1
  Ba  Ba20  1  0.16758120  -0.08241880  0.83029384  1
  Ba  Ba21  1  0.66758120  -0.08241880  0.16362717  1
  Ba  Ba22  1  0.66758120  -0.08241880  0.49696051  1
  Ba  Ba23  1  0.66758120  -0.08241880  0.83029384  1
  Ba  Ba24  1  0.08241880  0.16758120  0.16970616  1
  Ba  Ba25  1  0.08241880  0.16758120  0.50303949  1
  Ba  Ba26  1  0.08241880  0.16758120  0.83637283  1
  Ba  Ba27  1  0.58241880  0.16758120  0.16970616  1
  Ba  Ba28  1  0.58241880  0.16758120  0.50303949  1
  Ba  Ba29  1  0.58241880  0.16758120  0.83637283  1
  Ba  Ba30  1  0.08241880  -0.33241880  0.16970616  1
  Ba  Ba31  1  0.08241880  -0.33241880  0.50303949  1
  Ba  Ba32  1  0.08241880  -0.33241880  0.83637283  1
  Ba  Ba33  1  0.58241880  -0.33241880  0.16970616  1
  Ba  Ba34  1  0.58241880  -0.33241880  0.50303949  1
  Ba  Ba35  1  0.58241880  -0.33241880  0.83637283  1
  Ba  Ba36  1  0.33241880  0.08241880  0.16362717  1
  Ba  Ba37  1  0.33241880  0.08241880  0.49696051  1
  Ba  Ba38  1  0.33241880  0.08241880  0.83029384  1
  Ba  Ba39  1  0.83241880  0.08241880  0.16362717  1
  Ba  Ba40  1  0.83241880  0.08241880  0.49696051  1
  Ba  Ba41  1  0.83241880  0.08241880  0.83029384  1
  Ba  Ba42  1  0.33241880  -0.41758120  0.16362717  1
  Ba  Ba43  1  0.33241880  -0.41758120  0.49696051  1
  Ba  Ba44  1  0.33241880  -0.41758120  0.83029384  1
  Ba  Ba45  1  0.83241880  -0.41758120  0.16362717  1
  Ba  Ba46  1  0.83241880  -0.41758120  0.49696051  1
  Ba  Ba47  1  0.83241880  -0.41758120  0.83029384  1
  Mg  Mg48  1  0.25000000  0.25000000  0.00000000  1
  Mg  Mg49  1  0.25000000  0.25000000  0.33333333  1
  Mg  Mg50  1  0.25000000  0.25000000  0.66666667  1
  Mg  Mg51  1  0.75000000  0.25000000  0.00000000  1
  Mg  Mg52  1  0.75000000  0.25000000  0.33333333  1
  Mg  Mg53  1  0.75000000  0.25000000  0.66666667  1
  Mg  Mg54  1  0.25000000  -0.25000000  0.00000000  1
  Mg  Mg55  1  0.25000000  -0.25000000  0.33333333  1
  Mg  Mg56  1  0.25000000  -0.25000000  0.66666667  1
  Mg  Mg57  1  0.75000000  -0.25000000  0.00000000  1
  Mg  Mg58  1  0.75000000  -0.25000000  0.33333333  1
  Mg  Mg59  1  0.75000000  -0.25000000  0.66666667  1
  Mg  Mg60  1  0.00000000  0.50000000  0.00000000  1
  Mg  Mg61  1  0.00000000  0.50000000  0.33333333  1
  Mg  Mg62  1  0.00000000  0.50000000  0.66666667  1
  Mg  Mg63  1  0.50000000  0.50000000  0.00000000  1
  Mg  Mg64  1  0.50000000  0.50000000  0.33333333  1
  Mg  Mg65  1  0.50000000  0.50000000  0.66666667  1
  Mg  Mg66  1  0.00000000  0.00000000  0.00000000  1
  Mg  Mg67  1  0.00000000  0.00000000  0.33333333  1
  Mg  Mg68  1  0.00000000  0.00000000  0.66666667  1
  Mg  Mg69  1  0.50000000  0.00000000  0.00000000  1
  Mg  Mg70  1  0.50000000  0.00000000  0.33333333  1
  Mg  Mg71  1  0.50000000  0.00000000  0.66666667  1
  Ge  Ge72  1  0.32092942  0.42907058  0.31938662  1
  Ge  Ge73  1  0.32092942  0.42907058  0.65271995  1
  Ge  Ge74  1  0.32092942  0.42907058  0.98605329  1
  Ge  Ge75  1  0.82092942  0.42907058  0.31938662  1
  Ge  Ge76  1  0.82092942  0.42907058  0.65271995  1
  Ge  Ge77  1  0.82092942  0.42907058  0.98605329  1
  Ge  Ge78  1  0.32092942  -0.07092942  0.31938662  1
  Ge  Ge79  1  0.32092942  -0.07092942  0.65271995  1
  Ge  Ge80  1  0.32092942  -0.07092942  0.98605329  1
  Ge  Ge81  1  0.82092942  -0.07092942  0.31938662  1
  Ge  Ge82  1  0.82092942  -0.07092942  0.65271995  1
  Ge  Ge83  1  0.82092942  -0.07092942  0.98605329  1
  Ge  Ge84  1  0.07092942  0.32092942  0.01394671  1
  Ge  Ge85  1  0.07092942  0.32092942  0.34728005  1
  Ge  Ge86  1  0.07092942  0.32092942  0.68061338  1
  Ge  Ge87  1  0.57092942  0.32092942  0.01394671  1
  Ge  Ge88  1  0.57092942  0.32092942  0.34728005  1
  Ge  Ge89  1  0.57092942  0.32092942  0.68061338  1
  Ge  Ge90  1  0.07092942  -0.17907058  0.01394671  1
  Ge  Ge91  1  0.07092942  -0.17907058  0.34728005  1
  Ge  Ge92  1  0.07092942  -0.17907058  0.68061338  1
  Ge  Ge93  1  0.57092942  -0.17907058  0.01394671  1
  Ge  Ge94  1  0.57092942  -0.17907058  0.34728005  1
  Ge  Ge95  1  0.57092942  -0.17907058  0.68061338  1
  Ge  Ge96  1  0.17907058  0.07092942  0.31938662  1
  Ge  Ge97  1  0.17907058  0.07092942  0.65271995  1
  Ge  Ge98  1  0.17907058  0.07092942  0.98605329  1
  Ge  Ge99  1  0.67907058  0.07092942  0.31938662  1
  Ge  Ge100  1  0.67907058  0.07092942  0.65271995  1
  Ge  Ge101  1  0.67907058  0.07092942  0.98605329  1
  Ge  Ge102  1  0.17907058  -0.42907058  0.31938662  1
  Ge  Ge103  1  0.17907058  -0.42907058  0.65271995  1
  Ge  Ge104  1  0.17907058  -0.42907058  0.98605329  1
  Ge  Ge105  1  0.67907058  -0.42907058  0.31938662  1
  Ge  Ge106  1  0.67907058  -0.42907058  0.65271995  1
  Ge  Ge107  1  0.67907058  -0.42907058  0.98605329  1
  Ge  Ge108  1  0.42907058  0.17907058  0.01394671  1
  Ge  Ge109  1  0.42907058  0.17907058  0.34728005  1
  Ge  Ge110  1  0.42907058  0.17907058  0.68061338  1
  Ge  Ge111  1  0.92907058  0.17907058  0.01394671  1
  Ge  Ge112  1  0.92907058  0.17907058  0.34728005  1
  Ge  Ge113  1  0.92907058  0.17907058  0.68061338  1
  Ge  Ge114  1  0.42907058  -0.32092942  0.01394671  1
  Ge  Ge115  1  0.42907058  -0.32092942  0.34728005  1
  Ge  Ge116  1  0.42907058  -0.32092942  0.68061338  1
  Ge  Ge117  1  0.92907058  -0.32092942  0.01394671  1
  Ge  Ge118  1  0.92907058  -0.32092942  0.34728005  1
  Ge  Ge119  1  0.92907058  -0.32092942  0.68061338  1
  O  O120  1  0.00000000  0.25000000  0.05588127  1
  O  O121  1  0.00000000  0.25000000  0.38921460  1
  O  O122  1  0.00000000  0.25000000  0.72254794  1
  O  O123  1  0.50000000  0.25000000  0.05588127  1
  O  O124  1  0.50000000  0.25000000  0.38921460  1
  O  O125  1  0.50000000  0.25000000  0.72254794  1
  O  O126  1  0.00000000  -0.25000000  0.05588127  1
  O  O127  1  0.00000000  -0.25000000  0.38921460  1
  O  O128  1  0.00000000  -0.25000000  0.72254794  1
  O  O129  1  0.50000000  -0.25000000  0.05588127  1
  O  O130  1  0.50000000  -0.25000000  0.38921460  1
  O  O131  1  0.50000000  -0.25000000  0.72254794  1
  O  O132  1  0.25000000  0.50000000  0.27745206  1
  O  O133  1  0.25000000  0.50000000  0.61078540  1
  O  O134  1  0.25000000  0.50000000  0.94411873  1
  O  O135  1  0.75000000  0.50000000  0.27745206  1
  O  O136  1  0.75000000  0.50000000  0.61078540  1
  O  O137  1  0.75000000  0.50000000  0.94411873  1
  O  O138  1  0.25000000  0.00000000  0.27745206  1
  O  O139  1  0.25000000  0.00000000  0.61078540  1
  O  O140  1  0.25000000  0.00000000  0.94411873  1
  O  O141  1  0.75000000  0.00000000  0.27745206  1
  O  O142  1  0.75000000  0.00000000  0.61078540  1
  O  O143  1  0.75000000  0.00000000  0.94411873  1
  O  O144  1  0.31907860  0.43092140  0.09127300  1
  O  O145  1  0.31907860  0.43092140  0.42460633  1
  O  O146  1  0.31907860  0.43092140  0.75793966  1
  O  O147  1  0.81907860  0.43092140  0.09127300  1
  O  O148  1  0.81907860  0.43092140  0.42460633  1
  O  O149  1  0.81907860  0.43092140  0.75793966  1
  O  O150  1  0.31907860  -0.06907860  0.09127300  1
  O  O151  1  0.31907860  -0.06907860  0.42460633  1
  O  O152  1  0.31907860  -0.06907860  0.75793966  1
  O  O153  1  0.81907860  -0.06907860  0.09127300  1
  O  O154  1  0.81907860  -0.06907860  0.42460633  1
  O  O155  1  0.81907860  -0.06907860  0.75793966  1
  O  O156  1  0.06907860  0.31907860  0.24206034  1
  O  O157  1  0.06907860  0.31907860  0.57539367  1
  O  O158  1  0.06907860  0.31907860  0.90872700  1
  O  O159  1  0.56907860  0.31907860  0.24206034  1
  O  O160  1  0.56907860  0.31907860  0.57539367  1
  O  O161  1  0.56907860  0.31907860  0.90872700  1
  O  O162  1  0.06907860  -0.18092140  0.24206034  1
  O  O163  1  0.06907860  -0.18092140  0.57539367  1
  O  O164  1  0.06907860  -0.18092140  0.90872700  1
  O  O165  1  0.56907860  -0.18092140  0.24206034  1
  O  O166  1  0.56907860  -0.18092140  0.57539367  1
  O  O167  1  0.56907860  -0.18092140  0.90872700  1
  O  O168  1  0.18092140  0.06907860  0.09127300  1
  O  O169  1  0.18092140  0.06907860  0.42460633  1
  O  O170  1  0.18092140  0.06907860  0.75793966  1
  O  O171  1  0.68092140  0.06907860  0.09127300  1
  O  O172  1  0.68092140  0.06907860  0.42460633  1
  O  O173  1  0.68092140  0.06907860  0.75793966  1
  O  O174  1  0.18092140  -0.43092140  0.09127300  1
  O  O175  1  0.18092140  -0.43092140  0.42460633  1
  O  O176  1  0.18092140  -0.43092140  0.75793966  1
  O  O177  1  0.68092140  -0.43092140  0.09127300  1
  O  O178  1  0.68092140  -0.43092140  0.42460633  1
  O  O179  1  0.68092140  -0.43092140  0.75793966  1
  O  O180  1  0.43092140  0.18092140  0.24206034  1
  O  O181  1  0.43092140  0.18092140  0.57539367  1
  O  O182  1  0.43092140  0.18092140  0.90872700  1
  O  O183  1  0.93092140  0.18092140  0.24206034  1
  O  O184  1  0.93092140  0.18092140  0.57539367  1
  O  O185  1  0.93092140  0.18092140  0.90872700  1
  O  O186  1  0.43092140  -0.31907860  0.24206034  1
  O  O187  1  0.43092140  -0.31907860  0.57539367  1
  O  O188  1  0.43092140  -0.31907860  0.90872700  1
  O  O189  1  0.93092140  -0.31907860  0.24206034  1
  O  O190  1  0.93092140  -0.31907860  0.57539367  1
  O  O191  1  0.93092140  -0.31907860  0.90872700  1
  O  O192  1  0.28955388  0.34022030  0.27004132  1
  O  O193  1  0.28955388  0.34022030  0.60337465  1
  O  O194  1  0.28955388  0.34022030  0.93670799  1
  O  O195  1  0.78955388  0.34022030  0.27004132  1
  O  O196  1  0.78955388  0.34022030  0.60337465  1
  O  O197  1  0.78955388  0.34022030  0.93670799  1
  O  O198  1  0.28955388  -0.15977970  0.27004132  1
  O  O199  1  0.28955388  -0.15977970  0.60337465  1
  O  O200  1  0.28955388  -0.15977970  0.93670799  1
  O  O201  1  0.78955388  -0.15977970  0.27004132  1
  O  O202  1  0.78955388  -0.15977970  0.60337465  1
  O  O203  1  0.78955388  -0.15977970  0.93670799  1
  O  O204  1  0.03955388  0.40977970  0.06329201  1
  O  O205  1  0.03955388  0.40977970  0.39662535  1
  O  O206  1  0.03955388  0.40977970  0.72995868  1
  O  O207  1  0.53955388  0.40977970  0.06329201  1
  O  O208  1  0.53955388  0.40977970  0.39662535  1
  O  O209  1  0.53955388  0.40977970  0.72995868  1
  O  O210  1  0.03955388  -0.09022030  0.06329201  1
  O  O211  1  0.03955388  -0.09022030  0.39662535  1
  O  O212  1  0.03955388  -0.09022030  0.72995868  1
  O  O213  1  0.53955388  -0.09022030  0.06329201  1
  O  O214  1  0.53955388  -0.09022030  0.39662535  1
  O  O215  1  0.53955388  -0.09022030  0.72995868  1
  O  O216  1  0.21044612  0.15977970  0.27004132  1
  O  O217  1  0.21044612  0.15977970  0.60337465  1
  O  O218  1  0.21044612  0.15977970  0.93670799  1
  O  O219  1  0.71044612  0.15977970  0.27004132  1
  O  O220  1  0.71044612  0.15977970  0.60337465  1
  O  O221  1  0.71044612  0.15977970  0.93670799  1
  O  O222  1  0.21044612  -0.34022030  0.27004132  1
  O  O223  1  0.21044612  -0.34022030  0.60337465  1
  O  O224  1  0.21044612  -0.34022030  0.93670799  1
  O  O225  1  0.71044612  -0.34022030  0.27004132  1
  O  O226  1  0.71044612  -0.34022030  0.60337465  1
  O  O227  1  0.71044612  -0.34022030  0.93670799  1
  O  O228  1  0.46044612  0.09022030  0.06329201  1
  O  O229  1  0.46044612  0.09022030  0.39662535  1
  O  O230  1  0.46044612  0.09022030  0.72995868  1
  O  O231  1  0.96044612  0.09022030  0.06329201  1
  O  O232  1  0.96044612  0.09022030  0.39662535  1
  O  O233  1  0.96044612  0.09022030  0.72995868  1
  O  O234  1  0.46044612  -0.40977970  0.06329201  1
  O  O235  1  0.46044612  -0.40977970  0.39662535  1
  O  O236  1  0.46044612  -0.40977970  0.72995868  1
  O  O237  1  0.96044612  -0.40977970  0.06329201  1
  O  O238  1  0.96044612  -0.40977970  0.39662535  1
  O  O239  1  0.96044612  -0.40977970  0.72995868  1
  O  O240  1  0.34022030  0.21044612  0.06329201  1
  O  O241  1  0.34022030  0.21044612  0.39662535  1
  O  O242  1  0.34022030  0.21044612  0.72995868  1
  O  O243  1  0.84022030  0.21044612  0.06329201  1
  O  O244  1  0.84022030  0.21044612  0.39662535  1
  O  O245  1  0.84022030  0.21044612  0.72995868  1
  O  O246  1  0.34022030  -0.28955388  0.06329201  1
  O  O247  1  0.34022030  -0.28955388  0.39662535  1
  O  O248  1  0.34022030  -0.28955388  0.72995868  1
  O  O249  1  0.84022030  -0.28955388  0.06329201  1
  O  O250  1  0.84022030  -0.28955388  0.39662535  1
  O  O251  1  0.84022030  -0.28955388  0.72995868  1
  O  O252  1  0.09022030  0.03955388  0.27004132  1
  O  O253  1  0.09022030  0.03955388  0.60337465  1
  O  O254  1  0.09022030  0.03955388  0.93670799  1
  O  O255  1  0.59022030  0.03955388  0.27004132  1
  O  O256  1  0.59022030  0.03955388  0.60337465  1
  O  O257  1  0.59022030  0.03955388  0.93670799  1
  O  O258  1  0.09022030  -0.46044612  0.27004132  1
  O  O259  1  0.09022030  -0.46044612  0.60337465  1
  O  O260  1  0.09022030  -0.46044612  0.93670799  1
  O  O261  1  0.59022030  -0.46044612  0.27004132  1
  O  O262  1  0.59022030  -0.46044612  0.60337465  1
  O  O263  1  0.59022030  -0.46044612  0.93670799  1
  O  O264  1  0.15977970  0.28955388  0.06329201  1
  O  O265  1  0.15977970  0.28955388  0.39662535  1
  O  O266  1  0.15977970  0.28955388  0.72995868  1
  O  O267  1  0.65977970  0.28955388  0.06329201  1
  O  O268  1  0.65977970  0.28955388  0.39662535  1
  O  O269  1  0.65977970  0.28955388  0.72995868  1
  O  O270  1  0.15977970  -0.21044612  0.06329201  1
  O  O271  1  0.15977970  -0.21044612  0.39662535  1
  O  O272  1  0.15977970  -0.21044612  0.72995868  1
  O  O273  1  0.65977970  -0.21044612  0.06329201  1
  O  O274  1  0.65977970  -0.21044612  0.39662535  1
  O  O275  1  0.65977970  -0.21044612  0.72995868  1
  O  O276  1  0.40977970  0.46044612  0.27004132  1
  O  O277  1  0.40977970  0.46044612  0.60337465  1
  O  O278  1  0.40977970  0.46044612  0.93670799  1
  O  O279  1  0.90977970  0.46044612  0.27004132  1
  O  O280  1  0.90977970  0.46044612  0.60337465  1
  O  O281  1  0.90977970  0.46044612  0.93670799  1
  O  O282  1  0.40977970  -0.03955388  0.27004132  1
  O  O283  1  0.40977970  -0.03955388  0.60337465  1
  O  O284  1  0.40977970  -0.03955388  0.93670799  1
  O  O285  1  0.90977970  -0.03955388  0.27004132  1
  O  O286  1  0.90977970  -0.03955388  0.60337465  1
  O  O287  1  0.90977970  -0.03955388  0.93670799  1
