# generated using pymatgen
data_CaAlBO4
_symmetry_space_group_name_H-M   'P 1'
_cell_length_a   16.43395458
_cell_length_b   15.21444838
_cell_length_c   17.27971236
_cell_angle_alpha   90.00000000
_cell_angle_beta   90.00000000
_cell_angle_gamma   90.00000000
_symmetry_Int_Tables_number   1
_chemical_formula_structural   CaAlBO4
_chemical_formula_sum   'Ca48 Al48 B48 O192'
_cell_volume   4320.50788898
_cell_formula_units_Z   48
loop_
 _symmetry_equiv_pos_site_id
 _symmetry_equiv_pos_as_xyz
  1  'x, y, z'
loop_
 _atom_site_type_symbol
 _atom_site_label
 _atom_site_symmetry_multiplicity
 _atom_site_fract_x
 _atom_site_fract_y
 _atom_site_fract_z
 _atom_site_occupancy
  Ca  Ca0  1  0.07130680  0.09237583  0.32927669  1
  Ca  Ca1  1  0.07130680  0.09237583  0.66261002  1
  Ca  Ca2  1  0.07130680  0.09237583  0.99594336  1
  Ca  Ca3  1  0.57130680  0.09237583  0.32927669  1
  Ca  Ca4  1  0.57130680  0.09237583  0.66261002  1
  Ca  Ca5  1  0.57130680  0.09237583  0.99594336  1
  Ca  Ca6  1  0.32130680  0.59237583  0.32927669  1
  Ca  Ca7  1  0.32130680  0.59237583  0.66261002  1
  Ca  Ca8  1  0.32130680  0.59237583  0.99594336  1
  Ca  Ca9  1  0.82130680  0.59237583  0.32927669  1
  Ca  Ca10  1  0.82130680  0.59237583  0.66261002  1
  Ca  Ca11  1  0.82130680  0.59237583  0.99594336  1
  Ca  Ca12  1  0.07130680  -0.09237583  0.16261002  1
  Ca  Ca13  1  0.07130680  -0.09237583  0.49594336  1
  Ca  Ca14  1  0.07130680  -0.09237583  0.82927669  1
  Ca  Ca15  1  0.57130680  -0.09237583  0.16261002  1
  Ca  Ca16  1  0.57130680  -0.09237583  0.49594336  1
  Ca  Ca17  1  0.57130680  -0.09237583  0.82927669  1
  Ca  Ca18  1  0.32130680  0.40762417  0.16261002  1
  Ca  Ca19  1  0.32130680  0.40762417  0.49594336  1
  Ca  Ca20  1  0.32130680  0.40762417  0.82927669  1
  Ca  Ca21  1  0.82130680  0.40762417  0.16261002  1
  Ca  Ca22  1  0.82130680  0.40762417  0.49594336  1
  Ca  Ca23  1  0.82130680  0.40762417  0.82927669  1
  Ca  Ca24  1  0.42869320  -0.09237583  0.32927669  1
  Ca  Ca25  1  0.42869320  -0.09237583  0.66261002  1
  Ca  Ca26  1  0.42869320  -0.09237583  0.99594336  1
  Ca  Ca27  1  0.92869320  -0.09237583  0.32927669  1
  Ca  Ca28  1  0.92869320  -0.09237583  0.66261002  1
  Ca  Ca29  1  0.92869320  -0.09237583  0.99594336  1
  Ca  Ca30  1  0.67869320  0.40762417  0.32927669  1
  Ca  Ca31  1  0.67869320  0.40762417  0.66261002  1
  Ca  Ca32  1  0.67869320  0.40762417  0.99594336  1
  Ca  Ca33  1  1.17869320  0.40762417  0.32927669  1
  Ca  Ca34  1  1.17869320  0.40762417  0.66261002  1
  Ca  Ca35  1  1.17869320  0.40762417  0.99594336  1
  Ca  Ca36  1  0.42869320  0.09237583  0.16261002  1
  Ca  Ca37  1  0.42869320  0.09237583  0.49594336  1
  Ca  Ca38  1  0.42869320  0.09237583  0.82927669  1
  Ca  Ca39  1  0.92869320  0.09237583  0.16261002  1
  Ca  Ca40  1  0.92869320  0.09237583  0.49594336  1
  Ca  Ca41  1  0.92869320  0.09237583  0.82927669  1
  Ca  Ca42  1  0.67869320  0.59237583  0.16261002  1
  Ca  Ca43  1  0.67869320  0.59237583  0.49594336  1
  Ca  Ca44  1  0.67869320  0.59237583  0.82927669  1
  Ca  Ca45  1  1.17869320  0.59237583  0.16261002  1
  Ca  Ca46  1  1.17869320  0.59237583  0.49594336  1
  Ca  Ca47  1  1.17869320  0.59237583  0.82927669  1
  Al  Al48  1  0.25762926  -0.20710122  0.08699939  1
  Al  Al49  1  0.25762926  -0.20710122  0.42033273  1
  Al  Al50  1  0.25762926  -0.20710122  0.75366606  1
  Al  Al51  1  0.75762926  -0.20710122  0.08699939  1
  Al  Al52  1  0.75762926  -0.20710122  0.42033273  1
  Al  Al53  1  0.75762926  -0.20710122  0.75366606  1
  Al  Al54  1  0.50762926  0.29289878  0.08699939  1
  Al  Al55  1  0.50762926  0.29289878  0.42033273  1
  Al  Al56  1  0.50762926  0.29289878  0.75366606  1
  Al  Al57  1  1.00762926  0.29289878  0.08699939  1
  Al  Al58  1  1.00762926  0.29289878  0.42033273  1
  Al  Al59  1  1.00762926  0.29289878  0.75366606  1
  Al  Al60  1  0.24237074  0.20710122  0.08699939  1
  Al  Al61  1  0.24237074  0.20710122  0.42033273  1
  Al  Al62  1  0.24237074  0.20710122  0.75366606  1
  Al  Al63  1  0.74237074  0.20710122  0.08699939  1
  Al  Al64  1  0.74237074  0.20710122  0.42033273  1
  Al  Al65  1  0.74237074  0.20710122  0.75366606  1
  Al  Al66  1  0.49237074  0.70710122  0.08699939  1
  Al  Al67  1  0.49237074  0.70710122  0.42033273  1
  Al  Al68  1  0.49237074  0.70710122  0.75366606  1
  Al  Al69  1  0.99237074  0.70710122  0.08699939  1
  Al  Al70  1  0.99237074  0.70710122  0.42033273  1
  Al  Al71  1  0.99237074  0.70710122  0.75366606  1
  Al  Al72  1  0.25762926  0.20710122  0.25366606  1
  Al  Al73  1  0.25762926  0.20710122  0.58699939  1
  Al  Al74  1  0.25762926  0.20710122  0.92033273  1
  Al  Al75  1  0.75762926  0.20710122  0.25366606  1
  Al  Al76  1  0.75762926  0.20710122  0.58699939  1
  Al  Al77  1  0.75762926  0.20710122  0.92033273  1
  Al  Al78  1  0.50762926  0.70710122  0.25366606  1
  Al  Al79  1  0.50762926  0.70710122  0.58699939  1
  Al  Al80  1  0.50762926  0.70710122  0.92033273  1
  Al  Al81  1  1.00762926  0.70710122  0.25366606  1
  Al  Al82  1  1.00762926  0.70710122  0.58699939  1
  Al  Al83  1  1.00762926  0.70710122  0.92033273  1
  Al  Al84  1  0.24237074  -0.20710122  0.25366606  1
  Al  Al85  1  0.24237074  -0.20710122  0.58699939  1
  Al  Al86  1  0.24237074  -0.20710122  0.92033273  1
  Al  Al87  1  0.74237074  -0.20710122  0.25366606  1
  Al  Al88  1  0.74237074  -0.20710122  0.58699939  1
  Al  Al89  1  0.74237074  -0.20710122  0.92033273  1
  Al  Al90  1  0.49237074  0.29289878  0.25366606  1
  Al  Al91  1  0.49237074  0.29289878  0.58699939  1
  Al  Al92  1  0.49237074  0.29289878  0.92033273  1
  Al  Al93  1  0.99237074  0.29289878  0.25366606  1
  Al  Al94  1  0.99237074  0.29289878  0.58699939  1
  Al  Al95  1  0.99237074  0.29289878  0.92033273  1
  B  B96  1  0.36898133  -0.11039046  0.17502134  1
  B  B97  1  0.36898133  -0.11039046  0.50835467  1
  B  B98  1  0.36898133  -0.11039046  0.84168800  1
  B  B99  1  0.86898133  -0.11039046  0.17502134  1
  B  B100  1  0.86898133  -0.11039046  0.50835467  1
  B  B101  1  0.86898133  -0.11039046  0.84168800  1
  B  B102  1  0.61898133  0.38960954  0.17502134  1
  B  B103  1  0.61898133  0.38960954  0.50835467  1
  B  B104  1  0.61898133  0.38960954  0.84168800  1
  B  B105  1  1.11898133  0.38960954  0.17502134  1
  B  B106  1  1.11898133  0.38960954  0.50835467  1
  B  B107  1  1.11898133  0.38960954  0.84168800  1
  B  B108  1  0.13101867  -0.11039046  0.00835467  1
  B  B109  1  0.13101867  -0.11039046  0.34168800  1
  B  B110  1  0.13101867  -0.11039046  0.67502134  1
  B  B111  1  0.63101867  -0.11039046  0.00835467  1
  B  B112  1  0.63101867  -0.11039046  0.34168800  1
  B  B113  1  0.63101867  -0.11039046  0.67502134  1
  B  B114  1  0.38101867  0.38960954  0.00835467  1
  B  B115  1  0.38101867  0.38960954  0.34168800  1
  B  B116  1  0.38101867  0.38960954  0.67502134  1
  B  B117  1  0.88101867  0.38960954  0.00835467  1
  B  B118  1  0.88101867  0.38960954  0.34168800  1
  B  B119  1  0.88101867  0.38960954  0.67502134  1
  B  B120  1  0.36898133  0.11039046  0.00835467  1
  B  B121  1  0.36898133  0.11039046  0.34168800  1
  B  B122  1  0.36898133  0.11039046  0.67502134  1
  B  B123  1  0.86898133  0.11039046  0.00835467  1
  B  B124  1  0.86898133  0.11039046  0.34168800  1
  B  B125  1  0.86898133  0.11039046  0.67502134  1
  B  B126  1  0.61898133  0.61039046  0.00835467  1
  B  B127  1  0.61898133  0.61039046  0.34168800  1
  B  B128  1  0.61898133  0.61039046  0.67502134  1
  B  B129  1  1.11898133  0.61039046  0.00835467  1
  B  B130  1  1.11898133  0.61039046  0.34168800  1
  B  B131  1  1.11898133  0.61039046  0.67502134  1
  B  B132  1  0.13101867  0.11039046  0.17502134  1
  B  B133  1  0.13101867  0.11039046  0.50835467  1
  B  B134  1  0.13101867  0.11039046  0.84168800  1
  B  B135  1  0.63101867  0.11039046  0.17502134  1
  B  B136  1  0.63101867  0.11039046  0.50835467  1
  B  B137  1  0.63101867  0.11039046  0.84168800  1
  B  B138  1  0.38101867  0.61039046  0.17502134  1
  B  B139  1  0.38101867  0.61039046  0.50835467  1
  B  B140  1  0.38101867  0.61039046  0.84168800  1
  B  B141  1  0.88101867  0.61039046  0.17502134  1
  B  B142  1  0.88101867  0.61039046  0.50835467  1
  B  B143  1  0.88101867  0.61039046  0.84168800  1
  O  O144  1  0.32519637  0.13328015  0.07395342  1
  O  O145  1  0.32519637  0.13328015  0.40728675  1
  O  O146  1  0.32519637  0.13328015  0.74062009  1
  O  O147  1  0.82519637  0.13328015  0.07395342  1
  O  O148  1  0.82519637  0.13328015  0.40728675  1
  O  O149  1  0.82519637  0.13328015  0.74062009  1
  O  O150  1  0.57519637  0.63328015  0.07395342  1
  O  O151  1  0.57519637  0.63328015  0.40728675  1
  O  O152  1  0.57519637  0.63328015  0.74062009  1
  O  O153  1  1.07519637  0.63328015  0.07395342  1
  O  O154  1  1.07519637  0.63328015  0.40728675  1
  O  O155  1  1.07519637  0.63328015  0.74062009  1
  O  O156  1  0.23408310  0.26857254  0.00241976  1
  O  O157  1  0.23408310  0.26857254  0.33575310  1
  O  O158  1  0.23408310  0.26857254  0.66908643  1
  O  O159  1  0.73408310  0.26857254  0.00241976  1
  O  O160  1  0.73408310  0.26857254  0.33575310  1
  O  O161  1  0.73408310  0.26857254  0.66908643  1
  O  O162  1  0.48408310  0.76857254  0.00241976  1
  O  O163  1  0.48408310  0.76857254  0.33575310  1
  O  O164  1  0.48408310  0.76857254  0.66908643  1
  O  O165  1  0.98408310  0.76857254  0.00241976  1
  O  O166  1  0.98408310  0.76857254  0.33575310  1
  O  O167  1  0.98408310  0.76857254  0.66908643  1
  O  O168  1  0.34558166  0.13929286  0.26866613  1
  O  O169  1  0.34558166  0.13929286  0.60199946  1
  O  O170  1  0.34558166  0.13929286  0.93533279  1
  O  O171  1  0.84558166  0.13929286  0.26866613  1
  O  O172  1  0.84558166  0.13929286  0.60199946  1
  O  O173  1  0.84558166  0.13929286  0.93533279  1
  O  O174  1  0.59558166  0.63929286  0.26866613  1
  O  O175  1  0.59558166  0.63929286  0.60199946  1
  O  O176  1  0.59558166  0.63929286  0.93533279  1
  O  O177  1  1.09558166  0.63929286  0.26866613  1
  O  O178  1  1.09558166  0.63929286  0.60199946  1
  O  O179  1  1.09558166  0.63929286  0.93533279  1
  O  O180  1  0.15441834  -0.13929286  0.26866613  1
  O  O181  1  0.15441834  -0.13929286  0.60199946  1
  O  O182  1  0.15441834  -0.13929286  0.93533279  1
  O  O183  1  0.65441834  -0.13929286  0.26866613  1
  O  O184  1  0.65441834  -0.13929286  0.60199946  1
  O  O185  1  0.65441834  -0.13929286  0.93533279  1
  O  O186  1  0.40441834  0.36070714  0.26866613  1
  O  O187  1  0.40441834  0.36070714  0.60199946  1
  O  O188  1  0.40441834  0.36070714  0.93533279  1
  O  O189  1  0.90441834  0.36070714  0.26866613  1
  O  O190  1  0.90441834  0.36070714  0.60199946  1
  O  O191  1  0.90441834  0.36070714  0.93533279  1
  O  O192  1  0.34558166  -0.13929286  0.10199946  1
  O  O193  1  0.34558166  -0.13929286  0.43533279  1
  O  O194  1  0.34558166  -0.13929286  0.76866613  1
  O  O195  1  0.84558166  -0.13929286  0.10199946  1
  O  O196  1  0.84558166  -0.13929286  0.43533279  1
  O  O197  1  0.84558166  -0.13929286  0.76866613  1
  O  O198  1  0.59558166  0.36070714  0.10199946  1
  O  O199  1  0.59558166  0.36070714  0.43533279  1
  O  O200  1  0.59558166  0.36070714  0.76866613  1
  O  O201  1  1.09558166  0.36070714  0.10199946  1
  O  O202  1  1.09558166  0.36070714  0.43533279  1
  O  O203  1  1.09558166  0.36070714  0.76866613  1
  O  O204  1  0.15441834  0.13929286  0.10199946  1
  O  O205  1  0.15441834  0.13929286  0.43533279  1
  O  O206  1  0.15441834  0.13929286  0.76866613  1
  O  O207  1  0.65441834  0.13929286  0.10199946  1
  O  O208  1  0.65441834  0.13929286  0.43533279  1
  O  O209  1  0.65441834  0.13929286  0.76866613  1
  O  O210  1  0.40441834  0.63929286  0.10199946  1
  O  O211  1  0.40441834  0.63929286  0.43533279  1
  O  O212  1  0.40441834  0.63929286  0.76866613  1
  O  O213  1  0.90441834  0.63929286  0.10199946  1
  O  O214  1  0.90441834  0.63929286  0.43533279  1
  O  O215  1  0.90441834  0.63929286  0.76866613  1
  O  O216  1  0.26591690  0.26857254  0.16908643  1
  O  O217  1  0.26591690  0.26857254  0.50241976  1
  O  O218  1  0.26591690  0.26857254  0.83575310  1
  O  O219  1  0.76591690  0.26857254  0.16908643  1
  O  O220  1  0.76591690  0.26857254  0.50241976  1
  O  O221  1  0.76591690  0.26857254  0.83575310  1
  O  O222  1  0.51591690  0.76857254  0.16908643  1
  O  O223  1  0.51591690  0.76857254  0.50241976  1
  O  O224  1  0.51591690  0.76857254  0.83575310  1
  O  O225  1  1.01591690  0.76857254  0.16908643  1
  O  O226  1  1.01591690  0.76857254  0.50241976  1
  O  O227  1  1.01591690  0.76857254  0.83575310  1
  O  O228  1  0.06481832  0.05729019  0.18576328  1
  O  O229  1  0.06481832  0.05729019  0.51909661  1
  O  O230  1  0.06481832  0.05729019  0.85242994  1
  O  O231  1  0.56481832  0.05729019  0.18576328  1
  O  O232  1  0.56481832  0.05729019  0.51909661  1
  O  O233  1  0.56481832  0.05729019  0.85242994  1
  O  O234  1  0.31481832  0.55729019  0.18576328  1
  O  O235  1  0.31481832  0.55729019  0.51909661  1
  O  O236  1  0.31481832  0.55729019  0.85242994  1
  O  O237  1  0.81481832  0.55729019  0.18576328  1
  O  O238  1  0.81481832  0.55729019  0.51909661  1
  O  O239  1  0.81481832  0.55729019  0.85242994  1
  O  O240  1  0.32519637  -0.13328015  0.24062009  1
  O  O241  1  0.32519637  -0.13328015  0.57395342  1
  O  O242  1  0.32519637  -0.13328015  0.90728675  1
  O  O243  1  0.82519637  -0.13328015  0.24062009  1
  O  O244  1  0.82519637  -0.13328015  0.57395342  1
  O  O245  1  0.82519637  -0.13328015  0.90728675  1
  O  O246  1  0.57519637  0.36671985  0.24062009  1
  O  O247  1  0.57519637  0.36671985  0.57395342  1
  O  O248  1  0.57519637  0.36671985  0.90728675  1
  O  O249  1  1.07519637  0.36671985  0.24062009  1
  O  O250  1  1.07519637  0.36671985  0.57395342  1
  O  O251  1  1.07519637  0.36671985  0.90728675  1
  O  O252  1  0.26591690  -0.26857254  0.00241976  1
  O  O253  1  0.26591690  -0.26857254  0.33575310  1
  O  O254  1  0.26591690  -0.26857254  0.66908643  1
  O  O255  1  0.76591690  -0.26857254  0.00241976  1
  O  O256  1  0.76591690  -0.26857254  0.33575310  1
  O  O257  1  0.76591690  -0.26857254  0.66908643  1
  O  O258  1  0.51591690  0.23142746  0.00241976  1
  O  O259  1  0.51591690  0.23142746  0.33575310  1
  O  O260  1  0.51591690  0.23142746  0.66908643  1
  O  O261  1  1.01591690  0.23142746  0.00241976  1
  O  O262  1  1.01591690  0.23142746  0.33575310  1
  O  O263  1  1.01591690  0.23142746  0.66908643  1
  O  O264  1  0.43518168  -0.05729019  0.18576328  1
  O  O265  1  0.43518168  -0.05729019  0.51909661  1
  O  O266  1  0.43518168  -0.05729019  0.85242994  1
  O  O267  1  0.93518168  -0.05729019  0.18576328  1
  O  O268  1  0.93518168  -0.05729019  0.51909661  1
  O  O269  1  0.93518168  -0.05729019  0.85242994  1
  O  O270  1  0.68518168  0.44270981  0.18576328  1
  O  O271  1  0.68518168  0.44270981  0.51909661  1
  O  O272  1  0.68518168  0.44270981  0.85242994  1
  O  O273  1  1.18518168  0.44270981  0.18576328  1
  O  O274  1  1.18518168  0.44270981  0.51909661  1
  O  O275  1  1.18518168  0.44270981  0.85242994  1
  O  O276  1  0.23408310  -0.26857254  0.16908643  1
  O  O277  1  0.23408310  -0.26857254  0.50241976  1
  O  O278  1  0.23408310  -0.26857254  0.83575310  1
  O  O279  1  0.73408310  -0.26857254  0.16908643  1
  O  O280  1  0.73408310  -0.26857254  0.50241976  1
  O  O281  1  0.73408310  -0.26857254  0.83575310  1
  O  O282  1  0.48408310  0.23142746  0.16908643  1
  O  O283  1  0.48408310  0.23142746  0.50241976  1
  O  O284  1  0.48408310  0.23142746  0.83575310  1
  O  O285  1  0.98408310  0.23142746  0.16908643  1
  O  O286  1  0.98408310  0.23142746  0.50241976  1
  O  O287  1  0.98408310  0.23142746  0.83575310  1
  O  O288  1  0.06481832  -0.05729019  0.01909661  1
  O  O289  1  0.06481832  -0.05729019  0.35242994  1
  O  O290  1  0.06481832  -0.05729019  0.68576328  1
  O  O291  1  0.56481832  -0.05729019  0.01909661  1
  O  O292  1  0.56481832  -0.05729019  0.35242994  1
  O  O293  1  0.56481832  -0.05729019  0.68576328  1
  O  O294  1  0.31481832  0.44270981  0.01909661  1
  O  O295  1  0.31481832  0.44270981  0.35242994  1
  O  O296  1  0.31481832  0.44270981  0.68576328  1
  O  O297  1  0.81481832  0.44270981  0.01909661  1
  O  O298  1  0.81481832  0.44270981  0.35242994  1
  O  O299  1  0.81481832  0.44270981  0.68576328  1
  O  O300  1  0.17480363  -0.13328015  0.07395342  1
  O  O301  1  0.17480363  -0.13328015  0.40728675  1
  O  O302  1  0.17480363  -0.13328015  0.74062009  1
  O  O303  1  0.67480363  -0.13328015  0.07395342  1
  O  O304  1  0.67480363  -0.13328015  0.40728675  1
  O  O305  1  0.67480363  -0.13328015  0.74062009  1
  O  O306  1  0.42480363  0.36671985  0.07395342  1
  O  O307  1  0.42480363  0.36671985  0.40728675  1
  O  O308  1  0.42480363  0.36671985  0.74062009  1
  O  O309  1  0.92480363  0.36671985  0.07395342  1
  O  O310  1  0.92480363  0.36671985  0.40728675  1
  O  O311  1  0.92480363  0.36671985  0.74062009  1
  O  O312  1  0.17480363  0.13328015  0.24062009  1
  O  O313  1  0.17480363  0.13328015  0.57395342  1
  O  O314  1  0.17480363  0.13328015  0.90728675  1
  O  O315  1  0.67480363  0.13328015  0.24062009  1
  O  O316  1  0.67480363  0.13328015  0.57395342  1
  O  O317  1  0.67480363  0.13328015  0.90728675  1
  O  O318  1  0.42480363  0.63328015  0.24062009  1
  O  O319  1  0.42480363  0.63328015  0.57395342  1
  O  O320  1  0.42480363  0.63328015  0.90728675  1
  O  O321  1  0.92480363  0.63328015  0.24062009  1
  O  O322  1  0.92480363  0.63328015  0.57395342  1
  O  O323  1  0.92480363  0.63328015  0.90728675  1
  O  O324  1  0.43518168  0.05729019  0.01909661  1
  O  O325  1  0.43518168  0.05729019  0.35242994  1
  O  O326  1  0.43518168  0.05729019  0.68576328  1
  O  O327  1  0.93518168  0.05729019  0.01909661  1
  O  O328  1  0.93518168  0.05729019  0.35242994  1
  O  O329  1  0.93518168  0.05729019  0.68576328  1
  O  O330  1  0.68518168  0.55729019  0.01909661  1
  O  O331  1  0.68518168  0.55729019  0.35242994  1
  O  O332  1  0.68518168  0.55729019  0.68576328  1
  O  O333  1  1.18518168  0.55729019  0.01909661  1
  O  O334  1  1.18518168  0.55729019  0.35242994  1
  O  O335  1  1.18518168  0.55729019  0.68576328  1
