# generated using pymatgen
data_TaTl(GeO3)3
_symmetry_space_group_name_H-M   'P 1'
_cell_length_a   14.12511165
_cell_length_b   14.12511165
_cell_length_c   10.29036055
_cell_angle_alpha   90.00000000
_cell_angle_beta   90.00000000
_cell_angle_gamma   120.00000000
_symmetry_Int_Tables_number   1
_chemical_formula_structural   TaTl(GeO3)3
_chemical_formula_sum   'Ta8 Tl8 Ge24 O72'
_cell_volume   1778.05422753
_cell_formula_units_Z   8
loop_
 _symmetry_equiv_pos_site_id
 _symmetry_equiv_pos_as_xyz
  1  'x, y, z'
loop_
 _atom_site_type_symbol
 _atom_site_label
 _atom_site_symmetry_multiplicity
 _atom_site_fract_x
 _atom_site_fract_y
 _atom_site_fract_z
 _atom_site_occupancy
  Ta  Ta0  1  0.00000000  0.00000000  0.00000000  1
  Ta  Ta1  1  -0.00000000  0.50000000  0.00000000  1
  Ta  Ta2  1  0.50000000  0.00000000  0.00000000  1
  Ta  Ta3  1  0.50000000  0.50000000  0.00000000  1
  Ta  Ta4  1  0.00000000  0.00000000  0.50000000  1
  Ta  Ta5  1  -0.00000000  0.50000000  0.50000000  1
  Ta  Ta6  1  0.50000000  0.00000000  0.50000000  1
  Ta  Ta7  1  0.50000000  0.50000000  0.50000000  1
  Tl  Tl8  1  0.16666667  0.33333333  0.00000000  1
  Tl  Tl9  1  0.16666667  0.83333333  0.00000000  1
  Tl  Tl10  1  0.66666667  0.33333333  0.00000000  1
  Tl  Tl11  1  0.66666667  0.83333333  0.00000000  1
  Tl  Tl12  1  0.16666667  0.33333333  0.50000000  1
  Tl  Tl13  1  0.16666667  0.83333333  0.50000000  1
  Tl  Tl14  1  0.66666667  0.33333333  0.50000000  1
  Tl  Tl15  1  0.66666667  0.83333333  0.50000000  1
  Ge  Ge16  1  0.36979469  0.31203246  0.25000000  1
  Ge  Ge17  1  0.36979469  0.81203246  0.25000000  1
  Ge  Ge18  1  0.86979469  0.31203246  0.25000000  1
  Ge  Ge19  1  0.86979469  0.81203246  0.25000000  1
  Ge  Ge20  1  0.44223778  0.13020531  0.25000000  1
  Ge  Ge21  1  0.44223778  0.63020531  0.25000000  1
  Ge  Ge22  1  0.94223778  0.13020531  0.25000000  1
  Ge  Ge23  1  0.94223778  0.63020531  0.25000000  1
  Ge  Ge24  1  0.18796754  0.05776222  0.25000000  1
  Ge  Ge25  1  0.18796754  0.55776222  0.25000000  1
  Ge  Ge26  1  0.68796754  0.05776222  0.25000000  1
  Ge  Ge27  1  0.68796754  0.55776222  0.25000000  1
  Ge  Ge28  1  0.18796754  0.13020531  0.75000000  1
  Ge  Ge29  1  0.18796754  0.63020531  0.75000000  1
  Ge  Ge30  1  0.68796754  0.13020531  0.75000000  1
  Ge  Ge31  1  0.68796754  0.63020531  0.75000000  1
  Ge  Ge32  1  0.44223778  0.31203246  0.75000000  1
  Ge  Ge33  1  0.44223778  0.81203246  0.75000000  1
  Ge  Ge34  1  0.94223778  0.31203246  0.75000000  1
  Ge  Ge35  1  0.94223778  0.81203246  0.75000000  1
  Ge  Ge36  1  0.36979469  0.05776222  0.75000000  1
  Ge  Ge37  1  0.36979469  0.55776222  0.75000000  1
  Ge  Ge38  1  0.86979469  0.05776222  0.75000000  1
  Ge  Ge39  1  0.86979469  0.55776222  0.75000000  1
  O  O40  1  0.46828356  0.26786090  0.25000000  1
  O  O41  1  0.46828356  0.76786090  0.25000000  1
  O  O42  1  0.96828356  0.26786090  0.25000000  1
  O  O43  1  0.96828356  0.76786090  0.25000000  1
  O  O44  1  0.29957735  0.03171644  0.25000000  1
  O  O45  1  0.29957735  0.53171644  0.25000000  1
  O  O46  1  0.79957735  0.03171644  0.25000000  1
  O  O47  1  0.79957735  0.53171644  0.25000000  1
  O  O48  1  0.23213910  0.20042265  0.25000000  1
  O  O49  1  0.23213910  0.70042265  0.25000000  1
  O  O50  1  0.73213910  0.20042265  0.25000000  1
  O  O51  1  0.73213910  0.70042265  0.25000000  1
  O  O52  1  0.23213910  0.03171644  0.75000000  1
  O  O53  1  0.23213910  0.53171644  0.75000000  1
  O  O54  1  0.73213910  0.03171644  0.75000000  1
  O  O55  1  0.73213910  0.53171644  0.75000000  1
  O  O56  1  0.29957735  0.26786090  0.75000000  1
  O  O57  1  0.29957735  0.76786090  0.75000000  1
  O  O58  1  0.79957735  0.26786090  0.75000000  1
  O  O59  1  0.79957735  0.76786090  0.75000000  1
  O  O60  1  0.46828356  0.20042265  0.75000000  1
  O  O61  1  0.46828356  0.70042265  0.75000000  1
  O  O62  1  0.96828356  0.20042265  0.75000000  1
  O  O63  1  0.96828356  0.70042265  0.75000000  1
  O  O64  1  0.38172158  0.38775568  0.10870303  1
  O  O65  1  0.38172158  0.88775568  0.10870303  1
  O  O66  1  0.88172158  0.38775568  0.10870303  1
  O  O67  1  0.88172158  0.88775568  0.10870303  1
  O  O68  1  0.00603410  0.11827842  0.39129697  1
  O  O69  1  0.00603410  0.61827842  0.39129697  1
  O  O70  1  0.50603410  0.11827842  0.39129697  1
  O  O71  1  0.50603410  0.61827842  0.39129697  1
  O  O72  1  0.11224432  0.49396590  0.39129697  1
  O  O73  1  0.11224432  0.99396590  0.39129697  1
  O  O74  1  0.61224432  0.49396590  0.39129697  1
  O  O75  1  0.61224432  0.99396590  0.39129697  1
  O  O76  1  0.11224432  0.49396590  0.10870303  1
  O  O77  1  0.11224432  0.99396590  0.10870303  1
  O  O78  1  0.61224432  0.49396590  0.10870303  1
  O  O79  1  0.61224432  0.99396590  0.10870303  1
  O  O80  1  0.00603410  0.11827842  0.10870303  1
  O  O81  1  0.00603410  0.61827842  0.10870303  1
  O  O82  1  0.50603410  0.11827842  0.10870303  1
  O  O83  1  0.50603410  0.61827842  0.10870303  1
  O  O84  1  0.11224432  0.11827842  0.89129697  1
  O  O85  1  0.11224432  0.61827842  0.89129697  1
  O  O86  1  0.61224432  0.11827842  0.89129697  1
  O  O87  1  0.61224432  0.61827842  0.89129697  1
  O  O88  1  0.00603410  0.38775568  0.89129697  1
  O  O89  1  0.00603410  0.88775568  0.89129697  1
  O  O90  1  0.50603410  0.38775568  0.89129697  1
  O  O91  1  0.50603410  0.88775568  0.89129697  1
  O  O92  1  0.38172158  0.49396590  0.89129697  1
  O  O93  1  0.38172158  0.99396590  0.89129697  1
  O  O94  1  0.88172158  0.49396590  0.89129697  1
  O  O95  1  0.88172158  0.99396590  0.89129697  1
  O  O96  1  0.00603410  0.38775568  0.60870303  1
  O  O97  1  0.00603410  0.88775568  0.60870303  1
  O  O98  1  0.50603410  0.38775568  0.60870303  1
  O  O99  1  0.50603410  0.88775568  0.60870303  1
  O  O100  1  0.38172158  0.49396590  0.60870303  1
  O  O101  1  0.38172158  0.99396590  0.60870303  1
  O  O102  1  0.88172158  0.49396590  0.60870303  1
  O  O103  1  0.88172158  0.99396590  0.60870303  1
  O  O104  1  0.38172158  0.38775568  0.39129697  1
  O  O105  1  0.38172158  0.88775568  0.39129697  1
  O  O106  1  0.88172158  0.38775568  0.39129697  1
  O  O107  1  0.88172158  0.88775568  0.39129697  1
  O  O108  1  0.11224432  0.11827842  0.60870303  1
  O  O109  1  0.11224432  0.61827842  0.60870303  1
  O  O110  1  0.61224432  0.11827842  0.60870303  1
  O  O111  1  0.61224432  0.61827842  0.60870303  1
