# generated using pymatgen
data_SrSnO3
_symmetry_space_group_name_H-M   'P 1'
_cell_length_a   17.24970639
_cell_length_b   16.18928602
_cell_length_c   17.15497584
_cell_angle_alpha   90.00000000
_cell_angle_beta   90.00000000
_cell_angle_gamma   90.00000000
_symmetry_Int_Tables_number   1
_chemical_formula_structural   SrSnO3
_chemical_formula_sum   'Sr72 Sn72 O216'
_cell_volume   4790.70594088
_cell_formula_units_Z   72
loop_
 _symmetry_equiv_pos_site_id
 _symmetry_equiv_pos_as_xyz
  1  'x, y, z'
loop_
 _atom_site_type_symbol
 _atom_site_label
 _atom_site_symmetry_multiplicity
 _atom_site_fract_x
 _atom_site_fract_y
 _atom_site_fract_z
 _atom_site_occupancy
  Sr  Sr0  1  0.17778386  0.12500000  0.16915968  1
  Sr  Sr1  1  0.17778386  0.12500000  0.50249302  1
  Sr  Sr2  1  0.17778386  0.12500000  0.83582635  1
  Sr  Sr3  1  0.17778386  0.62500000  0.16915968  1
  Sr  Sr4  1  0.17778386  0.62500000  0.50249302  1
  Sr  Sr5  1  0.17778386  0.62500000  0.83582635  1
  Sr  Sr6  1  0.51111720  0.12500000  0.16915968  1
  Sr  Sr7  1  0.51111720  0.12500000  0.50249302  1
  Sr  Sr8  1  0.51111720  0.12500000  0.83582635  1
  Sr  Sr9  1  0.51111720  0.62500000  0.16915968  1
  Sr  Sr10  1  0.51111720  0.62500000  0.50249302  1
  Sr  Sr11  1  0.51111720  0.62500000  0.83582635  1
  Sr  Sr12  1  0.84445053  0.12500000  0.16915968  1
  Sr  Sr13  1  0.84445053  0.12500000  0.50249302  1
  Sr  Sr14  1  0.84445053  0.12500000  0.83582635  1
  Sr  Sr15  1  0.84445053  0.62500000  0.16915968  1
  Sr  Sr16  1  0.84445053  0.62500000  0.50249302  1
  Sr  Sr17  1  0.84445053  0.62500000  0.83582635  1
  Sr  Sr18  1  0.01111720  0.12500000  0.33084032  1
  Sr  Sr19  1  0.01111720  0.12500000  0.66417365  1
  Sr  Sr20  1  0.01111720  0.12500000  0.99750698  1
  Sr  Sr21  1  0.01111720  0.62500000  0.33084032  1
  Sr  Sr22  1  0.01111720  0.62500000  0.66417365  1
  Sr  Sr23  1  0.01111720  0.62500000  0.99750698  1
  Sr  Sr24  1  0.34445053  0.12500000  0.33084032  1
  Sr  Sr25  1  0.34445053  0.12500000  0.66417365  1
  Sr  Sr26  1  0.34445053  0.12500000  0.99750698  1
  Sr  Sr27  1  0.34445053  0.62500000  0.33084032  1
  Sr  Sr28  1  0.34445053  0.62500000  0.66417365  1
  Sr  Sr29  1  0.34445053  0.62500000  0.99750698  1
  Sr  Sr30  1  0.67778386  0.12500000  0.33084032  1
  Sr  Sr31  1  0.67778386  0.12500000  0.66417365  1
  Sr  Sr32  1  0.67778386  0.12500000  0.99750698  1
  Sr  Sr33  1  0.67778386  0.62500000  0.33084032  1
  Sr  Sr34  1  0.67778386  0.62500000  0.66417365  1
  Sr  Sr35  1  0.67778386  0.62500000  0.99750698  1
  Sr  Sr36  1  0.32221614  0.37500000  0.00249302  1
  Sr  Sr37  1  0.32221614  0.37500000  0.33582635  1
  Sr  Sr38  1  0.32221614  0.37500000  0.66915968  1
  Sr  Sr39  1  0.32221614  0.87500000  0.00249302  1
  Sr  Sr40  1  0.32221614  0.87500000  0.33582635  1
  Sr  Sr41  1  0.32221614  0.87500000  0.66915968  1
  Sr  Sr42  1  0.65554947  0.37500000  0.00249302  1
  Sr  Sr43  1  0.65554947  0.37500000  0.33582635  1
  Sr  Sr44  1  0.65554947  0.37500000  0.66915968  1
  Sr  Sr45  1  0.65554947  0.87500000  0.00249302  1
  Sr  Sr46  1  0.65554947  0.87500000  0.33582635  1
  Sr  Sr47  1  0.65554947  0.87500000  0.66915968  1
  Sr  Sr48  1  0.98888280  0.37500000  0.00249302  1
  Sr  Sr49  1  0.98888280  0.37500000  0.33582635  1
  Sr  Sr50  1  0.98888280  0.37500000  0.66915968  1
  Sr  Sr51  1  0.98888280  0.87500000  0.00249302  1
  Sr  Sr52  1  0.98888280  0.87500000  0.33582635  1
  Sr  Sr53  1  0.98888280  0.87500000  0.66915968  1
  Sr  Sr54  1  0.15554947  0.37500000  0.16417365  1
  Sr  Sr55  1  0.15554947  0.37500000  0.49750698  1
  Sr  Sr56  1  0.15554947  0.37500000  0.83084032  1
  Sr  Sr57  1  0.15554947  0.87500000  0.16417365  1
  Sr  Sr58  1  0.15554947  0.87500000  0.49750698  1
  Sr  Sr59  1  0.15554947  0.87500000  0.83084032  1
  Sr  Sr60  1  0.48888280  0.37500000  0.16417365  1
  Sr  Sr61  1  0.48888280  0.37500000  0.49750698  1
  Sr  Sr62  1  0.48888280  0.37500000  0.83084032  1
  Sr  Sr63  1  0.48888280  0.87500000  0.16417365  1
  Sr  Sr64  1  0.48888280  0.87500000  0.49750698  1
  Sr  Sr65  1  0.48888280  0.87500000  0.83084032  1
  Sr  Sr66  1  0.82221614  0.37500000  0.16417365  1
  Sr  Sr67  1  0.82221614  0.37500000  0.49750698  1
  Sr  Sr68  1  0.82221614  0.37500000  0.83084032  1
  Sr  Sr69  1  0.82221614  0.87500000  0.16417365  1
  Sr  Sr70  1  0.82221614  0.87500000  0.49750698  1
  Sr  Sr71  1  0.82221614  0.87500000  0.83084032  1
  Sn  Sn72  1  0.16666667  0.00000000  0.00000000  1
  Sn  Sn73  1  0.16666667  0.00000000  0.33333333  1
  Sn  Sn74  1  0.16666667  0.00000000  0.66666667  1
  Sn  Sn75  1  0.16666667  0.50000000  0.00000000  1
  Sn  Sn76  1  0.16666667  0.50000000  0.33333333  1
  Sn  Sn77  1  0.16666667  0.50000000  0.66666667  1
  Sn  Sn78  1  0.50000000  0.00000000  0.00000000  1
  Sn  Sn79  1  0.50000000  0.00000000  0.33333333  1
  Sn  Sn80  1  0.50000000  0.00000000  0.66666667  1
  Sn  Sn81  1  0.50000000  0.50000000  0.00000000  1
  Sn  Sn82  1  0.50000000  0.50000000  0.33333333  1
  Sn  Sn83  1  0.50000000  0.50000000  0.66666667  1
  Sn  Sn84  1  0.83333333  0.00000000  0.00000000  1
  Sn  Sn85  1  0.83333333  0.00000000  0.33333333  1
  Sn  Sn86  1  0.83333333  0.00000000  0.66666667  1
  Sn  Sn87  1  0.83333333  0.50000000  0.00000000  1
  Sn  Sn88  1  0.83333333  0.50000000  0.33333333  1
  Sn  Sn89  1  0.83333333  0.50000000  0.66666667  1
  Sn  Sn90  1  0.00000000  0.25000000  0.16666667  1
  Sn  Sn91  1  0.00000000  0.25000000  0.50000000  1
  Sn  Sn92  1  0.00000000  0.25000000  0.83333333  1
  Sn  Sn93  1  0.00000000  0.75000000  0.16666667  1
  Sn  Sn94  1  0.00000000  0.75000000  0.50000000  1
  Sn  Sn95  1  0.00000000  0.75000000  0.83333333  1
  Sn  Sn96  1  0.33333333  0.25000000  0.16666667  1
  Sn  Sn97  1  0.33333333  0.25000000  0.50000000  1
  Sn  Sn98  1  0.33333333  0.25000000  0.83333333  1
  Sn  Sn99  1  0.33333333  0.75000000  0.16666667  1
  Sn  Sn100  1  0.33333333  0.75000000  0.50000000  1
  Sn  Sn101  1  0.33333333  0.75000000  0.83333333  1
  Sn  Sn102  1  0.66666667  0.25000000  0.16666667  1
  Sn  Sn103  1  0.66666667  0.25000000  0.50000000  1
  Sn  Sn104  1  0.66666667  0.25000000  0.83333333  1
  Sn  Sn105  1  0.66666667  0.75000000  0.16666667  1
  Sn  Sn106  1  0.66666667  0.75000000  0.50000000  1
  Sn  Sn107  1  0.66666667  0.75000000  0.83333333  1
  Sn  Sn108  1  0.00000000  0.00000000  0.16666667  1
  Sn  Sn109  1  0.00000000  0.00000000  0.50000000  1
  Sn  Sn110  1  0.00000000  0.00000000  0.83333333  1
  Sn  Sn111  1  0.00000000  0.50000000  0.16666667  1
  Sn  Sn112  1  0.00000000  0.50000000  0.50000000  1
  Sn  Sn113  1  0.00000000  0.50000000  0.83333333  1
  Sn  Sn114  1  0.33333333  0.00000000  0.16666667  1
  Sn  Sn115  1  0.33333333  0.00000000  0.50000000  1
  Sn  Sn116  1  0.33333333  0.00000000  0.83333333  1
  Sn  Sn117  1  0.33333333  0.50000000  0.16666667  1
  Sn  Sn118  1  0.33333333  0.50000000  0.50000000  1
  Sn  Sn119  1  0.33333333  0.50000000  0.83333333  1
  Sn  Sn120  1  0.66666667  0.00000000  0.16666667  1
  Sn  Sn121  1  0.66666667  0.00000000  0.50000000  1
  Sn  Sn122  1  0.66666667  0.00000000  0.83333333  1
  Sn  Sn123  1  0.66666667  0.50000000  0.16666667  1
  Sn  Sn124  1  0.66666667  0.50000000  0.50000000  1
  Sn  Sn125  1  0.66666667  0.50000000  0.83333333  1
  Sn  Sn126  1  0.16666667  0.25000000  0.00000000  1
  Sn  Sn127  1  0.16666667  0.25000000  0.33333333  1
  Sn  Sn128  1  0.16666667  0.25000000  0.66666667  1
  Sn  Sn129  1  0.16666667  0.75000000  0.00000000  1
  Sn  Sn130  1  0.16666667  0.75000000  0.33333333  1
  Sn  Sn131  1  0.16666667  0.75000000  0.66666667  1
  Sn  Sn132  1  0.50000000  0.25000000  0.00000000  1
  Sn  Sn133  1  0.50000000  0.25000000  0.33333333  1
  Sn  Sn134  1  0.50000000  0.25000000  0.66666667  1
  Sn  Sn135  1  0.50000000  0.75000000  0.00000000  1
  Sn  Sn136  1  0.50000000  0.75000000  0.33333333  1
  Sn  Sn137  1  0.50000000  0.75000000  0.66666667  1
  Sn  Sn138  1  0.83333333  0.25000000  0.00000000  1
  Sn  Sn139  1  0.83333333  0.25000000  0.33333333  1
  Sn  Sn140  1  0.83333333  0.25000000  0.66666667  1
  Sn  Sn141  1  0.83333333  0.75000000  0.00000000  1
  Sn  Sn142  1  0.83333333  0.75000000  0.33333333  1
  Sn  Sn143  1  0.83333333  0.75000000  0.66666667  1
  O  O144  1  0.09533204  0.23032681  0.23775471  1
  O  O145  1  0.09533204  0.23032681  0.57108804  1
  O  O146  1  0.09533204  0.23032681  0.90442137  1
  O  O147  1  0.09533204  0.73032681  0.23775471  1
  O  O148  1  0.09533204  0.73032681  0.57108804  1
  O  O149  1  0.09533204  0.73032681  0.90442137  1
  O  O150  1  0.42866537  0.23032681  0.23775471  1
  O  O151  1  0.42866537  0.23032681  0.57108804  1
  O  O152  1  0.42866537  0.23032681  0.90442137  1
  O  O153  1  0.42866537  0.73032681  0.23775471  1
  O  O154  1  0.42866537  0.73032681  0.57108804  1
  O  O155  1  0.42866537  0.73032681  0.90442137  1
  O  O156  1  0.76199870  0.23032681  0.23775471  1
  O  O157  1  0.76199870  0.23032681  0.57108804  1
  O  O158  1  0.76199870  0.23032681  0.90442137  1
  O  O159  1  0.76199870  0.73032681  0.23775471  1
  O  O160  1  0.76199870  0.73032681  0.57108804  1
  O  O161  1  0.76199870  0.73032681  0.90442137  1
  O  O162  1  0.26199870  0.01967319  0.26224529  1
  O  O163  1  0.26199870  0.01967319  0.59557863  1
  O  O164  1  0.26199870  0.01967319  0.92891196  1
  O  O165  1  0.26199870  0.51967319  0.26224529  1
  O  O166  1  0.26199870  0.51967319  0.59557863  1
  O  O167  1  0.26199870  0.51967319  0.92891196  1
  O  O168  1  0.59533204  0.01967319  0.26224529  1
  O  O169  1  0.59533204  0.01967319  0.59557863  1
  O  O170  1  0.59533204  0.01967319  0.92891196  1
  O  O171  1  0.59533204  0.51967319  0.26224529  1
  O  O172  1  0.59533204  0.51967319  0.59557863  1
  O  O173  1  0.59533204  0.51967319  0.92891196  1
  O  O174  1  0.92866537  0.01967319  0.26224529  1
  O  O175  1  0.92866537  0.01967319  0.59557863  1
  O  O176  1  0.92866537  0.01967319  0.92891196  1
  O  O177  1  0.92866537  0.51967319  0.26224529  1
  O  O178  1  0.92866537  0.51967319  0.59557863  1
  O  O179  1  0.92866537  0.51967319  0.92891196  1
  O  O180  1  0.07133463  0.26967319  0.07108804  1
  O  O181  1  0.07133463  0.26967319  0.40442137  1
  O  O182  1  0.07133463  0.26967319  0.73775471  1
  O  O183  1  0.07133463  0.76967319  0.07108804  1
  O  O184  1  0.07133463  0.76967319  0.40442137  1
  O  O185  1  0.07133463  0.76967319  0.73775471  1
  O  O186  1  0.40466796  0.26967319  0.07108804  1
  O  O187  1  0.40466796  0.26967319  0.40442137  1
  O  O188  1  0.40466796  0.26967319  0.73775471  1
  O  O189  1  0.40466796  0.76967319  0.07108804  1
  O  O190  1  0.40466796  0.76967319  0.40442137  1
  O  O191  1  0.40466796  0.76967319  0.73775471  1
  O  O192  1  0.73800130  0.26967319  0.07108804  1
  O  O193  1  0.73800130  0.26967319  0.40442137  1
  O  O194  1  0.73800130  0.26967319  0.73775471  1
  O  O195  1  0.73800130  0.76967319  0.07108804  1
  O  O196  1  0.73800130  0.76967319  0.40442137  1
  O  O197  1  0.73800130  0.76967319  0.73775471  1
  O  O198  1  0.23800130  0.48032681  0.09557863  1
  O  O199  1  0.23800130  0.48032681  0.42891196  1
  O  O200  1  0.23800130  0.48032681  0.76224529  1
  O  O201  1  0.23800130  0.98032681  0.09557863  1
  O  O202  1  0.23800130  0.98032681  0.42891196  1
  O  O203  1  0.23800130  0.98032681  0.76224529  1
  O  O204  1  0.57133463  0.48032681  0.09557863  1
  O  O205  1  0.57133463  0.48032681  0.42891196  1
  O  O206  1  0.57133463  0.48032681  0.76224529  1
  O  O207  1  0.57133463  0.98032681  0.09557863  1
  O  O208  1  0.57133463  0.98032681  0.42891196  1
  O  O209  1  0.57133463  0.98032681  0.76224529  1
  O  O210  1  0.90466796  0.48032681  0.09557863  1
  O  O211  1  0.90466796  0.48032681  0.42891196  1
  O  O212  1  0.90466796  0.48032681  0.76224529  1
  O  O213  1  0.90466796  0.98032681  0.09557863  1
  O  O214  1  0.90466796  0.98032681  0.42891196  1
  O  O215  1  0.90466796  0.98032681  0.76224529  1
  O  O216  1  0.23800130  0.26967319  0.09557863  1
  O  O217  1  0.23800130  0.26967319  0.42891196  1
  O  O218  1  0.23800130  0.26967319  0.76224529  1
  O  O219  1  0.23800130  0.76967319  0.09557863  1
  O  O220  1  0.23800130  0.76967319  0.42891196  1
  O  O221  1  0.23800130  0.76967319  0.76224529  1
  O  O222  1  0.57133463  0.26967319  0.09557863  1
  O  O223  1  0.57133463  0.26967319  0.42891196  1
  O  O224  1  0.57133463  0.26967319  0.76224529  1
  O  O225  1  0.57133463  0.76967319  0.09557863  1
  O  O226  1  0.57133463  0.76967319  0.42891196  1
  O  O227  1  0.57133463  0.76967319  0.76224529  1
  O  O228  1  0.90466796  0.26967319  0.09557863  1
  O  O229  1  0.90466796  0.26967319  0.42891196  1
  O  O230  1  0.90466796  0.26967319  0.76224529  1
  O  O231  1  0.90466796  0.76967319  0.09557863  1
  O  O232  1  0.90466796  0.76967319  0.42891196  1
  O  O233  1  0.90466796  0.76967319  0.76224529  1
  O  O234  1  0.07133463  0.48032681  0.07108804  1
  O  O235  1  0.07133463  0.48032681  0.40442137  1
  O  O236  1  0.07133463  0.48032681  0.73775471  1
  O  O237  1  0.07133463  0.98032681  0.07108804  1
  O  O238  1  0.07133463  0.98032681  0.40442137  1
  O  O239  1  0.07133463  0.98032681  0.73775471  1
  O  O240  1  0.40466796  0.48032681  0.07108804  1
  O  O241  1  0.40466796  0.48032681  0.40442137  1
  O  O242  1  0.40466796  0.48032681  0.73775471  1
  O  O243  1  0.40466796  0.98032681  0.07108804  1
  O  O244  1  0.40466796  0.98032681  0.40442137  1
  O  O245  1  0.40466796  0.98032681  0.73775471  1
  O  O246  1  0.73800130  0.48032681  0.07108804  1
  O  O247  1  0.73800130  0.48032681  0.40442137  1
  O  O248  1  0.73800130  0.48032681  0.73775471  1
  O  O249  1  0.73800130  0.98032681  0.07108804  1
  O  O250  1  0.73800130  0.98032681  0.40442137  1
  O  O251  1  0.73800130  0.98032681  0.73775471  1
  O  O252  1  0.26199870  0.23032681  0.26224529  1
  O  O253  1  0.26199870  0.23032681  0.59557863  1
  O  O254  1  0.26199870  0.23032681  0.92891196  1
  O  O255  1  0.26199870  0.73032681  0.26224529  1
  O  O256  1  0.26199870  0.73032681  0.59557863  1
  O  O257  1  0.26199870  0.73032681  0.92891196  1
  O  O258  1  0.59533204  0.23032681  0.26224529  1
  O  O259  1  0.59533204  0.23032681  0.59557863  1
  O  O260  1  0.59533204  0.23032681  0.92891196  1
  O  O261  1  0.59533204  0.73032681  0.26224529  1
  O  O262  1  0.59533204  0.73032681  0.59557863  1
  O  O263  1  0.59533204  0.73032681  0.92891196  1
  O  O264  1  0.92866537  0.23032681  0.26224529  1
  O  O265  1  0.92866537  0.23032681  0.59557863  1
  O  O266  1  0.92866537  0.23032681  0.92891196  1
  O  O267  1  0.92866537  0.73032681  0.26224529  1
  O  O268  1  0.92866537  0.73032681  0.59557863  1
  O  O269  1  0.92866537  0.73032681  0.92891196  1
  O  O270  1  0.09533204  0.01967319  0.23775471  1
  O  O271  1  0.09533204  0.01967319  0.57108804  1
  O  O272  1  0.09533204  0.01967319  0.90442137  1
  O  O273  1  0.09533204  0.51967319  0.23775471  1
  O  O274  1  0.09533204  0.51967319  0.57108804  1
  O  O275  1  0.09533204  0.51967319  0.90442137  1
  O  O276  1  0.42866537  0.01967319  0.23775471  1
  O  O277  1  0.42866537  0.01967319  0.57108804  1
  O  O278  1  0.42866537  0.01967319  0.90442137  1
  O  O279  1  0.42866537  0.51967319  0.23775471  1
  O  O280  1  0.42866537  0.51967319  0.57108804  1
  O  O281  1  0.42866537  0.51967319  0.90442137  1
  O  O282  1  0.76199870  0.01967319  0.23775471  1
  O  O283  1  0.76199870  0.01967319  0.57108804  1
  O  O284  1  0.76199870  0.01967319  0.90442137  1
  O  O285  1  0.76199870  0.51967319  0.23775471  1
  O  O286  1  0.76199870  0.51967319  0.57108804  1
  O  O287  1  0.76199870  0.51967319  0.90442137  1
  O  O288  1  0.16060714  0.12500000  0.02476255  1
  O  O289  1  0.16060714  0.12500000  0.35809589  1
  O  O290  1  0.16060714  0.12500000  0.69142922  1
  O  O291  1  0.16060714  0.62500000  0.02476255  1
  O  O292  1  0.16060714  0.62500000  0.35809589  1
  O  O293  1  0.16060714  0.62500000  0.69142922  1
  O  O294  1  0.49394048  0.12500000  0.02476255  1
  O  O295  1  0.49394048  0.12500000  0.35809589  1
  O  O296  1  0.49394048  0.12500000  0.69142922  1
  O  O297  1  0.49394048  0.62500000  0.02476255  1
  O  O298  1  0.49394048  0.62500000  0.35809589  1
  O  O299  1  0.49394048  0.62500000  0.69142922  1
  O  O300  1  0.82727381  0.12500000  0.02476255  1
  O  O301  1  0.82727381  0.12500000  0.35809589  1
  O  O302  1  0.82727381  0.12500000  0.69142922  1
  O  O303  1  0.82727381  0.62500000  0.02476255  1
  O  O304  1  0.82727381  0.62500000  0.35809589  1
  O  O305  1  0.82727381  0.62500000  0.69142922  1
  O  O306  1  0.32727381  0.12500000  0.14190411  1
  O  O307  1  0.32727381  0.12500000  0.47523745  1
  O  O308  1  0.32727381  0.12500000  0.80857078  1
  O  O309  1  0.32727381  0.62500000  0.14190411  1
  O  O310  1  0.32727381  0.62500000  0.47523745  1
  O  O311  1  0.32727381  0.62500000  0.80857078  1
  O  O312  1  0.66060714  0.12500000  0.14190411  1
  O  O313  1  0.66060714  0.12500000  0.47523745  1
  O  O314  1  0.66060714  0.12500000  0.80857078  1
  O  O315  1  0.66060714  0.62500000  0.14190411  1
  O  O316  1  0.66060714  0.62500000  0.47523745  1
  O  O317  1  0.66060714  0.62500000  0.80857078  1
  O  O318  1  0.99394048  0.12500000  0.14190411  1
  O  O319  1  0.99394048  0.12500000  0.47523745  1
  O  O320  1  0.99394048  0.12500000  0.80857078  1
  O  O321  1  0.99394048  0.62500000  0.14190411  1
  O  O322  1  0.99394048  0.62500000  0.47523745  1
  O  O323  1  0.99394048  0.62500000  0.80857078  1
  O  O324  1  0.00605952  0.37500000  0.19142922  1
  O  O325  1  0.00605952  0.37500000  0.52476255  1
  O  O326  1  0.00605952  0.37500000  0.85809589  1
  O  O327  1  0.00605952  0.87500000  0.19142922  1
  O  O328  1  0.00605952  0.87500000  0.52476255  1
  O  O329  1  0.00605952  0.87500000  0.85809589  1
  O  O330  1  0.33939286  0.37500000  0.19142922  1
  O  O331  1  0.33939286  0.37500000  0.52476255  1
  O  O332  1  0.33939286  0.37500000  0.85809589  1
  O  O333  1  0.33939286  0.87500000  0.19142922  1
  O  O334  1  0.33939286  0.87500000  0.52476255  1
  O  O335  1  0.33939286  0.87500000  0.85809589  1
  O  O336  1  0.67272619  0.37500000  0.19142922  1
  O  O337  1  0.67272619  0.37500000  0.52476255  1
  O  O338  1  0.67272619  0.37500000  0.85809589  1
  O  O339  1  0.67272619  0.87500000  0.19142922  1
  O  O340  1  0.67272619  0.87500000  0.52476255  1
  O  O341  1  0.67272619  0.87500000  0.85809589  1
  O  O342  1  0.17272619  0.37500000  0.30857078  1
  O  O343  1  0.17272619  0.37500000  0.64190411  1
  O  O344  1  0.17272619  0.37500000  0.97523745  1
  O  O345  1  0.17272619  0.87500000  0.30857078  1
  O  O346  1  0.17272619  0.87500000  0.64190411  1
  O  O347  1  0.17272619  0.87500000  0.97523745  1
  O  O348  1  0.50605952  0.37500000  0.30857078  1
  O  O349  1  0.50605952  0.37500000  0.64190411  1
  O  O350  1  0.50605952  0.37500000  0.97523745  1
  O  O351  1  0.50605952  0.87500000  0.30857078  1
  O  O352  1  0.50605952  0.87500000  0.64190411  1
  O  O353  1  0.50605952  0.87500000  0.97523745  1
  O  O354  1  0.83939286  0.37500000  0.30857078  1
  O  O355  1  0.83939286  0.37500000  0.64190411  1
  O  O356  1  0.83939286  0.37500000  0.97523745  1
  O  O357  1  0.83939286  0.87500000  0.30857078  1
  O  O358  1  0.83939286  0.87500000  0.64190411  1
  O  O359  1  0.83939286  0.87500000  0.97523745  1
