# generated using pymatgen
data_Na2Pd3O4
_symmetry_space_group_name_H-M   'P 1'
_cell_length_a   12.17127218
_cell_length_b   10.83824031
_cell_length_c   13.07883666
_cell_angle_alpha   90.00000000
_cell_angle_beta   90.00000000
_cell_angle_gamma   90.00000000
_symmetry_Int_Tables_number   1
_chemical_formula_structural   Na2Pd3O4
_chemical_formula_sum   'Na32 Pd48 O64'
_cell_volume   1725.29699809
_cell_formula_units_Z   16
loop_
 _symmetry_equiv_pos_site_id
 _symmetry_equiv_pos_as_xyz
  1  'x, y, z'
loop_
 _atom_site_type_symbol
 _atom_site_label
 _atom_site_symmetry_multiplicity
 _atom_site_fract_x
 _atom_site_fract_y
 _atom_site_fract_z
 _atom_site_occupancy
  Na  Na0  1  0.12500000  0.00000000  0.29917559  1
  Na  Na1  1  0.12500000  0.50000000  0.29917559  1
  Na  Na2  1  0.37500000  0.00000000  0.29917559  1
  Na  Na3  1  0.37500000  0.50000000  0.29917559  1
  Na  Na4  1  0.62500000  0.00000000  0.29917559  1
  Na  Na5  1  0.62500000  0.50000000  0.29917559  1
  Na  Na6  1  0.87500000  0.00000000  0.29917559  1
  Na  Na7  1  0.87500000  0.50000000  0.29917559  1
  Na  Na8  1  0.25000000  0.25000000  0.79917559  1
  Na  Na9  1  0.25000000  0.75000000  0.79917559  1
  Na  Na10  1  0.50000000  0.25000000  0.79917559  1
  Na  Na11  1  0.50000000  0.75000000  0.79917559  1
  Na  Na12  1  0.75000000  0.25000000  0.79917559  1
  Na  Na13  1  0.75000000  0.75000000  0.79917559  1
  Na  Na14  1  1.00000000  0.25000000  0.79917559  1
  Na  Na15  1  1.00000000  0.75000000  0.79917559  1
  Na  Na16  1  0.00000000  0.25000000  0.20082441  1
  Na  Na17  1  0.00000000  0.75000000  0.20082441  1
  Na  Na18  1  0.25000000  0.25000000  0.20082441  1
  Na  Na19  1  0.25000000  0.75000000  0.20082441  1
  Na  Na20  1  0.50000000  0.25000000  0.20082441  1
  Na  Na21  1  0.50000000  0.75000000  0.20082441  1
  Na  Na22  1  0.75000000  0.25000000  0.20082441  1
  Na  Na23  1  0.75000000  0.75000000  0.20082441  1
  Na  Na24  1  0.12500000  0.50000000  0.70082441  1
  Na  Na25  1  0.12500000  1.00000000  0.70082441  1
  Na  Na26  1  0.37500000  0.50000000  0.70082441  1
  Na  Na27  1  0.37500000  1.00000000  0.70082441  1
  Na  Na28  1  0.62500000  0.50000000  0.70082441  1
  Na  Na29  1  0.62500000  1.00000000  0.70082441  1
  Na  Na30  1  0.87500000  0.50000000  0.70082441  1
  Na  Na31  1  0.87500000  1.00000000  0.70082441  1
  Pd  Pd32  1  -0.00000000  -0.00000000  0.10603156  1
  Pd  Pd33  1  -0.00000000  0.50000000  0.10603156  1
  Pd  Pd34  1  0.25000000  -0.00000000  0.10603156  1
  Pd  Pd35  1  0.25000000  0.50000000  0.10603156  1
  Pd  Pd36  1  0.50000000  -0.00000000  0.10603156  1
  Pd  Pd37  1  0.50000000  0.50000000  0.10603156  1
  Pd  Pd38  1  0.75000000  -0.00000000  0.10603156  1
  Pd  Pd39  1  0.75000000  0.50000000  0.10603156  1
  Pd  Pd40  1  0.12500000  0.25000000  0.60603156  1
  Pd  Pd41  1  0.12500000  0.75000000  0.60603156  1
  Pd  Pd42  1  0.37500000  0.25000000  0.60603156  1
  Pd  Pd43  1  0.37500000  0.75000000  0.60603156  1
  Pd  Pd44  1  0.62500000  0.25000000  0.60603156  1
  Pd  Pd45  1  0.62500000  0.75000000  0.60603156  1
  Pd  Pd46  1  0.87500000  0.25000000  0.60603156  1
  Pd  Pd47  1  0.87500000  0.75000000  0.60603156  1
  Pd  Pd48  1  0.00000000  0.00000000  0.89396844  1
  Pd  Pd49  1  0.00000000  0.50000000  0.89396844  1
  Pd  Pd50  1  0.25000000  0.00000000  0.89396844  1
  Pd  Pd51  1  0.25000000  0.50000000  0.89396844  1
  Pd  Pd52  1  0.50000000  0.00000000  0.89396844  1
  Pd  Pd53  1  0.50000000  0.50000000  0.89396844  1
  Pd  Pd54  1  0.75000000  0.00000000  0.89396844  1
  Pd  Pd55  1  0.75000000  0.50000000  0.89396844  1
  Pd  Pd56  1  0.12500000  0.25000000  1.39396844  1
  Pd  Pd57  1  0.12500000  0.75000000  1.39396844  1
  Pd  Pd58  1  0.37500000  0.25000000  1.39396844  1
  Pd  Pd59  1  0.37500000  0.75000000  1.39396844  1
  Pd  Pd60  1  0.62500000  0.25000000  1.39396844  1
  Pd  Pd61  1  0.62500000  0.75000000  1.39396844  1
  Pd  Pd62  1  0.87500000  0.25000000  1.39396844  1
  Pd  Pd63  1  0.87500000  0.75000000  1.39396844  1
  Pd  Pd64  1  0.00000000  0.00000000  0.50000000  1
  Pd  Pd65  1  0.00000000  0.50000000  0.50000000  1
  Pd  Pd66  1  0.25000000  0.00000000  0.50000000  1
  Pd  Pd67  1  0.25000000  0.50000000  0.50000000  1
  Pd  Pd68  1  0.50000000  0.00000000  0.50000000  1
  Pd  Pd69  1  0.50000000  0.50000000  0.50000000  1
  Pd  Pd70  1  0.75000000  0.00000000  0.50000000  1
  Pd  Pd71  1  0.75000000  0.50000000  0.50000000  1
  Pd  Pd72  1  0.12500000  0.25000000  1.00000000  1
  Pd  Pd73  1  0.12500000  0.75000000  1.00000000  1
  Pd  Pd74  1  0.37500000  0.25000000  1.00000000  1
  Pd  Pd75  1  0.37500000  0.75000000  1.00000000  1
  Pd  Pd76  1  0.62500000  0.25000000  1.00000000  1
  Pd  Pd77  1  0.62500000  0.75000000  1.00000000  1
  Pd  Pd78  1  0.87500000  0.25000000  1.00000000  1
  Pd  Pd79  1  0.87500000  0.75000000  1.00000000  1
  O  O80  1  -0.00000000  0.12678514  0.61571003  1
  O  O81  1  -0.00000000  0.62678514  0.61571003  1
  O  O82  1  0.25000000  0.12678514  0.61571003  1
  O  O83  1  0.25000000  0.62678514  0.61571003  1
  O  O84  1  0.50000000  0.12678514  0.61571003  1
  O  O85  1  0.50000000  0.62678514  0.61571003  1
  O  O86  1  0.75000000  0.12678514  0.61571003  1
  O  O87  1  0.75000000  0.62678514  0.61571003  1
  O  O88  1  0.12500000  0.37678514  1.11571003  1
  O  O89  1  0.12500000  0.87678514  1.11571003  1
  O  O90  1  0.37500000  0.37678514  1.11571003  1
  O  O91  1  0.37500000  0.87678514  1.11571003  1
  O  O92  1  0.62500000  0.37678514  1.11571003  1
  O  O93  1  0.62500000  0.87678514  1.11571003  1
  O  O94  1  0.87500000  0.37678514  1.11571003  1
  O  O95  1  0.87500000  0.87678514  1.11571003  1
  O  O96  1  0.12500000  0.12321486  -0.11571003  1
  O  O97  1  0.12500000  0.62321486  -0.11571003  1
  O  O98  1  0.37500000  0.12321486  -0.11571003  1
  O  O99  1  0.37500000  0.62321486  -0.11571003  1
  O  O100  1  0.62500000  0.12321486  -0.11571003  1
  O  O101  1  0.62500000  0.62321486  -0.11571003  1
  O  O102  1  0.87500000  0.12321486  -0.11571003  1
  O  O103  1  0.87500000  0.62321486  -0.11571003  1
  O  O104  1  0.25000000  0.37321486  0.38428997  1
  O  O105  1  0.25000000  0.87321486  0.38428997  1
  O  O106  1  0.50000000  0.37321486  0.38428997  1
  O  O107  1  0.50000000  0.87321486  0.38428997  1
  O  O108  1  0.75000000  0.37321486  0.38428997  1
  O  O109  1  0.75000000  0.87321486  0.38428997  1
  O  O110  1  1.00000000  0.37321486  0.38428997  1
  O  O111  1  1.00000000  0.87321486  0.38428997  1
  O  O112  1  -0.00000000  0.12678514  0.38428997  1
  O  O113  1  -0.00000000  0.62678514  0.38428997  1
  O  O114  1  0.25000000  0.12678514  0.38428997  1
  O  O115  1  0.25000000  0.62678514  0.38428997  1
  O  O116  1  0.50000000  0.12678514  0.38428997  1
  O  O117  1  0.50000000  0.62678514  0.38428997  1
  O  O118  1  0.75000000  0.12678514  0.38428997  1
  O  O119  1  0.75000000  0.62678514  0.38428997  1
  O  O120  1  0.12500000  0.37678514  0.88428997  1
  O  O121  1  0.12500000  0.87678514  0.88428997  1
  O  O122  1  0.37500000  0.37678514  0.88428997  1
  O  O123  1  0.37500000  0.87678514  0.88428997  1
  O  O124  1  0.62500000  0.37678514  0.88428997  1
  O  O125  1  0.62500000  0.87678514  0.88428997  1
  O  O126  1  0.87500000  0.37678514  0.88428997  1
  O  O127  1  0.87500000  0.87678514  0.88428997  1
  O  O128  1  0.12500000  0.12321486  0.11571003  1
  O  O129  1  0.12500000  0.62321486  0.11571003  1
  O  O130  1  0.37500000  0.12321486  0.11571003  1
  O  O131  1  0.37500000  0.62321486  0.11571003  1
  O  O132  1  0.62500000  0.12321486  0.11571003  1
  O  O133  1  0.62500000  0.62321486  0.11571003  1
  O  O134  1  0.87500000  0.12321486  0.11571003  1
  O  O135  1  0.87500000  0.62321486  0.11571003  1
  O  O136  1  0.25000000  0.37321486  0.61571003  1
  O  O137  1  0.25000000  0.87321486  0.61571003  1
  O  O138  1  0.50000000  0.37321486  0.61571003  1
  O  O139  1  0.50000000  0.87321486  0.61571003  1
  O  O140  1  0.75000000  0.37321486  0.61571003  1
  O  O141  1  0.75000000  0.87321486  0.61571003  1
  O  O142  1  1.00000000  0.37321486  0.61571003  1
  O  O143  1  1.00000000  0.87321486  0.61571003  1
