# generated using pymatgen
data_NaGeSbO5
_symmetry_space_group_name_H-M   'P 1'
_cell_length_a   13.48086634
_cell_length_b   17.93039110
_cell_length_c   14.54912189
_cell_angle_alpha   90.00000000
_cell_angle_beta   114.69674475
_cell_angle_gamma   90.00000000
_symmetry_Int_Tables_number   1
_chemical_formula_structural   NaGeSbO5
_chemical_formula_sum   'Na32 Ge32 Sb32 O160'
_cell_volume   3195.10059758
_cell_formula_units_Z   32
loop_
 _symmetry_equiv_pos_site_id
 _symmetry_equiv_pos_as_xyz
  1  'x, y, z'
loop_
 _atom_site_type_symbol
 _atom_site_label
 _atom_site_symmetry_multiplicity
 _atom_site_fract_x
 _atom_site_fract_y
 _atom_site_fract_z
 _atom_site_occupancy
  Na  Na0  1  0.25000000  -0.08301145  0.37500000  1
  Na  Na1  1  0.25000000  -0.08301145  0.87500000  1
  Na  Na2  1  0.25000000  0.41698855  0.37500000  1
  Na  Na3  1  0.25000000  0.41698855  0.87500000  1
  Na  Na4  1  0.75000000  -0.08301145  0.37500000  1
  Na  Na5  1  0.75000000  -0.08301145  0.87500000  1
  Na  Na6  1  0.75000000  0.41698855  0.37500000  1
  Na  Na7  1  0.75000000  0.41698855  0.87500000  1
  Na  Na8  1  0.50000000  0.16698855  0.37500000  1
  Na  Na9  1  0.50000000  0.16698855  0.87500000  1
  Na  Na10  1  0.50000000  0.66698855  0.37500000  1
  Na  Na11  1  0.50000000  0.66698855  0.87500000  1
  Na  Na12  1  1.00000000  0.16698855  0.37500000  1
  Na  Na13  1  1.00000000  0.16698855  0.87500000  1
  Na  Na14  1  1.00000000  0.66698855  0.37500000  1
  Na  Na15  1  1.00000000  0.66698855  0.87500000  1
  Na  Na16  1  0.25000000  0.08301145  0.12500000  1
  Na  Na17  1  0.25000000  0.08301145  0.62500000  1
  Na  Na18  1  0.25000000  0.58301145  0.12500000  1
  Na  Na19  1  0.25000000  0.58301145  0.62500000  1
  Na  Na20  1  0.75000000  0.08301145  0.12500000  1
  Na  Na21  1  0.75000000  0.08301145  0.62500000  1
  Na  Na22  1  0.75000000  0.58301145  0.12500000  1
  Na  Na23  1  0.75000000  0.58301145  0.62500000  1
  Na  Na24  1  0.50000000  0.33301145  0.12500000  1
  Na  Na25  1  0.50000000  0.33301145  0.62500000  1
  Na  Na26  1  0.50000000  0.83301145  0.12500000  1
  Na  Na27  1  0.50000000  0.83301145  0.62500000  1
  Na  Na28  1  1.00000000  0.33301145  0.12500000  1
  Na  Na29  1  1.00000000  0.33301145  0.62500000  1
  Na  Na30  1  1.00000000  0.83301145  0.12500000  1
  Na  Na31  1  1.00000000  0.83301145  0.62500000  1
  Ge  Ge32  1  0.25000000  -0.09380366  0.12500000  1
  Ge  Ge33  1  0.25000000  -0.09380366  0.62500000  1
  Ge  Ge34  1  0.25000000  0.40619634  0.12500000  1
  Ge  Ge35  1  0.25000000  0.40619634  0.62500000  1
  Ge  Ge36  1  0.75000000  -0.09380366  0.12500000  1
  Ge  Ge37  1  0.75000000  -0.09380366  0.62500000  1
  Ge  Ge38  1  0.75000000  0.40619634  0.12500000  1
  Ge  Ge39  1  0.75000000  0.40619634  0.62500000  1
  Ge  Ge40  1  0.50000000  0.15619634  0.12500000  1
  Ge  Ge41  1  0.50000000  0.15619634  0.62500000  1
  Ge  Ge42  1  0.50000000  0.65619634  0.12500000  1
  Ge  Ge43  1  0.50000000  0.65619634  0.62500000  1
  Ge  Ge44  1  1.00000000  0.15619634  0.12500000  1
  Ge  Ge45  1  1.00000000  0.15619634  0.62500000  1
  Ge  Ge46  1  1.00000000  0.65619634  0.12500000  1
  Ge  Ge47  1  1.00000000  0.65619634  0.62500000  1
  Ge  Ge48  1  0.25000000  0.09380366  0.37500000  1
  Ge  Ge49  1  0.25000000  0.09380366  0.87500000  1
  Ge  Ge50  1  0.25000000  0.59380366  0.37500000  1
  Ge  Ge51  1  0.25000000  0.59380366  0.87500000  1
  Ge  Ge52  1  0.75000000  0.09380366  0.37500000  1
  Ge  Ge53  1  0.75000000  0.09380366  0.87500000  1
  Ge  Ge54  1  0.75000000  0.59380366  0.37500000  1
  Ge  Ge55  1  0.75000000  0.59380366  0.87500000  1
  Ge  Ge56  1  0.50000000  0.34380366  0.37500000  1
  Ge  Ge57  1  0.50000000  0.34380366  0.87500000  1
  Ge  Ge58  1  0.50000000  0.84380366  0.37500000  1
  Ge  Ge59  1  0.50000000  0.84380366  0.87500000  1
  Ge  Ge60  1  1.00000000  0.34380366  0.37500000  1
  Ge  Ge61  1  1.00000000  0.34380366  0.87500000  1
  Ge  Ge62  1  1.00000000  0.84380366  0.37500000  1
  Ge  Ge63  1  1.00000000  0.84380366  0.87500000  1
  Sb  Sb64  1  -0.00000000  0.00000000  0.25000000  1
  Sb  Sb65  1  -0.00000000  0.00000000  0.75000000  1
  Sb  Sb66  1  -0.00000000  0.50000000  0.25000000  1
  Sb  Sb67  1  -0.00000000  0.50000000  0.75000000  1
  Sb  Sb68  1  0.50000000  0.00000000  0.25000000  1
  Sb  Sb69  1  0.50000000  0.00000000  0.75000000  1
  Sb  Sb70  1  0.50000000  0.50000000  0.25000000  1
  Sb  Sb71  1  0.50000000  0.50000000  0.75000000  1
  Sb  Sb72  1  0.25000000  0.25000000  0.25000000  1
  Sb  Sb73  1  0.25000000  0.25000000  0.75000000  1
  Sb  Sb74  1  0.25000000  0.75000000  0.25000000  1
  Sb  Sb75  1  0.25000000  0.75000000  0.75000000  1
  Sb  Sb76  1  0.75000000  0.25000000  0.25000000  1
  Sb  Sb77  1  0.75000000  0.25000000  0.75000000  1
  Sb  Sb78  1  0.75000000  0.75000000  0.25000000  1
  Sb  Sb79  1  0.75000000  0.75000000  0.75000000  1
  Sb  Sb80  1  0.00000000  0.00000000  0.00000000  1
  Sb  Sb81  1  0.00000000  0.00000000  0.50000000  1
  Sb  Sb82  1  0.00000000  0.50000000  0.00000000  1
  Sb  Sb83  1  0.00000000  0.50000000  0.50000000  1
  Sb  Sb84  1  0.50000000  0.00000000  0.00000000  1
  Sb  Sb85  1  0.50000000  0.00000000  0.50000000  1
  Sb  Sb86  1  0.50000000  0.50000000  0.00000000  1
  Sb  Sb87  1  0.50000000  0.50000000  0.50000000  1
  Sb  Sb88  1  0.25000000  0.25000000  0.00000000  1
  Sb  Sb89  1  0.25000000  0.25000000  0.50000000  1
  Sb  Sb90  1  0.25000000  0.75000000  0.00000000  1
  Sb  Sb91  1  0.25000000  0.75000000  0.50000000  1
  Sb  Sb92  1  0.75000000  0.25000000  0.00000000  1
  Sb  Sb93  1  0.75000000  0.25000000  0.50000000  1
  Sb  Sb94  1  0.75000000  0.75000000  0.00000000  1
  Sb  Sb95  1  0.75000000  0.75000000  0.50000000  1
  O  O96  1  0.25000000  -0.20910743  0.37500000  1
  O  O97  1  0.25000000  -0.20910743  0.87500000  1
  O  O98  1  0.25000000  0.29089257  0.37500000  1
  O  O99  1  0.25000000  0.29089257  0.87500000  1
  O  O100  1  0.75000000  -0.20910743  0.37500000  1
  O  O101  1  0.75000000  -0.20910743  0.87500000  1
  O  O102  1  0.75000000  0.29089257  0.37500000  1
  O  O103  1  0.75000000  0.29089257  0.87500000  1
  O  O104  1  0.50000000  0.04089257  0.37500000  1
  O  O105  1  0.50000000  0.04089257  0.87500000  1
  O  O106  1  0.50000000  0.54089257  0.37500000  1
  O  O107  1  0.50000000  0.54089257  0.87500000  1
  O  O108  1  1.00000000  0.04089257  0.37500000  1
  O  O109  1  1.00000000  0.04089257  0.87500000  1
  O  O110  1  1.00000000  0.54089257  0.37500000  1
  O  O111  1  1.00000000  0.54089257  0.87500000  1
  O  O112  1  0.25000000  0.20910743  0.12500000  1
  O  O113  1  0.25000000  0.20910743  0.62500000  1
  O  O114  1  0.25000000  0.70910743  0.12500000  1
  O  O115  1  0.25000000  0.70910743  0.62500000  1
  O  O116  1  0.75000000  0.20910743  0.12500000  1
  O  O117  1  0.75000000  0.20910743  0.62500000  1
  O  O118  1  0.75000000  0.70910743  0.12500000  1
  O  O119  1  0.75000000  0.70910743  0.62500000  1
  O  O120  1  0.50000000  0.45910743  0.12500000  1
  O  O121  1  0.50000000  0.45910743  0.62500000  1
  O  O122  1  0.50000000  0.95910743  0.12500000  1
  O  O123  1  0.50000000  0.95910743  0.62500000  1
  O  O124  1  1.00000000  0.45910743  0.12500000  1
  O  O125  1  1.00000000  0.45910743  0.62500000  1
  O  O126  1  1.00000000  0.95910743  0.12500000  1
  O  O127  1  1.00000000  0.95910743  0.62500000  1
  O  O128  1  0.19191685  -0.14959828  0.19159215  1
  O  O129  1  0.19191685  -0.14959828  0.69159215  1
  O  O130  1  0.19191685  0.35040172  0.19159215  1
  O  O131  1  0.19191685  0.35040172  0.69159215  1
  O  O132  1  0.69191685  -0.14959828  0.19159215  1
  O  O133  1  0.69191685  -0.14959828  0.69159215  1
  O  O134  1  0.69191685  0.35040172  0.19159215  1
  O  O135  1  0.69191685  0.35040172  0.69159215  1
  O  O136  1  0.44191685  0.10040172  0.19159215  1
  O  O137  1  0.44191685  0.10040172  0.69159215  1
  O  O138  1  0.44191685  0.60040172  0.19159215  1
  O  O139  1  0.44191685  0.60040172  0.69159215  1
  O  O140  1  0.94191685  0.10040172  0.19159215  1
  O  O141  1  0.94191685  0.10040172  0.69159215  1
  O  O142  1  0.94191685  0.60040172  0.19159215  1
  O  O143  1  0.94191685  0.60040172  0.69159215  1
  O  O144  1  0.30808315  -0.14959828  0.05840785  1
  O  O145  1  0.30808315  -0.14959828  0.55840785  1
  O  O146  1  0.30808315  0.35040172  0.05840785  1
  O  O147  1  0.30808315  0.35040172  0.55840785  1
  O  O148  1  0.80808315  -0.14959828  0.05840785  1
  O  O149  1  0.80808315  -0.14959828  0.55840785  1
  O  O150  1  0.80808315  0.35040172  0.05840785  1
  O  O151  1  0.80808315  0.35040172  0.55840785  1
  O  O152  1  0.55808315  0.10040172  0.05840785  1
  O  O153  1  0.55808315  0.10040172  0.55840785  1
  O  O154  1  0.55808315  0.60040172  0.05840785  1
  O  O155  1  0.55808315  0.60040172  0.55840785  1
  O  O156  1  1.05808315  0.10040172  0.05840785  1
  O  O157  1  1.05808315  0.10040172  0.55840785  1
  O  O158  1  1.05808315  0.60040172  0.05840785  1
  O  O159  1  1.05808315  0.60040172  0.55840785  1
  O  O160  1  0.30808315  0.14959828  0.30840785  1
  O  O161  1  0.30808315  0.14959828  0.80840785  1
  O  O162  1  0.30808315  0.64959828  0.30840785  1
  O  O163  1  0.30808315  0.64959828  0.80840785  1
  O  O164  1  0.80808315  0.14959828  0.30840785  1
  O  O165  1  0.80808315  0.14959828  0.80840785  1
  O  O166  1  0.80808315  0.64959828  0.30840785  1
  O  O167  1  0.80808315  0.64959828  0.80840785  1
  O  O168  1  0.55808315  0.39959828  0.30840785  1
  O  O169  1  0.55808315  0.39959828  0.80840785  1
  O  O170  1  0.55808315  0.89959828  0.30840785  1
  O  O171  1  0.55808315  0.89959828  0.80840785  1
  O  O172  1  1.05808315  0.39959828  0.30840785  1
  O  O173  1  1.05808315  0.39959828  0.80840785  1
  O  O174  1  1.05808315  0.89959828  0.30840785  1
  O  O175  1  1.05808315  0.89959828  0.80840785  1
  O  O176  1  0.19191685  0.14959828  0.44159215  1
  O  O177  1  0.19191685  0.14959828  0.94159215  1
  O  O178  1  0.19191685  0.64959828  0.44159215  1
  O  O179  1  0.19191685  0.64959828  0.94159215  1
  O  O180  1  0.69191685  0.14959828  0.44159215  1
  O  O181  1  0.69191685  0.14959828  0.94159215  1
  O  O182  1  0.69191685  0.64959828  0.44159215  1
  O  O183  1  0.69191685  0.64959828  0.94159215  1
  O  O184  1  0.44191685  0.39959828  0.44159215  1
  O  O185  1  0.44191685  0.39959828  0.94159215  1
  O  O186  1  0.44191685  0.89959828  0.44159215  1
  O  O187  1  0.44191685  0.89959828  0.94159215  1
  O  O188  1  0.94191685  0.39959828  0.44159215  1
  O  O189  1  0.94191685  0.39959828  0.94159215  1
  O  O190  1  0.94191685  0.89959828  0.44159215  1
  O  O191  1  0.94191685  0.89959828  0.94159215  1
  O  O192  1  0.15447833  0.03139755  0.28651580  1
  O  O193  1  0.15447833  0.03139755  0.78651580  1
  O  O194  1  0.15447833  0.53139755  0.28651580  1
  O  O195  1  0.15447833  0.53139755  0.78651580  1
  O  O196  1  0.65447833  0.03139755  0.28651580  1
  O  O197  1  0.65447833  0.03139755  0.78651580  1
  O  O198  1  0.65447833  0.53139755  0.28651580  1
  O  O199  1  0.65447833  0.53139755  0.78651580  1
  O  O200  1  0.40447833  0.28139755  0.28651580  1
  O  O201  1  0.40447833  0.28139755  0.78651580  1
  O  O202  1  0.40447833  0.78139755  0.28651580  1
  O  O203  1  0.40447833  0.78139755  0.78651580  1
  O  O204  1  0.90447833  0.28139755  0.28651580  1
  O  O205  1  0.90447833  0.28139755  0.78651580  1
  O  O206  1  0.90447833  0.78139755  0.28651580  1
  O  O207  1  0.90447833  0.78139755  0.78651580  1
  O  O208  1  0.34552167  0.03139755  0.46348420  1
  O  O209  1  0.34552167  0.03139755  0.96348420  1
  O  O210  1  0.34552167  0.53139755  0.46348420  1
  O  O211  1  0.34552167  0.53139755  0.96348420  1
  O  O212  1  0.84552167  0.03139755  0.46348420  1
  O  O213  1  0.84552167  0.03139755  0.96348420  1
  O  O214  1  0.84552167  0.53139755  0.46348420  1
  O  O215  1  0.84552167  0.53139755  0.96348420  1
  O  O216  1  0.59552167  0.28139755  0.46348420  1
  O  O217  1  0.59552167  0.28139755  0.96348420  1
  O  O218  1  0.59552167  0.78139755  0.46348420  1
  O  O219  1  0.59552167  0.78139755  0.96348420  1
  O  O220  1  1.09552167  0.28139755  0.46348420  1
  O  O221  1  1.09552167  0.28139755  0.96348420  1
  O  O222  1  1.09552167  0.78139755  0.46348420  1
  O  O223  1  1.09552167  0.78139755  0.96348420  1
  O  O224  1  0.34552167  -0.03139755  0.21348420  1
  O  O225  1  0.34552167  -0.03139755  0.71348420  1
  O  O226  1  0.34552167  0.46860245  0.21348420  1
  O  O227  1  0.34552167  0.46860245  0.71348420  1
  O  O228  1  0.84552167  -0.03139755  0.21348420  1
  O  O229  1  0.84552167  -0.03139755  0.71348420  1
  O  O230  1  0.84552167  0.46860245  0.21348420  1
  O  O231  1  0.84552167  0.46860245  0.71348420  1
  O  O232  1  0.59552167  0.21860245  0.21348420  1
  O  O233  1  0.59552167  0.21860245  0.71348420  1
  O  O234  1  0.59552167  0.71860245  0.21348420  1
  O  O235  1  0.59552167  0.71860245  0.71348420  1
  O  O236  1  1.09552167  0.21860245  0.21348420  1
  O  O237  1  1.09552167  0.21860245  0.71348420  1
  O  O238  1  1.09552167  0.71860245  0.21348420  1
  O  O239  1  1.09552167  0.71860245  0.71348420  1
  O  O240  1  0.15447833  -0.03139755  0.03651580  1
  O  O241  1  0.15447833  -0.03139755  0.53651580  1
  O  O242  1  0.15447833  0.46860245  0.03651580  1
  O  O243  1  0.15447833  0.46860245  0.53651580  1
  O  O244  1  0.65447833  -0.03139755  0.03651580  1
  O  O245  1  0.65447833  -0.03139755  0.53651580  1
  O  O246  1  0.65447833  0.46860245  0.03651580  1
  O  O247  1  0.65447833  0.46860245  0.53651580  1
  O  O248  1  0.40447833  0.21860245  0.03651580  1
  O  O249  1  0.40447833  0.21860245  0.53651580  1
  O  O250  1  0.40447833  0.71860245  0.03651580  1
  O  O251  1  0.40447833  0.71860245  0.53651580  1
  O  O252  1  0.90447833  0.21860245  0.03651580  1
  O  O253  1  0.90447833  0.21860245  0.53651580  1
  O  O254  1  0.90447833  0.71860245  0.03651580  1
  O  O255  1  0.90447833  0.71860245  0.53651580  1
