# generated using pymatgen
data_KNaGeO3
_symmetry_space_group_name_H-M   'P 1'
_cell_length_a   13.91057081
_cell_length_b   10.70993984
_cell_length_c   14.20257881
_cell_angle_alpha   90.00000000
_cell_angle_beta   90.00000000
_cell_angle_gamma   90.00000000
_symmetry_Int_Tables_number   1
_chemical_formula_structural   KNaGeO3
_chemical_formula_sum   'K24 Na24 Ge24 O72'
_cell_volume   2115.91974081
_cell_formula_units_Z   24
loop_
 _symmetry_equiv_pos_site_id
 _symmetry_equiv_pos_as_xyz
  1  'x, y, z'
loop_
 _atom_site_type_symbol
 _atom_site_label
 _atom_site_symmetry_multiplicity
 _atom_site_fract_x
 _atom_site_fract_y
 _atom_site_fract_z
 _atom_site_occupancy
  K  K0  1  0.44178646  0.73677681  0.17520476  1
  K  K1  1  0.44178646  0.73677681  0.50853809  1
  K  K2  1  0.44178646  0.73677681  0.84187142  1
  K  K3  1  0.94178646  0.73677681  0.17520476  1
  K  K4  1  0.94178646  0.73677681  0.50853809  1
  K  K5  1  0.94178646  0.73677681  0.84187142  1
  K  K6  1  0.19178646  0.76322319  0.17520476  1
  K  K7  1  0.19178646  0.76322319  0.50853809  1
  K  K8  1  0.19178646  0.76322319  0.84187142  1
  K  K9  1  0.69178646  0.76322319  0.17520476  1
  K  K10  1  0.69178646  0.76322319  0.50853809  1
  K  K11  1  0.69178646  0.76322319  0.84187142  1
  K  K12  1  0.30821354  0.23677681  0.00853809  1
  K  K13  1  0.30821354  0.23677681  0.34187142  1
  K  K14  1  0.30821354  0.23677681  0.67520476  1
  K  K15  1  0.80821354  0.23677681  0.00853809  1
  K  K16  1  0.80821354  0.23677681  0.34187142  1
  K  K17  1  0.80821354  0.23677681  0.67520476  1
  K  K18  1  0.05821354  0.26322319  0.00853809  1
  K  K19  1  0.05821354  0.26322319  0.34187142  1
  K  K20  1  0.05821354  0.26322319  0.67520476  1
  K  K21  1  0.55821354  0.26322319  0.00853809  1
  K  K22  1  0.55821354  0.26322319  0.34187142  1
  K  K23  1  0.55821354  0.26322319  0.67520476  1
  Na  Na24  1  0.43876019  0.41952792  0.18041349  1
  Na  Na25  1  0.43876019  0.41952792  0.51374682  1
  Na  Na26  1  0.43876019  0.41952792  0.84708016  1
  Na  Na27  1  0.93876019  0.41952792  0.18041349  1
  Na  Na28  1  0.93876019  0.41952792  0.51374682  1
  Na  Na29  1  0.93876019  0.41952792  0.84708016  1
  Na  Na30  1  0.31123981  0.91952792  0.01374682  1
  Na  Na31  1  0.31123981  0.91952792  0.34708016  1
  Na  Na32  1  0.31123981  0.91952792  0.68041349  1
  Na  Na33  1  0.81123981  0.91952792  0.01374682  1
  Na  Na34  1  0.81123981  0.91952792  0.34708016  1
  Na  Na35  1  0.81123981  0.91952792  0.68041349  1
  Na  Na36  1  0.18876019  0.08047208  0.18041349  1
  Na  Na37  1  0.18876019  0.08047208  0.51374682  1
  Na  Na38  1  0.18876019  0.08047208  0.84708016  1
  Na  Na39  1  0.68876019  0.08047208  0.18041349  1
  Na  Na40  1  0.68876019  0.08047208  0.51374682  1
  Na  Na41  1  0.68876019  0.08047208  0.84708016  1
  Na  Na42  1  0.06123981  0.58047208  0.01374682  1
  Na  Na43  1  0.06123981  0.58047208  0.34708016  1
  Na  Na44  1  0.06123981  0.58047208  0.68041349  1
  Na  Na45  1  0.56123981  0.58047208  0.01374682  1
  Na  Na46  1  0.56123981  0.58047208  0.34708016  1
  Na  Na47  1  0.56123981  0.58047208  0.68041349  1
  Ge  Ge48  1  0.18508241  0.44806091  0.16760246  1
  Ge  Ge49  1  0.18508241  0.44806091  0.50093580  1
  Ge  Ge50  1  0.18508241  0.44806091  0.83426913  1
  Ge  Ge51  1  0.68508241  0.44806091  0.16760246  1
  Ge  Ge52  1  0.68508241  0.44806091  0.50093580  1
  Ge  Ge53  1  0.68508241  0.44806091  0.83426913  1
  Ge  Ge54  1  0.31491759  0.55193909  0.00093580  1
  Ge  Ge55  1  0.31491759  0.55193909  0.33426913  1
  Ge  Ge56  1  0.31491759  0.55193909  0.66760246  1
  Ge  Ge57  1  0.81491759  0.55193909  0.00093580  1
  Ge  Ge58  1  0.81491759  0.55193909  0.33426913  1
  Ge  Ge59  1  0.81491759  0.55193909  0.66760246  1
  Ge  Ge60  1  0.06491759  0.94806091  0.00093580  1
  Ge  Ge61  1  0.06491759  0.94806091  0.33426913  1
  Ge  Ge62  1  0.06491759  0.94806091  0.66760246  1
  Ge  Ge63  1  0.56491759  0.94806091  0.00093580  1
  Ge  Ge64  1  0.56491759  0.94806091  0.33426913  1
  Ge  Ge65  1  0.56491759  0.94806091  0.66760246  1
  Ge  Ge66  1  0.43508241  0.05193909  0.16760246  1
  Ge  Ge67  1  0.43508241  0.05193909  0.50093580  1
  Ge  Ge68  1  0.43508241  0.05193909  0.83426913  1
  Ge  Ge69  1  0.93508241  0.05193909  0.16760246  1
  Ge  Ge70  1  0.93508241  0.05193909  0.50093580  1
  Ge  Ge71  1  0.93508241  0.05193909  0.83426913  1
  O  O72  1  0.45614209  0.03150631  0.03934170  1
  O  O73  1  0.45614209  0.03150631  0.37267503  1
  O  O74  1  0.45614209  0.03150631  0.70600837  1
  O  O75  1  0.95614209  0.03150631  0.03934170  1
  O  O76  1  0.95614209  0.03150631  0.37267503  1
  O  O77  1  0.95614209  0.03150631  0.70600837  1
  O  O78  1  0.08012182  0.53690100  0.18696806  1
  O  O79  1  0.08012182  0.53690100  0.52030139  1
  O  O80  1  0.08012182  0.53690100  0.85363473  1
  O  O81  1  0.58012182  0.53690100  0.18696806  1
  O  O82  1  0.58012182  0.53690100  0.52030139  1
  O  O83  1  0.58012182  0.53690100  0.85363473  1
  O  O84  1  0.43432893  0.21211298  0.18870287  1
  O  O85  1  0.43432893  0.21211298  0.52203620  1
  O  O86  1  0.43432893  0.21211298  0.85536953  1
  O  O87  1  0.93432893  0.21211298  0.18870287  1
  O  O88  1  0.93432893  0.21211298  0.52203620  1
  O  O89  1  0.93432893  0.21211298  0.85536953  1
  O  O90  1  0.29385791  0.53150631  0.20600837  1
  O  O91  1  0.29385791  0.53150631  0.53934170  1
  O  O92  1  0.29385791  0.53150631  0.87267503  1
  O  O93  1  0.79385791  0.53150631  0.20600837  1
  O  O94  1  0.79385791  0.53150631  0.53934170  1
  O  O95  1  0.79385791  0.53150631  0.87267503  1
  O  O96  1  0.20614209  0.46849369  0.03934170  1
  O  O97  1  0.20614209  0.46849369  0.37267503  1
  O  O98  1  0.20614209  0.46849369  0.70600837  1
  O  O99  1  0.70614209  0.46849369  0.03934170  1
  O  O100  1  0.70614209  0.46849369  0.37267503  1
  O  O101  1  0.70614209  0.46849369  0.70600837  1
  O  O102  1  0.31567107  0.71211298  0.02203620  1
  O  O103  1  0.31567107  0.71211298  0.35536953  1
  O  O104  1  0.31567107  0.71211298  0.68870287  1
  O  O105  1  0.81567107  0.71211298  0.02203620  1
  O  O106  1  0.81567107  0.71211298  0.35536953  1
  O  O107  1  0.81567107  0.71211298  0.68870287  1
  O  O108  1  0.04385791  0.96849369  0.20600837  1
  O  O109  1  0.04385791  0.96849369  0.53934170  1
  O  O110  1  0.04385791  0.96849369  0.87267503  1
  O  O111  1  0.54385791  0.96849369  0.20600837  1
  O  O112  1  0.54385791  0.96849369  0.53934170  1
  O  O113  1  0.54385791  0.96849369  0.87267503  1
  O  O114  1  0.16987818  0.03690100  0.02030139  1
  O  O115  1  0.16987818  0.03690100  0.35363473  1
  O  O116  1  0.16987818  0.03690100  0.68696806  1
  O  O117  1  0.66987818  0.03690100  0.02030139  1
  O  O118  1  0.66987818  0.03690100  0.35363473  1
  O  O119  1  0.66987818  0.03690100  0.68696806  1
  O  O120  1  0.33012182  0.96309900  0.18696806  1
  O  O121  1  0.33012182  0.96309900  0.52030139  1
  O  O122  1  0.33012182  0.96309900  0.85363473  1
  O  O123  1  0.83012182  0.96309900  0.18696806  1
  O  O124  1  0.83012182  0.96309900  0.52030139  1
  O  O125  1  0.83012182  0.96309900  0.85363473  1
  O  O126  1  0.18432893  0.28788702  0.18870287  1
  O  O127  1  0.18432893  0.28788702  0.52203620  1
  O  O128  1  0.18432893  0.28788702  0.85536953  1
  O  O129  1  0.68432893  0.28788702  0.18870287  1
  O  O130  1  0.68432893  0.28788702  0.52203620  1
  O  O131  1  0.68432893  0.28788702  0.85536953  1
  O  O132  1  0.41987818  0.46309900  0.02030139  1
  O  O133  1  0.41987818  0.46309900  0.35363473  1
  O  O134  1  0.41987818  0.46309900  0.68696806  1
  O  O135  1  0.91987818  0.46309900  0.02030139  1
  O  O136  1  0.91987818  0.46309900  0.35363473  1
  O  O137  1  0.91987818  0.46309900  0.68696806  1
  O  O138  1  0.06567107  0.78788702  0.02203620  1
  O  O139  1  0.06567107  0.78788702  0.35536953  1
  O  O140  1  0.06567107  0.78788702  0.68870287  1
  O  O141  1  0.56567107  0.78788702  0.02203620  1
  O  O142  1  0.56567107  0.78788702  0.35536953  1
  O  O143  1  0.56567107  0.78788702  0.68870287  1
