# generated using pymatgen
data_LiCuO
_symmetry_space_group_name_H-M   'P 1'
_cell_length_a   11.81330214
_cell_length_b   11.81330214
_cell_length_c   11.50844874
_cell_angle_alpha   90.00000000
_cell_angle_beta   90.00000000
_cell_angle_gamma   90.00000000
_symmetry_Int_Tables_number   1
_chemical_formula_structural   LiCuO
_chemical_formula_sum   'Li48 Cu48 O48'
_cell_volume   1606.05129051
_cell_formula_units_Z   48
loop_
 _symmetry_equiv_pos_site_id
 _symmetry_equiv_pos_as_xyz
  1  'x, y, z'
loop_
 _atom_site_type_symbol
 _atom_site_label
 _atom_site_symmetry_multiplicity
 _atom_site_fract_x
 _atom_site_fract_y
 _atom_site_fract_z
 _atom_site_occupancy
  Li  Li0  1  0.32469582  -0.32469582  0.00000000  1
  Li  Li1  1  0.32469582  -0.32469582  0.33333333  1
  Li  Li2  1  0.32469582  -0.32469582  0.66666667  1
  Li  Li3  1  0.82469582  0.17530418  0.00000000  1
  Li  Li4  1  0.82469582  0.17530418  0.33333333  1
  Li  Li5  1  0.82469582  0.17530418  0.66666667  1
  Li  Li6  1  0.82469582  -0.32469582  0.16666667  1
  Li  Li7  1  0.82469582  -0.32469582  0.50000000  1
  Li  Li8  1  0.82469582  -0.32469582  0.83333333  1
  Li  Li9  1  1.32469582  0.17530418  0.16666667  1
  Li  Li10  1  1.32469582  0.17530418  0.50000000  1
  Li  Li11  1  1.32469582  0.17530418  0.83333333  1
  Li  Li12  1  0.17530418  -0.17530418  0.00000000  1
  Li  Li13  1  0.17530418  -0.17530418  0.33333333  1
  Li  Li14  1  0.17530418  -0.17530418  0.66666667  1
  Li  Li15  1  0.67530418  0.32469582  0.00000000  1
  Li  Li16  1  0.67530418  0.32469582  0.33333333  1
  Li  Li17  1  0.67530418  0.32469582  0.66666667  1
  Li  Li18  1  0.67530418  -0.17530418  0.16666667  1
  Li  Li19  1  0.67530418  -0.17530418  0.50000000  1
  Li  Li20  1  0.67530418  -0.17530418  0.83333333  1
  Li  Li21  1  1.17530418  0.32469582  0.16666667  1
  Li  Li22  1  1.17530418  0.32469582  0.50000000  1
  Li  Li23  1  1.17530418  0.32469582  0.83333333  1
  Li  Li24  1  0.32469582  0.32469582  0.00000000  1
  Li  Li25  1  0.32469582  0.32469582  0.33333333  1
  Li  Li26  1  0.32469582  0.32469582  0.66666667  1
  Li  Li27  1  0.82469582  0.82469582  0.00000000  1
  Li  Li28  1  0.82469582  0.82469582  0.33333333  1
  Li  Li29  1  0.82469582  0.82469582  0.66666667  1
  Li  Li30  1  0.82469582  0.32469582  0.16666667  1
  Li  Li31  1  0.82469582  0.32469582  0.50000000  1
  Li  Li32  1  0.82469582  0.32469582  0.83333333  1
  Li  Li33  1  1.32469582  0.82469582  0.16666667  1
  Li  Li34  1  1.32469582  0.82469582  0.50000000  1
  Li  Li35  1  1.32469582  0.82469582  0.83333333  1
  Li  Li36  1  0.17530418  0.17530418  0.00000000  1
  Li  Li37  1  0.17530418  0.17530418  0.33333333  1
  Li  Li38  1  0.17530418  0.17530418  0.66666667  1
  Li  Li39  1  0.67530418  0.67530418  0.00000000  1
  Li  Li40  1  0.67530418  0.67530418  0.33333333  1
  Li  Li41  1  0.67530418  0.67530418  0.66666667  1
  Li  Li42  1  0.67530418  0.17530418  0.16666667  1
  Li  Li43  1  0.67530418  0.17530418  0.50000000  1
  Li  Li44  1  0.67530418  0.17530418  0.83333333  1
  Li  Li45  1  1.17530418  0.67530418  0.16666667  1
  Li  Li46  1  1.17530418  0.67530418  0.50000000  1
  Li  Li47  1  1.17530418  0.67530418  0.83333333  1
  Cu  Cu48  1  0.34267671  -0.00000000  0.00000000  1
  Cu  Cu49  1  0.34267671  -0.00000000  0.33333333  1
  Cu  Cu50  1  0.34267671  -0.00000000  0.66666667  1
  Cu  Cu51  1  0.84267671  0.50000000  0.00000000  1
  Cu  Cu52  1  0.84267671  0.50000000  0.33333333  1
  Cu  Cu53  1  0.84267671  0.50000000  0.66666667  1
  Cu  Cu54  1  0.84267671  0.00000000  0.16666667  1
  Cu  Cu55  1  0.84267671  0.00000000  0.50000000  1
  Cu  Cu56  1  0.84267671  0.00000000  0.83333333  1
  Cu  Cu57  1  1.34267671  0.50000000  0.16666667  1
  Cu  Cu58  1  1.34267671  0.50000000  0.50000000  1
  Cu  Cu59  1  1.34267671  0.50000000  0.83333333  1
  Cu  Cu60  1  0.15732329  -0.00000000  0.16666667  1
  Cu  Cu61  1  0.15732329  -0.00000000  0.50000000  1
  Cu  Cu62  1  0.15732329  -0.00000000  0.83333333  1
  Cu  Cu63  1  0.65732329  0.50000000  0.16666667  1
  Cu  Cu64  1  0.65732329  0.50000000  0.50000000  1
  Cu  Cu65  1  0.65732329  0.50000000  0.83333333  1
  Cu  Cu66  1  0.65732329  -0.00000000  0.33333333  1
  Cu  Cu67  1  0.65732329  -0.00000000  0.66666667  1
  Cu  Cu68  1  0.65732329  -0.00000000  1.00000000  1
  Cu  Cu69  1  1.15732329  0.50000000  0.33333333  1
  Cu  Cu70  1  1.15732329  0.50000000  0.66666667  1
  Cu  Cu71  1  1.15732329  0.50000000  1.00000000  1
  Cu  Cu72  1  -0.00000000  -0.15732329  0.16666667  1
  Cu  Cu73  1  -0.00000000  -0.15732329  0.50000000  1
  Cu  Cu74  1  -0.00000000  -0.15732329  0.83333333  1
  Cu  Cu75  1  0.50000000  0.34267671  0.16666667  1
  Cu  Cu76  1  0.50000000  0.34267671  0.50000000  1
  Cu  Cu77  1  0.50000000  0.34267671  0.83333333  1
  Cu  Cu78  1  0.50000000  -0.15732329  0.33333333  1
  Cu  Cu79  1  0.50000000  -0.15732329  0.66666667  1
  Cu  Cu80  1  0.50000000  -0.15732329  1.00000000  1
  Cu  Cu81  1  1.00000000  0.34267671  0.33333333  1
  Cu  Cu82  1  1.00000000  0.34267671  0.66666667  1
  Cu  Cu83  1  1.00000000  0.34267671  1.00000000  1
  Cu  Cu84  1  0.00000000  0.15732329  0.16666667  1
  Cu  Cu85  1  0.00000000  0.15732329  0.50000000  1
  Cu  Cu86  1  0.00000000  0.15732329  0.83333333  1
  Cu  Cu87  1  0.50000000  0.65732329  0.16666667  1
  Cu  Cu88  1  0.50000000  0.65732329  0.50000000  1
  Cu  Cu89  1  0.50000000  0.65732329  0.83333333  1
  Cu  Cu90  1  0.50000000  0.15732329  0.33333333  1
  Cu  Cu91  1  0.50000000  0.15732329  0.66666667  1
  Cu  Cu92  1  0.50000000  0.15732329  1.00000000  1
  Cu  Cu93  1  1.00000000  0.65732329  0.33333333  1
  Cu  Cu94  1  1.00000000  0.65732329  0.66666667  1
  Cu  Cu95  1  1.00000000  0.65732329  1.00000000  1
  O  O96  1  0.15425010  -0.15425010  0.16666667  1
  O  O97  1  0.15425010  -0.15425010  0.50000000  1
  O  O98  1  0.15425010  -0.15425010  0.83333333  1
  O  O99  1  0.65425010  0.34574990  0.16666667  1
  O  O100  1  0.65425010  0.34574990  0.50000000  1
  O  O101  1  0.65425010  0.34574990  0.83333333  1
  O  O102  1  0.65425010  -0.15425010  0.33333333  1
  O  O103  1  0.65425010  -0.15425010  0.66666667  1
  O  O104  1  0.65425010  -0.15425010  1.00000000  1
  O  O105  1  1.15425010  0.34574990  0.33333333  1
  O  O106  1  1.15425010  0.34574990  0.66666667  1
  O  O107  1  1.15425010  0.34574990  1.00000000  1
  O  O108  1  0.34574990  0.15425010  0.00000000  1
  O  O109  1  0.34574990  0.15425010  0.33333333  1
  O  O110  1  0.34574990  0.15425010  0.66666667  1
  O  O111  1  0.84574990  0.65425010  0.00000000  1
  O  O112  1  0.84574990  0.65425010  0.33333333  1
  O  O113  1  0.84574990  0.65425010  0.66666667  1
  O  O114  1  0.84574990  0.15425010  0.16666667  1
  O  O115  1  0.84574990  0.15425010  0.50000000  1
  O  O116  1  0.84574990  0.15425010  0.83333333  1
  O  O117  1  1.34574990  0.65425010  0.16666667  1
  O  O118  1  1.34574990  0.65425010  0.50000000  1
  O  O119  1  1.34574990  0.65425010  0.83333333  1
  O  O120  1  0.15425010  0.15425010  0.16666667  1
  O  O121  1  0.15425010  0.15425010  0.50000000  1
  O  O122  1  0.15425010  0.15425010  0.83333333  1
  O  O123  1  0.65425010  0.65425010  0.16666667  1
  O  O124  1  0.65425010  0.65425010  0.50000000  1
  O  O125  1  0.65425010  0.65425010  0.83333333  1
  O  O126  1  0.65425010  0.15425010  0.33333333  1
  O  O127  1  0.65425010  0.15425010  0.66666667  1
  O  O128  1  0.65425010  0.15425010  1.00000000  1
  O  O129  1  1.15425010  0.65425010  0.33333333  1
  O  O130  1  1.15425010  0.65425010  0.66666667  1
  O  O131  1  1.15425010  0.65425010  1.00000000  1
  O  O132  1  0.34574990  -0.15425010  0.00000000  1
  O  O133  1  0.34574990  -0.15425010  0.33333333  1
  O  O134  1  0.34574990  -0.15425010  0.66666667  1
  O  O135  1  0.84574990  0.34574990  0.00000000  1
  O  O136  1  0.84574990  0.34574990  0.33333333  1
  O  O137  1  0.84574990  0.34574990  0.66666667  1
  O  O138  1  0.84574990  -0.15425010  0.16666667  1
  O  O139  1  0.84574990  -0.15425010  0.50000000  1
  O  O140  1  0.84574990  -0.15425010  0.83333333  1
  O  O141  1  1.34574990  0.34574990  0.16666667  1
  O  O142  1  1.34574990  0.34574990  0.50000000  1
  O  O143  1  1.34574990  0.34574990  0.83333333  1
