# generated using pymatgen
data_K3ScSi2O7
_symmetry_space_group_name_H-M   'P 1'
_cell_length_a   16.86711471
_cell_length_b   16.86711471
_cell_length_c   13.72172048
_cell_angle_alpha   90.00000000
_cell_angle_beta   90.00000000
_cell_angle_gamma   120.00000000
_symmetry_Int_Tables_number   1
_chemical_formula_structural   K3ScSi2O7
_chemical_formula_sum   'K54 Sc18 Si36 O126'
_cell_volume   3380.81025449
_cell_formula_units_Z   18
loop_
 _symmetry_equiv_pos_site_id
 _symmetry_equiv_pos_as_xyz
  1  'x, y, z'
loop_
 _atom_site_type_symbol
 _atom_site_label
 _atom_site_symmetry_multiplicity
 _atom_site_fract_x
 _atom_site_fract_y
 _atom_site_fract_z
 _atom_site_occupancy
  K  K0  1  0.22222222  0.11111111  0.90818651  1
  K  K1  1  0.22222222  0.44444444  0.90818651  1
  K  K2  1  0.22222222  0.77777778  0.90818651  1
  K  K3  1  0.55555556  0.11111111  0.90818651  1
  K  K4  1  0.55555556  0.44444444  0.90818651  1
  K  K5  1  0.55555556  0.77777778  0.90818651  1
  K  K6  1  0.88888889  0.11111111  0.90818651  1
  K  K7  1  0.88888889  0.44444444  0.90818651  1
  K  K8  1  0.88888889  0.77777778  0.90818651  1
  K  K9  1  0.00000000  0.00000000  0.75000000  1
  K  K10  1  0.00000000  0.33333333  0.75000000  1
  K  K11  1  0.00000000  0.66666667  0.75000000  1
  K  K12  1  0.33333333  0.00000000  0.75000000  1
  K  K13  1  0.33333333  0.33333333  0.75000000  1
  K  K14  1  0.33333333  0.66666667  0.75000000  1
  K  K15  1  0.66666667  0.00000000  0.75000000  1
  K  K16  1  0.66666667  0.33333333  0.75000000  1
  K  K17  1  0.66666667  0.66666667  0.75000000  1
  K  K18  1  0.11111111  0.22222222  0.09181349  1
  K  K19  1  0.11111111  0.55555556  0.09181349  1
  K  K20  1  0.11111111  0.88888889  0.09181349  1
  K  K21  1  0.44444444  0.22222222  0.09181349  1
  K  K22  1  0.44444444  0.55555556  0.09181349  1
  K  K23  1  0.44444444  0.88888889  0.09181349  1
  K  K24  1  0.77777778  0.22222222  0.09181349  1
  K  K25  1  0.77777778  0.55555556  0.09181349  1
  K  K26  1  0.77777778  0.88888889  0.09181349  1
  K  K27  1  0.22222222  0.11111111  0.59181349  1
  K  K28  1  0.22222222  0.44444444  0.59181349  1
  K  K29  1  0.22222222  0.77777778  0.59181349  1
  K  K30  1  0.55555556  0.11111111  0.59181349  1
  K  K31  1  0.55555556  0.44444444  0.59181349  1
  K  K32  1  0.55555556  0.77777778  0.59181349  1
  K  K33  1  0.88888889  0.11111111  0.59181349  1
  K  K34  1  0.88888889  0.44444444  0.59181349  1
  K  K35  1  0.88888889  0.77777778  0.59181349  1
  K  K36  1  0.11111111  0.22222222  0.40818651  1
  K  K37  1  0.11111111  0.55555556  0.40818651  1
  K  K38  1  0.11111111  0.88888889  0.40818651  1
  K  K39  1  0.44444444  0.22222222  0.40818651  1
  K  K40  1  0.44444444  0.55555556  0.40818651  1
  K  K41  1  0.44444444  0.88888889  0.40818651  1
  K  K42  1  0.77777778  0.22222222  0.40818651  1
  K  K43  1  0.77777778  0.55555556  0.40818651  1
  K  K44  1  0.77777778  0.88888889  0.40818651  1
  K  K45  1  0.00000000  0.00000000  0.25000000  1
  K  K46  1  0.00000000  0.33333333  0.25000000  1
  K  K47  1  0.00000000  0.66666667  0.25000000  1
  K  K48  1  0.33333333  0.00000000  0.25000000  1
  K  K49  1  0.33333333  0.33333333  0.25000000  1
  K  K50  1  0.33333333  0.66666667  0.25000000  1
  K  K51  1  0.66666667  0.00000000  0.25000000  1
  K  K52  1  0.66666667  0.33333333  0.25000000  1
  K  K53  1  0.66666667  0.66666667  0.25000000  1
  Sc  Sc54  1  0.00000000  0.00000000  0.00000000  1
  Sc  Sc55  1  0.00000000  0.33333333  0.00000000  1
  Sc  Sc56  1  0.00000000  0.66666667  0.00000000  1
  Sc  Sc57  1  0.33333333  0.00000000  0.00000000  1
  Sc  Sc58  1  0.33333333  0.33333333  0.00000000  1
  Sc  Sc59  1  0.33333333  0.66666667  0.00000000  1
  Sc  Sc60  1  0.66666667  0.00000000  0.00000000  1
  Sc  Sc61  1  0.66666667  0.33333333  0.00000000  1
  Sc  Sc62  1  0.66666667  0.66666667  0.00000000  1
  Sc  Sc63  1  0.00000000  0.00000000  0.50000000  1
  Sc  Sc64  1  0.00000000  0.33333333  0.50000000  1
  Sc  Sc65  1  0.00000000  0.66666667  0.50000000  1
  Sc  Sc66  1  0.33333333  0.00000000  0.50000000  1
  Sc  Sc67  1  0.33333333  0.33333333  0.50000000  1
  Sc  Sc68  1  0.33333333  0.66666667  0.50000000  1
  Sc  Sc69  1  0.66666667  0.00000000  0.50000000  1
  Sc  Sc70  1  0.66666667  0.33333333  0.50000000  1
  Sc  Sc71  1  0.66666667  0.66666667  0.50000000  1
  Si  Si72  1  0.22222222  0.11111111  0.12859193  1
  Si  Si73  1  0.22222222  0.44444444  0.12859193  1
  Si  Si74  1  0.22222222  0.77777778  0.12859193  1
  Si  Si75  1  0.55555556  0.11111111  0.12859193  1
  Si  Si76  1  0.55555556  0.44444444  0.12859193  1
  Si  Si77  1  0.55555556  0.77777778  0.12859193  1
  Si  Si78  1  0.88888889  0.11111111  0.12859193  1
  Si  Si79  1  0.88888889  0.44444444  0.12859193  1
  Si  Si80  1  0.88888889  0.77777778  0.12859193  1
  Si  Si81  1  0.11111111  0.22222222  0.87140807  1
  Si  Si82  1  0.11111111  0.55555556  0.87140807  1
  Si  Si83  1  0.11111111  0.88888889  0.87140807  1
  Si  Si84  1  0.44444444  0.22222222  0.87140807  1
  Si  Si85  1  0.44444444  0.55555556  0.87140807  1
  Si  Si86  1  0.44444444  0.88888889  0.87140807  1
  Si  Si87  1  0.77777778  0.22222222  0.87140807  1
  Si  Si88  1  0.77777778  0.55555556  0.87140807  1
  Si  Si89  1  0.77777778  0.88888889  0.87140807  1
  Si  Si90  1  0.11111111  0.22222222  0.62859193  1
  Si  Si91  1  0.11111111  0.55555556  0.62859193  1
  Si  Si92  1  0.11111111  0.88888889  0.62859193  1
  Si  Si93  1  0.44444444  0.22222222  0.62859193  1
  Si  Si94  1  0.44444444  0.55555556  0.62859193  1
  Si  Si95  1  0.44444444  0.88888889  0.62859193  1
  Si  Si96  1  0.77777778  0.22222222  0.62859193  1
  Si  Si97  1  0.77777778  0.55555556  0.62859193  1
  Si  Si98  1  0.77777778  0.88888889  0.62859193  1
  Si  Si99  1  0.22222222  0.11111111  0.37140807  1
  Si  Si100  1  0.22222222  0.44444444  0.37140807  1
  Si  Si101  1  0.22222222  0.77777778  0.37140807  1
  Si  Si102  1  0.55555556  0.11111111  0.37140807  1
  Si  Si103  1  0.55555556  0.44444444  0.37140807  1
  Si  Si104  1  0.55555556  0.77777778  0.37140807  1
  Si  Si105  1  0.88888889  0.11111111  0.37140807  1
  Si  Si106  1  0.88888889  0.44444444  0.37140807  1
  Si  Si107  1  0.88888889  0.77777778  0.37140807  1
  O  O108  1  0.05800929  0.27532404  0.90847203  1
  O  O109  1  0.05800929  0.60865738  0.90847203  1
  O  O110  1  0.05800929  0.94199071  0.90847203  1
  O  O111  1  0.39134262  0.27532404  0.90847203  1
  O  O112  1  0.39134262  0.60865738  0.90847203  1
  O  O113  1  0.39134262  0.94199071  0.90847203  1
  O  O114  1  0.72467596  0.27532404  0.90847203  1
  O  O115  1  0.72467596  0.60865738  0.90847203  1
  O  O116  1  0.72467596  0.94199071  0.90847203  1
  O  O117  1  0.05800929  0.11601858  0.59152797  1
  O  O118  1  0.05800929  0.44935191  0.59152797  1
  O  O119  1  0.05800929  0.78268524  0.59152797  1
  O  O120  1  0.39134262  0.11601858  0.59152797  1
  O  O121  1  0.39134262  0.44935191  0.59152797  1
  O  O122  1  0.39134262  0.78268524  0.59152797  1
  O  O123  1  0.72467596  0.11601858  0.59152797  1
  O  O124  1  0.72467596  0.44935191  0.59152797  1
  O  O125  1  0.72467596  0.78268524  0.59152797  1
  O  O126  1  0.11601858  0.05800929  0.09152797  1
  O  O127  1  0.11601858  0.39134262  0.09152797  1
  O  O128  1  0.11601858  0.72467596  0.09152797  1
  O  O129  1  0.44935191  0.05800929  0.09152797  1
  O  O130  1  0.44935191  0.39134262  0.09152797  1
  O  O131  1  0.44935191  0.72467596  0.09152797  1
  O  O132  1  0.78268524  0.05800929  0.09152797  1
  O  O133  1  0.78268524  0.39134262  0.09152797  1
  O  O134  1  0.78268524  0.72467596  0.09152797  1
  O  O135  1  0.27532404  0.21731476  0.40847203  1
  O  O136  1  0.27532404  0.55064809  0.40847203  1
  O  O137  1  0.27532404  0.88398142  0.40847203  1
  O  O138  1  0.60865738  0.21731476  0.40847203  1
  O  O139  1  0.60865738  0.55064809  0.40847203  1
  O  O140  1  0.60865738  0.88398142  0.40847203  1
  O  O141  1  0.94199071  0.21731476  0.40847203  1
  O  O142  1  0.94199071  0.55064809  0.40847203  1
  O  O143  1  0.94199071  0.88398142  0.40847203  1
  O  O144  1  0.27532404  0.05800929  0.40847203  1
  O  O145  1  0.27532404  0.39134262  0.40847203  1
  O  O146  1  0.27532404  0.72467596  0.40847203  1
  O  O147  1  0.60865738  0.05800929  0.40847203  1
  O  O148  1  0.60865738  0.39134262  0.40847203  1
  O  O149  1  0.60865738  0.72467596  0.40847203  1
  O  O150  1  0.94199071  0.05800929  0.40847203  1
  O  O151  1  0.94199071  0.39134262  0.40847203  1
  O  O152  1  0.94199071  0.72467596  0.40847203  1
  O  O153  1  0.27532404  0.05800929  0.09152797  1
  O  O154  1  0.27532404  0.39134262  0.09152797  1
  O  O155  1  0.27532404  0.72467596  0.09152797  1
  O  O156  1  0.60865738  0.05800929  0.09152797  1
  O  O157  1  0.60865738  0.39134262  0.09152797  1
  O  O158  1  0.60865738  0.72467596  0.09152797  1
  O  O159  1  0.94199071  0.05800929  0.09152797  1
  O  O160  1  0.94199071  0.39134262  0.09152797  1
  O  O161  1  0.94199071  0.72467596  0.09152797  1
  O  O162  1  0.05800929  0.27532404  0.59152797  1
  O  O163  1  0.05800929  0.60865738  0.59152797  1
  O  O164  1  0.05800929  0.94199071  0.59152797  1
  O  O165  1  0.39134262  0.27532404  0.59152797  1
  O  O166  1  0.39134262  0.60865738  0.59152797  1
  O  O167  1  0.39134262  0.94199071  0.59152797  1
  O  O168  1  0.72467596  0.27532404  0.59152797  1
  O  O169  1  0.72467596  0.60865738  0.59152797  1
  O  O170  1  0.72467596  0.94199071  0.59152797  1
  O  O171  1  0.27532404  0.21731476  0.09152797  1
  O  O172  1  0.27532404  0.55064809  0.09152797  1
  O  O173  1  0.27532404  0.88398142  0.09152797  1
  O  O174  1  0.60865738  0.21731476  0.09152797  1
  O  O175  1  0.60865738  0.55064809  0.09152797  1
  O  O176  1  0.60865738  0.88398142  0.09152797  1
  O  O177  1  0.94199071  0.21731476  0.09152797  1
  O  O178  1  0.94199071  0.55064809  0.09152797  1
  O  O179  1  0.94199071  0.88398142  0.09152797  1
  O  O180  1  0.05800929  0.11601858  0.90847203  1
  O  O181  1  0.05800929  0.44935191  0.90847203  1
  O  O182  1  0.05800929  0.78268524  0.90847203  1
  O  O183  1  0.39134262  0.11601858  0.90847203  1
  O  O184  1  0.39134262  0.44935191  0.90847203  1
  O  O185  1  0.39134262  0.78268524  0.90847203  1
  O  O186  1  0.72467596  0.11601858  0.90847203  1
  O  O187  1  0.72467596  0.44935191  0.90847203  1
  O  O188  1  0.72467596  0.78268524  0.90847203  1
  O  O189  1  0.11601858  0.05800929  0.40847203  1
  O  O190  1  0.11601858  0.39134262  0.40847203  1
  O  O191  1  0.11601858  0.72467596  0.40847203  1
  O  O192  1  0.44935191  0.05800929  0.40847203  1
  O  O193  1  0.44935191  0.39134262  0.40847203  1
  O  O194  1  0.44935191  0.72467596  0.40847203  1
  O  O195  1  0.78268524  0.05800929  0.40847203  1
  O  O196  1  0.78268524  0.39134262  0.40847203  1
  O  O197  1  0.78268524  0.72467596  0.40847203  1
  O  O198  1  0.21731476  0.27532404  0.59152797  1
  O  O199  1  0.21731476  0.60865738  0.59152797  1
  O  O200  1  0.21731476  0.94199071  0.59152797  1
  O  O201  1  0.55064809  0.27532404  0.59152797  1
  O  O202  1  0.55064809  0.60865738  0.59152797  1
  O  O203  1  0.55064809  0.94199071  0.59152797  1
  O  O204  1  0.88398142  0.27532404  0.59152797  1
  O  O205  1  0.88398142  0.60865738  0.59152797  1
  O  O206  1  0.88398142  0.94199071  0.59152797  1
  O  O207  1  0.21731476  0.27532404  0.90847203  1
  O  O208  1  0.21731476  0.60865738  0.90847203  1
  O  O209  1  0.21731476  0.94199071  0.90847203  1
  O  O210  1  0.55064809  0.27532404  0.90847203  1
  O  O211  1  0.55064809  0.60865738  0.90847203  1
  O  O212  1  0.55064809  0.94199071  0.90847203  1
  O  O213  1  0.88398142  0.27532404  0.90847203  1
  O  O214  1  0.88398142  0.60865738  0.90847203  1
  O  O215  1  0.88398142  0.94199071  0.90847203  1
  O  O216  1  0.11111111  0.22222222  0.75000000  1
  O  O217  1  0.11111111  0.55555556  0.75000000  1
  O  O218  1  0.11111111  0.88888889  0.75000000  1
  O  O219  1  0.44444444  0.22222222  0.75000000  1
  O  O220  1  0.44444444  0.55555556  0.75000000  1
  O  O221  1  0.44444444  0.88888889  0.75000000  1
  O  O222  1  0.77777778  0.22222222  0.75000000  1
  O  O223  1  0.77777778  0.55555556  0.75000000  1
  O  O224  1  0.77777778  0.88888889  0.75000000  1
  O  O225  1  0.22222222  0.11111111  0.25000000  1
  O  O226  1  0.22222222  0.44444444  0.25000000  1
  O  O227  1  0.22222222  0.77777778  0.25000000  1
  O  O228  1  0.55555556  0.11111111  0.25000000  1
  O  O229  1  0.55555556  0.44444444  0.25000000  1
  O  O230  1  0.55555556  0.77777778  0.25000000  1
  O  O231  1  0.88888889  0.11111111  0.25000000  1
  O  O232  1  0.88888889  0.44444444  0.25000000  1
  O  O233  1  0.88888889  0.77777778  0.25000000  1
