# generated using pymatgen
data_TiPbO3
_symmetry_space_group_name_H-M   'P 1'
_cell_length_a   16.51110382
_cell_length_b   16.51110382
_cell_length_c   16.43577236
_cell_angle_alpha   90.00000000
_cell_angle_beta   90.00000000
_cell_angle_gamma   90.00000000
_symmetry_Int_Tables_number   1
_chemical_formula_structural   TiPbO3
_chemical_formula_sum   'Ti72 Pb72 O216'
_cell_volume   4480.66354594
_cell_formula_units_Z   72
loop_
 _symmetry_equiv_pos_site_id
 _symmetry_equiv_pos_as_xyz
  1  'x, y, z'
loop_
 _atom_site_type_symbol
 _atom_site_label
 _atom_site_symmetry_multiplicity
 _atom_site_fract_x
 _atom_site_fract_y
 _atom_site_fract_z
 _atom_site_occupancy
  Ti  Ti0  1  0.16666667  0.66666667  0.13600187  1
  Ti  Ti1  1  0.16666667  0.66666667  0.38600187  1
  Ti  Ti2  1  0.16666667  0.66666667  0.63600187  1
  Ti  Ti3  1  0.16666667  0.66666667  0.88600187  1
  Ti  Ti4  1  0.33333333  0.83333333  0.13600187  1
  Ti  Ti5  1  0.33333333  0.83333333  0.38600187  1
  Ti  Ti6  1  0.33333333  0.83333333  0.63600187  1
  Ti  Ti7  1  0.33333333  0.83333333  0.88600187  1
  Ti  Ti8  1  0.16666667  0.33333333  0.13600187  1
  Ti  Ti9  1  0.16666667  0.33333333  0.38600187  1
  Ti  Ti10  1  0.16666667  0.33333333  0.63600187  1
  Ti  Ti11  1  0.16666667  0.33333333  0.88600187  1
  Ti  Ti12  1  0.33333333  0.50000000  0.13600187  1
  Ti  Ti13  1  0.33333333  0.50000000  0.38600187  1
  Ti  Ti14  1  0.33333333  0.50000000  0.63600187  1
  Ti  Ti15  1  0.33333333  0.50000000  0.88600187  1
  Ti  Ti16  1  0.50000000  0.66666667  0.13600187  1
  Ti  Ti17  1  0.50000000  0.66666667  0.38600187  1
  Ti  Ti18  1  0.50000000  0.66666667  0.63600187  1
  Ti  Ti19  1  0.50000000  0.66666667  0.88600187  1
  Ti  Ti20  1  0.66666667  0.83333333  0.13600187  1
  Ti  Ti21  1  0.66666667  0.83333333  0.38600187  1
  Ti  Ti22  1  0.66666667  0.83333333  0.63600187  1
  Ti  Ti23  1  0.66666667  0.83333333  0.88600187  1
  Ti  Ti24  1  0.16666667  -0.00000000  0.13600187  1
  Ti  Ti25  1  0.16666667  -0.00000000  0.38600187  1
  Ti  Ti26  1  0.16666667  -0.00000000  0.63600187  1
  Ti  Ti27  1  0.16666667  -0.00000000  0.88600187  1
  Ti  Ti28  1  0.33333333  0.16666667  0.13600187  1
  Ti  Ti29  1  0.33333333  0.16666667  0.38600187  1
  Ti  Ti30  1  0.33333333  0.16666667  0.63600187  1
  Ti  Ti31  1  0.33333333  0.16666667  0.88600187  1
  Ti  Ti32  1  0.50000000  0.33333333  0.13600187  1
  Ti  Ti33  1  0.50000000  0.33333333  0.38600187  1
  Ti  Ti34  1  0.50000000  0.33333333  0.63600187  1
  Ti  Ti35  1  0.50000000  0.33333333  0.88600187  1
  Ti  Ti36  1  0.66666667  0.50000000  0.13600187  1
  Ti  Ti37  1  0.66666667  0.50000000  0.38600187  1
  Ti  Ti38  1  0.66666667  0.50000000  0.63600187  1
  Ti  Ti39  1  0.66666667  0.50000000  0.88600187  1
  Ti  Ti40  1  0.83333333  0.66666667  0.13600187  1
  Ti  Ti41  1  0.83333333  0.66666667  0.38600187  1
  Ti  Ti42  1  0.83333333  0.66666667  0.63600187  1
  Ti  Ti43  1  0.83333333  0.66666667  0.88600187  1
  Ti  Ti44  1  1.00000000  0.83333333  0.13600187  1
  Ti  Ti45  1  1.00000000  0.83333333  0.38600187  1
  Ti  Ti46  1  1.00000000  0.83333333  0.63600187  1
  Ti  Ti47  1  1.00000000  0.83333333  0.88600187  1
  Ti  Ti48  1  0.50000000  0.00000000  0.13600187  1
  Ti  Ti49  1  0.50000000  0.00000000  0.38600187  1
  Ti  Ti50  1  0.50000000  0.00000000  0.63600187  1
  Ti  Ti51  1  0.50000000  0.00000000  0.88600187  1
  Ti  Ti52  1  0.66666667  0.16666667  0.13600187  1
  Ti  Ti53  1  0.66666667  0.16666667  0.38600187  1
  Ti  Ti54  1  0.66666667  0.16666667  0.63600187  1
  Ti  Ti55  1  0.66666667  0.16666667  0.88600187  1
  Ti  Ti56  1  0.83333333  0.33333333  0.13600187  1
  Ti  Ti57  1  0.83333333  0.33333333  0.38600187  1
  Ti  Ti58  1  0.83333333  0.33333333  0.63600187  1
  Ti  Ti59  1  0.83333333  0.33333333  0.88600187  1
  Ti  Ti60  1  1.00000000  0.50000000  0.13600187  1
  Ti  Ti61  1  1.00000000  0.50000000  0.38600187  1
  Ti  Ti62  1  1.00000000  0.50000000  0.63600187  1
  Ti  Ti63  1  1.00000000  0.50000000  0.88600187  1
  Ti  Ti64  1  0.83333333  0.00000000  0.13600187  1
  Ti  Ti65  1  0.83333333  0.00000000  0.38600187  1
  Ti  Ti66  1  0.83333333  0.00000000  0.63600187  1
  Ti  Ti67  1  0.83333333  0.00000000  0.88600187  1
  Ti  Ti68  1  1.00000000  0.16666667  0.13600187  1
  Ti  Ti69  1  1.00000000  0.16666667  0.38600187  1
  Ti  Ti70  1  1.00000000  0.16666667  0.63600187  1
  Ti  Ti71  1  1.00000000  0.16666667  0.88600187  1
  Pb  Pb72  1  0.00000000  0.66666667  0.00111974  1
  Pb  Pb73  1  0.00000000  0.66666667  0.25111974  1
  Pb  Pb74  1  0.00000000  0.66666667  0.50111974  1
  Pb  Pb75  1  0.00000000  0.66666667  0.75111974  1
  Pb  Pb76  1  0.16666667  0.83333333  0.00111974  1
  Pb  Pb77  1  0.16666667  0.83333333  0.25111974  1
  Pb  Pb78  1  0.16666667  0.83333333  0.50111974  1
  Pb  Pb79  1  0.16666667  0.83333333  0.75111974  1
  Pb  Pb80  1  0.00000000  0.33333333  0.00111974  1
  Pb  Pb81  1  0.00000000  0.33333333  0.25111974  1
  Pb  Pb82  1  0.00000000  0.33333333  0.50111974  1
  Pb  Pb83  1  0.00000000  0.33333333  0.75111974  1
  Pb  Pb84  1  0.16666667  0.50000000  0.00111974  1
  Pb  Pb85  1  0.16666667  0.50000000  0.25111974  1
  Pb  Pb86  1  0.16666667  0.50000000  0.50111974  1
  Pb  Pb87  1  0.16666667  0.50000000  0.75111974  1
  Pb  Pb88  1  0.33333333  0.66666667  0.00111974  1
  Pb  Pb89  1  0.33333333  0.66666667  0.25111974  1
  Pb  Pb90  1  0.33333333  0.66666667  0.50111974  1
  Pb  Pb91  1  0.33333333  0.66666667  0.75111974  1
  Pb  Pb92  1  0.50000000  0.83333333  0.00111974  1
  Pb  Pb93  1  0.50000000  0.83333333  0.25111974  1
  Pb  Pb94  1  0.50000000  0.83333333  0.50111974  1
  Pb  Pb95  1  0.50000000  0.83333333  0.75111974  1
  Pb  Pb96  1  0.00000000  0.00000000  0.00111974  1
  Pb  Pb97  1  0.00000000  0.00000000  0.25111974  1
  Pb  Pb98  1  0.00000000  0.00000000  0.50111974  1
  Pb  Pb99  1  0.00000000  0.00000000  0.75111974  1
  Pb  Pb100  1  0.16666667  0.16666667  0.00111974  1
  Pb  Pb101  1  0.16666667  0.16666667  0.25111974  1
  Pb  Pb102  1  0.16666667  0.16666667  0.50111974  1
  Pb  Pb103  1  0.16666667  0.16666667  0.75111974  1
  Pb  Pb104  1  0.33333333  0.33333333  0.00111974  1
  Pb  Pb105  1  0.33333333  0.33333333  0.25111974  1
  Pb  Pb106  1  0.33333333  0.33333333  0.50111974  1
  Pb  Pb107  1  0.33333333  0.33333333  0.75111974  1
  Pb  Pb108  1  0.50000000  0.50000000  0.00111974  1
  Pb  Pb109  1  0.50000000  0.50000000  0.25111974  1
  Pb  Pb110  1  0.50000000  0.50000000  0.50111974  1
  Pb  Pb111  1  0.50000000  0.50000000  0.75111974  1
  Pb  Pb112  1  0.66666667  0.66666667  0.00111974  1
  Pb  Pb113  1  0.66666667  0.66666667  0.25111974  1
  Pb  Pb114  1  0.66666667  0.66666667  0.50111974  1
  Pb  Pb115  1  0.66666667  0.66666667  0.75111974  1
  Pb  Pb116  1  0.83333333  0.83333333  0.00111974  1
  Pb  Pb117  1  0.83333333  0.83333333  0.25111974  1
  Pb  Pb118  1  0.83333333  0.83333333  0.50111974  1
  Pb  Pb119  1  0.83333333  0.83333333  0.75111974  1
  Pb  Pb120  1  0.33333333  0.00000000  0.00111974  1
  Pb  Pb121  1  0.33333333  0.00000000  0.25111974  1
  Pb  Pb122  1  0.33333333  0.00000000  0.50111974  1
  Pb  Pb123  1  0.33333333  0.00000000  0.75111974  1
  Pb  Pb124  1  0.50000000  0.16666667  0.00111974  1
  Pb  Pb125  1  0.50000000  0.16666667  0.25111974  1
  Pb  Pb126  1  0.50000000  0.16666667  0.50111974  1
  Pb  Pb127  1  0.50000000  0.16666667  0.75111974  1
  Pb  Pb128  1  0.66666667  0.33333333  0.00111974  1
  Pb  Pb129  1  0.66666667  0.33333333  0.25111974  1
  Pb  Pb130  1  0.66666667  0.33333333  0.50111974  1
  Pb  Pb131  1  0.66666667  0.33333333  0.75111974  1
  Pb  Pb132  1  0.83333333  0.50000000  0.00111974  1
  Pb  Pb133  1  0.83333333  0.50000000  0.25111974  1
  Pb  Pb134  1  0.83333333  0.50000000  0.50111974  1
  Pb  Pb135  1  0.83333333  0.50000000  0.75111974  1
  Pb  Pb136  1  0.66666667  0.00000000  0.00111974  1
  Pb  Pb137  1  0.66666667  0.00000000  0.25111974  1
  Pb  Pb138  1  0.66666667  0.00000000  0.50111974  1
  Pb  Pb139  1  0.66666667  0.00000000  0.75111974  1
  Pb  Pb140  1  0.83333333  0.16666667  0.00111974  1
  Pb  Pb141  1  0.83333333  0.16666667  0.25111974  1
  Pb  Pb142  1  0.83333333  0.16666667  0.50111974  1
  Pb  Pb143  1  0.83333333  0.16666667  0.75111974  1
  O  O144  1  0.16666667  0.66666667  0.02558316  1
  O  O145  1  0.16666667  0.66666667  0.27558316  1
  O  O146  1  0.16666667  0.66666667  0.52558316  1
  O  O147  1  0.16666667  0.66666667  0.77558316  1
  O  O148  1  0.33333333  0.83333333  0.02558316  1
  O  O149  1  0.33333333  0.83333333  0.27558316  1
  O  O150  1  0.33333333  0.83333333  0.52558316  1
  O  O151  1  0.33333333  0.83333333  0.77558316  1
  O  O152  1  0.16666667  0.33333333  0.02558316  1
  O  O153  1  0.16666667  0.33333333  0.27558316  1
  O  O154  1  0.16666667  0.33333333  0.52558316  1
  O  O155  1  0.16666667  0.33333333  0.77558316  1
  O  O156  1  0.33333333  0.50000000  0.02558316  1
  O  O157  1  0.33333333  0.50000000  0.27558316  1
  O  O158  1  0.33333333  0.50000000  0.52558316  1
  O  O159  1  0.33333333  0.50000000  0.77558316  1
  O  O160  1  0.50000000  0.66666667  0.02558316  1
  O  O161  1  0.50000000  0.66666667  0.27558316  1
  O  O162  1  0.50000000  0.66666667  0.52558316  1
  O  O163  1  0.50000000  0.66666667  0.77558316  1
  O  O164  1  0.66666667  0.83333333  0.02558316  1
  O  O165  1  0.66666667  0.83333333  0.27558316  1
  O  O166  1  0.66666667  0.83333333  0.52558316  1
  O  O167  1  0.66666667  0.83333333  0.77558316  1
  O  O168  1  0.16666667  -0.00000000  0.02558316  1
  O  O169  1  0.16666667  -0.00000000  0.27558316  1
  O  O170  1  0.16666667  -0.00000000  0.52558316  1
  O  O171  1  0.16666667  -0.00000000  0.77558316  1
  O  O172  1  0.33333333  0.16666667  0.02558316  1
  O  O173  1  0.33333333  0.16666667  0.27558316  1
  O  O174  1  0.33333333  0.16666667  0.52558316  1
  O  O175  1  0.33333333  0.16666667  0.77558316  1
  O  O176  1  0.50000000  0.33333333  0.02558316  1
  O  O177  1  0.50000000  0.33333333  0.27558316  1
  O  O178  1  0.50000000  0.33333333  0.52558316  1
  O  O179  1  0.50000000  0.33333333  0.77558316  1
  O  O180  1  0.66666667  0.50000000  0.02558316  1
  O  O181  1  0.66666667  0.50000000  0.27558316  1
  O  O182  1  0.66666667  0.50000000  0.52558316  1
  O  O183  1  0.66666667  0.50000000  0.77558316  1
  O  O184  1  0.83333333  0.66666667  0.02558316  1
  O  O185  1  0.83333333  0.66666667  0.27558316  1
  O  O186  1  0.83333333  0.66666667  0.52558316  1
  O  O187  1  0.83333333  0.66666667  0.77558316  1
  O  O188  1  1.00000000  0.83333333  0.02558316  1
  O  O189  1  1.00000000  0.83333333  0.27558316  1
  O  O190  1  1.00000000  0.83333333  0.52558316  1
  O  O191  1  1.00000000  0.83333333  0.77558316  1
  O  O192  1  0.50000000  0.00000000  0.02558316  1
  O  O193  1  0.50000000  0.00000000  0.27558316  1
  O  O194  1  0.50000000  0.00000000  0.52558316  1
  O  O195  1  0.50000000  0.00000000  0.77558316  1
  O  O196  1  0.66666667  0.16666667  0.02558316  1
  O  O197  1  0.66666667  0.16666667  0.27558316  1
  O  O198  1  0.66666667  0.16666667  0.52558316  1
  O  O199  1  0.66666667  0.16666667  0.77558316  1
  O  O200  1  0.83333333  0.33333333  0.02558316  1
  O  O201  1  0.83333333  0.33333333  0.27558316  1
  O  O202  1  0.83333333  0.33333333  0.52558316  1
  O  O203  1  0.83333333  0.33333333  0.77558316  1
  O  O204  1  1.00000000  0.50000000  0.02558316  1
  O  O205  1  1.00000000  0.50000000  0.27558316  1
  O  O206  1  1.00000000  0.50000000  0.52558316  1
  O  O207  1  1.00000000  0.50000000  0.77558316  1
  O  O208  1  0.83333333  0.00000000  0.02558316  1
  O  O209  1  0.83333333  0.00000000  0.27558316  1
  O  O210  1  0.83333333  0.00000000  0.52558316  1
  O  O211  1  0.83333333  0.00000000  0.77558316  1
  O  O212  1  1.00000000  0.16666667  0.02558316  1
  O  O213  1  1.00000000  0.16666667  0.27558316  1
  O  O214  1  1.00000000  0.16666667  0.52558316  1
  O  O215  1  1.00000000  0.16666667  0.77558316  1
  O  O216  1  0.08333333  0.75000000  0.15438512  1
  O  O217  1  0.08333333  0.75000000  0.40438512  1
  O  O218  1  0.08333333  0.75000000  0.65438512  1
  O  O219  1  0.08333333  0.75000000  0.90438512  1
  O  O220  1  0.25000000  0.91666667  0.15438512  1
  O  O221  1  0.25000000  0.91666667  0.40438512  1
  O  O222  1  0.25000000  0.91666667  0.65438512  1
  O  O223  1  0.25000000  0.91666667  0.90438512  1
  O  O224  1  0.08333333  0.41666667  0.15438512  1
  O  O225  1  0.08333333  0.41666667  0.40438512  1
  O  O226  1  0.08333333  0.41666667  0.65438512  1
  O  O227  1  0.08333333  0.41666667  0.90438512  1
  O  O228  1  0.25000000  0.58333333  0.15438512  1
  O  O229  1  0.25000000  0.58333333  0.40438512  1
  O  O230  1  0.25000000  0.58333333  0.65438512  1
  O  O231  1  0.25000000  0.58333333  0.90438512  1
  O  O232  1  0.41666667  0.75000000  0.15438512  1
  O  O233  1  0.41666667  0.75000000  0.40438512  1
  O  O234  1  0.41666667  0.75000000  0.65438512  1
  O  O235  1  0.41666667  0.75000000  0.90438512  1
  O  O236  1  0.58333333  0.91666667  0.15438512  1
  O  O237  1  0.58333333  0.91666667  0.40438512  1
  O  O238  1  0.58333333  0.91666667  0.65438512  1
  O  O239  1  0.58333333  0.91666667  0.90438512  1
  O  O240  1  0.08333333  0.08333333  0.15438512  1
  O  O241  1  0.08333333  0.08333333  0.40438512  1
  O  O242  1  0.08333333  0.08333333  0.65438512  1
  O  O243  1  0.08333333  0.08333333  0.90438512  1
  O  O244  1  0.25000000  0.25000000  0.15438512  1
  O  O245  1  0.25000000  0.25000000  0.40438512  1
  O  O246  1  0.25000000  0.25000000  0.65438512  1
  O  O247  1  0.25000000  0.25000000  0.90438512  1
  O  O248  1  0.41666667  0.41666667  0.15438512  1
  O  O249  1  0.41666667  0.41666667  0.40438512  1
  O  O250  1  0.41666667  0.41666667  0.65438512  1
  O  O251  1  0.41666667  0.41666667  0.90438512  1
  O  O252  1  0.58333333  0.58333333  0.15438512  1
  O  O253  1  0.58333333  0.58333333  0.40438512  1
  O  O254  1  0.58333333  0.58333333  0.65438512  1
  O  O255  1  0.58333333  0.58333333  0.90438512  1
  O  O256  1  0.75000000  0.75000000  0.15438512  1
  O  O257  1  0.75000000  0.75000000  0.40438512  1
  O  O258  1  0.75000000  0.75000000  0.65438512  1
  O  O259  1  0.75000000  0.75000000  0.90438512  1
  O  O260  1  0.91666667  0.91666667  0.15438512  1
  O  O261  1  0.91666667  0.91666667  0.40438512  1
  O  O262  1  0.91666667  0.91666667  0.65438512  1
  O  O263  1  0.91666667  0.91666667  0.90438512  1
  O  O264  1  0.41666667  0.08333333  0.15438512  1
  O  O265  1  0.41666667  0.08333333  0.40438512  1
  O  O266  1  0.41666667  0.08333333  0.65438512  1
  O  O267  1  0.41666667  0.08333333  0.90438512  1
  O  O268  1  0.58333333  0.25000000  0.15438512  1
  O  O269  1  0.58333333  0.25000000  0.40438512  1
  O  O270  1  0.58333333  0.25000000  0.65438512  1
  O  O271  1  0.58333333  0.25000000  0.90438512  1
  O  O272  1  0.75000000  0.41666667  0.15438512  1
  O  O273  1  0.75000000  0.41666667  0.40438512  1
  O  O274  1  0.75000000  0.41666667  0.65438512  1
  O  O275  1  0.75000000  0.41666667  0.90438512  1
  O  O276  1  0.91666667  0.58333333  0.15438512  1
  O  O277  1  0.91666667  0.58333333  0.40438512  1
  O  O278  1  0.91666667  0.58333333  0.65438512  1
  O  O279  1  0.91666667  0.58333333  0.90438512  1
  O  O280  1  0.75000000  0.08333333  0.15438512  1
  O  O281  1  0.75000000  0.08333333  0.40438512  1
  O  O282  1  0.75000000  0.08333333  0.65438512  1
  O  O283  1  0.75000000  0.08333333  0.90438512  1
  O  O284  1  0.91666667  0.25000000  0.15438512  1
  O  O285  1  0.91666667  0.25000000  0.40438512  1
  O  O286  1  0.91666667  0.25000000  0.65438512  1
  O  O287  1  0.91666667  0.25000000  0.90438512  1
  O  O288  1  0.08333333  0.58333333  0.15438512  1
  O  O289  1  0.08333333  0.58333333  0.40438512  1
  O  O290  1  0.08333333  0.58333333  0.65438512  1
  O  O291  1  0.08333333  0.58333333  0.90438512  1
  O  O292  1  0.25000000  0.75000000  0.15438512  1
  O  O293  1  0.25000000  0.75000000  0.40438512  1
  O  O294  1  0.25000000  0.75000000  0.65438512  1
  O  O295  1  0.25000000  0.75000000  0.90438512  1
  O  O296  1  0.08333333  0.25000000  0.15438512  1
  O  O297  1  0.08333333  0.25000000  0.40438512  1
  O  O298  1  0.08333333  0.25000000  0.65438512  1
  O  O299  1  0.08333333  0.25000000  0.90438512  1
  O  O300  1  0.25000000  0.41666667  0.15438512  1
  O  O301  1  0.25000000  0.41666667  0.40438512  1
  O  O302  1  0.25000000  0.41666667  0.65438512  1
  O  O303  1  0.25000000  0.41666667  0.90438512  1
  O  O304  1  0.41666667  0.58333333  0.15438512  1
  O  O305  1  0.41666667  0.58333333  0.40438512  1
  O  O306  1  0.41666667  0.58333333  0.65438512  1
  O  O307  1  0.41666667  0.58333333  0.90438512  1
  O  O308  1  0.58333333  0.75000000  0.15438512  1
  O  O309  1  0.58333333  0.75000000  0.40438512  1
  O  O310  1  0.58333333  0.75000000  0.65438512  1
  O  O311  1  0.58333333  0.75000000  0.90438512  1
  O  O312  1  0.08333333  -0.08333333  0.15438512  1
  O  O313  1  0.08333333  -0.08333333  0.40438512  1
  O  O314  1  0.08333333  -0.08333333  0.65438512  1
  O  O315  1  0.08333333  -0.08333333  0.90438512  1
  O  O316  1  0.25000000  0.08333333  0.15438512  1
  O  O317  1  0.25000000  0.08333333  0.40438512  1
  O  O318  1  0.25000000  0.08333333  0.65438512  1
  O  O319  1  0.25000000  0.08333333  0.90438512  1
  O  O320  1  0.41666667  0.25000000  0.15438512  1
  O  O321  1  0.41666667  0.25000000  0.40438512  1
  O  O322  1  0.41666667  0.25000000  0.65438512  1
  O  O323  1  0.41666667  0.25000000  0.90438512  1
  O  O324  1  0.58333333  0.41666667  0.15438512  1
  O  O325  1  0.58333333  0.41666667  0.40438512  1
  O  O326  1  0.58333333  0.41666667  0.65438512  1
  O  O327  1  0.58333333  0.41666667  0.90438512  1
  O  O328  1  0.75000000  0.58333333  0.15438512  1
  O  O329  1  0.75000000  0.58333333  0.40438512  1
  O  O330  1  0.75000000  0.58333333  0.65438512  1
  O  O331  1  0.75000000  0.58333333  0.90438512  1
  O  O332  1  0.91666667  0.75000000  0.15438512  1
  O  O333  1  0.91666667  0.75000000  0.40438512  1
  O  O334  1  0.91666667  0.75000000  0.65438512  1
  O  O335  1  0.91666667  0.75000000  0.90438512  1
  O  O336  1  0.41666667  -0.08333333  0.15438512  1
  O  O337  1  0.41666667  -0.08333333  0.40438512  1
  O  O338  1  0.41666667  -0.08333333  0.65438512  1
  O  O339  1  0.41666667  -0.08333333  0.90438512  1
  O  O340  1  0.58333333  0.08333333  0.15438512  1
  O  O341  1  0.58333333  0.08333333  0.40438512  1
  O  O342  1  0.58333333  0.08333333  0.65438512  1
  O  O343  1  0.58333333  0.08333333  0.90438512  1
  O  O344  1  0.75000000  0.25000000  0.15438512  1
  O  O345  1  0.75000000  0.25000000  0.40438512  1
  O  O346  1  0.75000000  0.25000000  0.65438512  1
  O  O347  1  0.75000000  0.25000000  0.90438512  1
  O  O348  1  0.91666667  0.41666667  0.15438512  1
  O  O349  1  0.91666667  0.41666667  0.40438512  1
  O  O350  1  0.91666667  0.41666667  0.65438512  1
  O  O351  1  0.91666667  0.41666667  0.90438512  1
  O  O352  1  0.75000000  -0.08333333  0.15438512  1
  O  O353  1  0.75000000  -0.08333333  0.40438512  1
  O  O354  1  0.75000000  -0.08333333  0.65438512  1
  O  O355  1  0.75000000  -0.08333333  0.90438512  1
  O  O356  1  0.91666667  0.08333333  0.15438512  1
  O  O357  1  0.91666667  0.08333333  0.40438512  1
  O  O358  1  0.91666667  0.08333333  0.65438512  1
  O  O359  1  0.91666667  0.08333333  0.90438512  1
