# generated using pymatgen
data_Cs2Al2As2O7
_symmetry_space_group_name_H-M   'P 1'
_cell_length_a   16.49340282
_cell_length_b   19.67939478
_cell_length_c   18.05229408
_cell_angle_alpha   90.00000000
_cell_angle_beta   90.00000000
_cell_angle_gamma   90.00000000
_symmetry_Int_Tables_number   1
_chemical_formula_structural   Cs2Al2As2O7
_chemical_formula_sum   'Cs48 Al48 As48 O168'
_cell_volume   5859.41696036
_cell_formula_units_Z   24
loop_
 _symmetry_equiv_pos_site_id
 _symmetry_equiv_pos_as_xyz
  1  'x, y, z'
loop_
 _atom_site_type_symbol
 _atom_site_label
 _atom_site_symmetry_multiplicity
 _atom_site_fract_x
 _atom_site_fract_y
 _atom_site_fract_z
 _atom_site_occupancy
  Cs  Cs0  1  0.00000000  0.00000000  0.33091680  1
  Cs  Cs1  1  0.00000000  0.00000000  0.83091680  1
  Cs  Cs2  1  0.00000000  0.50000000  0.33091680  1
  Cs  Cs3  1  0.00000000  0.50000000  0.83091680  1
  Cs  Cs4  1  0.33333333  0.00000000  0.33091680  1
  Cs  Cs5  1  0.33333333  0.00000000  0.83091680  1
  Cs  Cs6  1  0.33333333  0.50000000  0.33091680  1
  Cs  Cs7  1  0.33333333  0.50000000  0.83091680  1
  Cs  Cs8  1  0.66666667  0.00000000  0.33091680  1
  Cs  Cs9  1  0.66666667  0.00000000  0.83091680  1
  Cs  Cs10  1  0.66666667  0.50000000  0.33091680  1
  Cs  Cs11  1  0.66666667  0.50000000  0.83091680  1
  Cs  Cs12  1  0.16666667  0.25000000  0.58091680  1
  Cs  Cs13  1  0.16666667  0.25000000  1.08091680  1
  Cs  Cs14  1  0.16666667  0.75000000  0.58091680  1
  Cs  Cs15  1  0.16666667  0.75000000  1.08091680  1
  Cs  Cs16  1  0.50000000  0.25000000  0.58091680  1
  Cs  Cs17  1  0.50000000  0.25000000  1.08091680  1
  Cs  Cs18  1  0.50000000  0.75000000  0.58091680  1
  Cs  Cs19  1  0.50000000  0.75000000  1.08091680  1
  Cs  Cs20  1  0.83333333  0.25000000  0.58091680  1
  Cs  Cs21  1  0.83333333  0.25000000  1.08091680  1
  Cs  Cs22  1  0.83333333  0.75000000  0.58091680  1
  Cs  Cs23  1  0.83333333  0.75000000  1.08091680  1
  Cs  Cs24  1  0.16666667  0.00000000  0.15227215  1
  Cs  Cs25  1  0.16666667  0.00000000  0.65227215  1
  Cs  Cs26  1  0.16666667  0.50000000  0.15227215  1
  Cs  Cs27  1  0.16666667  0.50000000  0.65227215  1
  Cs  Cs28  1  0.50000000  0.00000000  0.15227215  1
  Cs  Cs29  1  0.50000000  0.00000000  0.65227215  1
  Cs  Cs30  1  0.50000000  0.50000000  0.15227215  1
  Cs  Cs31  1  0.50000000  0.50000000  0.65227215  1
  Cs  Cs32  1  0.83333333  0.00000000  0.15227215  1
  Cs  Cs33  1  0.83333333  0.00000000  0.65227215  1
  Cs  Cs34  1  0.83333333  0.50000000  0.15227215  1
  Cs  Cs35  1  0.83333333  0.50000000  0.65227215  1
  Cs  Cs36  1  0.33333333  0.25000000  0.40227215  1
  Cs  Cs37  1  0.33333333  0.25000000  0.90227215  1
  Cs  Cs38  1  0.33333333  0.75000000  0.40227215  1
  Cs  Cs39  1  0.33333333  0.75000000  0.90227215  1
  Cs  Cs40  1  0.66666667  0.25000000  0.40227215  1
  Cs  Cs41  1  0.66666667  0.25000000  0.90227215  1
  Cs  Cs42  1  0.66666667  0.75000000  0.40227215  1
  Cs  Cs43  1  0.66666667  0.75000000  0.90227215  1
  Cs  Cs44  1  1.00000000  0.25000000  0.40227215  1
  Cs  Cs45  1  1.00000000  0.25000000  0.90227215  1
  Cs  Cs46  1  1.00000000  0.75000000  0.40227215  1
  Cs  Cs47  1  1.00000000  0.75000000  0.90227215  1
  Al  Al48  1  -0.00000000  0.41734114  0.03065612  1
  Al  Al49  1  -0.00000000  0.41734114  0.53065612  1
  Al  Al50  1  -0.00000000  0.91734114  0.03065612  1
  Al  Al51  1  -0.00000000  0.91734114  0.53065612  1
  Al  Al52  1  0.33333333  0.41734114  0.03065612  1
  Al  Al53  1  0.33333333  0.41734114  0.53065612  1
  Al  Al54  1  0.33333333  0.91734114  0.03065612  1
  Al  Al55  1  0.33333333  0.91734114  0.53065612  1
  Al  Al56  1  0.66666667  0.41734114  0.03065612  1
  Al  Al57  1  0.66666667  0.41734114  0.53065612  1
  Al  Al58  1  0.66666667  0.91734114  0.03065612  1
  Al  Al59  1  0.66666667  0.91734114  0.53065612  1
  Al  Al60  1  0.16666667  0.66734114  0.28065612  1
  Al  Al61  1  0.16666667  0.66734114  0.78065612  1
  Al  Al62  1  0.16666667  1.16734114  0.28065612  1
  Al  Al63  1  0.16666667  1.16734114  0.78065612  1
  Al  Al64  1  0.50000000  0.66734114  0.28065612  1
  Al  Al65  1  0.50000000  0.66734114  0.78065612  1
  Al  Al66  1  0.50000000  1.16734114  0.28065612  1
  Al  Al67  1  0.50000000  1.16734114  0.78065612  1
  Al  Al68  1  0.83333333  0.66734114  0.28065612  1
  Al  Al69  1  0.83333333  0.66734114  0.78065612  1
  Al  Al70  1  0.83333333  1.16734114  0.28065612  1
  Al  Al71  1  0.83333333  1.16734114  0.78065612  1
  Al  Al72  1  0.00000000  0.08265886  0.03065612  1
  Al  Al73  1  0.00000000  0.08265886  0.53065612  1
  Al  Al74  1  0.00000000  0.58265886  0.03065612  1
  Al  Al75  1  0.00000000  0.58265886  0.53065612  1
  Al  Al76  1  0.33333333  0.08265886  0.03065612  1
  Al  Al77  1  0.33333333  0.08265886  0.53065612  1
  Al  Al78  1  0.33333333  0.58265886  0.03065612  1
  Al  Al79  1  0.33333333  0.58265886  0.53065612  1
  Al  Al80  1  0.66666667  0.08265886  0.03065612  1
  Al  Al81  1  0.66666667  0.08265886  0.53065612  1
  Al  Al82  1  0.66666667  0.58265886  0.03065612  1
  Al  Al83  1  0.66666667  0.58265886  0.53065612  1
  Al  Al84  1  0.16666667  0.33265886  0.28065612  1
  Al  Al85  1  0.16666667  0.33265886  0.78065612  1
  Al  Al86  1  0.16666667  0.83265886  0.28065612  1
  Al  Al87  1  0.16666667  0.83265886  0.78065612  1
  Al  Al88  1  0.50000000  0.33265886  0.28065612  1
  Al  Al89  1  0.50000000  0.33265886  0.78065612  1
  Al  Al90  1  0.50000000  0.83265886  0.28065612  1
  Al  Al91  1  0.50000000  0.83265886  0.78065612  1
  Al  Al92  1  0.83333333  0.33265886  0.28065612  1
  Al  Al93  1  0.83333333  0.33265886  0.78065612  1
  Al  Al94  1  0.83333333  0.83265886  0.28065612  1
  Al  Al95  1  0.83333333  0.83265886  0.78065612  1
  As  As96  1  0.16666667  0.10057194  -0.05711619  1
  As  As97  1  0.16666667  0.10057194  0.44288381  1
  As  As98  1  0.16666667  0.60057194  -0.05711619  1
  As  As99  1  0.16666667  0.60057194  0.44288381  1
  As  As100  1  0.50000000  0.10057194  -0.05711619  1
  As  As101  1  0.50000000  0.10057194  0.44288381  1
  As  As102  1  0.50000000  0.60057194  -0.05711619  1
  As  As103  1  0.50000000  0.60057194  0.44288381  1
  As  As104  1  0.83333333  0.10057194  -0.05711619  1
  As  As105  1  0.83333333  0.10057194  0.44288381  1
  As  As106  1  0.83333333  0.60057194  -0.05711619  1
  As  As107  1  0.83333333  0.60057194  0.44288381  1
  As  As108  1  0.33333333  0.35057194  0.19288381  1
  As  As109  1  0.33333333  0.35057194  0.69288381  1
  As  As110  1  0.33333333  0.85057194  0.19288381  1
  As  As111  1  0.33333333  0.85057194  0.69288381  1
  As  As112  1  0.66666667  0.35057194  0.19288381  1
  As  As113  1  0.66666667  0.35057194  0.69288381  1
  As  As114  1  0.66666667  0.85057194  0.19288381  1
  As  As115  1  0.66666667  0.85057194  0.69288381  1
  As  As116  1  1.00000000  0.35057194  0.19288381  1
  As  As117  1  1.00000000  0.35057194  0.69288381  1
  As  As118  1  1.00000000  0.85057194  0.19288381  1
  As  As119  1  1.00000000  0.85057194  0.69288381  1
  As  As120  1  -0.00000000  0.14942806  0.19288381  1
  As  As121  1  -0.00000000  0.14942806  0.69288381  1
  As  As122  1  -0.00000000  0.64942806  0.19288381  1
  As  As123  1  -0.00000000  0.64942806  0.69288381  1
  As  As124  1  0.33333333  0.14942806  0.19288381  1
  As  As125  1  0.33333333  0.14942806  0.69288381  1
  As  As126  1  0.33333333  0.64942806  0.19288381  1
  As  As127  1  0.33333333  0.64942806  0.69288381  1
  As  As128  1  0.66666667  0.14942806  0.19288381  1
  As  As129  1  0.66666667  0.14942806  0.69288381  1
  As  As130  1  0.66666667  0.64942806  0.19288381  1
  As  As131  1  0.66666667  0.64942806  0.69288381  1
  As  As132  1  0.16666667  0.39942806  0.44288381  1
  As  As133  1  0.16666667  0.39942806  0.94288381  1
  As  As134  1  0.16666667  0.89942806  0.44288381  1
  As  As135  1  0.16666667  0.89942806  0.94288381  1
  As  As136  1  0.50000000  0.39942806  0.44288381  1
  As  As137  1  0.50000000  0.39942806  0.94288381  1
  As  As138  1  0.50000000  0.89942806  0.44288381  1
  As  As139  1  0.50000000  0.89942806  0.94288381  1
  As  As140  1  0.83333333  0.39942806  0.44288381  1
  As  As141  1  0.83333333  0.39942806  0.94288381  1
  As  As142  1  0.83333333  0.89942806  0.44288381  1
  As  As143  1  0.83333333  0.89942806  0.94288381  1
  O  O144  1  0.08143140  -0.11962714  0.24984339  1
  O  O145  1  0.08143140  -0.11962714  0.74984339  1
  O  O146  1  0.08143140  0.38037286  0.24984339  1
  O  O147  1  0.08143140  0.38037286  0.74984339  1
  O  O148  1  0.41476473  -0.11962714  0.24984339  1
  O  O149  1  0.41476473  -0.11962714  0.74984339  1
  O  O150  1  0.41476473  0.38037286  0.24984339  1
  O  O151  1  0.41476473  0.38037286  0.74984339  1
  O  O152  1  0.74809807  -0.11962714  0.24984339  1
  O  O153  1  0.74809807  -0.11962714  0.74984339  1
  O  O154  1  0.74809807  0.38037286  0.24984339  1
  O  O155  1  0.74809807  0.38037286  0.74984339  1
  O  O156  1  0.24809807  0.13037286  0.49984339  1
  O  O157  1  0.24809807  0.13037286  0.99984339  1
  O  O158  1  0.24809807  0.63037286  0.49984339  1
  O  O159  1  0.24809807  0.63037286  0.99984339  1
  O  O160  1  0.58143140  0.13037286  0.49984339  1
  O  O161  1  0.58143140  0.13037286  0.99984339  1
  O  O162  1  0.58143140  0.63037286  0.49984339  1
  O  O163  1  0.58143140  0.63037286  0.99984339  1
  O  O164  1  0.91476473  0.13037286  0.49984339  1
  O  O165  1  0.91476473  0.13037286  0.99984339  1
  O  O166  1  0.91476473  0.63037286  0.49984339  1
  O  O167  1  0.91476473  0.63037286  0.99984339  1
  O  O168  1  -0.00000000  -0.00000000  0.49752847  1
  O  O169  1  -0.00000000  -0.00000000  0.99752847  1
  O  O170  1  -0.00000000  0.50000000  0.49752847  1
  O  O171  1  -0.00000000  0.50000000  0.99752847  1
  O  O172  1  0.33333333  -0.00000000  0.49752847  1
  O  O173  1  0.33333333  -0.00000000  0.99752847  1
  O  O174  1  0.33333333  0.50000000  0.49752847  1
  O  O175  1  0.33333333  0.50000000  0.99752847  1
  O  O176  1  0.66666667  -0.00000000  0.49752847  1
  O  O177  1  0.66666667  -0.00000000  0.99752847  1
  O  O178  1  0.66666667  0.50000000  0.49752847  1
  O  O179  1  0.66666667  0.50000000  0.99752847  1
  O  O180  1  0.16666667  0.25000000  0.74752847  1
  O  O181  1  0.16666667  0.25000000  1.24752847  1
  O  O182  1  0.16666667  0.75000000  0.74752847  1
  O  O183  1  0.16666667  0.75000000  1.24752847  1
  O  O184  1  0.50000000  0.25000000  0.74752847  1
  O  O185  1  0.50000000  0.25000000  1.24752847  1
  O  O186  1  0.50000000  0.75000000  0.74752847  1
  O  O187  1  0.50000000  0.75000000  1.24752847  1
  O  O188  1  0.83333333  0.25000000  0.74752847  1
  O  O189  1  0.83333333  0.25000000  1.24752847  1
  O  O190  1  0.83333333  0.75000000  0.74752847  1
  O  O191  1  0.83333333  0.75000000  1.24752847  1
  O  O192  1  0.16666667  0.16915591  -0.12121767  1
  O  O193  1  0.16666667  0.16915591  0.37878233  1
  O  O194  1  0.16666667  0.66915591  -0.12121767  1
  O  O195  1  0.16666667  0.66915591  0.37878233  1
  O  O196  1  0.50000000  0.16915591  -0.12121767  1
  O  O197  1  0.50000000  0.16915591  0.37878233  1
  O  O198  1  0.50000000  0.66915591  -0.12121767  1
  O  O199  1  0.50000000  0.66915591  0.37878233  1
  O  O200  1  0.83333333  0.16915591  -0.12121767  1
  O  O201  1  0.83333333  0.16915591  0.37878233  1
  O  O202  1  0.83333333  0.66915591  -0.12121767  1
  O  O203  1  0.83333333  0.66915591  0.37878233  1
  O  O204  1  0.33333333  0.41915591  0.12878233  1
  O  O205  1  0.33333333  0.41915591  0.62878233  1
  O  O206  1  0.33333333  0.91915591  0.12878233  1
  O  O207  1  0.33333333  0.91915591  0.62878233  1
  O  O208  1  0.66666667  0.41915591  0.12878233  1
  O  O209  1  0.66666667  0.41915591  0.62878233  1
  O  O210  1  0.66666667  0.91915591  0.12878233  1
  O  O211  1  0.66666667  0.91915591  0.62878233  1
  O  O212  1  1.00000000  0.41915591  0.12878233  1
  O  O213  1  1.00000000  0.41915591  0.62878233  1
  O  O214  1  1.00000000  0.91915591  0.12878233  1
  O  O215  1  1.00000000  0.91915591  0.62878233  1
  O  O216  1  0.08523527  0.13037286  -0.00015661  1
  O  O217  1  0.08523527  0.13037286  0.49984339  1
  O  O218  1  0.08523527  0.63037286  -0.00015661  1
  O  O219  1  0.08523527  0.63037286  0.49984339  1
  O  O220  1  0.41856860  0.13037286  -0.00015661  1
  O  O221  1  0.41856860  0.13037286  0.49984339  1
  O  O222  1  0.41856860  0.63037286  -0.00015661  1
  O  O223  1  0.41856860  0.63037286  0.49984339  1
  O  O224  1  0.75190193  0.13037286  -0.00015661  1
  O  O225  1  0.75190193  0.13037286  0.49984339  1
  O  O226  1  0.75190193  0.63037286  -0.00015661  1
  O  O227  1  0.75190193  0.63037286  0.49984339  1
  O  O228  1  0.25190193  0.38037286  0.24984339  1
  O  O229  1  0.25190193  0.38037286  0.74984339  1
  O  O230  1  0.25190193  0.88037286  0.24984339  1
  O  O231  1  0.25190193  0.88037286  0.74984339  1
  O  O232  1  0.58523527  0.38037286  0.24984339  1
  O  O233  1  0.58523527  0.38037286  0.74984339  1
  O  O234  1  0.58523527  0.88037286  0.24984339  1
  O  O235  1  0.58523527  0.88037286  0.74984339  1
  O  O236  1  0.91856860  0.38037286  0.24984339  1
  O  O237  1  0.91856860  0.38037286  0.74984339  1
  O  O238  1  0.91856860  0.88037286  0.24984339  1
  O  O239  1  0.91856860  0.88037286  0.74984339  1
  O  O240  1  0.08523527  0.36962714  -0.00015661  1
  O  O241  1  0.08523527  0.36962714  0.49984339  1
  O  O242  1  0.08523527  0.86962714  -0.00015661  1
  O  O243  1  0.08523527  0.86962714  0.49984339  1
  O  O244  1  0.41856860  0.36962714  -0.00015661  1
  O  O245  1  0.41856860  0.36962714  0.49984339  1
  O  O246  1  0.41856860  0.86962714  -0.00015661  1
  O  O247  1  0.41856860  0.86962714  0.49984339  1
  O  O248  1  0.75190193  0.36962714  -0.00015661  1
  O  O249  1  0.75190193  0.36962714  0.49984339  1
  O  O250  1  0.75190193  0.86962714  -0.00015661  1
  O  O251  1  0.75190193  0.86962714  0.49984339  1
  O  O252  1  0.25190193  0.61962714  0.24984339  1
  O  O253  1  0.25190193  0.61962714  0.74984339  1
  O  O254  1  0.25190193  1.11962714  0.24984339  1
  O  O255  1  0.25190193  1.11962714  0.74984339  1
  O  O256  1  0.58523527  0.61962714  0.24984339  1
  O  O257  1  0.58523527  0.61962714  0.74984339  1
  O  O258  1  0.58523527  1.11962714  0.24984339  1
  O  O259  1  0.58523527  1.11962714  0.74984339  1
  O  O260  1  0.91856860  0.61962714  0.24984339  1
  O  O261  1  0.91856860  0.61962714  0.74984339  1
  O  O262  1  0.91856860  1.11962714  0.24984339  1
  O  O263  1  0.91856860  1.11962714  0.74984339  1
  O  O264  1  0.08143140  0.11962714  0.24984339  1
  O  O265  1  0.08143140  0.11962714  0.74984339  1
  O  O266  1  0.08143140  0.61962714  0.24984339  1
  O  O267  1  0.08143140  0.61962714  0.74984339  1
  O  O268  1  0.41476473  0.11962714  0.24984339  1
  O  O269  1  0.41476473  0.11962714  0.74984339  1
  O  O270  1  0.41476473  0.61962714  0.24984339  1
  O  O271  1  0.41476473  0.61962714  0.74984339  1
  O  O272  1  0.74809807  0.11962714  0.24984339  1
  O  O273  1  0.74809807  0.11962714  0.74984339  1
  O  O274  1  0.74809807  0.61962714  0.24984339  1
  O  O275  1  0.74809807  0.61962714  0.74984339  1
  O  O276  1  0.24809807  0.36962714  0.49984339  1
  O  O277  1  0.24809807  0.36962714  0.99984339  1
  O  O278  1  0.24809807  0.86962714  0.49984339  1
  O  O279  1  0.24809807  0.86962714  0.99984339  1
  O  O280  1  0.58143140  0.36962714  0.49984339  1
  O  O281  1  0.58143140  0.36962714  0.99984339  1
  O  O282  1  0.58143140  0.86962714  0.49984339  1
  O  O283  1  0.58143140  0.86962714  0.99984339  1
  O  O284  1  0.91476473  0.36962714  0.49984339  1
  O  O285  1  0.91476473  0.36962714  0.99984339  1
  O  O286  1  0.91476473  0.86962714  0.49984339  1
  O  O287  1  0.91476473  0.86962714  0.99984339  1
  O  O288  1  0.00000000  0.08084409  0.12878233  1
  O  O289  1  0.00000000  0.08084409  0.62878233  1
  O  O290  1  0.00000000  0.58084409  0.12878233  1
  O  O291  1  0.00000000  0.58084409  0.62878233  1
  O  O292  1  0.33333333  0.08084409  0.12878233  1
  O  O293  1  0.33333333  0.08084409  0.62878233  1
  O  O294  1  0.33333333  0.58084409  0.12878233  1
  O  O295  1  0.33333333  0.58084409  0.62878233  1
  O  O296  1  0.66666667  0.08084409  0.12878233  1
  O  O297  1  0.66666667  0.08084409  0.62878233  1
  O  O298  1  0.66666667  0.58084409  0.12878233  1
  O  O299  1  0.66666667  0.58084409  0.62878233  1
  O  O300  1  0.16666667  0.33084409  0.37878233  1
  O  O301  1  0.16666667  0.33084409  0.87878233  1
  O  O302  1  0.16666667  0.83084409  0.37878233  1
  O  O303  1  0.16666667  0.83084409  0.87878233  1
  O  O304  1  0.50000000  0.33084409  0.37878233  1
  O  O305  1  0.50000000  0.33084409  0.87878233  1
  O  O306  1  0.50000000  0.83084409  0.37878233  1
  O  O307  1  0.50000000  0.83084409  0.87878233  1
  O  O308  1  0.83333333  0.33084409  0.37878233  1
  O  O309  1  0.83333333  0.33084409  0.87878233  1
  O  O310  1  0.83333333  0.83084409  0.37878233  1
  O  O311  1  0.83333333  0.83084409  0.87878233  1
