# generated using pymatgen
data_LiGaO2
_symmetry_space_group_name_H-M   'P 1'
_cell_length_a   16.20743654
_cell_length_b   12.74957339
_cell_length_c   15.05840547
_cell_angle_alpha   90.00000000
_cell_angle_beta   90.00000000
_cell_angle_gamma   90.00000000
_symmetry_Int_Tables_number   1
_chemical_formula_structural   LiGaO2
_chemical_formula_sum   'Li72 Ga72 O144'
_cell_volume   3111.63730913
_cell_formula_units_Z   72
loop_
 _symmetry_equiv_pos_site_id
 _symmetry_equiv_pos_as_xyz
  1  'x, y, z'
loop_
 _atom_site_type_symbol
 _atom_site_label
 _atom_site_symmetry_multiplicity
 _atom_site_fract_x
 _atom_site_fract_y
 _atom_site_fract_z
 _atom_site_occupancy
  Li  Li0  1  0.19398608  0.43784742  0.00001059  1
  Li  Li1  1  0.19398608  0.43784742  0.33334393  1
  Li  Li2  1  0.19398608  0.43784742  0.66667726  1
  Li  Li3  1  0.19398608  0.93784742  0.00001059  1
  Li  Li4  1  0.19398608  0.93784742  0.33334393  1
  Li  Li5  1  0.19398608  0.93784742  0.66667726  1
  Li  Li6  1  0.52731941  0.43784742  0.00001059  1
  Li  Li7  1  0.52731941  0.43784742  0.33334393  1
  Li  Li8  1  0.52731941  0.43784742  0.66667726  1
  Li  Li9  1  0.52731941  0.93784742  0.00001059  1
  Li  Li10  1  0.52731941  0.93784742  0.33334393  1
  Li  Li11  1  0.52731941  0.93784742  0.66667726  1
  Li  Li12  1  0.86065275  0.43784742  0.00001059  1
  Li  Li13  1  0.86065275  0.43784742  0.33334393  1
  Li  Li14  1  0.86065275  0.43784742  0.66667726  1
  Li  Li15  1  0.86065275  0.93784742  0.00001059  1
  Li  Li16  1  0.86065275  0.93784742  0.33334393  1
  Li  Li17  1  0.86065275  0.93784742  0.66667726  1
  Li  Li18  1  0.30601392  0.18784742  0.16667726  1
  Li  Li19  1  0.30601392  0.18784742  0.50001059  1
  Li  Li20  1  0.30601392  0.18784742  0.83334393  1
  Li  Li21  1  0.30601392  0.68784742  0.16667726  1
  Li  Li22  1  0.30601392  0.68784742  0.50001059  1
  Li  Li23  1  0.30601392  0.68784742  0.83334393  1
  Li  Li24  1  0.63934725  0.18784742  0.16667726  1
  Li  Li25  1  0.63934725  0.18784742  0.50001059  1
  Li  Li26  1  0.63934725  0.18784742  0.83334393  1
  Li  Li27  1  0.63934725  0.68784742  0.16667726  1
  Li  Li28  1  0.63934725  0.68784742  0.50001059  1
  Li  Li29  1  0.63934725  0.68784742  0.83334393  1
  Li  Li30  1  0.97268059  0.18784742  0.16667726  1
  Li  Li31  1  0.97268059  0.18784742  0.50001059  1
  Li  Li32  1  0.97268059  0.18784742  0.83334393  1
  Li  Li33  1  0.97268059  0.68784742  0.16667726  1
  Li  Li34  1  0.97268059  0.68784742  0.50001059  1
  Li  Li35  1  0.97268059  0.68784742  0.83334393  1
  Li  Li36  1  0.02731941  0.31215258  0.00001059  1
  Li  Li37  1  0.02731941  0.31215258  0.33334393  1
  Li  Li38  1  0.02731941  0.31215258  0.66667726  1
  Li  Li39  1  0.02731941  0.81215258  0.00001059  1
  Li  Li40  1  0.02731941  0.81215258  0.33334393  1
  Li  Li41  1  0.02731941  0.81215258  0.66667726  1
  Li  Li42  1  0.36065275  0.31215258  0.00001059  1
  Li  Li43  1  0.36065275  0.31215258  0.33334393  1
  Li  Li44  1  0.36065275  0.31215258  0.66667726  1
  Li  Li45  1  0.36065275  0.81215258  0.00001059  1
  Li  Li46  1  0.36065275  0.81215258  0.33334393  1
  Li  Li47  1  0.36065275  0.81215258  0.66667726  1
  Li  Li48  1  0.69398608  0.31215258  0.00001059  1
  Li  Li49  1  0.69398608  0.31215258  0.33334393  1
  Li  Li50  1  0.69398608  0.31215258  0.66667726  1
  Li  Li51  1  0.69398608  0.81215258  0.00001059  1
  Li  Li52  1  0.69398608  0.81215258  0.33334393  1
  Li  Li53  1  0.69398608  0.81215258  0.66667726  1
  Li  Li54  1  0.13934725  0.06215258  0.16667726  1
  Li  Li55  1  0.13934725  0.06215258  0.50001059  1
  Li  Li56  1  0.13934725  0.06215258  0.83334393  1
  Li  Li57  1  0.13934725  0.56215258  0.16667726  1
  Li  Li58  1  0.13934725  0.56215258  0.50001059  1
  Li  Li59  1  0.13934725  0.56215258  0.83334393  1
  Li  Li60  1  0.47268059  0.06215258  0.16667726  1
  Li  Li61  1  0.47268059  0.06215258  0.50001059  1
  Li  Li62  1  0.47268059  0.06215258  0.83334393  1
  Li  Li63  1  0.47268059  0.56215258  0.16667726  1
  Li  Li64  1  0.47268059  0.56215258  0.50001059  1
  Li  Li65  1  0.47268059  0.56215258  0.83334393  1
  Li  Li66  1  0.80601392  0.06215258  0.16667726  1
  Li  Li67  1  0.80601392  0.06215258  0.50001059  1
  Li  Li68  1  0.80601392  0.06215258  0.83334393  1
  Li  Li69  1  0.80601392  0.56215258  0.16667726  1
  Li  Li70  1  0.80601392  0.56215258  0.50001059  1
  Li  Li71  1  0.80601392  0.56215258  0.83334393  1
  Ga  Ga72  1  0.19406331  0.18693500  0.00140944  1
  Ga  Ga73  1  0.19406331  0.18693500  0.33474278  1
  Ga  Ga74  1  0.19406331  0.18693500  0.66807611  1
  Ga  Ga75  1  0.19406331  0.68693500  0.00140944  1
  Ga  Ga76  1  0.19406331  0.68693500  0.33474278  1
  Ga  Ga77  1  0.19406331  0.68693500  0.66807611  1
  Ga  Ga78  1  0.52739664  0.18693500  0.00140944  1
  Ga  Ga79  1  0.52739664  0.18693500  0.33474278  1
  Ga  Ga80  1  0.52739664  0.18693500  0.66807611  1
  Ga  Ga81  1  0.52739664  0.68693500  0.00140944  1
  Ga  Ga82  1  0.52739664  0.68693500  0.33474278  1
  Ga  Ga83  1  0.52739664  0.68693500  0.66807611  1
  Ga  Ga84  1  0.86072997  0.18693500  0.00140944  1
  Ga  Ga85  1  0.86072997  0.18693500  0.33474278  1
  Ga  Ga86  1  0.86072997  0.18693500  0.66807611  1
  Ga  Ga87  1  0.86072997  0.68693500  0.00140944  1
  Ga  Ga88  1  0.86072997  0.68693500  0.33474278  1
  Ga  Ga89  1  0.86072997  0.68693500  0.66807611  1
  Ga  Ga90  1  0.13927003  0.31306500  0.16807611  1
  Ga  Ga91  1  0.13927003  0.31306500  0.50140944  1
  Ga  Ga92  1  0.13927003  0.31306500  0.83474278  1
  Ga  Ga93  1  0.13927003  0.81306500  0.16807611  1
  Ga  Ga94  1  0.13927003  0.81306500  0.50140944  1
  Ga  Ga95  1  0.13927003  0.81306500  0.83474278  1
  Ga  Ga96  1  0.47260336  0.31306500  0.16807611  1
  Ga  Ga97  1  0.47260336  0.31306500  0.50140944  1
  Ga  Ga98  1  0.47260336  0.31306500  0.83474278  1
  Ga  Ga99  1  0.47260336  0.81306500  0.16807611  1
  Ga  Ga100  1  0.47260336  0.81306500  0.50140944  1
  Ga  Ga101  1  0.47260336  0.81306500  0.83474278  1
  Ga  Ga102  1  0.80593669  0.31306500  0.16807611  1
  Ga  Ga103  1  0.80593669  0.31306500  0.50140944  1
  Ga  Ga104  1  0.80593669  0.31306500  0.83474278  1
  Ga  Ga105  1  0.80593669  0.81306500  0.16807611  1
  Ga  Ga106  1  0.80593669  0.81306500  0.50140944  1
  Ga  Ga107  1  0.80593669  0.81306500  0.83474278  1
  Ga  Ga108  1  0.30593669  0.43693500  0.16807611  1
  Ga  Ga109  1  0.30593669  0.43693500  0.50140944  1
  Ga  Ga110  1  0.30593669  0.43693500  0.83474278  1
  Ga  Ga111  1  0.30593669  0.93693500  0.16807611  1
  Ga  Ga112  1  0.30593669  0.93693500  0.50140944  1
  Ga  Ga113  1  0.30593669  0.93693500  0.83474278  1
  Ga  Ga114  1  0.63927003  0.43693500  0.16807611  1
  Ga  Ga115  1  0.63927003  0.43693500  0.50140944  1
  Ga  Ga116  1  0.63927003  0.43693500  0.83474278  1
  Ga  Ga117  1  0.63927003  0.93693500  0.16807611  1
  Ga  Ga118  1  0.63927003  0.93693500  0.50140944  1
  Ga  Ga119  1  0.63927003  0.93693500  0.83474278  1
  Ga  Ga120  1  0.97260336  0.43693500  0.16807611  1
  Ga  Ga121  1  0.97260336  0.43693500  0.50140944  1
  Ga  Ga122  1  0.97260336  0.43693500  0.83474278  1
  Ga  Ga123  1  0.97260336  0.93693500  0.16807611  1
  Ga  Ga124  1  0.97260336  0.93693500  0.50140944  1
  Ga  Ga125  1  0.97260336  0.93693500  0.83474278  1
  Ga  Ga126  1  0.02739664  0.06306500  0.00140944  1
  Ga  Ga127  1  0.02739664  0.06306500  0.33474278  1
  Ga  Ga128  1  0.02739664  0.06306500  0.66807611  1
  Ga  Ga129  1  0.02739664  0.56306500  0.00140944  1
  Ga  Ga130  1  0.02739664  0.56306500  0.33474278  1
  Ga  Ga131  1  0.02739664  0.56306500  0.66807611  1
  Ga  Ga132  1  0.36072997  0.06306500  0.00140944  1
  Ga  Ga133  1  0.36072997  0.06306500  0.33474278  1
  Ga  Ga134  1  0.36072997  0.06306500  0.66807611  1
  Ga  Ga135  1  0.36072997  0.56306500  0.00140944  1
  Ga  Ga136  1  0.36072997  0.56306500  0.33474278  1
  Ga  Ga137  1  0.36072997  0.56306500  0.66807611  1
  Ga  Ga138  1  0.69406331  0.06306500  0.00140944  1
  Ga  Ga139  1  0.69406331  0.06306500  0.33474278  1
  Ga  Ga140  1  0.69406331  0.06306500  0.66807611  1
  Ga  Ga141  1  0.69406331  0.56306500  0.00140944  1
  Ga  Ga142  1  0.69406331  0.56306500  0.33474278  1
  Ga  Ga143  1  0.69406331  0.56306500  0.66807611  1
  O  O144  1  0.02330578  0.05680898  0.12484469  1
  O  O145  1  0.02330578  0.05680898  0.45817802  1
  O  O146  1  0.02330578  0.05680898  0.79151136  1
  O  O147  1  0.02330578  0.55680898  0.12484469  1
  O  O148  1  0.02330578  0.55680898  0.45817802  1
  O  O149  1  0.02330578  0.55680898  0.79151136  1
  O  O150  1  0.35663912  0.05680898  0.12484469  1
  O  O151  1  0.35663912  0.05680898  0.45817802  1
  O  O152  1  0.35663912  0.05680898  0.79151136  1
  O  O153  1  0.35663912  0.55680898  0.12484469  1
  O  O154  1  0.35663912  0.55680898  0.45817802  1
  O  O155  1  0.35663912  0.55680898  0.79151136  1
  O  O156  1  0.68997245  0.05680898  0.12484469  1
  O  O157  1  0.68997245  0.05680898  0.45817802  1
  O  O158  1  0.68997245  0.05680898  0.79151136  1
  O  O159  1  0.68997245  0.55680898  0.12484469  1
  O  O160  1  0.68997245  0.55680898  0.45817802  1
  O  O161  1  0.68997245  0.55680898  0.79151136  1
  O  O162  1  0.18997245  0.19319102  0.12484469  1
  O  O163  1  0.18997245  0.19319102  0.45817802  1
  O  O164  1  0.18997245  0.19319102  0.79151136  1
  O  O165  1  0.18997245  0.69319102  0.12484469  1
  O  O166  1  0.18997245  0.69319102  0.45817802  1
  O  O167  1  0.18997245  0.69319102  0.79151136  1
  O  O168  1  0.52330578  0.19319102  0.12484469  1
  O  O169  1  0.52330578  0.19319102  0.45817802  1
  O  O170  1  0.52330578  0.19319102  0.79151136  1
  O  O171  1  0.52330578  0.69319102  0.12484469  1
  O  O172  1  0.52330578  0.69319102  0.45817802  1
  O  O173  1  0.52330578  0.69319102  0.79151136  1
  O  O174  1  0.85663912  0.19319102  0.12484469  1
  O  O175  1  0.85663912  0.19319102  0.45817802  1
  O  O176  1  0.85663912  0.19319102  0.79151136  1
  O  O177  1  0.85663912  0.69319102  0.12484469  1
  O  O178  1  0.85663912  0.69319102  0.45817802  1
  O  O179  1  0.85663912  0.69319102  0.79151136  1
  O  O180  1  0.31002755  0.44319102  0.29151136  1
  O  O181  1  0.31002755  0.44319102  0.62484469  1
  O  O182  1  0.31002755  0.44319102  0.95817802  1
  O  O183  1  0.31002755  0.94319102  0.29151136  1
  O  O184  1  0.31002755  0.94319102  0.62484469  1
  O  O185  1  0.31002755  0.94319102  0.95817802  1
  O  O186  1  0.64336088  0.44319102  0.29151136  1
  O  O187  1  0.64336088  0.44319102  0.62484469  1
  O  O188  1  0.64336088  0.44319102  0.95817802  1
  O  O189  1  0.64336088  0.94319102  0.29151136  1
  O  O190  1  0.64336088  0.94319102  0.62484469  1
  O  O191  1  0.64336088  0.94319102  0.95817802  1
  O  O192  1  0.97669422  0.44319102  0.29151136  1
  O  O193  1  0.97669422  0.44319102  0.62484469  1
  O  O194  1  0.97669422  0.44319102  0.95817802  1
  O  O195  1  0.97669422  0.94319102  0.29151136  1
  O  O196  1  0.97669422  0.94319102  0.62484469  1
  O  O197  1  0.97669422  0.94319102  0.95817802  1
  O  O198  1  0.14336088  0.30680898  0.29151136  1
  O  O199  1  0.14336088  0.30680898  0.62484469  1
  O  O200  1  0.14336088  0.30680898  0.95817802  1
  O  O201  1  0.14336088  0.80680898  0.29151136  1
  O  O202  1  0.14336088  0.80680898  0.62484469  1
  O  O203  1  0.14336088  0.80680898  0.95817802  1
  O  O204  1  0.47669422  0.30680898  0.29151136  1
  O  O205  1  0.47669422  0.30680898  0.62484469  1
  O  O206  1  0.47669422  0.30680898  0.95817802  1
  O  O207  1  0.47669422  0.80680898  0.29151136  1
  O  O208  1  0.47669422  0.80680898  0.62484469  1
  O  O209  1  0.47669422  0.80680898  0.95817802  1
  O  O210  1  0.81002755  0.30680898  0.29151136  1
  O  O211  1  0.81002755  0.30680898  0.62484469  1
  O  O212  1  0.81002755  0.30680898  0.95817802  1
  O  O213  1  0.81002755  0.80680898  0.29151136  1
  O  O214  1  0.81002755  0.80680898  0.62484469  1
  O  O215  1  0.81002755  0.80680898  0.95817802  1
  O  O216  1  0.13630718  0.06855035  0.29813528  1
  O  O217  1  0.13630718  0.06855035  0.63146861  1
  O  O218  1  0.13630718  0.06855035  0.96480194  1
  O  O219  1  0.13630718  0.56855035  0.29813528  1
  O  O220  1  0.13630718  0.56855035  0.63146861  1
  O  O221  1  0.13630718  0.56855035  0.96480194  1
  O  O222  1  0.46964051  0.06855035  0.29813528  1
  O  O223  1  0.46964051  0.06855035  0.63146861  1
  O  O224  1  0.46964051  0.06855035  0.96480194  1
  O  O225  1  0.46964051  0.56855035  0.29813528  1
  O  O226  1  0.46964051  0.56855035  0.63146861  1
  O  O227  1  0.46964051  0.56855035  0.96480194  1
  O  O228  1  0.80297385  0.06855035  0.29813528  1
  O  O229  1  0.80297385  0.06855035  0.63146861  1
  O  O230  1  0.80297385  0.06855035  0.96480194  1
  O  O231  1  0.80297385  0.56855035  0.29813528  1
  O  O232  1  0.80297385  0.56855035  0.63146861  1
  O  O233  1  0.80297385  0.56855035  0.96480194  1
  O  O234  1  0.19702615  0.43144965  0.13146861  1
  O  O235  1  0.19702615  0.43144965  0.46480194  1
  O  O236  1  0.19702615  0.43144965  0.79813528  1
  O  O237  1  0.19702615  0.93144965  0.13146861  1
  O  O238  1  0.19702615  0.93144965  0.46480194  1
  O  O239  1  0.19702615  0.93144965  0.79813528  1
  O  O240  1  0.53035949  0.43144965  0.13146861  1
  O  O241  1  0.53035949  0.43144965  0.46480194  1
  O  O242  1  0.53035949  0.43144965  0.79813528  1
  O  O243  1  0.53035949  0.93144965  0.13146861  1
  O  O244  1  0.53035949  0.93144965  0.46480194  1
  O  O245  1  0.53035949  0.93144965  0.79813528  1
  O  O246  1  0.86369282  0.43144965  0.13146861  1
  O  O247  1  0.86369282  0.43144965  0.46480194  1
  O  O248  1  0.86369282  0.43144965  0.79813528  1
  O  O249  1  0.86369282  0.93144965  0.13146861  1
  O  O250  1  0.86369282  0.93144965  0.46480194  1
  O  O251  1  0.86369282  0.93144965  0.79813528  1
  O  O252  1  0.03035949  0.31855035  0.13146861  1
  O  O253  1  0.03035949  0.31855035  0.46480194  1
  O  O254  1  0.03035949  0.31855035  0.79813528  1
  O  O255  1  0.03035949  0.81855035  0.13146861  1
  O  O256  1  0.03035949  0.81855035  0.46480194  1
  O  O257  1  0.03035949  0.81855035  0.79813528  1
  O  O258  1  0.36369282  0.31855035  0.13146861  1
  O  O259  1  0.36369282  0.31855035  0.46480194  1
  O  O260  1  0.36369282  0.31855035  0.79813528  1
  O  O261  1  0.36369282  0.81855035  0.13146861  1
  O  O262  1  0.36369282  0.81855035  0.46480194  1
  O  O263  1  0.36369282  0.81855035  0.79813528  1
  O  O264  1  0.69702615  0.31855035  0.13146861  1
  O  O265  1  0.69702615  0.31855035  0.46480194  1
  O  O266  1  0.69702615  0.31855035  0.79813528  1
  O  O267  1  0.69702615  0.81855035  0.13146861  1
  O  O268  1  0.69702615  0.81855035  0.46480194  1
  O  O269  1  0.69702615  0.81855035  0.79813528  1
  O  O270  1  0.30297385  0.18144965  0.29813528  1
  O  O271  1  0.30297385  0.18144965  0.63146861  1
  O  O272  1  0.30297385  0.18144965  0.96480194  1
  O  O273  1  0.30297385  0.68144965  0.29813528  1
  O  O274  1  0.30297385  0.68144965  0.63146861  1
  O  O275  1  0.30297385  0.68144965  0.96480194  1
  O  O276  1  0.63630718  0.18144965  0.29813528  1
  O  O277  1  0.63630718  0.18144965  0.63146861  1
  O  O278  1  0.63630718  0.18144965  0.96480194  1
  O  O279  1  0.63630718  0.68144965  0.29813528  1
  O  O280  1  0.63630718  0.68144965  0.63146861  1
  O  O281  1  0.63630718  0.68144965  0.96480194  1
  O  O282  1  0.96964051  0.18144965  0.29813528  1
  O  O283  1  0.96964051  0.18144965  0.63146861  1
  O  O284  1  0.96964051  0.18144965  0.96480194  1
  O  O285  1  0.96964051  0.68144965  0.29813528  1
  O  O286  1  0.96964051  0.68144965  0.63146861  1
  O  O287  1  0.96964051  0.68144965  0.96480194  1
