# generated using pymatgen
data_SrHfO3
_symmetry_space_group_name_H-M   'P 1'
_cell_length_a   17.31764788
_cell_length_b   16.24400099
_cell_length_c   17.21438374
_cell_angle_alpha   90.00000000
_cell_angle_beta   90.00000000
_cell_angle_gamma   90.00000000
_symmetry_Int_Tables_number   1
_chemical_formula_structural   SrHfO3
_chemical_formula_sum   'Sr72 Hf72 O216'
_cell_volume   4842.54195719
_cell_formula_units_Z   72
loop_
 _symmetry_equiv_pos_site_id
 _symmetry_equiv_pos_as_xyz
  1  'x, y, z'
loop_
 _atom_site_type_symbol
 _atom_site_label
 _atom_site_symmetry_multiplicity
 _atom_site_fract_x
 _atom_site_fract_y
 _atom_site_fract_z
 _atom_site_occupancy
  Sr  Sr0  1  0.17603679  0.12500000  0.00212216  1
  Sr  Sr1  1  0.17603679  0.12500000  0.33545550  1
  Sr  Sr2  1  0.17603679  0.12500000  0.66878883  1
  Sr  Sr3  1  0.17603679  0.62500000  0.00212216  1
  Sr  Sr4  1  0.17603679  0.62500000  0.33545550  1
  Sr  Sr5  1  0.17603679  0.62500000  0.66878883  1
  Sr  Sr6  1  0.50937013  0.12500000  0.00212216  1
  Sr  Sr7  1  0.50937013  0.12500000  0.33545550  1
  Sr  Sr8  1  0.50937013  0.12500000  0.66878883  1
  Sr  Sr9  1  0.50937013  0.62500000  0.00212216  1
  Sr  Sr10  1  0.50937013  0.62500000  0.33545550  1
  Sr  Sr11  1  0.50937013  0.62500000  0.66878883  1
  Sr  Sr12  1  0.84270346  0.12500000  0.00212216  1
  Sr  Sr13  1  0.84270346  0.12500000  0.33545550  1
  Sr  Sr14  1  0.84270346  0.12500000  0.66878883  1
  Sr  Sr15  1  0.84270346  0.62500000  0.00212216  1
  Sr  Sr16  1  0.84270346  0.62500000  0.33545550  1
  Sr  Sr17  1  0.84270346  0.62500000  0.66878883  1
  Sr  Sr18  1  0.32396321  0.37500000  0.16878883  1
  Sr  Sr19  1  0.32396321  0.37500000  0.50212216  1
  Sr  Sr20  1  0.32396321  0.37500000  0.83545550  1
  Sr  Sr21  1  0.32396321  0.87500000  0.16878883  1
  Sr  Sr22  1  0.32396321  0.87500000  0.50212216  1
  Sr  Sr23  1  0.32396321  0.87500000  0.83545550  1
  Sr  Sr24  1  0.65729654  0.37500000  0.16878883  1
  Sr  Sr25  1  0.65729654  0.37500000  0.50212216  1
  Sr  Sr26  1  0.65729654  0.37500000  0.83545550  1
  Sr  Sr27  1  0.65729654  0.87500000  0.16878883  1
  Sr  Sr28  1  0.65729654  0.87500000  0.50212216  1
  Sr  Sr29  1  0.65729654  0.87500000  0.83545550  1
  Sr  Sr30  1  0.99062987  0.37500000  0.16878883  1
  Sr  Sr31  1  0.99062987  0.37500000  0.50212216  1
  Sr  Sr32  1  0.99062987  0.37500000  0.83545550  1
  Sr  Sr33  1  0.99062987  0.87500000  0.16878883  1
  Sr  Sr34  1  0.99062987  0.87500000  0.50212216  1
  Sr  Sr35  1  0.99062987  0.87500000  0.83545550  1
  Sr  Sr36  1  0.00937013  0.12500000  0.16454450  1
  Sr  Sr37  1  0.00937013  0.12500000  0.49787784  1
  Sr  Sr38  1  0.00937013  0.12500000  0.83121117  1
  Sr  Sr39  1  0.00937013  0.62500000  0.16454450  1
  Sr  Sr40  1  0.00937013  0.62500000  0.49787784  1
  Sr  Sr41  1  0.00937013  0.62500000  0.83121117  1
  Sr  Sr42  1  0.34270346  0.12500000  0.16454450  1
  Sr  Sr43  1  0.34270346  0.12500000  0.49787784  1
  Sr  Sr44  1  0.34270346  0.12500000  0.83121117  1
  Sr  Sr45  1  0.34270346  0.62500000  0.16454450  1
  Sr  Sr46  1  0.34270346  0.62500000  0.49787784  1
  Sr  Sr47  1  0.34270346  0.62500000  0.83121117  1
  Sr  Sr48  1  0.67603679  0.12500000  0.16454450  1
  Sr  Sr49  1  0.67603679  0.12500000  0.49787784  1
  Sr  Sr50  1  0.67603679  0.12500000  0.83121117  1
  Sr  Sr51  1  0.67603679  0.62500000  0.16454450  1
  Sr  Sr52  1  0.67603679  0.62500000  0.49787784  1
  Sr  Sr53  1  0.67603679  0.62500000  0.83121117  1
  Sr  Sr54  1  0.15729654  0.37500000  0.33121117  1
  Sr  Sr55  1  0.15729654  0.37500000  0.66454450  1
  Sr  Sr56  1  0.15729654  0.37500000  0.99787784  1
  Sr  Sr57  1  0.15729654  0.87500000  0.33121117  1
  Sr  Sr58  1  0.15729654  0.87500000  0.66454450  1
  Sr  Sr59  1  0.15729654  0.87500000  0.99787784  1
  Sr  Sr60  1  0.49062987  0.37500000  0.33121117  1
  Sr  Sr61  1  0.49062987  0.37500000  0.66454450  1
  Sr  Sr62  1  0.49062987  0.37500000  0.99787784  1
  Sr  Sr63  1  0.49062987  0.87500000  0.33121117  1
  Sr  Sr64  1  0.49062987  0.87500000  0.66454450  1
  Sr  Sr65  1  0.49062987  0.87500000  0.99787784  1
  Sr  Sr66  1  0.82396321  0.37500000  0.33121117  1
  Sr  Sr67  1  0.82396321  0.37500000  0.66454450  1
  Sr  Sr68  1  0.82396321  0.37500000  0.99787784  1
  Sr  Sr69  1  0.82396321  0.87500000  0.33121117  1
  Sr  Sr70  1  0.82396321  0.87500000  0.66454450  1
  Sr  Sr71  1  0.82396321  0.87500000  0.99787784  1
  Hf  Hf72  1  0.00000000  0.00000000  0.00000000  1
  Hf  Hf73  1  0.00000000  0.00000000  0.33333333  1
  Hf  Hf74  1  0.00000000  0.00000000  0.66666667  1
  Hf  Hf75  1  0.00000000  0.50000000  0.00000000  1
  Hf  Hf76  1  0.00000000  0.50000000  0.33333333  1
  Hf  Hf77  1  0.00000000  0.50000000  0.66666667  1
  Hf  Hf78  1  0.33333333  0.00000000  0.00000000  1
  Hf  Hf79  1  0.33333333  0.00000000  0.33333333  1
  Hf  Hf80  1  0.33333333  0.00000000  0.66666667  1
  Hf  Hf81  1  0.33333333  0.50000000  0.00000000  1
  Hf  Hf82  1  0.33333333  0.50000000  0.33333333  1
  Hf  Hf83  1  0.33333333  0.50000000  0.66666667  1
  Hf  Hf84  1  0.66666667  0.00000000  0.00000000  1
  Hf  Hf85  1  0.66666667  0.00000000  0.33333333  1
  Hf  Hf86  1  0.66666667  0.00000000  0.66666667  1
  Hf  Hf87  1  0.66666667  0.50000000  0.00000000  1
  Hf  Hf88  1  0.66666667  0.50000000  0.33333333  1
  Hf  Hf89  1  0.66666667  0.50000000  0.66666667  1
  Hf  Hf90  1  0.16666667  0.00000000  0.16666667  1
  Hf  Hf91  1  0.16666667  0.00000000  0.50000000  1
  Hf  Hf92  1  0.16666667  0.00000000  0.83333333  1
  Hf  Hf93  1  0.16666667  0.50000000  0.16666667  1
  Hf  Hf94  1  0.16666667  0.50000000  0.50000000  1
  Hf  Hf95  1  0.16666667  0.50000000  0.83333333  1
  Hf  Hf96  1  0.50000000  0.00000000  0.16666667  1
  Hf  Hf97  1  0.50000000  0.00000000  0.50000000  1
  Hf  Hf98  1  0.50000000  0.00000000  0.83333333  1
  Hf  Hf99  1  0.50000000  0.50000000  0.16666667  1
  Hf  Hf100  1  0.50000000  0.50000000  0.50000000  1
  Hf  Hf101  1  0.50000000  0.50000000  0.83333333  1
  Hf  Hf102  1  0.83333333  0.00000000  0.16666667  1
  Hf  Hf103  1  0.83333333  0.00000000  0.50000000  1
  Hf  Hf104  1  0.83333333  0.00000000  0.83333333  1
  Hf  Hf105  1  0.83333333  0.50000000  0.16666667  1
  Hf  Hf106  1  0.83333333  0.50000000  0.50000000  1
  Hf  Hf107  1  0.83333333  0.50000000  0.83333333  1
  Hf  Hf108  1  0.16666667  0.25000000  0.16666667  1
  Hf  Hf109  1  0.16666667  0.25000000  0.50000000  1
  Hf  Hf110  1  0.16666667  0.25000000  0.83333333  1
  Hf  Hf111  1  0.16666667  0.75000000  0.16666667  1
  Hf  Hf112  1  0.16666667  0.75000000  0.50000000  1
  Hf  Hf113  1  0.16666667  0.75000000  0.83333333  1
  Hf  Hf114  1  0.50000000  0.25000000  0.16666667  1
  Hf  Hf115  1  0.50000000  0.25000000  0.50000000  1
  Hf  Hf116  1  0.50000000  0.25000000  0.83333333  1
  Hf  Hf117  1  0.50000000  0.75000000  0.16666667  1
  Hf  Hf118  1  0.50000000  0.75000000  0.50000000  1
  Hf  Hf119  1  0.50000000  0.75000000  0.83333333  1
  Hf  Hf120  1  0.83333333  0.25000000  0.16666667  1
  Hf  Hf121  1  0.83333333  0.25000000  0.50000000  1
  Hf  Hf122  1  0.83333333  0.25000000  0.83333333  1
  Hf  Hf123  1  0.83333333  0.75000000  0.16666667  1
  Hf  Hf124  1  0.83333333  0.75000000  0.50000000  1
  Hf  Hf125  1  0.83333333  0.75000000  0.83333333  1
  Hf  Hf126  1  0.00000000  0.25000000  0.00000000  1
  Hf  Hf127  1  0.00000000  0.25000000  0.33333333  1
  Hf  Hf128  1  0.00000000  0.25000000  0.66666667  1
  Hf  Hf129  1  0.00000000  0.75000000  0.00000000  1
  Hf  Hf130  1  0.00000000  0.75000000  0.33333333  1
  Hf  Hf131  1  0.00000000  0.75000000  0.66666667  1
  Hf  Hf132  1  0.33333333  0.25000000  0.00000000  1
  Hf  Hf133  1  0.33333333  0.25000000  0.33333333  1
  Hf  Hf134  1  0.33333333  0.25000000  0.66666667  1
  Hf  Hf135  1  0.33333333  0.75000000  0.00000000  1
  Hf  Hf136  1  0.33333333  0.75000000  0.33333333  1
  Hf  Hf137  1  0.33333333  0.75000000  0.66666667  1
  Hf  Hf138  1  0.66666667  0.25000000  0.00000000  1
  Hf  Hf139  1  0.66666667  0.25000000  0.33333333  1
  Hf  Hf140  1  0.66666667  0.25000000  0.66666667  1
  Hf  Hf141  1  0.66666667  0.75000000  0.00000000  1
  Hf  Hf142  1  0.66666667  0.75000000  0.33333333  1
  Hf  Hf143  1  0.66666667  0.75000000  0.66666667  1
  O  O144  1  0.09418658  0.23123946  0.07244853  1
  O  O145  1  0.09418658  0.23123946  0.40578186  1
  O  O146  1  0.09418658  0.23123946  0.73911519  1
  O  O147  1  0.09418658  0.73123946  0.07244853  1
  O  O148  1  0.09418658  0.73123946  0.40578186  1
  O  O149  1  0.09418658  0.73123946  0.73911519  1
  O  O150  1  0.42751991  0.23123946  0.07244853  1
  O  O151  1  0.42751991  0.23123946  0.40578186  1
  O  O152  1  0.42751991  0.23123946  0.73911519  1
  O  O153  1  0.42751991  0.73123946  0.07244853  1
  O  O154  1  0.42751991  0.73123946  0.40578186  1
  O  O155  1  0.42751991  0.73123946  0.73911519  1
  O  O156  1  0.76085324  0.23123946  0.07244853  1
  O  O157  1  0.76085324  0.23123946  0.40578186  1
  O  O158  1  0.76085324  0.23123946  0.73911519  1
  O  O159  1  0.76085324  0.73123946  0.07244853  1
  O  O160  1  0.76085324  0.73123946  0.40578186  1
  O  O161  1  0.76085324  0.73123946  0.73911519  1
  O  O162  1  0.07248009  0.26876054  0.23911519  1
  O  O163  1  0.07248009  0.26876054  0.57244853  1
  O  O164  1  0.07248009  0.26876054  0.90578186  1
  O  O165  1  0.07248009  0.76876054  0.23911519  1
  O  O166  1  0.07248009  0.76876054  0.57244853  1
  O  O167  1  0.07248009  0.76876054  0.90578186  1
  O  O168  1  0.40581342  0.26876054  0.23911519  1
  O  O169  1  0.40581342  0.26876054  0.57244853  1
  O  O170  1  0.40581342  0.26876054  0.90578186  1
  O  O171  1  0.40581342  0.76876054  0.23911519  1
  O  O172  1  0.40581342  0.76876054  0.57244853  1
  O  O173  1  0.40581342  0.76876054  0.90578186  1
  O  O174  1  0.73914676  0.26876054  0.23911519  1
  O  O175  1  0.73914676  0.26876054  0.57244853  1
  O  O176  1  0.73914676  0.26876054  0.90578186  1
  O  O177  1  0.73914676  0.76876054  0.23911519  1
  O  O178  1  0.73914676  0.76876054  0.57244853  1
  O  O179  1  0.73914676  0.76876054  0.90578186  1
  O  O180  1  0.26085324  0.01876054  0.09421814  1
  O  O181  1  0.26085324  0.01876054  0.42755147  1
  O  O182  1  0.26085324  0.01876054  0.76088481  1
  O  O183  1  0.26085324  0.51876054  0.09421814  1
  O  O184  1  0.26085324  0.51876054  0.42755147  1
  O  O185  1  0.26085324  0.51876054  0.76088481  1
  O  O186  1  0.59418658  0.01876054  0.09421814  1
  O  O187  1  0.59418658  0.01876054  0.42755147  1
  O  O188  1  0.59418658  0.01876054  0.76088481  1
  O  O189  1  0.59418658  0.51876054  0.09421814  1
  O  O190  1  0.59418658  0.51876054  0.42755147  1
  O  O191  1  0.59418658  0.51876054  0.76088481  1
  O  O192  1  0.92751991  0.01876054  0.09421814  1
  O  O193  1  0.92751991  0.01876054  0.42755147  1
  O  O194  1  0.92751991  0.01876054  0.76088481  1
  O  O195  1  0.92751991  0.51876054  0.09421814  1
  O  O196  1  0.92751991  0.51876054  0.42755147  1
  O  O197  1  0.92751991  0.51876054  0.76088481  1
  O  O198  1  0.23914676  0.48123946  0.26088481  1
  O  O199  1  0.23914676  0.48123946  0.59421814  1
  O  O200  1  0.23914676  0.48123946  0.92755147  1
  O  O201  1  0.23914676  0.98123946  0.26088481  1
  O  O202  1  0.23914676  0.98123946  0.59421814  1
  O  O203  1  0.23914676  0.98123946  0.92755147  1
  O  O204  1  0.57248009  0.48123946  0.26088481  1
  O  O205  1  0.57248009  0.48123946  0.59421814  1
  O  O206  1  0.57248009  0.48123946  0.92755147  1
  O  O207  1  0.57248009  0.98123946  0.26088481  1
  O  O208  1  0.57248009  0.98123946  0.59421814  1
  O  O209  1  0.57248009  0.98123946  0.92755147  1
  O  O210  1  0.90581342  0.48123946  0.26088481  1
  O  O211  1  0.90581342  0.48123946  0.59421814  1
  O  O212  1  0.90581342  0.48123946  0.92755147  1
  O  O213  1  0.90581342  0.98123946  0.26088481  1
  O  O214  1  0.90581342  0.98123946  0.59421814  1
  O  O215  1  0.90581342  0.98123946  0.92755147  1
  O  O216  1  0.23914676  0.26876054  0.26088481  1
  O  O217  1  0.23914676  0.26876054  0.59421814  1
  O  O218  1  0.23914676  0.26876054  0.92755147  1
  O  O219  1  0.23914676  0.76876054  0.26088481  1
  O  O220  1  0.23914676  0.76876054  0.59421814  1
  O  O221  1  0.23914676  0.76876054  0.92755147  1
  O  O222  1  0.57248009  0.26876054  0.26088481  1
  O  O223  1  0.57248009  0.26876054  0.59421814  1
  O  O224  1  0.57248009  0.26876054  0.92755147  1
  O  O225  1  0.57248009  0.76876054  0.26088481  1
  O  O226  1  0.57248009  0.76876054  0.59421814  1
  O  O227  1  0.57248009  0.76876054  0.92755147  1
  O  O228  1  0.90581342  0.26876054  0.26088481  1
  O  O229  1  0.90581342  0.26876054  0.59421814  1
  O  O230  1  0.90581342  0.26876054  0.92755147  1
  O  O231  1  0.90581342  0.76876054  0.26088481  1
  O  O232  1  0.90581342  0.76876054  0.59421814  1
  O  O233  1  0.90581342  0.76876054  0.92755147  1
  O  O234  1  0.26085324  0.23123946  0.09421814  1
  O  O235  1  0.26085324  0.23123946  0.42755147  1
  O  O236  1  0.26085324  0.23123946  0.76088481  1
  O  O237  1  0.26085324  0.73123946  0.09421814  1
  O  O238  1  0.26085324  0.73123946  0.42755147  1
  O  O239  1  0.26085324  0.73123946  0.76088481  1
  O  O240  1  0.59418658  0.23123946  0.09421814  1
  O  O241  1  0.59418658  0.23123946  0.42755147  1
  O  O242  1  0.59418658  0.23123946  0.76088481  1
  O  O243  1  0.59418658  0.73123946  0.09421814  1
  O  O244  1  0.59418658  0.73123946  0.42755147  1
  O  O245  1  0.59418658  0.73123946  0.76088481  1
  O  O246  1  0.92751991  0.23123946  0.09421814  1
  O  O247  1  0.92751991  0.23123946  0.42755147  1
  O  O248  1  0.92751991  0.23123946  0.76088481  1
  O  O249  1  0.92751991  0.73123946  0.09421814  1
  O  O250  1  0.92751991  0.73123946  0.42755147  1
  O  O251  1  0.92751991  0.73123946  0.76088481  1
  O  O252  1  0.07248009  0.48123946  0.23911519  1
  O  O253  1  0.07248009  0.48123946  0.57244853  1
  O  O254  1  0.07248009  0.48123946  0.90578186  1
  O  O255  1  0.07248009  0.98123946  0.23911519  1
  O  O256  1  0.07248009  0.98123946  0.57244853  1
  O  O257  1  0.07248009  0.98123946  0.90578186  1
  O  O258  1  0.40581342  0.48123946  0.23911519  1
  O  O259  1  0.40581342  0.48123946  0.57244853  1
  O  O260  1  0.40581342  0.48123946  0.90578186  1
  O  O261  1  0.40581342  0.98123946  0.23911519  1
  O  O262  1  0.40581342  0.98123946  0.57244853  1
  O  O263  1  0.40581342  0.98123946  0.90578186  1
  O  O264  1  0.73914676  0.48123946  0.23911519  1
  O  O265  1  0.73914676  0.48123946  0.57244853  1
  O  O266  1  0.73914676  0.48123946  0.90578186  1
  O  O267  1  0.73914676  0.98123946  0.23911519  1
  O  O268  1  0.73914676  0.98123946  0.57244853  1
  O  O269  1  0.73914676  0.98123946  0.90578186  1
  O  O270  1  0.09418658  0.01876054  0.07244853  1
  O  O271  1  0.09418658  0.01876054  0.40578186  1
  O  O272  1  0.09418658  0.01876054  0.73911519  1
  O  O273  1  0.09418658  0.51876054  0.07244853  1
  O  O274  1  0.09418658  0.51876054  0.40578186  1
  O  O275  1  0.09418658  0.51876054  0.73911519  1
  O  O276  1  0.42751991  0.01876054  0.07244853  1
  O  O277  1  0.42751991  0.01876054  0.40578186  1
  O  O278  1  0.42751991  0.01876054  0.73911519  1
  O  O279  1  0.42751991  0.51876054  0.07244853  1
  O  O280  1  0.42751991  0.51876054  0.40578186  1
  O  O281  1  0.42751991  0.51876054  0.73911519  1
  O  O282  1  0.76085324  0.01876054  0.07244853  1
  O  O283  1  0.76085324  0.01876054  0.40578186  1
  O  O284  1  0.76085324  0.01876054  0.73911519  1
  O  O285  1  0.76085324  0.51876054  0.07244853  1
  O  O286  1  0.76085324  0.51876054  0.40578186  1
  O  O287  1  0.76085324  0.51876054  0.73911519  1
  O  O288  1  0.32798204  0.12500000  0.30961983  1
  O  O289  1  0.32798204  0.12500000  0.64295317  1
  O  O290  1  0.32798204  0.12500000  0.97628650  1
  O  O291  1  0.32798204  0.62500000  0.30961983  1
  O  O292  1  0.32798204  0.62500000  0.64295317  1
  O  O293  1  0.32798204  0.62500000  0.97628650  1
  O  O294  1  0.66131537  0.12500000  0.30961983  1
  O  O295  1  0.66131537  0.12500000  0.64295317  1
  O  O296  1  0.66131537  0.12500000  0.97628650  1
  O  O297  1  0.66131537  0.62500000  0.30961983  1
  O  O298  1  0.66131537  0.62500000  0.64295317  1
  O  O299  1  0.66131537  0.62500000  0.97628650  1
  O  O300  1  0.99464871  0.12500000  0.30961983  1
  O  O301  1  0.99464871  0.12500000  0.64295317  1
  O  O302  1  0.99464871  0.12500000  0.97628650  1
  O  O303  1  0.99464871  0.62500000  0.30961983  1
  O  O304  1  0.99464871  0.62500000  0.64295317  1
  O  O305  1  0.99464871  0.62500000  0.97628650  1
  O  O306  1  0.17201796  0.37500000  0.14295317  1
  O  O307  1  0.17201796  0.37500000  0.47628650  1
  O  O308  1  0.17201796  0.37500000  0.80961983  1
  O  O309  1  0.17201796  0.87500000  0.14295317  1
  O  O310  1  0.17201796  0.87500000  0.47628650  1
  O  O311  1  0.17201796  0.87500000  0.80961983  1
  O  O312  1  0.50535129  0.37500000  0.14295317  1
  O  O313  1  0.50535129  0.37500000  0.47628650  1
  O  O314  1  0.50535129  0.37500000  0.80961983  1
  O  O315  1  0.50535129  0.87500000  0.14295317  1
  O  O316  1  0.50535129  0.87500000  0.47628650  1
  O  O317  1  0.50535129  0.87500000  0.80961983  1
  O  O318  1  0.83868463  0.37500000  0.14295317  1
  O  O319  1  0.83868463  0.37500000  0.47628650  1
  O  O320  1  0.83868463  0.37500000  0.80961983  1
  O  O321  1  0.83868463  0.87500000  0.14295317  1
  O  O322  1  0.83868463  0.87500000  0.47628650  1
  O  O323  1  0.83868463  0.87500000  0.80961983  1
  O  O324  1  0.16131537  0.12500000  0.19038017  1
  O  O325  1  0.16131537  0.12500000  0.52371350  1
  O  O326  1  0.16131537  0.12500000  0.85704683  1
  O  O327  1  0.16131537  0.62500000  0.19038017  1
  O  O328  1  0.16131537  0.62500000  0.52371350  1
  O  O329  1  0.16131537  0.62500000  0.85704683  1
  O  O330  1  0.49464871  0.12500000  0.19038017  1
  O  O331  1  0.49464871  0.12500000  0.52371350  1
  O  O332  1  0.49464871  0.12500000  0.85704683  1
  O  O333  1  0.49464871  0.62500000  0.19038017  1
  O  O334  1  0.49464871  0.62500000  0.52371350  1
  O  O335  1  0.49464871  0.62500000  0.85704683  1
  O  O336  1  0.82798204  0.12500000  0.19038017  1
  O  O337  1  0.82798204  0.12500000  0.52371350  1
  O  O338  1  0.82798204  0.12500000  0.85704683  1
  O  O339  1  0.82798204  0.62500000  0.19038017  1
  O  O340  1  0.82798204  0.62500000  0.52371350  1
  O  O341  1  0.82798204  0.62500000  0.85704683  1
  O  O342  1  0.00535129  0.37500000  0.02371350  1
  O  O343  1  0.00535129  0.37500000  0.35704683  1
  O  O344  1  0.00535129  0.37500000  0.69038017  1
  O  O345  1  0.00535129  0.87500000  0.02371350  1
  O  O346  1  0.00535129  0.87500000  0.35704683  1
  O  O347  1  0.00535129  0.87500000  0.69038017  1
  O  O348  1  0.33868463  0.37500000  0.02371350  1
  O  O349  1  0.33868463  0.37500000  0.35704683  1
  O  O350  1  0.33868463  0.37500000  0.69038017  1
  O  O351  1  0.33868463  0.87500000  0.02371350  1
  O  O352  1  0.33868463  0.87500000  0.35704683  1
  O  O353  1  0.33868463  0.87500000  0.69038017  1
  O  O354  1  0.67201796  0.37500000  0.02371350  1
  O  O355  1  0.67201796  0.37500000  0.35704683  1
  O  O356  1  0.67201796  0.37500000  0.69038017  1
  O  O357  1  0.67201796  0.87500000  0.02371350  1
  O  O358  1  0.67201796  0.87500000  0.35704683  1
  O  O359  1  0.67201796  0.87500000  0.69038017  1
