# generated using pymatgen
data_CsAuO
_symmetry_space_group_name_H-M   'P 1'
_cell_length_a   20.18268449
_cell_length_b   20.18268449
_cell_length_c   18.46862458
_cell_angle_alpha   90.00000000
_cell_angle_beta   90.00000000
_cell_angle_gamma   90.00000000
_symmetry_Int_Tables_number   1
_chemical_formula_structural   CsAuO
_chemical_formula_sum   'Cs96 Au96 O96'
_cell_volume   7523.02344698
_cell_formula_units_Z   96
loop_
 _symmetry_equiv_pos_site_id
 _symmetry_equiv_pos_as_xyz
  1  'x, y, z'
loop_
 _atom_site_type_symbol
 _atom_site_label
 _atom_site_symmetry_multiplicity
 _atom_site_fract_x
 _atom_site_fract_y
 _atom_site_fract_z
 _atom_site_occupancy
  Cs  Cs0  1  -0.00000000  0.35036922  0.16666667  1
  Cs  Cs1  1  -0.00000000  0.35036922  0.50000000  1
  Cs  Cs2  1  -0.00000000  0.35036922  0.83333333  1
  Cs  Cs3  1  0.50000000  0.35036922  0.16666667  1
  Cs  Cs4  1  0.50000000  0.35036922  0.50000000  1
  Cs  Cs5  1  0.50000000  0.35036922  0.83333333  1
  Cs  Cs6  1  -0.00000000  -0.14963078  0.16666667  1
  Cs  Cs7  1  -0.00000000  -0.14963078  0.50000000  1
  Cs  Cs8  1  -0.00000000  -0.14963078  0.83333333  1
  Cs  Cs9  1  0.50000000  -0.14963078  0.16666667  1
  Cs  Cs10  1  0.50000000  -0.14963078  0.50000000  1
  Cs  Cs11  1  0.50000000  -0.14963078  0.83333333  1
  Cs  Cs12  1  0.25000000  0.10036922  0.33333333  1
  Cs  Cs13  1  0.25000000  0.10036922  0.66666667  1
  Cs  Cs14  1  0.25000000  0.10036922  1.00000000  1
  Cs  Cs15  1  0.75000000  0.10036922  0.33333333  1
  Cs  Cs16  1  0.75000000  0.10036922  0.66666667  1
  Cs  Cs17  1  0.75000000  0.10036922  1.00000000  1
  Cs  Cs18  1  0.25000000  -0.39963078  0.33333333  1
  Cs  Cs19  1  0.25000000  -0.39963078  0.66666667  1
  Cs  Cs20  1  0.25000000  -0.39963078  1.00000000  1
  Cs  Cs21  1  0.75000000  -0.39963078  0.33333333  1
  Cs  Cs22  1  0.75000000  -0.39963078  0.66666667  1
  Cs  Cs23  1  0.75000000  -0.39963078  1.00000000  1
  Cs  Cs24  1  0.14963078  0.50000000  0.16666667  1
  Cs  Cs25  1  0.14963078  0.50000000  0.50000000  1
  Cs  Cs26  1  0.14963078  0.50000000  0.83333333  1
  Cs  Cs27  1  0.64963078  0.50000000  0.16666667  1
  Cs  Cs28  1  0.64963078  0.50000000  0.50000000  1
  Cs  Cs29  1  0.64963078  0.50000000  0.83333333  1
  Cs  Cs30  1  0.14963078  -0.00000000  0.16666667  1
  Cs  Cs31  1  0.14963078  -0.00000000  0.50000000  1
  Cs  Cs32  1  0.14963078  -0.00000000  0.83333333  1
  Cs  Cs33  1  0.64963078  -0.00000000  0.16666667  1
  Cs  Cs34  1  0.64963078  -0.00000000  0.50000000  1
  Cs  Cs35  1  0.64963078  -0.00000000  0.83333333  1
  Cs  Cs36  1  0.39963078  0.25000000  0.33333333  1
  Cs  Cs37  1  0.39963078  0.25000000  0.66666667  1
  Cs  Cs38  1  0.39963078  0.25000000  1.00000000  1
  Cs  Cs39  1  0.89963078  0.25000000  0.33333333  1
  Cs  Cs40  1  0.89963078  0.25000000  0.66666667  1
  Cs  Cs41  1  0.89963078  0.25000000  1.00000000  1
  Cs  Cs42  1  0.39963078  -0.25000000  0.33333333  1
  Cs  Cs43  1  0.39963078  -0.25000000  0.66666667  1
  Cs  Cs44  1  0.39963078  -0.25000000  1.00000000  1
  Cs  Cs45  1  0.89963078  -0.25000000  0.33333333  1
  Cs  Cs46  1  0.89963078  -0.25000000  0.66666667  1
  Cs  Cs47  1  0.89963078  -0.25000000  1.00000000  1
  Cs  Cs48  1  0.10036922  0.25000000  0.00000000  1
  Cs  Cs49  1  0.10036922  0.25000000  0.33333333  1
  Cs  Cs50  1  0.10036922  0.25000000  0.66666667  1
  Cs  Cs51  1  0.60036922  0.25000000  0.00000000  1
  Cs  Cs52  1  0.60036922  0.25000000  0.33333333  1
  Cs  Cs53  1  0.60036922  0.25000000  0.66666667  1
  Cs  Cs54  1  0.10036922  -0.25000000  0.00000000  1
  Cs  Cs55  1  0.10036922  -0.25000000  0.33333333  1
  Cs  Cs56  1  0.10036922  -0.25000000  0.66666667  1
  Cs  Cs57  1  0.60036922  -0.25000000  0.00000000  1
  Cs  Cs58  1  0.60036922  -0.25000000  0.33333333  1
  Cs  Cs59  1  0.60036922  -0.25000000  0.66666667  1
  Cs  Cs60  1  0.35036922  0.00000000  0.16666667  1
  Cs  Cs61  1  0.35036922  0.00000000  0.50000000  1
  Cs  Cs62  1  0.35036922  0.00000000  0.83333333  1
  Cs  Cs63  1  0.85036922  0.00000000  0.16666667  1
  Cs  Cs64  1  0.85036922  0.00000000  0.50000000  1
  Cs  Cs65  1  0.85036922  0.00000000  0.83333333  1
  Cs  Cs66  1  0.35036922  -0.50000000  0.16666667  1
  Cs  Cs67  1  0.35036922  -0.50000000  0.50000000  1
  Cs  Cs68  1  0.35036922  -0.50000000  0.83333333  1
  Cs  Cs69  1  0.85036922  -0.50000000  0.16666667  1
  Cs  Cs70  1  0.85036922  -0.50000000  0.50000000  1
  Cs  Cs71  1  0.85036922  -0.50000000  0.83333333  1
  Cs  Cs72  1  0.25000000  0.39963078  0.00000000  1
  Cs  Cs73  1  0.25000000  0.39963078  0.33333333  1
  Cs  Cs74  1  0.25000000  0.39963078  0.66666667  1
  Cs  Cs75  1  0.75000000  0.39963078  0.00000000  1
  Cs  Cs76  1  0.75000000  0.39963078  0.33333333  1
  Cs  Cs77  1  0.75000000  0.39963078  0.66666667  1
  Cs  Cs78  1  0.25000000  -0.10036922  0.00000000  1
  Cs  Cs79  1  0.25000000  -0.10036922  0.33333333  1
  Cs  Cs80  1  0.25000000  -0.10036922  0.66666667  1
  Cs  Cs81  1  0.75000000  -0.10036922  0.00000000  1
  Cs  Cs82  1  0.75000000  -0.10036922  0.33333333  1
  Cs  Cs83  1  0.75000000  -0.10036922  0.66666667  1
  Cs  Cs84  1  0.50000000  0.14963078  0.16666667  1
  Cs  Cs85  1  0.50000000  0.14963078  0.50000000  1
  Cs  Cs86  1  0.50000000  0.14963078  0.83333333  1
  Cs  Cs87  1  1.00000000  0.14963078  0.16666667  1
  Cs  Cs88  1  1.00000000  0.14963078  0.50000000  1
  Cs  Cs89  1  1.00000000  0.14963078  0.83333333  1
  Cs  Cs90  1  0.50000000  -0.35036922  0.16666667  1
  Cs  Cs91  1  0.50000000  -0.35036922  0.50000000  1
  Cs  Cs92  1  0.50000000  -0.35036922  0.83333333  1
  Cs  Cs93  1  1.00000000  -0.35036922  0.16666667  1
  Cs  Cs94  1  1.00000000  -0.35036922  0.50000000  1
  Cs  Cs95  1  1.00000000  -0.35036922  0.83333333  1
  Au  Au96  1  0.07303167  0.42696833  -0.00000000  1
  Au  Au97  1  0.07303167  0.42696833  0.33333333  1
  Au  Au98  1  0.07303167  0.42696833  0.66666667  1
  Au  Au99  1  0.57303167  0.42696833  -0.00000000  1
  Au  Au100  1  0.57303167  0.42696833  0.33333333  1
  Au  Au101  1  0.57303167  0.42696833  0.66666667  1
  Au  Au102  1  0.07303167  -0.07303167  -0.00000000  1
  Au  Au103  1  0.07303167  -0.07303167  0.33333333  1
  Au  Au104  1  0.07303167  -0.07303167  0.66666667  1
  Au  Au105  1  0.57303167  -0.07303167  -0.00000000  1
  Au  Au106  1  0.57303167  -0.07303167  0.33333333  1
  Au  Au107  1  0.57303167  -0.07303167  0.66666667  1
  Au  Au108  1  0.32303167  0.17696833  0.16666667  1
  Au  Au109  1  0.32303167  0.17696833  0.50000000  1
  Au  Au110  1  0.32303167  0.17696833  0.83333333  1
  Au  Au111  1  0.82303167  0.17696833  0.16666667  1
  Au  Au112  1  0.82303167  0.17696833  0.50000000  1
  Au  Au113  1  0.82303167  0.17696833  0.83333333  1
  Au  Au114  1  0.32303167  -0.32303167  0.16666667  1
  Au  Au115  1  0.32303167  -0.32303167  0.50000000  1
  Au  Au116  1  0.32303167  -0.32303167  0.83333333  1
  Au  Au117  1  0.82303167  -0.32303167  0.16666667  1
  Au  Au118  1  0.82303167  -0.32303167  0.50000000  1
  Au  Au119  1  0.82303167  -0.32303167  0.83333333  1
  Au  Au120  1  -0.17696833  0.32303167  0.16666667  1
  Au  Au121  1  -0.17696833  0.32303167  0.50000000  1
  Au  Au122  1  -0.17696833  0.32303167  0.83333333  1
  Au  Au123  1  0.32303167  0.32303167  0.16666667  1
  Au  Au124  1  0.32303167  0.32303167  0.50000000  1
  Au  Au125  1  0.32303167  0.32303167  0.83333333  1
  Au  Au126  1  -0.17696833  -0.17696833  0.16666667  1
  Au  Au127  1  -0.17696833  -0.17696833  0.50000000  1
  Au  Au128  1  -0.17696833  -0.17696833  0.83333333  1
  Au  Au129  1  0.32303167  -0.17696833  0.16666667  1
  Au  Au130  1  0.32303167  -0.17696833  0.50000000  1
  Au  Au131  1  0.32303167  -0.17696833  0.83333333  1
  Au  Au132  1  0.07303167  0.07303167  0.33333333  1
  Au  Au133  1  0.07303167  0.07303167  0.66666667  1
  Au  Au134  1  0.07303167  0.07303167  1.00000000  1
  Au  Au135  1  0.57303167  0.07303167  0.33333333  1
  Au  Au136  1  0.57303167  0.07303167  0.66666667  1
  Au  Au137  1  0.57303167  0.07303167  1.00000000  1
  Au  Au138  1  0.07303167  -0.42696833  0.33333333  1
  Au  Au139  1  0.07303167  -0.42696833  0.66666667  1
  Au  Au140  1  0.07303167  -0.42696833  1.00000000  1
  Au  Au141  1  0.57303167  -0.42696833  0.33333333  1
  Au  Au142  1  0.57303167  -0.42696833  0.66666667  1
  Au  Au143  1  0.57303167  -0.42696833  1.00000000  1
  Au  Au144  1  0.17696833  0.67696833  0.16666667  1
  Au  Au145  1  0.17696833  0.67696833  0.50000000  1
  Au  Au146  1  0.17696833  0.67696833  0.83333333  1
  Au  Au147  1  0.67696833  0.67696833  0.16666667  1
  Au  Au148  1  0.67696833  0.67696833  0.50000000  1
  Au  Au149  1  0.67696833  0.67696833  0.83333333  1
  Au  Au150  1  0.17696833  0.17696833  0.16666667  1
  Au  Au151  1  0.17696833  0.17696833  0.50000000  1
  Au  Au152  1  0.17696833  0.17696833  0.83333333  1
  Au  Au153  1  0.67696833  0.17696833  0.16666667  1
  Au  Au154  1  0.67696833  0.17696833  0.50000000  1
  Au  Au155  1  0.67696833  0.17696833  0.83333333  1
  Au  Au156  1  0.42696833  0.42696833  0.33333333  1
  Au  Au157  1  0.42696833  0.42696833  0.66666667  1
  Au  Au158  1  0.42696833  0.42696833  1.00000000  1
  Au  Au159  1  0.92696833  0.42696833  0.33333333  1
  Au  Au160  1  0.92696833  0.42696833  0.66666667  1
  Au  Au161  1  0.92696833  0.42696833  1.00000000  1
  Au  Au162  1  0.42696833  -0.07303167  0.33333333  1
  Au  Au163  1  0.42696833  -0.07303167  0.66666667  1
  Au  Au164  1  0.42696833  -0.07303167  1.00000000  1
  Au  Au165  1  0.92696833  -0.07303167  0.33333333  1
  Au  Au166  1  0.92696833  -0.07303167  0.66666667  1
  Au  Au167  1  0.92696833  -0.07303167  1.00000000  1
  Au  Au168  1  0.17696833  0.32303167  0.16666667  1
  Au  Au169  1  0.17696833  0.32303167  0.50000000  1
  Au  Au170  1  0.17696833  0.32303167  0.83333333  1
  Au  Au171  1  0.67696833  0.32303167  0.16666667  1
  Au  Au172  1  0.67696833  0.32303167  0.50000000  1
  Au  Au173  1  0.67696833  0.32303167  0.83333333  1
  Au  Au174  1  0.17696833  -0.17696833  0.16666667  1
  Au  Au175  1  0.17696833  -0.17696833  0.50000000  1
  Au  Au176  1  0.17696833  -0.17696833  0.83333333  1
  Au  Au177  1  0.67696833  -0.17696833  0.16666667  1
  Au  Au178  1  0.67696833  -0.17696833  0.50000000  1
  Au  Au179  1  0.67696833  -0.17696833  0.83333333  1
  Au  Au180  1  0.42696833  0.07303167  0.33333333  1
  Au  Au181  1  0.42696833  0.07303167  0.66666667  1
  Au  Au182  1  0.42696833  0.07303167  1.00000000  1
  Au  Au183  1  0.92696833  0.07303167  0.33333333  1
  Au  Au184  1  0.92696833  0.07303167  0.66666667  1
  Au  Au185  1  0.92696833  0.07303167  1.00000000  1
  Au  Au186  1  0.42696833  -0.42696833  0.33333333  1
  Au  Au187  1  0.42696833  -0.42696833  0.66666667  1
  Au  Au188  1  0.42696833  -0.42696833  1.00000000  1
  Au  Au189  1  0.92696833  -0.42696833  0.33333333  1
  Au  Au190  1  0.92696833  -0.42696833  0.66666667  1
  Au  Au191  1  0.92696833  -0.42696833  1.00000000  1
  O  O192  1  -0.00000000  0.35843853  0.00000000  1
  O  O193  1  -0.00000000  0.35843853  0.33333333  1
  O  O194  1  -0.00000000  0.35843853  0.66666667  1
  O  O195  1  0.50000000  0.35843853  0.00000000  1
  O  O196  1  0.50000000  0.35843853  0.33333333  1
  O  O197  1  0.50000000  0.35843853  0.66666667  1
  O  O198  1  -0.00000000  -0.14156147  0.00000000  1
  O  O199  1  -0.00000000  -0.14156147  0.33333333  1
  O  O200  1  -0.00000000  -0.14156147  0.66666667  1
  O  O201  1  0.50000000  -0.14156147  0.00000000  1
  O  O202  1  0.50000000  -0.14156147  0.33333333  1
  O  O203  1  0.50000000  -0.14156147  0.66666667  1
  O  O204  1  0.25000000  0.10843853  0.16666667  1
  O  O205  1  0.25000000  0.10843853  0.50000000  1
  O  O206  1  0.25000000  0.10843853  0.83333333  1
  O  O207  1  0.75000000  0.10843853  0.16666667  1
  O  O208  1  0.75000000  0.10843853  0.50000000  1
  O  O209  1  0.75000000  0.10843853  0.83333333  1
  O  O210  1  0.25000000  -0.39156147  0.16666667  1
  O  O211  1  0.25000000  -0.39156147  0.50000000  1
  O  O212  1  0.25000000  -0.39156147  0.83333333  1
  O  O213  1  0.75000000  -0.39156147  0.16666667  1
  O  O214  1  0.75000000  -0.39156147  0.50000000  1
  O  O215  1  0.75000000  -0.39156147  0.83333333  1
  O  O216  1  0.14156147  0.50000000  0.00000000  1
  O  O217  1  0.14156147  0.50000000  0.33333333  1
  O  O218  1  0.14156147  0.50000000  0.66666667  1
  O  O219  1  0.64156147  0.50000000  0.00000000  1
  O  O220  1  0.64156147  0.50000000  0.33333333  1
  O  O221  1  0.64156147  0.50000000  0.66666667  1
  O  O222  1  0.14156147  0.00000000  0.00000000  1
  O  O223  1  0.14156147  0.00000000  0.33333333  1
  O  O224  1  0.14156147  0.00000000  0.66666667  1
  O  O225  1  0.64156147  0.00000000  0.00000000  1
  O  O226  1  0.64156147  0.00000000  0.33333333  1
  O  O227  1  0.64156147  0.00000000  0.66666667  1
  O  O228  1  0.39156147  0.25000000  0.16666667  1
  O  O229  1  0.39156147  0.25000000  0.50000000  1
  O  O230  1  0.39156147  0.25000000  0.83333333  1
  O  O231  1  0.89156147  0.25000000  0.16666667  1
  O  O232  1  0.89156147  0.25000000  0.50000000  1
  O  O233  1  0.89156147  0.25000000  0.83333333  1
  O  O234  1  0.39156147  -0.25000000  0.16666667  1
  O  O235  1  0.39156147  -0.25000000  0.50000000  1
  O  O236  1  0.39156147  -0.25000000  0.83333333  1
  O  O237  1  0.89156147  -0.25000000  0.16666667  1
  O  O238  1  0.89156147  -0.25000000  0.50000000  1
  O  O239  1  0.89156147  -0.25000000  0.83333333  1
  O  O240  1  0.35843853  0.50000000  -0.00000000  1
  O  O241  1  0.35843853  0.50000000  0.33333333  1
  O  O242  1  0.35843853  0.50000000  0.66666667  1
  O  O243  1  0.85843853  0.50000000  -0.00000000  1
  O  O244  1  0.85843853  0.50000000  0.33333333  1
  O  O245  1  0.85843853  0.50000000  0.66666667  1
  O  O246  1  0.35843853  0.00000000  -0.00000000  1
  O  O247  1  0.35843853  0.00000000  0.33333333  1
  O  O248  1  0.35843853  0.00000000  0.66666667  1
  O  O249  1  0.85843853  0.00000000  -0.00000000  1
  O  O250  1  0.85843853  0.00000000  0.33333333  1
  O  O251  1  0.85843853  0.00000000  0.66666667  1
  O  O252  1  0.60843853  0.25000000  0.16666667  1
  O  O253  1  0.60843853  0.25000000  0.50000000  1
  O  O254  1  0.60843853  0.25000000  0.83333333  1
  O  O255  1  1.10843853  0.25000000  0.16666667  1
  O  O256  1  1.10843853  0.25000000  0.50000000  1
  O  O257  1  1.10843853  0.25000000  0.83333333  1
  O  O258  1  0.60843853  -0.25000000  0.16666667  1
  O  O259  1  0.60843853  -0.25000000  0.50000000  1
  O  O260  1  0.60843853  -0.25000000  0.83333333  1
  O  O261  1  1.10843853  -0.25000000  0.16666667  1
  O  O262  1  1.10843853  -0.25000000  0.50000000  1
  O  O263  1  1.10843853  -0.25000000  0.83333333  1
  O  O264  1  -0.00000000  0.14156147  -0.00000000  1
  O  O265  1  -0.00000000  0.14156147  0.33333333  1
  O  O266  1  -0.00000000  0.14156147  0.66666667  1
  O  O267  1  0.50000000  0.14156147  -0.00000000  1
  O  O268  1  0.50000000  0.14156147  0.33333333  1
  O  O269  1  0.50000000  0.14156147  0.66666667  1
  O  O270  1  -0.00000000  -0.35843853  -0.00000000  1
  O  O271  1  -0.00000000  -0.35843853  0.33333333  1
  O  O272  1  -0.00000000  -0.35843853  0.66666667  1
  O  O273  1  0.50000000  -0.35843853  -0.00000000  1
  O  O274  1  0.50000000  -0.35843853  0.33333333  1
  O  O275  1  0.50000000  -0.35843853  0.66666667  1
  O  O276  1  0.25000000  -0.10843853  0.16666667  1
  O  O277  1  0.25000000  -0.10843853  0.50000000  1
  O  O278  1  0.25000000  -0.10843853  0.83333333  1
  O  O279  1  0.75000000  -0.10843853  0.16666667  1
  O  O280  1  0.75000000  -0.10843853  0.50000000  1
  O  O281  1  0.75000000  -0.10843853  0.83333333  1
  O  O282  1  0.25000000  -0.60843853  0.16666667  1
  O  O283  1  0.25000000  -0.60843853  0.50000000  1
  O  O284  1  0.25000000  -0.60843853  0.83333333  1
  O  O285  1  0.75000000  -0.60843853  0.16666667  1
  O  O286  1  0.75000000  -0.60843853  0.50000000  1
  O  O287  1  0.75000000  -0.60843853  0.83333333  1
