# generated using pymatgen
data_ReAgO4
_symmetry_space_group_name_H-M   'P 1'
_cell_length_a   10.68962010
_cell_length_b   10.68962010
_cell_length_c   11.31738010
_cell_angle_alpha   90.00000000
_cell_angle_beta   90.00000000
_cell_angle_gamma   90.00000000
_symmetry_Int_Tables_number   1
_chemical_formula_structural   ReAgO4
_chemical_formula_sum   'Re16 Ag16 O64'
_cell_volume   1293.21413920
_cell_formula_units_Z   16
loop_
 _symmetry_equiv_pos_site_id
 _symmetry_equiv_pos_as_xyz
  1  'x, y, z'
loop_
 _atom_site_type_symbol
 _atom_site_label
 _atom_site_symmetry_multiplicity
 _atom_site_fract_x
 _atom_site_fract_y
 _atom_site_fract_z
 _atom_site_occupancy
  Re  Re0  1  0.00000000  0.50000000  0.50000000  1
  Re  Re1  1  0.50000000  0.50000000  0.50000000  1
  Re  Re2  1  0.00000000  -0.00000000  0.50000000  1
  Re  Re3  1  0.50000000  -0.00000000  0.50000000  1
  Re  Re4  1  0.25000000  0.25000000  1.00000000  1
  Re  Re5  1  0.75000000  0.25000000  1.00000000  1
  Re  Re6  1  0.25000000  -0.25000000  1.00000000  1
  Re  Re7  1  0.75000000  -0.25000000  1.00000000  1
  Re  Re8  1  0.00000000  0.25000000  0.25000000  1
  Re  Re9  1  0.50000000  0.25000000  0.25000000  1
  Re  Re10  1  0.00000000  -0.25000000  0.25000000  1
  Re  Re11  1  0.50000000  -0.25000000  0.25000000  1
  Re  Re12  1  0.25000000  0.00000000  0.75000000  1
  Re  Re13  1  0.75000000  0.00000000  0.75000000  1
  Re  Re14  1  0.25000000  -0.50000000  0.75000000  1
  Re  Re15  1  0.75000000  -0.50000000  0.75000000  1
  Ag  Ag16  1  0.25000000  0.50000000  0.25000000  1
  Ag  Ag17  1  0.75000000  0.50000000  0.25000000  1
  Ag  Ag18  1  0.25000000  0.00000000  0.25000000  1
  Ag  Ag19  1  0.75000000  0.00000000  0.25000000  1
  Ag  Ag20  1  0.50000000  0.25000000  0.75000000  1
  Ag  Ag21  1  1.00000000  0.25000000  0.75000000  1
  Ag  Ag22  1  0.50000000  -0.25000000  0.75000000  1
  Ag  Ag23  1  1.00000000  -0.25000000  0.75000000  1
  Ag  Ag24  1  0.00000000  0.50000000  -0.00000000  1
  Ag  Ag25  1  0.50000000  0.50000000  -0.00000000  1
  Ag  Ag26  1  0.00000000  -0.00000000  -0.00000000  1
  Ag  Ag27  1  0.50000000  -0.00000000  -0.00000000  1
  Ag  Ag28  1  0.25000000  0.25000000  0.50000000  1
  Ag  Ag29  1  0.75000000  0.25000000  0.50000000  1
  Ag  Ag30  1  0.25000000  -0.25000000  0.50000000  1
  Ag  Ag31  1  0.75000000  -0.25000000  0.50000000  1
  O  O32  1  0.11655863  0.43059700  0.41219466  1
  O  O33  1  0.61655863  0.43059700  0.41219466  1
  O  O34  1  0.11655863  -0.06940300  0.41219466  1
  O  O35  1  0.61655863  -0.06940300  0.41219466  1
  O  O36  1  0.36655863  0.18059700  0.91219466  1
  O  O37  1  0.86655863  0.18059700  0.91219466  1
  O  O38  1  0.36655863  -0.31940300  0.91219466  1
  O  O39  1  0.86655863  -0.31940300  0.91219466  1
  O  O40  1  -0.06940300  0.13344137  0.16219466  1
  O  O41  1  0.43059700  0.13344137  0.16219466  1
  O  O42  1  -0.06940300  -0.36655863  0.16219466  1
  O  O43  1  0.43059700  -0.36655863  0.16219466  1
  O  O44  1  0.18059700  -0.11655863  0.66219466  1
  O  O45  1  0.68059700  -0.11655863  0.66219466  1
  O  O46  1  0.18059700  -0.61655863  0.66219466  1
  O  O47  1  0.68059700  -0.61655863  0.66219466  1
  O  O48  1  0.06940300  0.36655863  0.16219466  1
  O  O49  1  0.56940300  0.36655863  0.16219466  1
  O  O50  1  0.06940300  -0.13344137  0.16219466  1
  O  O51  1  0.56940300  -0.13344137  0.16219466  1
  O  O52  1  0.31940300  0.11655863  0.66219466  1
  O  O53  1  0.81940300  0.11655863  0.66219466  1
  O  O54  1  0.31940300  -0.38344137  0.66219466  1
  O  O55  1  0.81940300  -0.38344137  0.66219466  1
  O  O56  1  0.13344137  0.31940300  -0.08780534  1
  O  O57  1  0.63344137  0.31940300  -0.08780534  1
  O  O58  1  0.13344137  -0.18059700  -0.08780534  1
  O  O59  1  0.63344137  -0.18059700  -0.08780534  1
  O  O60  1  0.38344137  0.06940300  0.41219466  1
  O  O61  1  0.88344137  0.06940300  0.41219466  1
  O  O62  1  0.38344137  -0.43059700  0.41219466  1
  O  O63  1  0.88344137  -0.43059700  0.41219466  1
  O  O64  1  0.11655863  0.18059700  0.33780534  1
  O  O65  1  0.61655863  0.18059700  0.33780534  1
  O  O66  1  0.11655863  -0.31940300  0.33780534  1
  O  O67  1  0.61655863  -0.31940300  0.33780534  1
  O  O68  1  0.36655863  -0.06940300  0.83780534  1
  O  O69  1  0.86655863  -0.06940300  0.83780534  1
  O  O70  1  0.36655863  -0.56940300  0.83780534  1
  O  O71  1  0.86655863  -0.56940300  0.83780534  1
  O  O72  1  -0.06940300  0.38344137  0.58780534  1
  O  O73  1  0.43059700  0.38344137  0.58780534  1
  O  O74  1  -0.06940300  -0.11655863  0.58780534  1
  O  O75  1  0.43059700  -0.11655863  0.58780534  1
  O  O76  1  0.18059700  0.13344137  1.08780534  1
  O  O77  1  0.68059700  0.13344137  1.08780534  1
  O  O78  1  0.18059700  -0.36655863  1.08780534  1
  O  O79  1  0.68059700  -0.36655863  1.08780534  1
  O  O80  1  0.31940300  0.36655863  0.08780534  1
  O  O81  1  0.81940300  0.36655863  0.08780534  1
  O  O82  1  0.31940300  -0.13344137  0.08780534  1
  O  O83  1  0.81940300  -0.13344137  0.08780534  1
  O  O84  1  0.56940300  0.11655863  0.58780534  1
  O  O85  1  1.06940300  0.11655863  0.58780534  1
  O  O86  1  0.56940300  -0.38344137  0.58780534  1
  O  O87  1  1.06940300  -0.38344137  0.58780534  1
  O  O88  1  -0.11655863  0.31940300  0.33780534  1
  O  O89  1  0.38344137  0.31940300  0.33780534  1
  O  O90  1  -0.11655863  -0.18059700  0.33780534  1
  O  O91  1  0.38344137  -0.18059700  0.33780534  1
  O  O92  1  0.13344137  0.06940300  0.83780534  1
  O  O93  1  0.63344137  0.06940300  0.83780534  1
  O  O94  1  0.13344137  -0.43059700  0.83780534  1
  O  O95  1  0.63344137  -0.43059700  0.83780534  1
