data_image0
_chemical_formula_structural       OAlLa2AlO5
_chemical_formula_sum              "O6 Al2 La2"
_cell_length_a       5.41267
_cell_length_b       5.41267
_cell_length_c       5.41267
_cell_angle_alpha    60.149
_cell_angle_beta     60.149
_cell_angle_gamma    60.149

_space_group_name_H-M_alt    "P 1"
_space_group_IT_number       1

loop_
  _space_group_symop_operation_xyz
  'x, y, z'

loop_
  _atom_site_type_symbol
  _atom_site_label
  _atom_site_symmetry_multiplicity
  _atom_site_fract_x
  _atom_site_fract_y
  _atom_site_fract_z
  _atom_site_occupancy
  O   O1        1.0  0.77817  0.25000  0.72183  1.0000
  Al  Al1       1.0  0.50000  0.50000  0.50000  1.0000
  La  La1       1.0  0.25000  0.25000  0.25000  1.0000
  La  La1       1.0  0.75000  0.75000  0.75000  1.0000
  Al  Al1       1.0  1.00000  1.00000  -0.00000  1.0000
  O   O1        1.0  0.25000  0.72183  0.77817  1.0000
  O   O1        1.0  0.72183  0.77817  0.25000  1.0000
  O   O1        1.0  0.27817  0.22183  0.75000  1.0000
  O   O1        1.0  0.75000  0.27817  0.22183  1.0000
  O   O1        1.0  0.22183  0.75000  0.27817  1.0000
