data_image0
_chemical_formula_structural       OCo2Ba3CoO5
_chemical_formula_sum              "O6 Co3 Ba3"
_cell_length_a       5.94655
_cell_length_b       5.94657
_cell_length_c       6.7932
_cell_angle_alpha    89.8783
_cell_angle_beta     90.1216
_cell_angle_gamma    119.835

_space_group_name_H-M_alt    "P 1"
_space_group_IT_number       1

loop_
  _space_group_symop_operation_xyz
  'x, y, z'

loop_
  _atom_site_type_symbol
  _atom_site_label
  _atom_site_symmetry_multiplicity
  _atom_site_fract_x
  _atom_site_fract_y
  _atom_site_fract_z
  _atom_site_occupancy
  O   O1        1.0  0.29725  0.87331  0.54107  1.0000
  Co  Co1       1.0  0.41740  0.41740  0.00002  1.0000
  Co  Co1       1.0  0.00041  0.58318  0.66837  1.0000
  Ba  Ba1       1.0  0.65351  0.00007  0.83212  1.0000
  Ba  Ba1       1.0  0.34637  0.34637  0.50002  1.0000
  Ba  Ba1       1.0  0.00007  0.65351  0.16792  1.0000
  Co  Co1       1.0  0.58318  0.00041  0.33167  1.0000
  O   O1        1.0  0.57403  0.70193  0.20696  1.0000
  O   O1        1.0  0.12744  0.42509  0.87446  1.0000
  O   O1        1.0  0.70193  0.57403  0.79307  1.0000
  O   O1        1.0  0.87331  0.29725  0.45896  1.0000
  O   O1        1.0  0.42509  0.12744  0.12557  1.0000
