data_image0
_chemical_formula_structural       OMn3Ba2MnO15
_chemical_formula_sum              "O16 Mn4 Ba2"
_cell_length_a       7.15062
_cell_length_b       7.15048
_cell_length_c       8.44486
_cell_angle_alpha    103.35
_cell_angle_beta     103.35
_cell_angle_gamma    117.044

_space_group_name_H-M_alt    "P 1"
_space_group_IT_number       1

loop_
  _space_group_symop_operation_xyz
  'x, y, z'

loop_
  _atom_site_type_symbol
  _atom_site_label
  _atom_site_symmetry_multiplicity
  _atom_site_fract_x
  _atom_site_fract_y
  _atom_site_fract_z
  _atom_site_occupancy
  O   O1        1.0  0.35834  0.35073  0.79903  1.0000
  Mn  Mn1       1.0  0.42759  0.57241  0.75000  1.0000
  Mn  Mn1       1.0  0.17759  0.82241  0.25000  1.0000
  Mn  Mn1       1.0  0.57240  0.42760  0.25000  1.0000
  Ba  Ba1       1.0  0.12500  0.87500  0.75000  1.0000
  Ba  Ba1       1.0  0.87500  0.12500  0.25000  1.0000
  Mn  Mn1       1.0  0.82242  0.17758  0.75000  1.0000
  O   O1        1.0  0.94072  0.44831  0.79908  1.0000
  O   O1        1.0  0.64926  0.64166  0.70096  1.0000
  O   O1        1.0  0.55170  0.05928  0.70092  1.0000
  O   O1        1.0  0.64166  0.64927  0.20097  1.0000
  O   O1        1.0  0.05928  0.55169  0.20092  1.0000
  O   O1        1.0  0.35074  0.35835  0.29904  1.0000
  O   O1        1.0  0.44831  0.94072  0.29908  1.0000
  O   O2        1.0  0.06503  0.86770  0.08236  1.0000
  O   O2        1.0  0.51733  0.21469  0.08236  1.0000
  O   O2        1.0  0.13230  0.93497  0.41764  1.0000
  O   O2        1.0  0.78531  0.48267  0.41764  1.0000
  O   O2        1.0  0.93497  0.13229  0.91763  1.0000
  O   O2        1.0  0.48266  0.78532  0.91764  1.0000
  O   O2        1.0  0.86770  0.06503  0.58237  1.0000
  O   O2        1.0  0.21468  0.51734  0.58236  1.0000
