data_image0
_chemical_formula_structural       OCa3Co8CaO15
_chemical_formula_sum              "O16 Ca4 Co8"
_cell_length_a       8.85493
_cell_length_b       2.93433
_cell_length_c       10.3535
_cell_angle_alpha    90
_cell_angle_beta     90
_cell_angle_gamma    90

_space_group_name_H-M_alt    "P 1"
_space_group_IT_number       1

loop_
  _space_group_symop_operation_xyz
  'x, y, z'

loop_
  _atom_site_type_symbol
  _atom_site_label
  _atom_site_symmetry_multiplicity
  _atom_site_fract_x
  _atom_site_fract_y
  _atom_site_fract_z
  _atom_site_occupancy
  O   O1        1.0  0.69721  0.25000  0.34407  1.0000
  Ca  Ca1       1.0  0.76173  0.25000  0.66365  1.0000
  Ca  Ca1       1.0  0.73827  0.75000  0.16365  1.0000
  Ca  Ca1       1.0  0.23827  0.75000  0.33635  1.0000
  Co  Co1       1.0  0.91554  0.25000  0.40236  1.0000
  Co  Co1       1.0  0.41554  0.25000  0.09764  1.0000
  Co  Co1       1.0  0.08446  0.75000  0.59764  1.0000
  Co  Co1       1.0  0.58446  0.75000  0.90236  1.0000
  Co  Co2       1.0  0.94392  0.25000  0.88824  1.0000
  Co  Co2       1.0  0.44392  0.25000  0.61176  1.0000
  Co  Co2       1.0  0.05608  0.75000  0.11176  1.0000
  Co  Co2       1.0  0.55608  0.75000  0.38824  1.0000
  Ca  Ca1       1.0  0.26173  0.25000  0.83635  1.0000
  O   O1        1.0  0.19721  0.25000  0.15593  1.0000
  O   O1        1.0  0.30279  0.75000  0.65593  1.0000
  O   O1        1.0  0.80279  0.75000  0.84407  1.0000
  O   O2        1.0  0.61406  0.25000  0.02401  1.0000
  O   O2        1.0  0.11406  0.25000  0.47599  1.0000
  O   O2        1.0  0.38594  0.75000  0.97599  1.0000
  O   O2        1.0  0.88594  0.75000  0.52401  1.0000
  O   O3        1.0  0.03256  0.25000  0.71211  1.0000
  O   O3        1.0  0.53256  0.25000  0.78789  1.0000
  O   O3        1.0  0.96743  0.75000  0.28789  1.0000
  O   O3        1.0  0.46744  0.75000  0.21211  1.0000
  O   O4        1.0  0.91911  0.25000  0.07195  1.0000
  O   O4        1.0  0.41911  0.25000  0.42805  1.0000
  O   O4        1.0  0.08089  0.75000  0.92805  1.0000
  O   O4        1.0  0.58089  0.75000  0.57195  1.0000
