data_image0
_chemical_formula_structural       OCo3La8CoO15
_chemical_formula_sum              "O16 Co4 La8"
_cell_length_a       9.00632
_cell_length_b       6.93824
_cell_length_c       7.93826
_cell_angle_alpha    74.1715
_cell_angle_beta     75.4572
_cell_angle_gamma    57.9979

_space_group_name_H-M_alt    "P 1"
_space_group_IT_number       1

loop_
  _space_group_symop_operation_xyz
  'x, y, z'

loop_
  _atom_site_type_symbol
  _atom_site_label
  _atom_site_symmetry_multiplicity
  _atom_site_fract_x
  _atom_site_fract_y
  _atom_site_fract_z
  _atom_site_occupancy
  O   O1        1.0  0.49211  0.47608  0.25795  1.0000
  Co  Co1       1.0  -0.00000  1.00000  1.00000  1.0000
  Co  Co1       1.0  0.50000  0.50000  0.00000  1.0000
  Co  Co1       1.0  0.50000  0.50000  0.50000  1.0000
  La  La1       1.0  0.32740  0.94738  0.19010  1.0000
  La  La1       1.0  0.17260  0.55262  0.30990  1.0000
  La  La1       1.0  0.19003  0.53520  0.82743  1.0000
  La  La1       1.0  0.30997  0.96479  0.67257  1.0000
  La  La1       1.0  0.82740  0.44738  0.69010  1.0000
  La  La1       1.0  0.67260  0.05262  0.80990  1.0000
  La  La1       1.0  0.69003  0.03521  0.32743  1.0000
  La  La1       1.0  0.80997  0.46480  0.17257  1.0000
  Co  Co1       1.0  0.00000  0.00000  0.50000  1.0000
  O   O1        1.0  0.75798  0.27395  0.49207  1.0000
  O   O1        1.0  0.00790  0.02393  0.24205  1.0000
  O   O1        1.0  0.74202  0.22605  0.00793  1.0000
  O   O1        1.0  0.99210  0.97607  0.75795  1.0000
  O   O1        1.0  0.25798  0.77395  0.99207  1.0000
  O   O1        1.0  0.50789  0.52392  0.74205  1.0000
  O   O1        1.0  0.24202  0.72605  0.50793  1.0000
  O   O2        1.0  0.37688  0.26174  0.05777  1.0000
  O   O2        1.0  0.12311  0.23826  0.44225  1.0000
  O   O2        1.0  0.05765  0.30372  0.87701  1.0000
  O   O2        1.0  0.44235  0.19628  0.62298  1.0000
  O   O2        1.0  0.87689  0.76174  0.55775  1.0000
  O   O2        1.0  0.62312  0.73826  0.94223  1.0000
  O   O2        1.0  0.55765  0.80372  0.37702  1.0000
  O   O2        1.0  0.94235  0.69628  0.12299  1.0000
