data_image0
_chemical_formula_structural       OFe2O
_chemical_formula_sum              "O2 Fe2"
_cell_length_a       5.28776
_cell_length_b       5.39608
_cell_length_c       5.28602
_cell_angle_alpha    33.9718
_cell_angle_beta     33.867
_cell_angle_gamma    34.0135

_space_group_name_H-M_alt    "P 1"
_space_group_IT_number       1

loop_
  _space_group_symop_operation_xyz
  'x, y, z'

loop_
  _atom_site_type_symbol
  _atom_site_label
  _atom_site_symmetry_multiplicity
  _atom_site_fract_x
  _atom_site_fract_y
  _atom_site_fract_z
  _atom_site_occupancy
  O   O1        1.0  0.79914  0.75143  0.69961  1.0000
  Fe  Fe1       1.0  0.50000  0.50000  0.50000  1.0000
  Fe  Fe1       1.0  0.00000  0.00000  1.00000  1.0000
  O   O1        1.0  0.20086  0.24857  0.30039  1.0000
