data_image0
_chemical_formula_structural       ONb2O7In2
_chemical_formula_sum              "O8 Nb2 In2"
_cell_length_a       5.27383
_cell_length_b       5.90626
_cell_length_c       4.91125
_cell_angle_alpha    90
_cell_angle_beta     91.1817
_cell_angle_gamma    90

_space_group_name_H-M_alt    "P 1"
_space_group_IT_number       1

loop_
  _space_group_symop_operation_xyz
  'x, y, z'

loop_
  _atom_site_type_symbol
  _atom_site_label
  _atom_site_symmetry_multiplicity
  _atom_site_fract_x
  _atom_site_fract_y
  _atom_site_fract_z
  _atom_site_occupancy
  O   O1        1.0  0.93427  0.89522  0.21518  1.0000
  Nb  Nb1       1.0  0.25000  0.82743  1.00000  1.0000
  Nb  Nb1       1.0  0.75000  0.17257  0.00000  1.0000
  O   O1        1.0  0.56573  0.89522  0.78482  1.0000
  O   O1        1.0  0.06573  0.10478  0.78482  1.0000
  O   O1        1.0  0.43427  0.10478  0.21518  1.0000
  O   O2        1.0  0.40226  0.62007  0.26135  1.0000
  O   O2        1.0  0.09774  0.62007  0.73865  1.0000
  O   O2        1.0  0.59774  0.37993  0.73865  1.0000
  O   O2        1.0  0.90226  0.37993  0.26135  1.0000
  In  In1       1.0  0.75000  0.67526  0.50000  1.0000
  In  In1       1.0  0.25000  0.32474  0.50000  1.0000
