data_image0
_chemical_formula_structural       OSr11Mn8SrO27
_chemical_formula_sum              "O28 Sr12 Mn8"
_cell_length_a       7.67976
_cell_length_b       7.67975
_cell_length_c       10.5191
_cell_angle_alpha    100.521
_cell_angle_beta     100.521
_cell_angle_gamma    89.9958

_space_group_name_H-M_alt    "P 1"
_space_group_IT_number       1

loop_
  _space_group_symop_operation_xyz
  'x, y, z'

loop_
  _atom_site_type_symbol
  _atom_site_label
  _atom_site_symmetry_multiplicity
  _atom_site_fract_x
  _atom_site_fract_y
  _atom_site_fract_z
  _atom_site_occupancy
  O   O1        1.0  0.00000  0.00000  1.00000  1.0000
  Sr  Sr1       1.0  0.75000  0.25000  0.00000  1.0000
  Sr  Sr1       1.0  0.25000  0.75000  0.00000  1.0000
  Sr  Sr1       1.0  0.75000  0.75000  0.00000  1.0000
  Sr  Sr2       1.0  0.34171  0.34171  0.36679  1.0000
  Sr  Sr2       1.0  0.15829  0.15829  0.63321  1.0000
  Sr  Sr2       1.0  0.84171  0.34171  0.36679  1.0000
  Sr  Sr2       1.0  0.65829  0.15829  0.63321  1.0000
  Sr  Sr2       1.0  0.34171  0.84171  0.36679  1.0000
  Sr  Sr2       1.0  0.15829  0.65829  0.63321  1.0000
  Sr  Sr2       1.0  0.84171  0.84171  0.36679  1.0000
  Sr  Sr2       1.0  0.65829  0.65829  0.63321  1.0000
  Mn  Mn1       1.0  0.45145  0.45145  0.80589  1.0000
  Mn  Mn1       1.0  0.04855  0.04855  0.19411  1.0000
  Mn  Mn1       1.0  0.95145  0.45145  0.80589  1.0000
  Mn  Mn1       1.0  0.54855  0.04855  0.19411  1.0000
  Mn  Mn1       1.0  0.45145  0.95145  0.80589  1.0000
  Mn  Mn1       1.0  0.04855  0.54855  0.19411  1.0000
  Mn  Mn1       1.0  0.95145  0.95145  0.80589  1.0000
  Mn  Mn1       1.0  0.54855  0.54855  0.19411  1.0000
  Sr  Sr1       1.0  0.25000  0.25000  0.00000  1.0000
  O   O1        1.0  0.50000  0.00000  0.00000  1.0000
  O   O1        1.0  0.00000  0.50000  0.00000  1.0000
  O   O1        1.0  0.50000  0.50000  1.00000  1.0000
  O   O2        1.0  0.40377  0.40377  0.61531  1.0000
  O   O2        1.0  0.09623  0.09623  0.38469  1.0000
  O   O2        1.0  0.90377  0.40377  0.61531  1.0000
  O   O2        1.0  0.59623  0.09623  0.38469  1.0000
  O   O2        1.0  0.40377  0.90377  0.61531  1.0000
  O   O2        1.0  0.09623  0.59623  0.38469  1.0000
  O   O2        1.0  0.90377  0.90377  0.61531  1.0000
  O   O2        1.0  0.59623  0.59623  0.38469  1.0000
  O   O3        1.0  0.20196  0.45198  0.80793  1.0000
  O   O3        1.0  0.45198  0.20196  0.80793  1.0000
  O   O3        1.0  0.29804  0.04802  0.19207  1.0000
  O   O3        1.0  0.04802  0.29804  0.19207  1.0000
  O   O3        1.0  0.70196  0.45198  0.80793  1.0000
  O   O3        1.0  0.95198  0.20196  0.80793  1.0000
  O   O3        1.0  0.79804  0.04802  0.19207  1.0000
  O   O3        1.0  0.54802  0.29804  0.19207  1.0000
  O   O3        1.0  0.20196  0.95198  0.80793  1.0000
  O   O3        1.0  0.45198  0.70196  0.80793  1.0000
  O   O3        1.0  0.29804  0.54802  0.19207  1.0000
  O   O3        1.0  0.04802  0.79804  0.19207  1.0000
  O   O3        1.0  0.70196  0.95198  0.80793  1.0000
  O   O3        1.0  0.95198  0.70196  0.80793  1.0000
  O   O3        1.0  0.79804  0.54802  0.19207  1.0000
  O   O3        1.0  0.54802  0.79804  0.19207  1.0000
