# generated using pymatgen
data_SrAgO2
_symmetry_space_group_name_H-M   'P 1'
_cell_length_a   21.59586963
_cell_length_b   18.88204738
_cell_length_c   17.85785148
_cell_angle_alpha   90.00000000
_cell_angle_beta   90.57749330
_cell_angle_gamma   90.00000000
_symmetry_Int_Tables_number   1
_chemical_formula_structural   SrAgO2
_chemical_formula_sum   'Sr120 Ag120 O240'
_cell_volume   7281.60181758
_cell_formula_units_Z   120
loop_
 _symmetry_equiv_pos_site_id
 _symmetry_equiv_pos_as_xyz
  1  'x, y, z'
loop_
 _atom_site_type_symbol
 _atom_site_label
 _atom_site_symmetry_multiplicity
 _atom_site_fract_x
 _atom_site_fract_y
 _atom_site_fract_z
 _atom_site_occupancy
  Sr  Sr0  1  0.08333333  0.12500000  0.00000000  1
  Sr  Sr1  1  0.08333333  0.12500000  0.20000000  1
  Sr  Sr2  1  0.08333333  0.12500000  0.40000000  1
  Sr  Sr3  1  0.08333333  0.12500000  0.60000000  1
  Sr  Sr4  1  0.08333333  0.12500000  0.80000000  1
  Sr  Sr5  1  0.08333333  0.62500000  0.00000000  1
  Sr  Sr6  1  0.08333333  0.62500000  0.20000000  1
  Sr  Sr7  1  0.08333333  0.62500000  0.40000000  1
  Sr  Sr8  1  0.08333333  0.62500000  0.60000000  1
  Sr  Sr9  1  0.08333333  0.62500000  0.80000000  1
  Sr  Sr10  1  0.41666667  0.12500000  0.00000000  1
  Sr  Sr11  1  0.41666667  0.12500000  0.20000000  1
  Sr  Sr12  1  0.41666667  0.12500000  0.40000000  1
  Sr  Sr13  1  0.41666667  0.12500000  0.60000000  1
  Sr  Sr14  1  0.41666667  0.12500000  0.80000000  1
  Sr  Sr15  1  0.41666667  0.62500000  0.00000000  1
  Sr  Sr16  1  0.41666667  0.62500000  0.20000000  1
  Sr  Sr17  1  0.41666667  0.62500000  0.40000000  1
  Sr  Sr18  1  0.41666667  0.62500000  0.60000000  1
  Sr  Sr19  1  0.41666667  0.62500000  0.80000000  1
  Sr  Sr20  1  0.75000000  0.12500000  0.00000000  1
  Sr  Sr21  1  0.75000000  0.12500000  0.20000000  1
  Sr  Sr22  1  0.75000000  0.12500000  0.40000000  1
  Sr  Sr23  1  0.75000000  0.12500000  0.60000000  1
  Sr  Sr24  1  0.75000000  0.12500000  0.80000000  1
  Sr  Sr25  1  0.75000000  0.62500000  0.00000000  1
  Sr  Sr26  1  0.75000000  0.62500000  0.20000000  1
  Sr  Sr27  1  0.75000000  0.62500000  0.40000000  1
  Sr  Sr28  1  0.75000000  0.62500000  0.60000000  1
  Sr  Sr29  1  0.75000000  0.62500000  0.80000000  1
  Sr  Sr30  1  0.25000000  0.37500000  0.00000000  1
  Sr  Sr31  1  0.25000000  0.37500000  0.20000000  1
  Sr  Sr32  1  0.25000000  0.37500000  0.40000000  1
  Sr  Sr33  1  0.25000000  0.37500000  0.60000000  1
  Sr  Sr34  1  0.25000000  0.37500000  0.80000000  1
  Sr  Sr35  1  0.25000000  0.87500000  0.00000000  1
  Sr  Sr36  1  0.25000000  0.87500000  0.20000000  1
  Sr  Sr37  1  0.25000000  0.87500000  0.40000000  1
  Sr  Sr38  1  0.25000000  0.87500000  0.60000000  1
  Sr  Sr39  1  0.25000000  0.87500000  0.80000000  1
  Sr  Sr40  1  0.58333333  0.37500000  0.00000000  1
  Sr  Sr41  1  0.58333333  0.37500000  0.20000000  1
  Sr  Sr42  1  0.58333333  0.37500000  0.40000000  1
  Sr  Sr43  1  0.58333333  0.37500000  0.60000000  1
  Sr  Sr44  1  0.58333333  0.37500000  0.80000000  1
  Sr  Sr45  1  0.58333333  0.87500000  0.00000000  1
  Sr  Sr46  1  0.58333333  0.87500000  0.20000000  1
  Sr  Sr47  1  0.58333333  0.87500000  0.40000000  1
  Sr  Sr48  1  0.58333333  0.87500000  0.60000000  1
  Sr  Sr49  1  0.58333333  0.87500000  0.80000000  1
  Sr  Sr50  1  0.91666667  0.37500000  0.00000000  1
  Sr  Sr51  1  0.91666667  0.37500000  0.20000000  1
  Sr  Sr52  1  0.91666667  0.37500000  0.40000000  1
  Sr  Sr53  1  0.91666667  0.37500000  0.60000000  1
  Sr  Sr54  1  0.91666667  0.37500000  0.80000000  1
  Sr  Sr55  1  0.91666667  0.87500000  0.00000000  1
  Sr  Sr56  1  0.91666667  0.87500000  0.20000000  1
  Sr  Sr57  1  0.91666667  0.87500000  0.40000000  1
  Sr  Sr58  1  0.91666667  0.87500000  0.60000000  1
  Sr  Sr59  1  0.91666667  0.87500000  0.80000000  1
  Sr  Sr60  1  0.08333333  -0.12500000  0.00000000  1
  Sr  Sr61  1  0.08333333  -0.12500000  0.20000000  1
  Sr  Sr62  1  0.08333333  -0.12500000  0.40000000  1
  Sr  Sr63  1  0.08333333  -0.12500000  0.60000000  1
  Sr  Sr64  1  0.08333333  -0.12500000  0.80000000  1
  Sr  Sr65  1  0.08333333  0.37500000  0.00000000  1
  Sr  Sr66  1  0.08333333  0.37500000  0.20000000  1
  Sr  Sr67  1  0.08333333  0.37500000  0.40000000  1
  Sr  Sr68  1  0.08333333  0.37500000  0.60000000  1
  Sr  Sr69  1  0.08333333  0.37500000  0.80000000  1
  Sr  Sr70  1  0.41666667  -0.12500000  0.00000000  1
  Sr  Sr71  1  0.41666667  -0.12500000  0.20000000  1
  Sr  Sr72  1  0.41666667  -0.12500000  0.40000000  1
  Sr  Sr73  1  0.41666667  -0.12500000  0.60000000  1
  Sr  Sr74  1  0.41666667  -0.12500000  0.80000000  1
  Sr  Sr75  1  0.41666667  0.37500000  0.00000000  1
  Sr  Sr76  1  0.41666667  0.37500000  0.20000000  1
  Sr  Sr77  1  0.41666667  0.37500000  0.40000000  1
  Sr  Sr78  1  0.41666667  0.37500000  0.60000000  1
  Sr  Sr79  1  0.41666667  0.37500000  0.80000000  1
  Sr  Sr80  1  0.75000000  -0.12500000  0.00000000  1
  Sr  Sr81  1  0.75000000  -0.12500000  0.20000000  1
  Sr  Sr82  1  0.75000000  -0.12500000  0.40000000  1
  Sr  Sr83  1  0.75000000  -0.12500000  0.60000000  1
  Sr  Sr84  1  0.75000000  -0.12500000  0.80000000  1
  Sr  Sr85  1  0.75000000  0.37500000  0.00000000  1
  Sr  Sr86  1  0.75000000  0.37500000  0.20000000  1
  Sr  Sr87  1  0.75000000  0.37500000  0.40000000  1
  Sr  Sr88  1  0.75000000  0.37500000  0.60000000  1
  Sr  Sr89  1  0.75000000  0.37500000  0.80000000  1
  Sr  Sr90  1  0.25000000  0.12500000  0.00000000  1
  Sr  Sr91  1  0.25000000  0.12500000  0.20000000  1
  Sr  Sr92  1  0.25000000  0.12500000  0.40000000  1
  Sr  Sr93  1  0.25000000  0.12500000  0.60000000  1
  Sr  Sr94  1  0.25000000  0.12500000  0.80000000  1
  Sr  Sr95  1  0.25000000  0.62500000  0.00000000  1
  Sr  Sr96  1  0.25000000  0.62500000  0.20000000  1
  Sr  Sr97  1  0.25000000  0.62500000  0.40000000  1
  Sr  Sr98  1  0.25000000  0.62500000  0.60000000  1
  Sr  Sr99  1  0.25000000  0.62500000  0.80000000  1
  Sr  Sr100  1  0.58333333  0.12500000  0.00000000  1
  Sr  Sr101  1  0.58333333  0.12500000  0.20000000  1
  Sr  Sr102  1  0.58333333  0.12500000  0.40000000  1
  Sr  Sr103  1  0.58333333  0.12500000  0.60000000  1
  Sr  Sr104  1  0.58333333  0.12500000  0.80000000  1
  Sr  Sr105  1  0.58333333  0.62500000  0.00000000  1
  Sr  Sr106  1  0.58333333  0.62500000  0.20000000  1
  Sr  Sr107  1  0.58333333  0.62500000  0.40000000  1
  Sr  Sr108  1  0.58333333  0.62500000  0.60000000  1
  Sr  Sr109  1  0.58333333  0.62500000  0.80000000  1
  Sr  Sr110  1  0.91666667  0.12500000  0.00000000  1
  Sr  Sr111  1  0.91666667  0.12500000  0.20000000  1
  Sr  Sr112  1  0.91666667  0.12500000  0.40000000  1
  Sr  Sr113  1  0.91666667  0.12500000  0.60000000  1
  Sr  Sr114  1  0.91666667  0.12500000  0.80000000  1
  Sr  Sr115  1  0.91666667  0.62500000  0.00000000  1
  Sr  Sr116  1  0.91666667  0.62500000  0.20000000  1
  Sr  Sr117  1  0.91666667  0.62500000  0.40000000  1
  Sr  Sr118  1  0.91666667  0.62500000  0.60000000  1
  Sr  Sr119  1  0.91666667  0.62500000  0.80000000  1
  Ag  Ag120  1  0.00000000  0.00000000  0.10000000  1
  Ag  Ag121  1  0.00000000  0.00000000  0.30000000  1
  Ag  Ag122  1  -0.00000000  0.00000000  0.50000000  1
  Ag  Ag123  1  0.00000000  0.00000000  0.70000000  1
  Ag  Ag124  1  0.00000000  0.00000000  0.90000000  1
  Ag  Ag125  1  0.00000000  0.50000000  0.10000000  1
  Ag  Ag126  1  0.00000000  0.50000000  0.30000000  1
  Ag  Ag127  1  -0.00000000  0.50000000  0.50000000  1
  Ag  Ag128  1  0.00000000  0.50000000  0.70000000  1
  Ag  Ag129  1  0.00000000  0.50000000  0.90000000  1
  Ag  Ag130  1  0.33333333  0.00000000  0.10000000  1
  Ag  Ag131  1  0.33333333  0.00000000  0.30000000  1
  Ag  Ag132  1  0.33333333  0.00000000  0.50000000  1
  Ag  Ag133  1  0.33333333  0.00000000  0.70000000  1
  Ag  Ag134  1  0.33333333  0.00000000  0.90000000  1
  Ag  Ag135  1  0.33333333  0.50000000  0.10000000  1
  Ag  Ag136  1  0.33333333  0.50000000  0.30000000  1
  Ag  Ag137  1  0.33333333  0.50000000  0.50000000  1
  Ag  Ag138  1  0.33333333  0.50000000  0.70000000  1
  Ag  Ag139  1  0.33333333  0.50000000  0.90000000  1
  Ag  Ag140  1  0.66666667  0.00000000  0.10000000  1
  Ag  Ag141  1  0.66666667  0.00000000  0.30000000  1
  Ag  Ag142  1  0.66666667  0.00000000  0.50000000  1
  Ag  Ag143  1  0.66666667  0.00000000  0.70000000  1
  Ag  Ag144  1  0.66666667  0.00000000  0.90000000  1
  Ag  Ag145  1  0.66666667  0.50000000  0.10000000  1
  Ag  Ag146  1  0.66666667  0.50000000  0.30000000  1
  Ag  Ag147  1  0.66666667  0.50000000  0.50000000  1
  Ag  Ag148  1  0.66666667  0.50000000  0.70000000  1
  Ag  Ag149  1  0.66666667  0.50000000  0.90000000  1
  Ag  Ag150  1  0.16666667  0.25000000  0.10000000  1
  Ag  Ag151  1  0.16666667  0.25000000  0.30000000  1
  Ag  Ag152  1  0.16666667  0.25000000  0.50000000  1
  Ag  Ag153  1  0.16666667  0.25000000  0.70000000  1
  Ag  Ag154  1  0.16666667  0.25000000  0.90000000  1
  Ag  Ag155  1  0.16666667  0.75000000  0.10000000  1
  Ag  Ag156  1  0.16666667  0.75000000  0.30000000  1
  Ag  Ag157  1  0.16666667  0.75000000  0.50000000  1
  Ag  Ag158  1  0.16666667  0.75000000  0.70000000  1
  Ag  Ag159  1  0.16666667  0.75000000  0.90000000  1
  Ag  Ag160  1  0.50000000  0.25000000  0.10000000  1
  Ag  Ag161  1  0.50000000  0.25000000  0.30000000  1
  Ag  Ag162  1  0.50000000  0.25000000  0.50000000  1
  Ag  Ag163  1  0.50000000  0.25000000  0.70000000  1
  Ag  Ag164  1  0.50000000  0.25000000  0.90000000  1
  Ag  Ag165  1  0.50000000  0.75000000  0.10000000  1
  Ag  Ag166  1  0.50000000  0.75000000  0.30000000  1
  Ag  Ag167  1  0.50000000  0.75000000  0.50000000  1
  Ag  Ag168  1  0.50000000  0.75000000  0.70000000  1
  Ag  Ag169  1  0.50000000  0.75000000  0.90000000  1
  Ag  Ag170  1  0.83333333  0.25000000  0.10000000  1
  Ag  Ag171  1  0.83333333  0.25000000  0.30000000  1
  Ag  Ag172  1  0.83333333  0.25000000  0.50000000  1
  Ag  Ag173  1  0.83333333  0.25000000  0.70000000  1
  Ag  Ag174  1  0.83333333  0.25000000  0.90000000  1
  Ag  Ag175  1  0.83333333  0.75000000  0.10000000  1
  Ag  Ag176  1  0.83333333  0.75000000  0.30000000  1
  Ag  Ag177  1  0.83333333  0.75000000  0.50000000  1
  Ag  Ag178  1  0.83333333  0.75000000  0.70000000  1
  Ag  Ag179  1  0.83333333  0.75000000  0.90000000  1
  Ag  Ag180  1  0.16666667  0.00000000  0.10000000  1
  Ag  Ag181  1  0.16666667  0.00000000  0.30000000  1
  Ag  Ag182  1  0.16666667  0.00000000  0.50000000  1
  Ag  Ag183  1  0.16666667  0.00000000  0.70000000  1
  Ag  Ag184  1  0.16666667  0.00000000  0.90000000  1
  Ag  Ag185  1  0.16666667  0.50000000  0.10000000  1
  Ag  Ag186  1  0.16666667  0.50000000  0.30000000  1
  Ag  Ag187  1  0.16666667  0.50000000  0.50000000  1
  Ag  Ag188  1  0.16666667  0.50000000  0.70000000  1
  Ag  Ag189  1  0.16666667  0.50000000  0.90000000  1
  Ag  Ag190  1  0.50000000  0.00000000  0.10000000  1
  Ag  Ag191  1  0.50000000  0.00000000  0.30000000  1
  Ag  Ag192  1  0.50000000  0.00000000  0.50000000  1
  Ag  Ag193  1  0.50000000  0.00000000  0.70000000  1
  Ag  Ag194  1  0.50000000  0.00000000  0.90000000  1
  Ag  Ag195  1  0.50000000  0.50000000  0.10000000  1
  Ag  Ag196  1  0.50000000  0.50000000  0.30000000  1
  Ag  Ag197  1  0.50000000  0.50000000  0.50000000  1
  Ag  Ag198  1  0.50000000  0.50000000  0.70000000  1
  Ag  Ag199  1  0.50000000  0.50000000  0.90000000  1
  Ag  Ag200  1  0.83333333  0.00000000  0.10000000  1
  Ag  Ag201  1  0.83333333  0.00000000  0.30000000  1
  Ag  Ag202  1  0.83333333  0.00000000  0.50000000  1
  Ag  Ag203  1  0.83333333  0.00000000  0.70000000  1
  Ag  Ag204  1  0.83333333  0.00000000  0.90000000  1
  Ag  Ag205  1  0.83333333  0.50000000  0.10000000  1
  Ag  Ag206  1  0.83333333  0.50000000  0.30000000  1
  Ag  Ag207  1  0.83333333  0.50000000  0.50000000  1
  Ag  Ag208  1  0.83333333  0.50000000  0.70000000  1
  Ag  Ag209  1  0.83333333  0.50000000  0.90000000  1
  Ag  Ag210  1  0.33333333  0.25000000  0.10000000  1
  Ag  Ag211  1  0.33333333  0.25000000  0.30000000  1
  Ag  Ag212  1  0.33333333  0.25000000  0.50000000  1
  Ag  Ag213  1  0.33333333  0.25000000  0.70000000  1
  Ag  Ag214  1  0.33333333  0.25000000  0.90000000  1
  Ag  Ag215  1  0.33333333  0.75000000  0.10000000  1
  Ag  Ag216  1  0.33333333  0.75000000  0.30000000  1
  Ag  Ag217  1  0.33333333  0.75000000  0.50000000  1
  Ag  Ag218  1  0.33333333  0.75000000  0.70000000  1
  Ag  Ag219  1  0.33333333  0.75000000  0.90000000  1
  Ag  Ag220  1  0.66666667  0.25000000  0.10000000  1
  Ag  Ag221  1  0.66666667  0.25000000  0.30000000  1
  Ag  Ag222  1  0.66666667  0.25000000  0.50000000  1
  Ag  Ag223  1  0.66666667  0.25000000  0.70000000  1
  Ag  Ag224  1  0.66666667  0.25000000  0.90000000  1
  Ag  Ag225  1  0.66666667  0.75000000  0.10000000  1
  Ag  Ag226  1  0.66666667  0.75000000  0.30000000  1
  Ag  Ag227  1  0.66666667  0.75000000  0.50000000  1
  Ag  Ag228  1  0.66666667  0.75000000  0.70000000  1
  Ag  Ag229  1  0.66666667  0.75000000  0.90000000  1
  Ag  Ag230  1  1.00000000  0.25000000  0.10000000  1
  Ag  Ag231  1  1.00000000  0.25000000  0.30000000  1
  Ag  Ag232  1  1.00000000  0.25000000  0.50000000  1
  Ag  Ag233  1  1.00000000  0.25000000  0.70000000  1
  Ag  Ag234  1  1.00000000  0.25000000  0.90000000  1
  Ag  Ag235  1  1.00000000  0.75000000  0.10000000  1
  Ag  Ag236  1  1.00000000  0.75000000  0.30000000  1
  Ag  Ag237  1  1.00000000  0.75000000  0.50000000  1
  Ag  Ag238  1  1.00000000  0.75000000  0.70000000  1
  Ag  Ag239  1  1.00000000  0.75000000  0.90000000  1
  O  O240  1  0.16666667  -0.10899218  0.10000000  1
  O  O241  1  0.16666667  -0.10899218  0.30000000  1
  O  O242  1  0.16666667  -0.10899218  0.50000000  1
  O  O243  1  0.16666667  -0.10899218  0.70000000  1
  O  O244  1  0.16666667  -0.10899218  0.90000000  1
  O  O245  1  0.16666667  0.39100782  0.10000000  1
  O  O246  1  0.16666667  0.39100782  0.30000000  1
  O  O247  1  0.16666667  0.39100782  0.50000000  1
  O  O248  1  0.16666667  0.39100782  0.70000000  1
  O  O249  1  0.16666667  0.39100782  0.90000000  1
  O  O250  1  0.50000000  -0.10899218  0.10000000  1
  O  O251  1  0.50000000  -0.10899218  0.30000000  1
  O  O252  1  0.50000000  -0.10899218  0.50000000  1
  O  O253  1  0.50000000  -0.10899218  0.70000000  1
  O  O254  1  0.50000000  -0.10899218  0.90000000  1
  O  O255  1  0.50000000  0.39100782  0.10000000  1
  O  O256  1  0.50000000  0.39100782  0.30000000  1
  O  O257  1  0.50000000  0.39100782  0.50000000  1
  O  O258  1  0.50000000  0.39100782  0.70000000  1
  O  O259  1  0.50000000  0.39100782  0.90000000  1
  O  O260  1  0.83333333  -0.10899218  0.10000000  1
  O  O261  1  0.83333333  -0.10899218  0.30000000  1
  O  O262  1  0.83333333  -0.10899218  0.50000000  1
  O  O263  1  0.83333333  -0.10899218  0.70000000  1
  O  O264  1  0.83333333  -0.10899218  0.90000000  1
  O  O265  1  0.83333333  0.39100782  0.10000000  1
  O  O266  1  0.83333333  0.39100782  0.30000000  1
  O  O267  1  0.83333333  0.39100782  0.50000000  1
  O  O268  1  0.83333333  0.39100782  0.70000000  1
  O  O269  1  0.83333333  0.39100782  0.90000000  1
  O  O270  1  0.33333333  0.14100782  0.10000000  1
  O  O271  1  0.33333333  0.14100782  0.30000000  1
  O  O272  1  0.33333333  0.14100782  0.50000000  1
  O  O273  1  0.33333333  0.14100782  0.70000000  1
  O  O274  1  0.33333333  0.14100782  0.90000000  1
  O  O275  1  0.33333333  0.64100782  0.10000000  1
  O  O276  1  0.33333333  0.64100782  0.30000000  1
  O  O277  1  0.33333333  0.64100782  0.50000000  1
  O  O278  1  0.33333333  0.64100782  0.70000000  1
  O  O279  1  0.33333333  0.64100782  0.90000000  1
  O  O280  1  0.66666667  0.14100782  0.10000000  1
  O  O281  1  0.66666667  0.14100782  0.30000000  1
  O  O282  1  0.66666667  0.14100782  0.50000000  1
  O  O283  1  0.66666667  0.14100782  0.70000000  1
  O  O284  1  0.66666667  0.14100782  0.90000000  1
  O  O285  1  0.66666667  0.64100782  0.10000000  1
  O  O286  1  0.66666667  0.64100782  0.30000000  1
  O  O287  1  0.66666667  0.64100782  0.50000000  1
  O  O288  1  0.66666667  0.64100782  0.70000000  1
  O  O289  1  0.66666667  0.64100782  0.90000000  1
  O  O290  1  1.00000000  0.14100782  0.10000000  1
  O  O291  1  1.00000000  0.14100782  0.30000000  1
  O  O292  1  1.00000000  0.14100782  0.50000000  1
  O  O293  1  1.00000000  0.14100782  0.70000000  1
  O  O294  1  1.00000000  0.14100782  0.90000000  1
  O  O295  1  1.00000000  0.64100782  0.10000000  1
  O  O296  1  1.00000000  0.64100782  0.30000000  1
  O  O297  1  1.00000000  0.64100782  0.50000000  1
  O  O298  1  1.00000000  0.64100782  0.70000000  1
  O  O299  1  1.00000000  0.64100782  0.90000000  1
  O  O300  1  0.16666667  0.10899218  0.10000000  1
  O  O301  1  0.16666667  0.10899218  0.30000000  1
  O  O302  1  0.16666667  0.10899218  0.50000000  1
  O  O303  1  0.16666667  0.10899218  0.70000000  1
  O  O304  1  0.16666667  0.10899218  0.90000000  1
  O  O305  1  0.16666667  0.60899218  0.10000000  1
  O  O306  1  0.16666667  0.60899218  0.30000000  1
  O  O307  1  0.16666667  0.60899218  0.50000000  1
  O  O308  1  0.16666667  0.60899218  0.70000000  1
  O  O309  1  0.16666667  0.60899218  0.90000000  1
  O  O310  1  0.50000000  0.10899218  0.10000000  1
  O  O311  1  0.50000000  0.10899218  0.30000000  1
  O  O312  1  0.50000000  0.10899218  0.50000000  1
  O  O313  1  0.50000000  0.10899218  0.70000000  1
  O  O314  1  0.50000000  0.10899218  0.90000000  1
  O  O315  1  0.50000000  0.60899218  0.10000000  1
  O  O316  1  0.50000000  0.60899218  0.30000000  1
  O  O317  1  0.50000000  0.60899218  0.50000000  1
  O  O318  1  0.50000000  0.60899218  0.70000000  1
  O  O319  1  0.50000000  0.60899218  0.90000000  1
  O  O320  1  0.83333333  0.10899218  0.10000000  1
  O  O321  1  0.83333333  0.10899218  0.30000000  1
  O  O322  1  0.83333333  0.10899218  0.50000000  1
  O  O323  1  0.83333333  0.10899218  0.70000000  1
  O  O324  1  0.83333333  0.10899218  0.90000000  1
  O  O325  1  0.83333333  0.60899218  0.10000000  1
  O  O326  1  0.83333333  0.60899218  0.30000000  1
  O  O327  1  0.83333333  0.60899218  0.50000000  1
  O  O328  1  0.83333333  0.60899218  0.70000000  1
  O  O329  1  0.83333333  0.60899218  0.90000000  1
  O  O330  1  0.33333333  0.35899218  0.10000000  1
  O  O331  1  0.33333333  0.35899218  0.30000000  1
  O  O332  1  0.33333333  0.35899218  0.50000000  1
  O  O333  1  0.33333333  0.35899218  0.70000000  1
  O  O334  1  0.33333333  0.35899218  0.90000000  1
  O  O335  1  0.33333333  0.85899218  0.10000000  1
  O  O336  1  0.33333333  0.85899218  0.30000000  1
  O  O337  1  0.33333333  0.85899218  0.50000000  1
  O  O338  1  0.33333333  0.85899218  0.70000000  1
  O  O339  1  0.33333333  0.85899218  0.90000000  1
  O  O340  1  0.66666667  0.35899218  0.10000000  1
  O  O341  1  0.66666667  0.35899218  0.30000000  1
  O  O342  1  0.66666667  0.35899218  0.50000000  1
  O  O343  1  0.66666667  0.35899218  0.70000000  1
  O  O344  1  0.66666667  0.35899218  0.90000000  1
  O  O345  1  0.66666667  0.85899218  0.10000000  1
  O  O346  1  0.66666667  0.85899218  0.30000000  1
  O  O347  1  0.66666667  0.85899218  0.50000000  1
  O  O348  1  0.66666667  0.85899218  0.70000000  1
  O  O349  1  0.66666667  0.85899218  0.90000000  1
  O  O350  1  1.00000000  0.35899218  0.10000000  1
  O  O351  1  1.00000000  0.35899218  0.30000000  1
  O  O352  1  1.00000000  0.35899218  0.50000000  1
  O  O353  1  1.00000000  0.35899218  0.70000000  1
  O  O354  1  1.00000000  0.35899218  0.90000000  1
  O  O355  1  1.00000000  0.85899218  0.10000000  1
  O  O356  1  1.00000000  0.85899218  0.30000000  1
  O  O357  1  1.00000000  0.85899218  0.50000000  1
  O  O358  1  1.00000000  0.85899218  0.70000000  1
  O  O359  1  1.00000000  0.85899218  0.90000000  1
  O  O360  1  0.08327807  0.00000000  0.04490584  1
  O  O361  1  0.08327807  0.00000000  0.24490584  1
  O  O362  1  0.08327807  0.00000000  0.44490584  1
  O  O363  1  0.08327807  0.00000000  0.64490584  1
  O  O364  1  0.08327807  0.00000000  0.84490584  1
  O  O365  1  0.08327807  0.50000000  0.04490584  1
  O  O366  1  0.08327807  0.50000000  0.24490584  1
  O  O367  1  0.08327807  0.50000000  0.44490584  1
  O  O368  1  0.08327807  0.50000000  0.64490584  1
  O  O369  1  0.08327807  0.50000000  0.84490584  1
  O  O370  1  0.41661141  0.00000000  0.04490584  1
  O  O371  1  0.41661141  0.00000000  0.24490584  1
  O  O372  1  0.41661141  0.00000000  0.44490584  1
  O  O373  1  0.41661141  0.00000000  0.64490584  1
  O  O374  1  0.41661141  0.00000000  0.84490584  1
  O  O375  1  0.41661141  0.50000000  0.04490584  1
  O  O376  1  0.41661141  0.50000000  0.24490584  1
  O  O377  1  0.41661141  0.50000000  0.44490584  1
  O  O378  1  0.41661141  0.50000000  0.64490584  1
  O  O379  1  0.41661141  0.50000000  0.84490584  1
  O  O380  1  0.74994474  0.00000000  0.04490584  1
  O  O381  1  0.74994474  0.00000000  0.24490584  1
  O  O382  1  0.74994474  0.00000000  0.44490584  1
  O  O383  1  0.74994474  0.00000000  0.64490584  1
  O  O384  1  0.74994474  0.00000000  0.84490584  1
  O  O385  1  0.74994474  0.50000000  0.04490584  1
  O  O386  1  0.74994474  0.50000000  0.24490584  1
  O  O387  1  0.74994474  0.50000000  0.44490584  1
  O  O388  1  0.74994474  0.50000000  0.64490584  1
  O  O389  1  0.74994474  0.50000000  0.84490584  1
  O  O390  1  0.24994474  0.25000000  0.04490584  1
  O  O391  1  0.24994474  0.25000000  0.24490584  1
  O  O392  1  0.24994474  0.25000000  0.44490584  1
  O  O393  1  0.24994474  0.25000000  0.64490584  1
  O  O394  1  0.24994474  0.25000000  0.84490584  1
  O  O395  1  0.24994474  0.75000000  0.04490584  1
  O  O396  1  0.24994474  0.75000000  0.24490584  1
  O  O397  1  0.24994474  0.75000000  0.44490584  1
  O  O398  1  0.24994474  0.75000000  0.64490584  1
  O  O399  1  0.24994474  0.75000000  0.84490584  1
  O  O400  1  0.58327807  0.25000000  0.04490584  1
  O  O401  1  0.58327807  0.25000000  0.24490584  1
  O  O402  1  0.58327807  0.25000000  0.44490584  1
  O  O403  1  0.58327807  0.25000000  0.64490584  1
  O  O404  1  0.58327807  0.25000000  0.84490584  1
  O  O405  1  0.58327807  0.75000000  0.04490584  1
  O  O406  1  0.58327807  0.75000000  0.24490584  1
  O  O407  1  0.58327807  0.75000000  0.44490584  1
  O  O408  1  0.58327807  0.75000000  0.64490584  1
  O  O409  1  0.58327807  0.75000000  0.84490584  1
  O  O410  1  0.91661141  0.25000000  0.04490584  1
  O  O411  1  0.91661141  0.25000000  0.24490584  1
  O  O412  1  0.91661141  0.25000000  0.44490584  1
  O  O413  1  0.91661141  0.25000000  0.64490584  1
  O  O414  1  0.91661141  0.25000000  0.84490584  1
  O  O415  1  0.91661141  0.75000000  0.04490584  1
  O  O416  1  0.91661141  0.75000000  0.24490584  1
  O  O417  1  0.91661141  0.75000000  0.44490584  1
  O  O418  1  0.91661141  0.75000000  0.64490584  1
  O  O419  1  0.91661141  0.75000000  0.84490584  1
  O  O420  1  0.25005526  -0.00000000  0.15509416  1
  O  O421  1  0.25005526  -0.00000000  0.35509416  1
  O  O422  1  0.25005526  -0.00000000  0.55509416  1
  O  O423  1  0.25005526  -0.00000000  0.75509416  1
  O  O424  1  0.25005526  -0.00000000  0.95509416  1
  O  O425  1  0.25005526  0.50000000  0.15509416  1
  O  O426  1  0.25005526  0.50000000  0.35509416  1
  O  O427  1  0.25005526  0.50000000  0.55509416  1
  O  O428  1  0.25005526  0.50000000  0.75509416  1
  O  O429  1  0.25005526  0.50000000  0.95509416  1
  O  O430  1  0.58338859  -0.00000000  0.15509416  1
  O  O431  1  0.58338859  -0.00000000  0.35509416  1
  O  O432  1  0.58338859  -0.00000000  0.55509416  1
  O  O433  1  0.58338859  -0.00000000  0.75509416  1
  O  O434  1  0.58338859  -0.00000000  0.95509416  1
  O  O435  1  0.58338859  0.50000000  0.15509416  1
  O  O436  1  0.58338859  0.50000000  0.35509416  1
  O  O437  1  0.58338859  0.50000000  0.55509416  1
  O  O438  1  0.58338859  0.50000000  0.75509416  1
  O  O439  1  0.58338859  0.50000000  0.95509416  1
  O  O440  1  0.91672193  -0.00000000  0.15509416  1
  O  O441  1  0.91672193  -0.00000000  0.35509416  1
  O  O442  1  0.91672193  -0.00000000  0.55509416  1
  O  O443  1  0.91672193  -0.00000000  0.75509416  1
  O  O444  1  0.91672193  -0.00000000  0.95509416  1
  O  O445  1  0.91672193  0.50000000  0.15509416  1
  O  O446  1  0.91672193  0.50000000  0.35509416  1
  O  O447  1  0.91672193  0.50000000  0.55509416  1
  O  O448  1  0.91672193  0.50000000  0.75509416  1
  O  O449  1  0.91672193  0.50000000  0.95509416  1
  O  O450  1  0.41672193  0.25000000  0.15509416  1
  O  O451  1  0.41672193  0.25000000  0.35509416  1
  O  O452  1  0.41672193  0.25000000  0.55509416  1
  O  O453  1  0.41672193  0.25000000  0.75509416  1
  O  O454  1  0.41672193  0.25000000  0.95509416  1
  O  O455  1  0.41672193  0.75000000  0.15509416  1
  O  O456  1  0.41672193  0.75000000  0.35509416  1
  O  O457  1  0.41672193  0.75000000  0.55509416  1
  O  O458  1  0.41672193  0.75000000  0.75509416  1
  O  O459  1  0.41672193  0.75000000  0.95509416  1
  O  O460  1  0.75005526  0.25000000  0.15509416  1
  O  O461  1  0.75005526  0.25000000  0.35509416  1
  O  O462  1  0.75005526  0.25000000  0.55509416  1
  O  O463  1  0.75005526  0.25000000  0.75509416  1
  O  O464  1  0.75005526  0.25000000  0.95509416  1
  O  O465  1  0.75005526  0.75000000  0.15509416  1
  O  O466  1  0.75005526  0.75000000  0.35509416  1
  O  O467  1  0.75005526  0.75000000  0.55509416  1
  O  O468  1  0.75005526  0.75000000  0.75509416  1
  O  O469  1  0.75005526  0.75000000  0.95509416  1
  O  O470  1  1.08338859  0.25000000  0.15509416  1
  O  O471  1  1.08338859  0.25000000  0.35509416  1
  O  O472  1  1.08338859  0.25000000  0.55509416  1
  O  O473  1  1.08338859  0.25000000  0.75509416  1
  O  O474  1  1.08338859  0.25000000  0.95509416  1
  O  O475  1  1.08338859  0.75000000  0.15509416  1
  O  O476  1  1.08338859  0.75000000  0.35509416  1
  O  O477  1  1.08338859  0.75000000  0.55509416  1
  O  O478  1  1.08338859  0.75000000  0.75509416  1
  O  O479  1  1.08338859  0.75000000  0.95509416  1
