# generated using pymatgen
data_Ba2PbO4
_symmetry_space_group_name_H-M   'P 1'
_cell_length_a   13.01515773
_cell_length_b   13.01515773
_cell_length_c   13.26386294
_cell_angle_alpha   90.00000000
_cell_angle_beta   90.00000000
_cell_angle_gamma   90.00000000
_symmetry_Int_Tables_number   1
_chemical_formula_structural   Ba2PbO4
_chemical_formula_sum   'Ba36 Pb18 O72'
_cell_volume   2246.82318635
_cell_formula_units_Z   18
loop_
 _symmetry_equiv_pos_site_id
 _symmetry_equiv_pos_as_xyz
  1  'x, y, z'
loop_
 _atom_site_type_symbol
 _atom_site_label
 _atom_site_symmetry_multiplicity
 _atom_site_fract_x
 _atom_site_fract_y
 _atom_site_fract_z
 _atom_site_occupancy
  Ba  Ba0  1  0.00000000  -0.00000000  0.35623130  1
  Ba  Ba1  1  0.00000000  0.33333333  0.35623130  1
  Ba  Ba2  1  0.00000000  0.66666667  0.35623130  1
  Ba  Ba3  1  0.33333333  -0.00000000  0.35623130  1
  Ba  Ba4  1  0.33333333  0.33333333  0.35623130  1
  Ba  Ba5  1  0.33333333  0.66666667  0.35623130  1
  Ba  Ba6  1  0.66666667  -0.00000000  0.35623130  1
  Ba  Ba7  1  0.66666667  0.33333333  0.35623130  1
  Ba  Ba8  1  0.66666667  0.66666667  0.35623130  1
  Ba  Ba9  1  0.16666667  0.16666667  0.85623130  1
  Ba  Ba10  1  0.16666667  0.50000000  0.85623130  1
  Ba  Ba11  1  0.16666667  0.83333333  0.85623130  1
  Ba  Ba12  1  0.50000000  0.16666667  0.85623130  1
  Ba  Ba13  1  0.50000000  0.50000000  0.85623130  1
  Ba  Ba14  1  0.50000000  0.83333333  0.85623130  1
  Ba  Ba15  1  0.83333333  0.16666667  0.85623130  1
  Ba  Ba16  1  0.83333333  0.50000000  0.85623130  1
  Ba  Ba17  1  0.83333333  0.83333333  0.85623130  1
  Ba  Ba18  1  -0.00000000  0.00000000  0.64376870  1
  Ba  Ba19  1  -0.00000000  0.33333333  0.64376870  1
  Ba  Ba20  1  -0.00000000  0.66666667  0.64376870  1
  Ba  Ba21  1  0.33333333  0.00000000  0.64376870  1
  Ba  Ba22  1  0.33333333  0.33333333  0.64376870  1
  Ba  Ba23  1  0.33333333  0.66666667  0.64376870  1
  Ba  Ba24  1  0.66666667  0.00000000  0.64376870  1
  Ba  Ba25  1  0.66666667  0.33333333  0.64376870  1
  Ba  Ba26  1  0.66666667  0.66666667  0.64376870  1
  Ba  Ba27  1  0.16666667  0.16666667  1.14376870  1
  Ba  Ba28  1  0.16666667  0.50000000  1.14376870  1
  Ba  Ba29  1  0.16666667  0.83333333  1.14376870  1
  Ba  Ba30  1  0.50000000  0.16666667  1.14376870  1
  Ba  Ba31  1  0.50000000  0.50000000  1.14376870  1
  Ba  Ba32  1  0.50000000  0.83333333  1.14376870  1
  Ba  Ba33  1  0.83333333  0.16666667  1.14376870  1
  Ba  Ba34  1  0.83333333  0.50000000  1.14376870  1
  Ba  Ba35  1  0.83333333  0.83333333  1.14376870  1
  Pb  Pb36  1  0.00000000  0.00000000  0.00000000  1
  Pb  Pb37  1  0.00000000  0.33333333  0.00000000  1
  Pb  Pb38  1  0.00000000  0.66666667  0.00000000  1
  Pb  Pb39  1  0.33333333  0.00000000  0.00000000  1
  Pb  Pb40  1  0.33333333  0.33333333  0.00000000  1
  Pb  Pb41  1  0.33333333  0.66666667  0.00000000  1
  Pb  Pb42  1  0.66666667  0.00000000  0.00000000  1
  Pb  Pb43  1  0.66666667  0.33333333  0.00000000  1
  Pb  Pb44  1  0.66666667  0.66666667  0.00000000  1
  Pb  Pb45  1  0.16666667  0.16666667  0.50000000  1
  Pb  Pb46  1  0.16666667  0.50000000  0.50000000  1
  Pb  Pb47  1  0.16666667  0.83333333  0.50000000  1
  Pb  Pb48  1  0.50000000  0.16666667  0.50000000  1
  Pb  Pb49  1  0.50000000  0.50000000  0.50000000  1
  Pb  Pb50  1  0.50000000  0.83333333  0.50000000  1
  Pb  Pb51  1  0.83333333  0.16666667  0.50000000  1
  Pb  Pb52  1  0.83333333  0.50000000  0.50000000  1
  Pb  Pb53  1  0.83333333  0.83333333  0.50000000  1
  O  O54  1  0.00000000  0.16666667  0.00000000  1
  O  O55  1  0.00000000  0.50000000  0.00000000  1
  O  O56  1  0.00000000  0.83333333  0.00000000  1
  O  O57  1  0.33333333  0.16666667  0.00000000  1
  O  O58  1  0.33333333  0.50000000  0.00000000  1
  O  O59  1  0.33333333  0.83333333  0.00000000  1
  O  O60  1  0.66666667  0.16666667  0.00000000  1
  O  O61  1  0.66666667  0.50000000  0.00000000  1
  O  O62  1  0.66666667  0.83333333  0.00000000  1
  O  O63  1  0.16666667  0.33333333  0.50000000  1
  O  O64  1  0.16666667  0.66666667  0.50000000  1
  O  O65  1  0.16666667  1.00000000  0.50000000  1
  O  O66  1  0.50000000  0.33333333  0.50000000  1
  O  O67  1  0.50000000  0.66666667  0.50000000  1
  O  O68  1  0.50000000  1.00000000  0.50000000  1
  O  O69  1  0.83333333  0.33333333  0.50000000  1
  O  O70  1  0.83333333  0.66666667  0.50000000  1
  O  O71  1  0.83333333  1.00000000  0.50000000  1
  O  O72  1  0.16666667  0.00000000  0.00000000  1
  O  O73  1  0.16666667  0.33333333  0.00000000  1
  O  O74  1  0.16666667  0.66666667  0.00000000  1
  O  O75  1  0.50000000  0.00000000  0.00000000  1
  O  O76  1  0.50000000  0.33333333  0.00000000  1
  O  O77  1  0.50000000  0.66666667  0.00000000  1
  O  O78  1  0.83333333  0.00000000  0.00000000  1
  O  O79  1  0.83333333  0.33333333  0.00000000  1
  O  O80  1  0.83333333  0.66666667  0.00000000  1
  O  O81  1  0.33333333  0.16666667  0.50000000  1
  O  O82  1  0.33333333  0.50000000  0.50000000  1
  O  O83  1  0.33333333  0.83333333  0.50000000  1
  O  O84  1  0.66666667  0.16666667  0.50000000  1
  O  O85  1  0.66666667  0.50000000  0.50000000  1
  O  O86  1  0.66666667  0.83333333  0.50000000  1
  O  O87  1  1.00000000  0.16666667  0.50000000  1
  O  O88  1  1.00000000  0.50000000  0.50000000  1
  O  O89  1  1.00000000  0.83333333  0.50000000  1
  O  O90  1  0.00000000  -0.00000000  0.83622528  1
  O  O91  1  0.00000000  0.33333333  0.83622528  1
  O  O92  1  0.00000000  0.66666667  0.83622528  1
  O  O93  1  0.33333333  -0.00000000  0.83622528  1
  O  O94  1  0.33333333  0.33333333  0.83622528  1
  O  O95  1  0.33333333  0.66666667  0.83622528  1
  O  O96  1  0.66666667  -0.00000000  0.83622528  1
  O  O97  1  0.66666667  0.33333333  0.83622528  1
  O  O98  1  0.66666667  0.66666667  0.83622528  1
  O  O99  1  0.16666667  0.16666667  1.33622528  1
  O  O100  1  0.16666667  0.50000000  1.33622528  1
  O  O101  1  0.16666667  0.83333333  1.33622528  1
  O  O102  1  0.50000000  0.16666667  1.33622528  1
  O  O103  1  0.50000000  0.50000000  1.33622528  1
  O  O104  1  0.50000000  0.83333333  1.33622528  1
  O  O105  1  0.83333333  0.16666667  1.33622528  1
  O  O106  1  0.83333333  0.50000000  1.33622528  1
  O  O107  1  0.83333333  0.83333333  1.33622528  1
  O  O108  1  -0.00000000  0.00000000  0.16377472  1
  O  O109  1  -0.00000000  0.33333333  0.16377472  1
  O  O110  1  -0.00000000  0.66666667  0.16377472  1
  O  O111  1  0.33333333  0.00000000  0.16377472  1
  O  O112  1  0.33333333  0.33333333  0.16377472  1
  O  O113  1  0.33333333  0.66666667  0.16377472  1
  O  O114  1  0.66666667  0.00000000  0.16377472  1
  O  O115  1  0.66666667  0.33333333  0.16377472  1
  O  O116  1  0.66666667  0.66666667  0.16377472  1
  O  O117  1  0.16666667  0.16666667  0.66377472  1
  O  O118  1  0.16666667  0.50000000  0.66377472  1
  O  O119  1  0.16666667  0.83333333  0.66377472  1
  O  O120  1  0.50000000  0.16666667  0.66377472  1
  O  O121  1  0.50000000  0.50000000  0.66377472  1
  O  O122  1  0.50000000  0.83333333  0.66377472  1
  O  O123  1  0.83333333  0.16666667  0.66377472  1
  O  O124  1  0.83333333  0.50000000  0.66377472  1
  O  O125  1  0.83333333  0.83333333  0.66377472  1
