# generated using pymatgen
data_CdMoO4
_symmetry_space_group_name_H-M   'P 1'
_cell_length_a   10.34559805
_cell_length_b   10.34559805
_cell_length_c   11.11448335
_cell_angle_alpha   90.00000000
_cell_angle_beta   90.00000000
_cell_angle_gamma   90.00000000
_symmetry_Int_Tables_number   1
_chemical_formula_structural   CdMoO4
_chemical_formula_sum   'Cd16 Mo16 O64'
_cell_volume   1189.59870088
_cell_formula_units_Z   16
loop_
 _symmetry_equiv_pos_site_id
 _symmetry_equiv_pos_as_xyz
  1  'x, y, z'
loop_
 _atom_site_type_symbol
 _atom_site_label
 _atom_site_symmetry_multiplicity
 _atom_site_fract_x
 _atom_site_fract_y
 _atom_site_fract_z
 _atom_site_occupancy
  Cd  Cd0  1  0.25000000  0.50000000  0.25000000  1
  Cd  Cd1  1  0.75000000  0.50000000  0.25000000  1
  Cd  Cd2  1  0.25000000  0.00000000  0.25000000  1
  Cd  Cd3  1  0.75000000  0.00000000  0.25000000  1
  Cd  Cd4  1  0.50000000  0.25000000  0.75000000  1
  Cd  Cd5  1  1.00000000  0.25000000  0.75000000  1
  Cd  Cd6  1  0.50000000  -0.25000000  0.75000000  1
  Cd  Cd7  1  1.00000000  -0.25000000  0.75000000  1
  Cd  Cd8  1  0.00000000  0.50000000  0.00000000  1
  Cd  Cd9  1  0.50000000  0.50000000  0.00000000  1
  Cd  Cd10  1  0.00000000  0.00000000  0.00000000  1
  Cd  Cd11  1  0.50000000  0.00000000  0.00000000  1
  Cd  Cd12  1  0.25000000  0.25000000  0.50000000  1
  Cd  Cd13  1  0.75000000  0.25000000  0.50000000  1
  Cd  Cd14  1  0.25000000  -0.25000000  0.50000000  1
  Cd  Cd15  1  0.75000000  -0.25000000  0.50000000  1
  Mo  Mo16  1  0.00000000  0.25000000  0.25000000  1
  Mo  Mo17  1  0.50000000  0.25000000  0.25000000  1
  Mo  Mo18  1  0.00000000  -0.25000000  0.25000000  1
  Mo  Mo19  1  0.50000000  -0.25000000  0.25000000  1
  Mo  Mo20  1  0.25000000  0.00000000  0.75000000  1
  Mo  Mo21  1  0.75000000  0.00000000  0.75000000  1
  Mo  Mo22  1  0.25000000  -0.50000000  0.75000000  1
  Mo  Mo23  1  0.75000000  -0.50000000  0.75000000  1
  Mo  Mo24  1  0.00000000  0.50000000  0.50000000  1
  Mo  Mo25  1  0.50000000  0.50000000  0.50000000  1
  Mo  Mo26  1  0.00000000  0.00000000  0.50000000  1
  Mo  Mo27  1  0.50000000  0.00000000  0.50000000  1
  Mo  Mo28  1  0.25000000  0.25000000  1.00000000  1
  Mo  Mo29  1  0.75000000  0.25000000  1.00000000  1
  Mo  Mo30  1  0.25000000  -0.25000000  1.00000000  1
  Mo  Mo31  1  0.75000000  -0.25000000  1.00000000  1
  O  O32  1  -0.08015348  0.37787096  0.58851899  1
  O  O33  1  0.41984652  0.37787096  0.58851899  1
  O  O34  1  -0.08015348  -0.12212904  0.58851899  1
  O  O35  1  0.41984652  -0.12212904  0.58851899  1
  O  O36  1  0.16984652  0.12787096  1.08851899  1
  O  O37  1  0.66984652  0.12787096  1.08851899  1
  O  O38  1  0.16984652  -0.37212904  1.08851899  1
  O  O39  1  0.66984652  -0.37212904  1.08851899  1
  O  O40  1  0.12212904  0.16984652  0.33851899  1
  O  O41  1  0.62212904  0.16984652  0.33851899  1
  O  O42  1  0.12212904  -0.33015348  0.33851899  1
  O  O43  1  0.62212904  -0.33015348  0.33851899  1
  O  O44  1  0.37212904  -0.08015348  0.83851899  1
  O  O45  1  0.87212904  -0.08015348  0.83851899  1
  O  O46  1  0.37212904  -0.58015348  0.83851899  1
  O  O47  1  0.87212904  -0.58015348  0.83851899  1
  O  O48  1  -0.12212904  0.33015348  0.33851899  1
  O  O49  1  0.37787096  0.33015348  0.33851899  1
  O  O50  1  -0.12212904  -0.16984652  0.33851899  1
  O  O51  1  0.37787096  -0.16984652  0.33851899  1
  O  O52  1  0.12787096  0.08015348  0.83851899  1
  O  O53  1  0.62787096  0.08015348  0.83851899  1
  O  O54  1  0.12787096  -0.41984652  0.83851899  1
  O  O55  1  0.62787096  -0.41984652  0.83851899  1
  O  O56  1  0.33015348  0.37212904  0.08851899  1
  O  O57  1  0.83015348  0.37212904  0.08851899  1
  O  O58  1  0.33015348  -0.12787096  0.08851899  1
  O  O59  1  0.83015348  -0.12787096  0.08851899  1
  O  O60  1  0.58015348  0.12212904  0.58851899  1
  O  O61  1  1.08015348  0.12212904  0.58851899  1
  O  O62  1  0.58015348  -0.37787096  0.58851899  1
  O  O63  1  1.08015348  -0.37787096  0.58851899  1
  O  O64  1  -0.08015348  0.12787096  0.16148101  1
  O  O65  1  0.41984652  0.12787096  0.16148101  1
  O  O66  1  -0.08015348  -0.37212904  0.16148101  1
  O  O67  1  0.41984652  -0.37212904  0.16148101  1
  O  O68  1  0.16984652  -0.12212904  0.66148101  1
  O  O69  1  0.66984652  -0.12212904  0.66148101  1
  O  O70  1  0.16984652  -0.62212904  0.66148101  1
  O  O71  1  0.66984652  -0.62212904  0.66148101  1
  O  O72  1  0.12212904  0.41984652  0.41148101  1
  O  O73  1  0.62212904  0.41984652  0.41148101  1
  O  O74  1  0.12212904  -0.08015348  0.41148101  1
  O  O75  1  0.62212904  -0.08015348  0.41148101  1
  O  O76  1  0.37212904  0.16984652  0.91148101  1
  O  O77  1  0.87212904  0.16984652  0.91148101  1
  O  O78  1  0.37212904  -0.33015348  0.91148101  1
  O  O79  1  0.87212904  -0.33015348  0.91148101  1
  O  O80  1  0.12787096  0.33015348  -0.08851899  1
  O  O81  1  0.62787096  0.33015348  -0.08851899  1
  O  O82  1  0.12787096  -0.16984652  -0.08851899  1
  O  O83  1  0.62787096  -0.16984652  -0.08851899  1
  O  O84  1  0.37787096  0.08015348  0.41148101  1
  O  O85  1  0.87787096  0.08015348  0.41148101  1
  O  O86  1  0.37787096  -0.41984652  0.41148101  1
  O  O87  1  0.87787096  -0.41984652  0.41148101  1
  O  O88  1  0.08015348  0.37212904  0.16148101  1
  O  O89  1  0.58015348  0.37212904  0.16148101  1
  O  O90  1  0.08015348  -0.12787096  0.16148101  1
  O  O91  1  0.58015348  -0.12787096  0.16148101  1
  O  O92  1  0.33015348  0.12212904  0.66148101  1
  O  O93  1  0.83015348  0.12212904  0.66148101  1
  O  O94  1  0.33015348  -0.37787096  0.66148101  1
  O  O95  1  0.83015348  -0.37787096  0.66148101  1
