# generated using pymatgen
data_NaVCdO4
_symmetry_space_group_name_H-M   'P 1'
_cell_length_a   17.48888315
_cell_length_b   18.26705399
_cell_length_c   14.00509923
_cell_angle_alpha   90.00000000
_cell_angle_beta   90.00000000
_cell_angle_gamma   90.00000000
_symmetry_Int_Tables_number   1
_chemical_formula_structural   NaVCdO4
_chemical_formula_sum   'Na48 V48 Cd48 O192'
_cell_volume   4474.21426975
_cell_formula_units_Z   48
loop_
 _symmetry_equiv_pos_site_id
 _symmetry_equiv_pos_as_xyz
  1  'x, y, z'
loop_
 _atom_site_type_symbol
 _atom_site_label
 _atom_site_symmetry_multiplicity
 _atom_site_fract_x
 _atom_site_fract_y
 _atom_site_fract_z
 _atom_site_occupancy
  Na  Na0  1  0.16666667  0.09025710  0.37500000  1
  Na  Na1  1  0.16666667  0.09025710  0.87500000  1
  Na  Na2  1  0.16666667  0.59025710  0.37500000  1
  Na  Na3  1  0.16666667  0.59025710  0.87500000  1
  Na  Na4  1  0.50000000  0.09025710  0.37500000  1
  Na  Na5  1  0.50000000  0.09025710  0.87500000  1
  Na  Na6  1  0.50000000  0.59025710  0.37500000  1
  Na  Na7  1  0.50000000  0.59025710  0.87500000  1
  Na  Na8  1  0.83333333  0.09025710  0.37500000  1
  Na  Na9  1  0.83333333  0.09025710  0.87500000  1
  Na  Na10  1  0.83333333  0.59025710  0.37500000  1
  Na  Na11  1  0.83333333  0.59025710  0.87500000  1
  Na  Na12  1  0.33333333  0.34025710  0.37500000  1
  Na  Na13  1  0.33333333  0.34025710  0.87500000  1
  Na  Na14  1  0.33333333  0.84025710  0.37500000  1
  Na  Na15  1  0.33333333  0.84025710  0.87500000  1
  Na  Na16  1  0.66666667  0.34025710  0.37500000  1
  Na  Na17  1  0.66666667  0.34025710  0.87500000  1
  Na  Na18  1  0.66666667  0.84025710  0.37500000  1
  Na  Na19  1  0.66666667  0.84025710  0.87500000  1
  Na  Na20  1  1.00000000  0.34025710  0.37500000  1
  Na  Na21  1  1.00000000  0.34025710  0.87500000  1
  Na  Na22  1  1.00000000  0.84025710  0.37500000  1
  Na  Na23  1  1.00000000  0.84025710  0.87500000  1
  Na  Na24  1  0.16666667  -0.09025710  0.12500000  1
  Na  Na25  1  0.16666667  -0.09025710  0.62500000  1
  Na  Na26  1  0.16666667  0.40974290  0.12500000  1
  Na  Na27  1  0.16666667  0.40974290  0.62500000  1
  Na  Na28  1  0.50000000  -0.09025710  0.12500000  1
  Na  Na29  1  0.50000000  -0.09025710  0.62500000  1
  Na  Na30  1  0.50000000  0.40974290  0.12500000  1
  Na  Na31  1  0.50000000  0.40974290  0.62500000  1
  Na  Na32  1  0.83333333  -0.09025710  0.12500000  1
  Na  Na33  1  0.83333333  -0.09025710  0.62500000  1
  Na  Na34  1  0.83333333  0.40974290  0.12500000  1
  Na  Na35  1  0.83333333  0.40974290  0.62500000  1
  Na  Na36  1  0.33333333  0.15974290  0.12500000  1
  Na  Na37  1  0.33333333  0.15974290  0.62500000  1
  Na  Na38  1  0.33333333  0.65974290  0.12500000  1
  Na  Na39  1  0.33333333  0.65974290  0.62500000  1
  Na  Na40  1  0.66666667  0.15974290  0.12500000  1
  Na  Na41  1  0.66666667  0.15974290  0.62500000  1
  Na  Na42  1  0.66666667  0.65974290  0.12500000  1
  Na  Na43  1  0.66666667  0.65974290  0.62500000  1
  Na  Na44  1  1.00000000  0.15974290  0.12500000  1
  Na  Na45  1  1.00000000  0.15974290  0.62500000  1
  Na  Na46  1  1.00000000  0.65974290  0.12500000  1
  Na  Na47  1  1.00000000  0.65974290  0.62500000  1
  V  V48  1  0.16666667  0.07460636  0.12500000  1
  V  V49  1  0.16666667  0.07460636  0.62500000  1
  V  V50  1  0.16666667  0.57460636  0.12500000  1
  V  V51  1  0.16666667  0.57460636  0.62500000  1
  V  V52  1  0.50000000  0.07460636  0.12500000  1
  V  V53  1  0.50000000  0.07460636  0.62500000  1
  V  V54  1  0.50000000  0.57460636  0.12500000  1
  V  V55  1  0.50000000  0.57460636  0.62500000  1
  V  V56  1  0.83333333  0.07460636  0.12500000  1
  V  V57  1  0.83333333  0.07460636  0.62500000  1
  V  V58  1  0.83333333  0.57460636  0.12500000  1
  V  V59  1  0.83333333  0.57460636  0.62500000  1
  V  V60  1  0.33333333  0.32460636  0.12500000  1
  V  V61  1  0.33333333  0.32460636  0.62500000  1
  V  V62  1  0.33333333  0.82460636  0.12500000  1
  V  V63  1  0.33333333  0.82460636  0.62500000  1
  V  V64  1  0.66666667  0.32460636  0.12500000  1
  V  V65  1  0.66666667  0.32460636  0.62500000  1
  V  V66  1  0.66666667  0.82460636  0.12500000  1
  V  V67  1  0.66666667  0.82460636  0.62500000  1
  V  V68  1  1.00000000  0.32460636  0.12500000  1
  V  V69  1  1.00000000  0.32460636  0.62500000  1
  V  V70  1  1.00000000  0.82460636  0.12500000  1
  V  V71  1  1.00000000  0.82460636  0.62500000  1
  V  V72  1  0.16666667  -0.07460636  0.37500000  1
  V  V73  1  0.16666667  -0.07460636  0.87500000  1
  V  V74  1  0.16666667  0.42539364  0.37500000  1
  V  V75  1  0.16666667  0.42539364  0.87500000  1
  V  V76  1  0.50000000  -0.07460636  0.37500000  1
  V  V77  1  0.50000000  -0.07460636  0.87500000  1
  V  V78  1  0.50000000  0.42539364  0.37500000  1
  V  V79  1  0.50000000  0.42539364  0.87500000  1
  V  V80  1  0.83333333  -0.07460636  0.37500000  1
  V  V81  1  0.83333333  -0.07460636  0.87500000  1
  V  V82  1  0.83333333  0.42539364  0.37500000  1
  V  V83  1  0.83333333  0.42539364  0.87500000  1
  V  V84  1  0.33333333  0.17539364  0.37500000  1
  V  V85  1  0.33333333  0.17539364  0.87500000  1
  V  V86  1  0.33333333  0.67539364  0.37500000  1
  V  V87  1  0.33333333  0.67539364  0.87500000  1
  V  V88  1  0.66666667  0.17539364  0.37500000  1
  V  V89  1  0.66666667  0.17539364  0.87500000  1
  V  V90  1  0.66666667  0.67539364  0.37500000  1
  V  V91  1  0.66666667  0.67539364  0.87500000  1
  V  V92  1  1.00000000  0.17539364  0.37500000  1
  V  V93  1  1.00000000  0.17539364  0.87500000  1
  V  V94  1  1.00000000  0.67539364  0.37500000  1
  V  V95  1  1.00000000  0.67539364  0.87500000  1
  Cd  Cd96  1  -0.00000000  0.00000000  0.00000000  1
  Cd  Cd97  1  -0.00000000  0.00000000  0.50000000  1
  Cd  Cd98  1  -0.00000000  0.50000000  0.00000000  1
  Cd  Cd99  1  -0.00000000  0.50000000  0.50000000  1
  Cd  Cd100  1  0.33333333  0.00000000  0.00000000  1
  Cd  Cd101  1  0.33333333  0.00000000  0.50000000  1
  Cd  Cd102  1  0.33333333  0.50000000  0.00000000  1
  Cd  Cd103  1  0.33333333  0.50000000  0.50000000  1
  Cd  Cd104  1  0.66666667  0.00000000  0.00000000  1
  Cd  Cd105  1  0.66666667  0.00000000  0.50000000  1
  Cd  Cd106  1  0.66666667  0.50000000  0.00000000  1
  Cd  Cd107  1  0.66666667  0.50000000  0.50000000  1
  Cd  Cd108  1  0.16666667  0.25000000  0.00000000  1
  Cd  Cd109  1  0.16666667  0.25000000  0.50000000  1
  Cd  Cd110  1  0.16666667  0.75000000  0.00000000  1
  Cd  Cd111  1  0.16666667  0.75000000  0.50000000  1
  Cd  Cd112  1  0.50000000  0.25000000  0.00000000  1
  Cd  Cd113  1  0.50000000  0.25000000  0.50000000  1
  Cd  Cd114  1  0.50000000  0.75000000  0.00000000  1
  Cd  Cd115  1  0.50000000  0.75000000  0.50000000  1
  Cd  Cd116  1  0.83333333  0.25000000  0.00000000  1
  Cd  Cd117  1  0.83333333  0.25000000  0.50000000  1
  Cd  Cd118  1  0.83333333  0.75000000  0.00000000  1
  Cd  Cd119  1  0.83333333  0.75000000  0.50000000  1
  Cd  Cd120  1  -0.00000000  0.00000000  0.25000000  1
  Cd  Cd121  1  -0.00000000  0.00000000  0.75000000  1
  Cd  Cd122  1  -0.00000000  0.50000000  0.25000000  1
  Cd  Cd123  1  -0.00000000  0.50000000  0.75000000  1
  Cd  Cd124  1  0.33333333  0.00000000  0.25000000  1
  Cd  Cd125  1  0.33333333  0.00000000  0.75000000  1
  Cd  Cd126  1  0.33333333  0.50000000  0.25000000  1
  Cd  Cd127  1  0.33333333  0.50000000  0.75000000  1
  Cd  Cd128  1  0.66666667  0.00000000  0.25000000  1
  Cd  Cd129  1  0.66666667  0.00000000  0.75000000  1
  Cd  Cd130  1  0.66666667  0.50000000  0.25000000  1
  Cd  Cd131  1  0.66666667  0.50000000  0.75000000  1
  Cd  Cd132  1  0.16666667  0.25000000  0.25000000  1
  Cd  Cd133  1  0.16666667  0.25000000  0.75000000  1
  Cd  Cd134  1  0.16666667  0.75000000  0.25000000  1
  Cd  Cd135  1  0.16666667  0.75000000  0.75000000  1
  Cd  Cd136  1  0.50000000  0.25000000  0.25000000  1
  Cd  Cd137  1  0.50000000  0.25000000  0.75000000  1
  Cd  Cd138  1  0.50000000  0.75000000  0.25000000  1
  Cd  Cd139  1  0.50000000  0.75000000  0.75000000  1
  Cd  Cd140  1  0.83333333  0.25000000  0.25000000  1
  Cd  Cd141  1  0.83333333  0.25000000  0.75000000  1
  Cd  Cd142  1  0.83333333  0.75000000  0.25000000  1
  Cd  Cd143  1  0.83333333  0.75000000  0.75000000  1
  O  O144  1  0.24754449  -0.01778065  0.37500000  1
  O  O145  1  0.24754449  -0.01778065  0.87500000  1
  O  O146  1  0.24754449  0.48221935  0.37500000  1
  O  O147  1  0.24754449  0.48221935  0.87500000  1
  O  O148  1  0.58087783  -0.01778065  0.37500000  1
  O  O149  1  0.58087783  -0.01778065  0.87500000  1
  O  O150  1  0.58087783  0.48221935  0.37500000  1
  O  O151  1  0.58087783  0.48221935  0.87500000  1
  O  O152  1  0.91421116  -0.01778065  0.37500000  1
  O  O153  1  0.91421116  -0.01778065  0.87500000  1
  O  O154  1  0.91421116  0.48221935  0.37500000  1
  O  O155  1  0.91421116  0.48221935  0.87500000  1
  O  O156  1  0.41421116  0.23221935  0.37500000  1
  O  O157  1  0.41421116  0.23221935  0.87500000  1
  O  O158  1  0.41421116  0.73221935  0.37500000  1
  O  O159  1  0.41421116  0.73221935  0.87500000  1
  O  O160  1  0.74754449  0.23221935  0.37500000  1
  O  O161  1  0.74754449  0.23221935  0.87500000  1
  O  O162  1  0.74754449  0.73221935  0.37500000  1
  O  O163  1  0.74754449  0.73221935  0.87500000  1
  O  O164  1  1.08087783  0.23221935  0.37500000  1
  O  O165  1  1.08087783  0.23221935  0.87500000  1
  O  O166  1  1.08087783  0.73221935  0.37500000  1
  O  O167  1  1.08087783  0.73221935  0.87500000  1
  O  O168  1  0.08578884  0.01778065  0.12500000  1
  O  O169  1  0.08578884  0.01778065  0.62500000  1
  O  O170  1  0.08578884  0.51778065  0.12500000  1
  O  O171  1  0.08578884  0.51778065  0.62500000  1
  O  O172  1  0.41912217  0.01778065  0.12500000  1
  O  O173  1  0.41912217  0.01778065  0.62500000  1
  O  O174  1  0.41912217  0.51778065  0.12500000  1
  O  O175  1  0.41912217  0.51778065  0.62500000  1
  O  O176  1  0.75245551  0.01778065  0.12500000  1
  O  O177  1  0.75245551  0.01778065  0.62500000  1
  O  O178  1  0.75245551  0.51778065  0.12500000  1
  O  O179  1  0.75245551  0.51778065  0.62500000  1
  O  O180  1  0.25245551  0.26778065  0.12500000  1
  O  O181  1  0.25245551  0.26778065  0.62500000  1
  O  O182  1  0.25245551  0.76778065  0.12500000  1
  O  O183  1  0.25245551  0.76778065  0.62500000  1
  O  O184  1  0.58578884  0.26778065  0.12500000  1
  O  O185  1  0.58578884  0.26778065  0.62500000  1
  O  O186  1  0.58578884  0.76778065  0.12500000  1
  O  O187  1  0.58578884  0.76778065  0.62500000  1
  O  O188  1  0.91912217  0.26778065  0.12500000  1
  O  O189  1  0.91912217  0.26778065  0.62500000  1
  O  O190  1  0.91912217  0.76778065  0.12500000  1
  O  O191  1  0.91912217  0.76778065  0.62500000  1
  O  O192  1  0.24754449  0.01778065  0.12500000  1
  O  O193  1  0.24754449  0.01778065  0.62500000  1
  O  O194  1  0.24754449  0.51778065  0.12500000  1
  O  O195  1  0.24754449  0.51778065  0.62500000  1
  O  O196  1  0.58087783  0.01778065  0.12500000  1
  O  O197  1  0.58087783  0.01778065  0.62500000  1
  O  O198  1  0.58087783  0.51778065  0.12500000  1
  O  O199  1  0.58087783  0.51778065  0.62500000  1
  O  O200  1  0.91421116  0.01778065  0.12500000  1
  O  O201  1  0.91421116  0.01778065  0.62500000  1
  O  O202  1  0.91421116  0.51778065  0.12500000  1
  O  O203  1  0.91421116  0.51778065  0.62500000  1
  O  O204  1  0.41421116  0.26778065  0.12500000  1
  O  O205  1  0.41421116  0.26778065  0.62500000  1
  O  O206  1  0.41421116  0.76778065  0.12500000  1
  O  O207  1  0.41421116  0.76778065  0.62500000  1
  O  O208  1  0.74754449  0.26778065  0.12500000  1
  O  O209  1  0.74754449  0.26778065  0.62500000  1
  O  O210  1  0.74754449  0.76778065  0.12500000  1
  O  O211  1  0.74754449  0.76778065  0.62500000  1
  O  O212  1  1.08087783  0.26778065  0.12500000  1
  O  O213  1  1.08087783  0.26778065  0.62500000  1
  O  O214  1  1.08087783  0.76778065  0.12500000  1
  O  O215  1  1.08087783  0.76778065  0.62500000  1
  O  O216  1  0.08578884  -0.01778065  0.37500000  1
  O  O217  1  0.08578884  -0.01778065  0.87500000  1
  O  O218  1  0.08578884  0.48221935  0.37500000  1
  O  O219  1  0.08578884  0.48221935  0.87500000  1
  O  O220  1  0.41912217  -0.01778065  0.37500000  1
  O  O221  1  0.41912217  -0.01778065  0.87500000  1
  O  O222  1  0.41912217  0.48221935  0.37500000  1
  O  O223  1  0.41912217  0.48221935  0.87500000  1
  O  O224  1  0.75245551  -0.01778065  0.37500000  1
  O  O225  1  0.75245551  -0.01778065  0.87500000  1
  O  O226  1  0.75245551  0.48221935  0.37500000  1
  O  O227  1  0.75245551  0.48221935  0.87500000  1
  O  O228  1  0.25245551  0.23221935  0.37500000  1
  O  O229  1  0.25245551  0.23221935  0.87500000  1
  O  O230  1  0.25245551  0.73221935  0.37500000  1
  O  O231  1  0.25245551  0.73221935  0.87500000  1
  O  O232  1  0.58578884  0.23221935  0.37500000  1
  O  O233  1  0.58578884  0.23221935  0.87500000  1
  O  O234  1  0.58578884  0.73221935  0.37500000  1
  O  O235  1  0.58578884  0.73221935  0.87500000  1
  O  O236  1  0.91912217  0.23221935  0.37500000  1
  O  O237  1  0.91912217  0.23221935  0.87500000  1
  O  O238  1  0.91912217  0.73221935  0.37500000  1
  O  O239  1  0.91912217  0.73221935  0.87500000  1
  O  O240  1  0.16666667  0.12887154  0.02675021  1
  O  O241  1  0.16666667  0.12887154  0.52675021  1
  O  O242  1  0.16666667  0.62887154  0.02675021  1
  O  O243  1  0.16666667  0.62887154  0.52675021  1
  O  O244  1  0.50000000  0.12887154  0.02675021  1
  O  O245  1  0.50000000  0.12887154  0.52675021  1
  O  O246  1  0.50000000  0.62887154  0.02675021  1
  O  O247  1  0.50000000  0.62887154  0.52675021  1
  O  O248  1  0.83333333  0.12887154  0.02675021  1
  O  O249  1  0.83333333  0.12887154  0.52675021  1
  O  O250  1  0.83333333  0.62887154  0.02675021  1
  O  O251  1  0.83333333  0.62887154  0.52675021  1
  O  O252  1  0.33333333  0.37887154  0.02675021  1
  O  O253  1  0.33333333  0.37887154  0.52675021  1
  O  O254  1  0.33333333  0.87887154  0.02675021  1
  O  O255  1  0.33333333  0.87887154  0.52675021  1
  O  O256  1  0.66666667  0.37887154  0.02675021  1
  O  O257  1  0.66666667  0.37887154  0.52675021  1
  O  O258  1  0.66666667  0.87887154  0.02675021  1
  O  O259  1  0.66666667  0.87887154  0.52675021  1
  O  O260  1  1.00000000  0.37887154  0.02675021  1
  O  O261  1  1.00000000  0.37887154  0.52675021  1
  O  O262  1  1.00000000  0.87887154  0.02675021  1
  O  O263  1  1.00000000  0.87887154  0.52675021  1
  O  O264  1  0.16666667  -0.12887154  0.27675021  1
  O  O265  1  0.16666667  -0.12887154  0.77675021  1
  O  O266  1  0.16666667  0.37112846  0.27675021  1
  O  O267  1  0.16666667  0.37112846  0.77675021  1
  O  O268  1  0.50000000  -0.12887154  0.27675021  1
  O  O269  1  0.50000000  -0.12887154  0.77675021  1
  O  O270  1  0.50000000  0.37112846  0.27675021  1
  O  O271  1  0.50000000  0.37112846  0.77675021  1
  O  O272  1  0.83333333  -0.12887154  0.27675021  1
  O  O273  1  0.83333333  -0.12887154  0.77675021  1
  O  O274  1  0.83333333  0.37112846  0.27675021  1
  O  O275  1  0.83333333  0.37112846  0.77675021  1
  O  O276  1  0.33333333  0.12112846  0.27675021  1
  O  O277  1  0.33333333  0.12112846  0.77675021  1
  O  O278  1  0.33333333  0.62112846  0.27675021  1
  O  O279  1  0.33333333  0.62112846  0.77675021  1
  O  O280  1  0.66666667  0.12112846  0.27675021  1
  O  O281  1  0.66666667  0.12112846  0.77675021  1
  O  O282  1  0.66666667  0.62112846  0.27675021  1
  O  O283  1  0.66666667  0.62112846  0.77675021  1
  O  O284  1  1.00000000  0.12112846  0.27675021  1
  O  O285  1  1.00000000  0.12112846  0.77675021  1
  O  O286  1  1.00000000  0.62112846  0.27675021  1
  O  O287  1  1.00000000  0.62112846  0.77675021  1
  O  O288  1  0.16666667  0.12887154  0.22324979  1
  O  O289  1  0.16666667  0.12887154  0.72324979  1
  O  O290  1  0.16666667  0.62887154  0.22324979  1
  O  O291  1  0.16666667  0.62887154  0.72324979  1
  O  O292  1  0.50000000  0.12887154  0.22324979  1
  O  O293  1  0.50000000  0.12887154  0.72324979  1
  O  O294  1  0.50000000  0.62887154  0.22324979  1
  O  O295  1  0.50000000  0.62887154  0.72324979  1
  O  O296  1  0.83333333  0.12887154  0.22324979  1
  O  O297  1  0.83333333  0.12887154  0.72324979  1
  O  O298  1  0.83333333  0.62887154  0.22324979  1
  O  O299  1  0.83333333  0.62887154  0.72324979  1
  O  O300  1  0.33333333  0.37887154  0.22324979  1
  O  O301  1  0.33333333  0.37887154  0.72324979  1
  O  O302  1  0.33333333  0.87887154  0.22324979  1
  O  O303  1  0.33333333  0.87887154  0.72324979  1
  O  O304  1  0.66666667  0.37887154  0.22324979  1
  O  O305  1  0.66666667  0.37887154  0.72324979  1
  O  O306  1  0.66666667  0.87887154  0.22324979  1
  O  O307  1  0.66666667  0.87887154  0.72324979  1
  O  O308  1  1.00000000  0.37887154  0.22324979  1
  O  O309  1  1.00000000  0.37887154  0.72324979  1
  O  O310  1  1.00000000  0.87887154  0.22324979  1
  O  O311  1  1.00000000  0.87887154  0.72324979  1
  O  O312  1  0.16666667  -0.12887154  0.47324979  1
  O  O313  1  0.16666667  -0.12887154  0.97324979  1
  O  O314  1  0.16666667  0.37112846  0.47324979  1
  O  O315  1  0.16666667  0.37112846  0.97324979  1
  O  O316  1  0.50000000  -0.12887154  0.47324979  1
  O  O317  1  0.50000000  -0.12887154  0.97324979  1
  O  O318  1  0.50000000  0.37112846  0.47324979  1
  O  O319  1  0.50000000  0.37112846  0.97324979  1
  O  O320  1  0.83333333  -0.12887154  0.47324979  1
  O  O321  1  0.83333333  -0.12887154  0.97324979  1
  O  O322  1  0.83333333  0.37112846  0.47324979  1
  O  O323  1  0.83333333  0.37112846  0.97324979  1
  O  O324  1  0.33333333  0.12112846  0.47324979  1
  O  O325  1  0.33333333  0.12112846  0.97324979  1
  O  O326  1  0.33333333  0.62112846  0.47324979  1
  O  O327  1  0.33333333  0.62112846  0.97324979  1
  O  O328  1  0.66666667  0.12112846  0.47324979  1
  O  O329  1  0.66666667  0.12112846  0.97324979  1
  O  O330  1  0.66666667  0.62112846  0.47324979  1
  O  O331  1  0.66666667  0.62112846  0.97324979  1
  O  O332  1  1.00000000  0.12112846  0.47324979  1
  O  O333  1  1.00000000  0.12112846  0.97324979  1
  O  O334  1  1.00000000  0.62112846  0.47324979  1
  O  O335  1  1.00000000  0.62112846  0.97324979  1
