# generated using pymatgen
data_LiIn(WO4)2
_symmetry_space_group_name_H-M   'P 1'
_cell_length_a   9.63575005
_cell_length_b   11.65348341
_cell_length_c   9.92531132
_cell_angle_alpha   90.00000000
_cell_angle_beta   91.04953204
_cell_angle_gamma   90.00000000
_symmetry_Int_Tables_number   1
_chemical_formula_structural   LiIn(WO4)2
_chemical_formula_sum   'Li8 In8 W16 O64'
_cell_volume   1114.32675901
_cell_formula_units_Z   8
loop_
 _symmetry_equiv_pos_site_id
 _symmetry_equiv_pos_as_xyz
  1  'x, y, z'
loop_
 _atom_site_type_symbol
 _atom_site_label
 _atom_site_symmetry_multiplicity
 _atom_site_fract_x
 _atom_site_fract_y
 _atom_site_fract_z
 _atom_site_occupancy
  Li  Li0  1  0.50000000  0.34779147  0.37500000  1
  Li  Li1  1  0.50000000  0.34779147  0.87500000  1
  Li  Li2  1  1.00000000  0.84779147  0.37500000  1
  Li  Li3  1  1.00000000  0.84779147  0.87500000  1
  Li  Li4  1  0.50000000  -0.34779147  0.12500000  1
  Li  Li5  1  0.50000000  -0.34779147  0.62500000  1
  Li  Li6  1  1.00000000  0.15220853  0.12500000  1
  Li  Li7  1  1.00000000  0.15220853  0.62500000  1
  In  In8  1  0.50000000  -0.16271472  0.37500000  1
  In  In9  1  0.50000000  -0.16271472  0.87500000  1
  In  In10  1  1.00000000  0.33728528  0.37500000  1
  In  In11  1  1.00000000  0.33728528  0.87500000  1
  In  In12  1  0.50000000  0.16271472  0.12500000  1
  In  In13  1  0.50000000  0.16271472  0.62500000  1
  In  In14  1  1.00000000  0.66271472  0.12500000  1
  In  In15  1  1.00000000  0.66271472  0.62500000  1
  W  W16  1  0.75836884  0.08886446  0.37521204  1
  W  W17  1  0.75836884  0.08886446  0.87521204  1
  W  W18  1  1.25836884  0.58886446  0.37521204  1
  W  W19  1  1.25836884  0.58886446  0.87521204  1
  W  W20  1  0.24163116  0.08886446  0.37478796  1
  W  W21  1  0.24163116  0.08886446  0.87478796  1
  W  W22  1  0.74163116  0.58886446  0.37478796  1
  W  W23  1  0.74163116  0.58886446  0.87478796  1
  W  W24  1  0.24163116  -0.08886446  0.12478796  1
  W  W25  1  0.24163116  -0.08886446  0.62478796  1
  W  W26  1  0.74163116  0.41113554  0.12478796  1
  W  W27  1  0.74163116  0.41113554  0.62478796  1
  W  W28  1  0.75836884  -0.08886446  0.12521204  1
  W  W29  1  0.75836884  -0.08886446  0.62521204  1
  W  W30  1  1.25836884  0.41113554  0.12521204  1
  W  W31  1  1.25836884  0.41113554  0.62521204  1
  O  O32  1  0.64527353  0.05033202  0.03047746  1
  O  O33  1  0.64527353  0.05033202  0.53047746  1
  O  O34  1  1.14527353  0.55033202  0.03047746  1
  O  O35  1  1.14527353  0.55033202  0.53047746  1
  O  O36  1  0.35472647  0.05033202  0.21952254  1
  O  O37  1  0.35472647  0.05033202  0.71952254  1
  O  O38  1  0.85472647  0.55033202  0.21952254  1
  O  O39  1  0.85472647  0.55033202  0.71952254  1
  O  O40  1  0.35472647  -0.05033202  0.46952254  1
  O  O41  1  0.35472647  -0.05033202  0.96952254  1
  O  O42  1  0.85472647  0.44966798  0.46952254  1
  O  O43  1  0.85472647  0.44966798  0.96952254  1
  O  O44  1  0.64527353  -0.05033202  0.28047746  1
  O  O45  1  0.64527353  -0.05033202  0.78047746  1
  O  O46  1  1.14527353  0.44966798  0.28047746  1
  O  O47  1  1.14527353  0.44966798  0.78047746  1
  O  O48  1  0.62866638  0.18444922  0.30424877  1
  O  O49  1  0.62866638  0.18444922  0.80424877  1
  O  O50  1  1.12866638  0.68444922  0.30424877  1
  O  O51  1  1.12866638  0.68444922  0.80424877  1
  O  O52  1  0.37133362  0.18444922  0.44575123  1
  O  O53  1  0.37133362  0.18444922  0.94575123  1
  O  O54  1  0.87133362  0.68444922  0.44575123  1
  O  O55  1  0.87133362  0.68444922  0.94575123  1
  O  O56  1  0.37133362  -0.18444922  0.19575123  1
  O  O57  1  0.37133362  -0.18444922  0.69575123  1
  O  O58  1  0.87133362  0.31555078  0.19575123  1
  O  O59  1  0.87133362  0.31555078  0.69575123  1
  O  O60  1  0.62866638  -0.18444922  0.05424877  1
  O  O61  1  0.62866638  -0.18444922  0.55424877  1
  O  O62  1  1.12866638  0.31555078  0.05424877  1
  O  O63  1  1.12866638  0.31555078  0.55424877  1
  O  O64  1  0.14393262  0.04995124  0.02997329  1
  O  O65  1  0.14393262  0.04995124  0.52997329  1
  O  O66  1  0.64393262  0.54995124  0.02997329  1
  O  O67  1  0.64393262  0.54995124  0.52997329  1
  O  O68  1  0.85606738  0.04995124  0.22002671  1
  O  O69  1  0.85606738  0.04995124  0.72002671  1
  O  O70  1  1.35606738  0.54995124  0.22002671  1
  O  O71  1  1.35606738  0.54995124  0.72002671  1
  O  O72  1  0.85606738  -0.04995124  0.47002671  1
  O  O73  1  0.85606738  -0.04995124  0.97002671  1
  O  O74  1  1.35606738  0.45004876  0.47002671  1
  O  O75  1  1.35606738  0.45004876  0.97002671  1
  O  O76  1  0.14393262  -0.04995124  0.27997329  1
  O  O77  1  0.14393262  -0.04995124  0.77997329  1
  O  O78  1  0.64393262  0.45004876  0.27997329  1
  O  O79  1  0.64393262  0.45004876  0.77997329  1
  O  O80  1  0.61999900  -0.31231760  0.29965530  1
  O  O81  1  0.61999900  -0.31231760  0.79965530  1
  O  O82  1  1.11999900  0.18768240  0.29965530  1
  O  O83  1  1.11999900  0.18768240  0.79965530  1
  O  O84  1  0.38000100  -0.31231760  0.45034470  1
  O  O85  1  0.38000100  -0.31231760  0.95034470  1
  O  O86  1  0.88000100  0.18768240  0.45034470  1
  O  O87  1  0.88000100  0.18768240  0.95034470  1
  O  O88  1  0.38000100  0.31231760  0.20034470  1
  O  O89  1  0.38000100  0.31231760  0.70034470  1
  O  O90  1  0.88000100  0.81231760  0.20034470  1
  O  O91  1  0.88000100  0.81231760  0.70034470  1
  O  O92  1  0.61999900  0.31231760  0.04965530  1
  O  O93  1  0.61999900  0.31231760  0.54965530  1
  O  O94  1  1.11999900  0.81231760  0.04965530  1
  O  O95  1  1.11999900  0.81231760  0.54965530  1
