# generated using pymatgen
data_Sr4Cu2O7
_symmetry_space_group_name_H-M   'P 1'
_cell_length_a   13.34070166
_cell_length_b   10.82551320
_cell_length_c   10.67961160
_cell_angle_alpha   90.00000000
_cell_angle_beta   113.70765439
_cell_angle_gamma   90.00000000
_symmetry_Int_Tables_number   1
_chemical_formula_structural   Sr4Cu2O7
_chemical_formula_sum   'Sr32 Cu16 O56'
_cell_volume   1412.18834892
_cell_formula_units_Z   8
loop_
 _symmetry_equiv_pos_site_id
 _symmetry_equiv_pos_as_xyz
  1  'x, y, z'
loop_
 _atom_site_type_symbol
 _atom_site_label
 _atom_site_symmetry_multiplicity
 _atom_site_fract_x
 _atom_site_fract_y
 _atom_site_fract_z
 _atom_site_occupancy
  Sr  Sr0  1  0.35608757  0.38330864  0.56040348  1
  Sr  Sr1  1  0.35608757  0.88330864  0.56040348  1
  Sr  Sr2  1  0.85608757  0.38330864  0.56040348  1
  Sr  Sr3  1  0.85608757  0.88330864  0.56040348  1
  Sr  Sr4  1  0.14392497  0.36196485  0.20533920  1
  Sr  Sr5  1  0.14392497  0.86196485  0.20533920  1
  Sr  Sr6  1  0.64392497  0.36196485  0.20533920  1
  Sr  Sr7  1  0.64392497  0.86196485  0.20533920  1
  Sr  Sr8  1  0.35608757  0.36669136  0.06040348  1
  Sr  Sr9  1  0.35608757  0.86669136  0.06040348  1
  Sr  Sr10  1  0.85608757  0.36669136  0.06040348  1
  Sr  Sr11  1  0.85608757  0.86669136  0.06040348  1
  Sr  Sr12  1  0.35607503  0.11196485  0.29466080  1
  Sr  Sr13  1  0.35607503  0.61196485  0.29466080  1
  Sr  Sr14  1  0.85607503  0.11196485  0.29466080  1
  Sr  Sr15  1  0.85607503  0.61196485  0.29466080  1
  Sr  Sr16  1  0.14391243  0.11669136  0.43959652  1
  Sr  Sr17  1  0.14391243  0.61669136  0.43959652  1
  Sr  Sr18  1  0.64391243  0.11669136  0.43959652  1
  Sr  Sr19  1  0.64391243  0.61669136  0.43959652  1
  Sr  Sr20  1  0.14392497  0.38803515  0.70533920  1
  Sr  Sr21  1  0.14392497  0.88803515  0.70533920  1
  Sr  Sr22  1  0.64392497  0.38803515  0.70533920  1
  Sr  Sr23  1  0.64392497  0.88803515  0.70533920  1
  Sr  Sr24  1  0.35607503  0.13803515  0.79466080  1
  Sr  Sr25  1  0.35607503  0.63803515  0.79466080  1
  Sr  Sr26  1  0.85607503  0.13803515  0.79466080  1
  Sr  Sr27  1  0.85607503  0.63803515  0.79466080  1
  Sr  Sr28  1  0.14391243  0.13330864  0.93959652  1
  Sr  Sr29  1  0.14391243  0.63330864  0.93959652  1
  Sr  Sr30  1  0.64391243  0.13330864  0.93959652  1
  Sr  Sr31  1  0.64391243  0.63330864  0.93959652  1
  Cu  Cu32  1  0.00026987  0.37236114  0.38318412  1
  Cu  Cu33  1  0.00026987  0.87236114  0.38318412  1
  Cu  Cu34  1  0.50026987  0.37236114  0.38318412  1
  Cu  Cu35  1  0.50026987  0.87236114  0.38318412  1
  Cu  Cu36  1  0.49973013  0.12763886  0.61681588  1
  Cu  Cu37  1  0.49973013  0.62763886  0.61681588  1
  Cu  Cu38  1  0.99973013  0.12763886  0.61681588  1
  Cu  Cu39  1  0.99973013  0.62763886  0.61681588  1
  Cu  Cu40  1  0.00026987  0.37763886  0.88318412  1
  Cu  Cu41  1  0.00026987  0.87763886  0.88318412  1
  Cu  Cu42  1  0.50026987  0.37763886  0.88318412  1
  Cu  Cu43  1  0.50026987  0.87763886  0.88318412  1
  Cu  Cu44  1  0.49973013  0.12236114  0.11681588  1
  Cu  Cu45  1  0.49973013  0.62236114  0.11681588  1
  Cu  Cu46  1  0.99973013  0.12236114  0.11681588  1
  Cu  Cu47  1  0.99973013  0.62236114  0.11681588  1
  O  O48  1  0.34584003  0.36370005  0.31093931  1
  O  O49  1  0.34584003  0.86370005  0.31093931  1
  O  O50  1  0.84584003  0.36370005  0.31093931  1
  O  O51  1  0.84584003  0.86370005  0.31093931  1
  O  O52  1  0.15470689  0.36787051  0.46486519  1
  O  O53  1  0.15470689  0.86787051  0.46486519  1
  O  O54  1  0.65470689  0.36787051  0.46486519  1
  O  O55  1  0.65470689  0.86787051  0.46486519  1
  O  O56  1  0.00025183  0.24678159  0.27559122  1
  O  O57  1  0.00025183  0.74678159  0.27559122  1
  O  O58  1  0.50025183  0.24678159  0.27559122  1
  O  O59  1  0.50025183  0.74678159  0.27559122  1
  O  O60  1  -0.00000000  0.00000000  0.50000000  1
  O  O61  1  -0.00000000  0.50000000  0.50000000  1
  O  O62  1  0.50000000  0.00000000  0.50000000  1
  O  O63  1  0.50000000  0.50000000  0.50000000  1
  O  O64  1  0.00000000  0.25000000  0.00000000  1
  O  O65  1  0.00000000  0.75000000  0.00000000  1
  O  O66  1  0.50000000  0.25000000  0.00000000  1
  O  O67  1  0.50000000  0.75000000  0.00000000  1
  O  O68  1  0.49974817  0.49678159  0.22440878  1
  O  O69  1  0.49974817  0.99678159  0.22440878  1
  O  O70  1  0.99974817  0.49678159  0.22440878  1
  O  O71  1  0.99974817  0.99678159  0.22440878  1
  O  O72  1  0.34529311  0.13212949  0.53513481  1
  O  O73  1  0.34529311  0.63212949  0.53513481  1
  O  O74  1  0.84529311  0.13212949  0.53513481  1
  O  O75  1  0.84529311  0.63212949  0.53513481  1
  O  O76  1  0.49974817  0.25321841  0.72440878  1
  O  O77  1  0.49974817  0.75321841  0.72440878  1
  O  O78  1  0.99974817  0.25321841  0.72440878  1
  O  O79  1  0.99974817  0.75321841  0.72440878  1
  O  O80  1  0.15415997  0.11370005  0.18906069  1
  O  O81  1  0.15415997  0.61370005  0.18906069  1
  O  O82  1  0.65415997  0.11370005  0.18906069  1
  O  O83  1  0.65415997  0.61370005  0.18906069  1
  O  O84  1  0.15470689  0.38212949  0.96486519  1
  O  O85  1  0.15470689  0.88212949  0.96486519  1
  O  O86  1  0.65470689  0.38212949  0.96486519  1
  O  O87  1  0.65470689  0.88212949  0.96486519  1
  O  O88  1  0.34584003  0.38629995  0.81093931  1
  O  O89  1  0.34584003  0.88629995  0.81093931  1
  O  O90  1  0.84584003  0.38629995  0.81093931  1
  O  O91  1  0.84584003  0.88629995  0.81093931  1
  O  O92  1  0.34529311  0.11787051  0.03513481  1
  O  O93  1  0.34529311  0.61787051  0.03513481  1
  O  O94  1  0.84529311  0.11787051  0.03513481  1
  O  O95  1  0.84529311  0.61787051  0.03513481  1
  O  O96  1  0.15415997  0.13629995  0.68906069  1
  O  O97  1  0.15415997  0.63629995  0.68906069  1
  O  O98  1  0.65415997  0.13629995  0.68906069  1
  O  O99  1  0.65415997  0.63629995  0.68906069  1
  O  O100  1  0.00025183  0.00321841  0.77559122  1
  O  O101  1  0.00025183  0.50321841  0.77559122  1
  O  O102  1  0.50025183  0.00321841  0.77559122  1
  O  O103  1  0.50025183  0.50321841  0.77559122  1
