# generated using pymatgen
data_Ca4Sb2O
_symmetry_space_group_name_H-M   'P 1'
_cell_length_a   18.58701322
_cell_length_b   18.58701322
_cell_length_c   16.11059873
_cell_angle_alpha   90.00000000
_cell_angle_beta   90.00000000
_cell_angle_gamma   90.00000000
_symmetry_Int_Tables_number   1
_chemical_formula_structural   Ca4Sb2O
_chemical_formula_sum   'Ca128 Sb64 O32'
_cell_volume   5565.84228863
_cell_formula_units_Z   32
loop_
 _symmetry_equiv_pos_site_id
 _symmetry_equiv_pos_as_xyz
  1  'x, y, z'
loop_
 _atom_site_type_symbol
 _atom_site_label
 _atom_site_symmetry_multiplicity
 _atom_site_fract_x
 _atom_site_fract_y
 _atom_site_fract_z
 _atom_site_occupancy
  Ca  Ca0  1  0.75000000  0.75000000  0.66471140  1
  Ca  Ca1  1  0.75000000  0.50000000  0.66471140  1
  Ca  Ca2  1  0.75000000  0.25000000  0.66471140  1
  Ca  Ca3  1  0.75000000  -0.00000000  0.66471140  1
  Ca  Ca4  1  0.50000000  0.75000000  0.66471140  1
  Ca  Ca5  1  0.50000000  0.50000000  0.66471140  1
  Ca  Ca6  1  0.50000000  0.25000000  0.66471140  1
  Ca  Ca7  1  0.50000000  -0.00000000  0.66471140  1
  Ca  Ca8  1  0.25000000  0.75000000  0.66471140  1
  Ca  Ca9  1  0.25000000  0.50000000  0.66471140  1
  Ca  Ca10  1  0.25000000  0.25000000  0.66471140  1
  Ca  Ca11  1  0.25000000  -0.00000000  0.66471140  1
  Ca  Ca12  1  -0.00000000  0.75000000  0.66471140  1
  Ca  Ca13  1  -0.00000000  0.50000000  0.66471140  1
  Ca  Ca14  1  -0.00000000  0.25000000  0.66471140  1
  Ca  Ca15  1  -0.00000000  -0.00000000  0.66471140  1
  Ca  Ca16  1  0.62500000  0.62500000  1.16471140  1
  Ca  Ca17  1  0.62500000  0.37500000  1.16471140  1
  Ca  Ca18  1  0.62500000  0.12500000  1.16471140  1
  Ca  Ca19  1  0.62500000  -0.12500000  1.16471140  1
  Ca  Ca20  1  0.37500000  0.62500000  1.16471140  1
  Ca  Ca21  1  0.37500000  0.37500000  1.16471140  1
  Ca  Ca22  1  0.37500000  0.12500000  1.16471140  1
  Ca  Ca23  1  0.37500000  -0.12500000  1.16471140  1
  Ca  Ca24  1  0.12500000  0.62500000  1.16471140  1
  Ca  Ca25  1  0.12500000  0.37500000  1.16471140  1
  Ca  Ca26  1  0.12500000  0.12500000  1.16471140  1
  Ca  Ca27  1  0.12500000  -0.12500000  1.16471140  1
  Ca  Ca28  1  -0.12500000  0.62500000  1.16471140  1
  Ca  Ca29  1  -0.12500000  0.37500000  1.16471140  1
  Ca  Ca30  1  -0.12500000  0.12500000  1.16471140  1
  Ca  Ca31  1  -0.12500000  -0.12500000  1.16471140  1
  Ca  Ca32  1  0.75000000  0.75000000  0.33528860  1
  Ca  Ca33  1  0.75000000  0.50000000  0.33528860  1
  Ca  Ca34  1  0.75000000  0.25000000  0.33528860  1
  Ca  Ca35  1  0.75000000  -0.00000000  0.33528860  1
  Ca  Ca36  1  0.50000000  0.75000000  0.33528860  1
  Ca  Ca37  1  0.50000000  0.50000000  0.33528860  1
  Ca  Ca38  1  0.50000000  0.25000000  0.33528860  1
  Ca  Ca39  1  0.50000000  -0.00000000  0.33528860  1
  Ca  Ca40  1  0.25000000  0.75000000  0.33528860  1
  Ca  Ca41  1  0.25000000  0.50000000  0.33528860  1
  Ca  Ca42  1  0.25000000  0.25000000  0.33528860  1
  Ca  Ca43  1  0.25000000  -0.00000000  0.33528860  1
  Ca  Ca44  1  -0.00000000  0.75000000  0.33528860  1
  Ca  Ca45  1  -0.00000000  0.50000000  0.33528860  1
  Ca  Ca46  1  -0.00000000  0.25000000  0.33528860  1
  Ca  Ca47  1  -0.00000000  -0.00000000  0.33528860  1
  Ca  Ca48  1  0.62500000  0.62500000  0.83528860  1
  Ca  Ca49  1  0.62500000  0.37500000  0.83528860  1
  Ca  Ca50  1  0.62500000  0.12500000  0.83528860  1
  Ca  Ca51  1  0.62500000  -0.12500000  0.83528860  1
  Ca  Ca52  1  0.37500000  0.62500000  0.83528860  1
  Ca  Ca53  1  0.37500000  0.37500000  0.83528860  1
  Ca  Ca54  1  0.37500000  0.12500000  0.83528860  1
  Ca  Ca55  1  0.37500000  -0.12500000  0.83528860  1
  Ca  Ca56  1  0.12500000  0.62500000  0.83528860  1
  Ca  Ca57  1  0.12500000  0.37500000  0.83528860  1
  Ca  Ca58  1  0.12500000  0.12500000  0.83528860  1
  Ca  Ca59  1  0.12500000  -0.12500000  0.83528860  1
  Ca  Ca60  1  -0.12500000  0.62500000  0.83528860  1
  Ca  Ca61  1  -0.12500000  0.37500000  0.83528860  1
  Ca  Ca62  1  -0.12500000  0.12500000  0.83528860  1
  Ca  Ca63  1  -0.12500000  -0.12500000  0.83528860  1
  Ca  Ca64  1  0.62500000  0.75000000  0.00000000  1
  Ca  Ca65  1  0.62500000  0.50000000  0.00000000  1
  Ca  Ca66  1  0.62500000  0.25000000  0.00000000  1
  Ca  Ca67  1  0.62500000  0.00000000  0.00000000  1
  Ca  Ca68  1  0.37500000  0.75000000  0.00000000  1
  Ca  Ca69  1  0.37500000  0.50000000  0.00000000  1
  Ca  Ca70  1  0.37500000  0.25000000  0.00000000  1
  Ca  Ca71  1  0.37500000  0.00000000  0.00000000  1
  Ca  Ca72  1  0.12500000  0.75000000  0.00000000  1
  Ca  Ca73  1  0.12500000  0.50000000  0.00000000  1
  Ca  Ca74  1  0.12500000  0.25000000  0.00000000  1
  Ca  Ca75  1  0.12500000  0.00000000  0.00000000  1
  Ca  Ca76  1  -0.12500000  0.75000000  0.00000000  1
  Ca  Ca77  1  -0.12500000  0.50000000  0.00000000  1
  Ca  Ca78  1  -0.12500000  0.25000000  0.00000000  1
  Ca  Ca79  1  -0.12500000  0.00000000  0.00000000  1
  Ca  Ca80  1  0.50000000  0.62500000  0.50000000  1
  Ca  Ca81  1  0.50000000  0.37500000  0.50000000  1
  Ca  Ca82  1  0.50000000  0.12500000  0.50000000  1
  Ca  Ca83  1  0.50000000  -0.12500000  0.50000000  1
  Ca  Ca84  1  0.25000000  0.62500000  0.50000000  1
  Ca  Ca85  1  0.25000000  0.37500000  0.50000000  1
  Ca  Ca86  1  0.25000000  0.12500000  0.50000000  1
  Ca  Ca87  1  0.25000000  -0.12500000  0.50000000  1
  Ca  Ca88  1  0.00000000  0.62500000  0.50000000  1
  Ca  Ca89  1  0.00000000  0.37500000  0.50000000  1
  Ca  Ca90  1  0.00000000  0.12500000  0.50000000  1
  Ca  Ca91  1  0.00000000  -0.12500000  0.50000000  1
  Ca  Ca92  1  -0.25000000  0.62500000  0.50000000  1
  Ca  Ca93  1  -0.25000000  0.37500000  0.50000000  1
  Ca  Ca94  1  -0.25000000  0.12500000  0.50000000  1
  Ca  Ca95  1  -0.25000000  -0.12500000  0.50000000  1
  Ca  Ca96  1  0.75000000  0.62500000  0.00000000  1
  Ca  Ca97  1  0.75000000  0.37500000  0.00000000  1
  Ca  Ca98  1  0.75000000  0.12500000  0.00000000  1
  Ca  Ca99  1  0.75000000  -0.12500000  0.00000000  1
  Ca  Ca100  1  0.50000000  0.62500000  0.00000000  1
  Ca  Ca101  1  0.50000000  0.37500000  0.00000000  1
  Ca  Ca102  1  0.50000000  0.12500000  0.00000000  1
  Ca  Ca103  1  0.50000000  -0.12500000  0.00000000  1
  Ca  Ca104  1  0.25000000  0.62500000  0.00000000  1
  Ca  Ca105  1  0.25000000  0.37500000  0.00000000  1
  Ca  Ca106  1  0.25000000  0.12500000  0.00000000  1
  Ca  Ca107  1  0.25000000  -0.12500000  0.00000000  1
  Ca  Ca108  1  0.00000000  0.62500000  0.00000000  1
  Ca  Ca109  1  0.00000000  0.37500000  0.00000000  1
  Ca  Ca110  1  0.00000000  0.12500000  0.00000000  1
  Ca  Ca111  1  0.00000000  -0.12500000  0.00000000  1
  Ca  Ca112  1  0.62500000  0.50000000  0.50000000  1
  Ca  Ca113  1  0.62500000  0.25000000  0.50000000  1
  Ca  Ca114  1  0.62500000  0.00000000  0.50000000  1
  Ca  Ca115  1  0.62500000  -0.25000000  0.50000000  1
  Ca  Ca116  1  0.37500000  0.50000000  0.50000000  1
  Ca  Ca117  1  0.37500000  0.25000000  0.50000000  1
  Ca  Ca118  1  0.37500000  0.00000000  0.50000000  1
  Ca  Ca119  1  0.37500000  -0.25000000  0.50000000  1
  Ca  Ca120  1  0.12500000  0.50000000  0.50000000  1
  Ca  Ca121  1  0.12500000  0.25000000  0.50000000  1
  Ca  Ca122  1  0.12500000  0.00000000  0.50000000  1
  Ca  Ca123  1  0.12500000  -0.25000000  0.50000000  1
  Ca  Ca124  1  -0.12500000  0.50000000  0.50000000  1
  Ca  Ca125  1  -0.12500000  0.25000000  0.50000000  1
  Ca  Ca126  1  -0.12500000  0.00000000  0.50000000  1
  Ca  Ca127  1  -0.12500000  -0.25000000  0.50000000  1
  Sb  Sb128  1  0.75000000  0.75000000  0.86053167  1
  Sb  Sb129  1  0.75000000  0.50000000  0.86053167  1
  Sb  Sb130  1  0.75000000  0.25000000  0.86053167  1
  Sb  Sb131  1  0.75000000  -0.00000000  0.86053167  1
  Sb  Sb132  1  0.50000000  0.75000000  0.86053167  1
  Sb  Sb133  1  0.50000000  0.50000000  0.86053167  1
  Sb  Sb134  1  0.50000000  0.25000000  0.86053167  1
  Sb  Sb135  1  0.50000000  -0.00000000  0.86053167  1
  Sb  Sb136  1  0.25000000  0.75000000  0.86053167  1
  Sb  Sb137  1  0.25000000  0.50000000  0.86053167  1
  Sb  Sb138  1  0.25000000  0.25000000  0.86053167  1
  Sb  Sb139  1  0.25000000  -0.00000000  0.86053167  1
  Sb  Sb140  1  -0.00000000  0.75000000  0.86053167  1
  Sb  Sb141  1  -0.00000000  0.50000000  0.86053167  1
  Sb  Sb142  1  -0.00000000  0.25000000  0.86053167  1
  Sb  Sb143  1  -0.00000000  -0.00000000  0.86053167  1
  Sb  Sb144  1  0.62500000  0.62500000  1.36053167  1
  Sb  Sb145  1  0.62500000  0.37500000  1.36053167  1
  Sb  Sb146  1  0.62500000  0.12500000  1.36053167  1
  Sb  Sb147  1  0.62500000  -0.12500000  1.36053167  1
  Sb  Sb148  1  0.37500000  0.62500000  1.36053167  1
  Sb  Sb149  1  0.37500000  0.37500000  1.36053167  1
  Sb  Sb150  1  0.37500000  0.12500000  1.36053167  1
  Sb  Sb151  1  0.37500000  -0.12500000  1.36053167  1
  Sb  Sb152  1  0.12500000  0.62500000  1.36053167  1
  Sb  Sb153  1  0.12500000  0.37500000  1.36053167  1
  Sb  Sb154  1  0.12500000  0.12500000  1.36053167  1
  Sb  Sb155  1  0.12500000  -0.12500000  1.36053167  1
  Sb  Sb156  1  -0.12500000  0.62500000  1.36053167  1
  Sb  Sb157  1  -0.12500000  0.37500000  1.36053167  1
  Sb  Sb158  1  -0.12500000  0.12500000  1.36053167  1
  Sb  Sb159  1  -0.12500000  -0.12500000  1.36053167  1
  Sb  Sb160  1  0.75000000  0.75000000  0.13946833  1
  Sb  Sb161  1  0.75000000  0.50000000  0.13946833  1
  Sb  Sb162  1  0.75000000  0.25000000  0.13946833  1
  Sb  Sb163  1  0.75000000  -0.00000000  0.13946833  1
  Sb  Sb164  1  0.50000000  0.75000000  0.13946833  1
  Sb  Sb165  1  0.50000000  0.50000000  0.13946833  1
  Sb  Sb166  1  0.50000000  0.25000000  0.13946833  1
  Sb  Sb167  1  0.50000000  -0.00000000  0.13946833  1
  Sb  Sb168  1  0.25000000  0.75000000  0.13946833  1
  Sb  Sb169  1  0.25000000  0.50000000  0.13946833  1
  Sb  Sb170  1  0.25000000  0.25000000  0.13946833  1
  Sb  Sb171  1  0.25000000  -0.00000000  0.13946833  1
  Sb  Sb172  1  -0.00000000  0.75000000  0.13946833  1
  Sb  Sb173  1  -0.00000000  0.50000000  0.13946833  1
  Sb  Sb174  1  -0.00000000  0.25000000  0.13946833  1
  Sb  Sb175  1  -0.00000000  -0.00000000  0.13946833  1
  Sb  Sb176  1  0.62500000  0.62500000  0.63946833  1
  Sb  Sb177  1  0.62500000  0.37500000  0.63946833  1
  Sb  Sb178  1  0.62500000  0.12500000  0.63946833  1
  Sb  Sb179  1  0.62500000  -0.12500000  0.63946833  1
  Sb  Sb180  1  0.37500000  0.62500000  0.63946833  1
  Sb  Sb181  1  0.37500000  0.37500000  0.63946833  1
  Sb  Sb182  1  0.37500000  0.12500000  0.63946833  1
  Sb  Sb183  1  0.37500000  -0.12500000  0.63946833  1
  Sb  Sb184  1  0.12500000  0.62500000  0.63946833  1
  Sb  Sb185  1  0.12500000  0.37500000  0.63946833  1
  Sb  Sb186  1  0.12500000  0.12500000  0.63946833  1
  Sb  Sb187  1  0.12500000  -0.12500000  0.63946833  1
  Sb  Sb188  1  -0.12500000  0.62500000  0.63946833  1
  Sb  Sb189  1  -0.12500000  0.37500000  0.63946833  1
  Sb  Sb190  1  -0.12500000  0.12500000  0.63946833  1
  Sb  Sb191  1  -0.12500000  -0.12500000  0.63946833  1
  O  O192  1  0.75000000  0.75000000  0.50000000  1
  O  O193  1  0.75000000  0.50000000  0.50000000  1
  O  O194  1  0.75000000  0.25000000  0.50000000  1
  O  O195  1  0.75000000  -0.00000000  0.50000000  1
  O  O196  1  0.50000000  0.75000000  0.50000000  1
  O  O197  1  0.50000000  0.50000000  0.50000000  1
  O  O198  1  0.50000000  0.25000000  0.50000000  1
  O  O199  1  0.50000000  -0.00000000  0.50000000  1
  O  O200  1  0.25000000  0.75000000  0.50000000  1
  O  O201  1  0.25000000  0.50000000  0.50000000  1
  O  O202  1  0.25000000  0.25000000  0.50000000  1
  O  O203  1  0.25000000  -0.00000000  0.50000000  1
  O  O204  1  -0.00000000  0.75000000  0.50000000  1
  O  O205  1  -0.00000000  0.50000000  0.50000000  1
  O  O206  1  -0.00000000  0.25000000  0.50000000  1
  O  O207  1  -0.00000000  -0.00000000  0.50000000  1
  O  O208  1  0.62500000  0.62500000  1.00000000  1
  O  O209  1  0.62500000  0.37500000  1.00000000  1
  O  O210  1  0.62500000  0.12500000  1.00000000  1
  O  O211  1  0.62500000  -0.12500000  1.00000000  1
  O  O212  1  0.37500000  0.62500000  1.00000000  1
  O  O213  1  0.37500000  0.37500000  1.00000000  1
  O  O214  1  0.37500000  0.12500000  1.00000000  1
  O  O215  1  0.37500000  -0.12500000  1.00000000  1
  O  O216  1  0.12500000  0.62500000  1.00000000  1
  O  O217  1  0.12500000  0.37500000  1.00000000  1
  O  O218  1  0.12500000  0.12500000  1.00000000  1
  O  O219  1  0.12500000  -0.12500000  1.00000000  1
  O  O220  1  -0.12500000  0.62500000  1.00000000  1
  O  O221  1  -0.12500000  0.37500000  1.00000000  1
  O  O222  1  -0.12500000  0.12500000  1.00000000  1
  O  O223  1  -0.12500000  -0.12500000  1.00000000  1
