# generated using pymatgen
data_KInO2
_symmetry_space_group_name_H-M   'P 1'
_cell_length_a   20.01402925
_cell_length_b   20.01402925
_cell_length_c   18.40582028
_cell_angle_alpha   90.00000000
_cell_angle_beta   90.00000000
_cell_angle_gamma   120.00000000
_symmetry_Int_Tables_number   1
_chemical_formula_structural   KInO2
_chemical_formula_sum   'K108 In108 O216'
_cell_volume   6384.91130881
_cell_formula_units_Z   108
loop_
 _symmetry_equiv_pos_site_id
 _symmetry_equiv_pos_as_xyz
  1  'x, y, z'
loop_
 _atom_site_type_symbol
 _atom_site_label
 _atom_site_symmetry_multiplicity
 _atom_site_fract_x
 _atom_site_fract_y
 _atom_site_fract_z
 _atom_site_occupancy
  K  K0  1  -0.00000000  -0.00000000  0.50000000  1
  K  K1  1  -0.00000000  0.16666667  0.50000000  1
  K  K2  1  -0.00000000  0.33333333  0.50000000  1
  K  K3  1  -0.00000000  0.50000000  0.50000000  1
  K  K4  1  -0.00000000  0.66666667  0.50000000  1
  K  K5  1  -0.00000000  0.83333333  0.50000000  1
  K  K6  1  0.16666667  -0.00000000  0.50000000  1
  K  K7  1  0.16666667  0.16666667  0.50000000  1
  K  K8  1  0.16666667  0.33333333  0.50000000  1
  K  K9  1  0.16666667  0.50000000  0.50000000  1
  K  K10  1  0.16666667  0.66666667  0.50000000  1
  K  K11  1  0.16666667  0.83333333  0.50000000  1
  K  K12  1  0.33333333  -0.00000000  0.50000000  1
  K  K13  1  0.33333333  0.16666667  0.50000000  1
  K  K14  1  0.33333333  0.33333333  0.50000000  1
  K  K15  1  0.33333333  0.50000000  0.50000000  1
  K  K16  1  0.33333333  0.66666667  0.50000000  1
  K  K17  1  0.33333333  0.83333333  0.50000000  1
  K  K18  1  0.50000000  -0.00000000  0.50000000  1
  K  K19  1  0.50000000  0.16666667  0.50000000  1
  K  K20  1  0.50000000  0.33333333  0.50000000  1
  K  K21  1  0.50000000  0.50000000  0.50000000  1
  K  K22  1  0.50000000  0.66666667  0.50000000  1
  K  K23  1  0.50000000  0.83333333  0.50000000  1
  K  K24  1  0.66666667  -0.00000000  0.50000000  1
  K  K25  1  0.66666667  0.16666667  0.50000000  1
  K  K26  1  0.66666667  0.33333333  0.50000000  1
  K  K27  1  0.66666667  0.50000000  0.50000000  1
  K  K28  1  0.66666667  0.66666667  0.50000000  1
  K  K29  1  0.66666667  0.83333333  0.50000000  1
  K  K30  1  0.83333333  -0.00000000  0.50000000  1
  K  K31  1  0.83333333  0.16666667  0.50000000  1
  K  K32  1  0.83333333  0.33333333  0.50000000  1
  K  K33  1  0.83333333  0.50000000  0.50000000  1
  K  K34  1  0.83333333  0.66666667  0.50000000  1
  K  K35  1  0.83333333  0.83333333  0.50000000  1
  K  K36  1  0.11111111  0.05555556  0.83333333  1
  K  K37  1  0.11111111  0.22222222  0.83333333  1
  K  K38  1  0.11111111  0.38888889  0.83333333  1
  K  K39  1  0.11111111  0.55555556  0.83333333  1
  K  K40  1  0.11111111  0.72222222  0.83333333  1
  K  K41  1  0.11111111  0.88888889  0.83333333  1
  K  K42  1  0.27777778  0.05555556  0.83333333  1
  K  K43  1  0.27777778  0.22222222  0.83333333  1
  K  K44  1  0.27777778  0.38888889  0.83333333  1
  K  K45  1  0.27777778  0.55555556  0.83333333  1
  K  K46  1  0.27777778  0.72222222  0.83333333  1
  K  K47  1  0.27777778  0.88888889  0.83333333  1
  K  K48  1  0.44444444  0.05555556  0.83333333  1
  K  K49  1  0.44444444  0.22222222  0.83333333  1
  K  K50  1  0.44444444  0.38888889  0.83333333  1
  K  K51  1  0.44444444  0.55555556  0.83333333  1
  K  K52  1  0.44444444  0.72222222  0.83333333  1
  K  K53  1  0.44444444  0.88888889  0.83333333  1
  K  K54  1  0.61111111  0.05555556  0.83333333  1
  K  K55  1  0.61111111  0.22222222  0.83333333  1
  K  K56  1  0.61111111  0.38888889  0.83333333  1
  K  K57  1  0.61111111  0.55555556  0.83333333  1
  K  K58  1  0.61111111  0.72222222  0.83333333  1
  K  K59  1  0.61111111  0.88888889  0.83333333  1
  K  K60  1  0.77777778  0.05555556  0.83333333  1
  K  K61  1  0.77777778  0.22222222  0.83333333  1
  K  K62  1  0.77777778  0.38888889  0.83333333  1
  K  K63  1  0.77777778  0.55555556  0.83333333  1
  K  K64  1  0.77777778  0.72222222  0.83333333  1
  K  K65  1  0.77777778  0.88888889  0.83333333  1
  K  K66  1  0.94444444  0.05555556  0.83333333  1
  K  K67  1  0.94444444  0.22222222  0.83333333  1
  K  K68  1  0.94444444  0.38888889  0.83333333  1
  K  K69  1  0.94444444  0.55555556  0.83333333  1
  K  K70  1  0.94444444  0.72222222  0.83333333  1
  K  K71  1  0.94444444  0.88888889  0.83333333  1
  K  K72  1  0.05555556  0.11111111  1.16666667  1
  K  K73  1  0.05555556  0.27777778  1.16666667  1
  K  K74  1  0.05555556  0.44444444  1.16666667  1
  K  K75  1  0.05555556  0.61111111  1.16666667  1
  K  K76  1  0.05555556  0.77777778  1.16666667  1
  K  K77  1  0.05555556  0.94444444  1.16666667  1
  K  K78  1  0.22222222  0.11111111  1.16666667  1
  K  K79  1  0.22222222  0.27777778  1.16666667  1
  K  K80  1  0.22222222  0.44444444  1.16666667  1
  K  K81  1  0.22222222  0.61111111  1.16666667  1
  K  K82  1  0.22222222  0.77777778  1.16666667  1
  K  K83  1  0.22222222  0.94444444  1.16666667  1
  K  K84  1  0.38888889  0.11111111  1.16666667  1
  K  K85  1  0.38888889  0.27777778  1.16666667  1
  K  K86  1  0.38888889  0.44444444  1.16666667  1
  K  K87  1  0.38888889  0.61111111  1.16666667  1
  K  K88  1  0.38888889  0.77777778  1.16666667  1
  K  K89  1  0.38888889  0.94444444  1.16666667  1
  K  K90  1  0.55555556  0.11111111  1.16666667  1
  K  K91  1  0.55555556  0.27777778  1.16666667  1
  K  K92  1  0.55555556  0.44444444  1.16666667  1
  K  K93  1  0.55555556  0.61111111  1.16666667  1
  K  K94  1  0.55555556  0.77777778  1.16666667  1
  K  K95  1  0.55555556  0.94444444  1.16666667  1
  K  K96  1  0.72222222  0.11111111  1.16666667  1
  K  K97  1  0.72222222  0.27777778  1.16666667  1
  K  K98  1  0.72222222  0.44444444  1.16666667  1
  K  K99  1  0.72222222  0.61111111  1.16666667  1
  K  K100  1  0.72222222  0.77777778  1.16666667  1
  K  K101  1  0.72222222  0.94444444  1.16666667  1
  K  K102  1  0.88888889  0.11111111  1.16666667  1
  K  K103  1  0.88888889  0.27777778  1.16666667  1
  K  K104  1  0.88888889  0.44444444  1.16666667  1
  K  K105  1  0.88888889  0.61111111  1.16666667  1
  K  K106  1  0.88888889  0.77777778  1.16666667  1
  K  K107  1  0.88888889  0.94444444  1.16666667  1
  In  In108  1  -0.00000000  -0.00000000  -0.00000000  1
  In  In109  1  -0.00000000  0.16666667  -0.00000000  1
  In  In110  1  -0.00000000  0.33333333  -0.00000000  1
  In  In111  1  -0.00000000  0.50000000  -0.00000000  1
  In  In112  1  -0.00000000  0.66666667  -0.00000000  1
  In  In113  1  -0.00000000  0.83333333  -0.00000000  1
  In  In114  1  0.16666667  -0.00000000  -0.00000000  1
  In  In115  1  0.16666667  0.16666667  -0.00000000  1
  In  In116  1  0.16666667  0.33333333  -0.00000000  1
  In  In117  1  0.16666667  0.50000000  -0.00000000  1
  In  In118  1  0.16666667  0.66666667  -0.00000000  1
  In  In119  1  0.16666667  0.83333333  -0.00000000  1
  In  In120  1  0.33333333  -0.00000000  -0.00000000  1
  In  In121  1  0.33333333  0.16666667  -0.00000000  1
  In  In122  1  0.33333333  0.33333333  -0.00000000  1
  In  In123  1  0.33333333  0.50000000  -0.00000000  1
  In  In124  1  0.33333333  0.66666667  -0.00000000  1
  In  In125  1  0.33333333  0.83333333  -0.00000000  1
  In  In126  1  0.50000000  -0.00000000  -0.00000000  1
  In  In127  1  0.50000000  0.16666667  -0.00000000  1
  In  In128  1  0.50000000  0.33333333  -0.00000000  1
  In  In129  1  0.50000000  0.50000000  -0.00000000  1
  In  In130  1  0.50000000  0.66666667  -0.00000000  1
  In  In131  1  0.50000000  0.83333333  -0.00000000  1
  In  In132  1  0.66666667  -0.00000000  -0.00000000  1
  In  In133  1  0.66666667  0.16666667  -0.00000000  1
  In  In134  1  0.66666667  0.33333333  -0.00000000  1
  In  In135  1  0.66666667  0.50000000  -0.00000000  1
  In  In136  1  0.66666667  0.66666667  -0.00000000  1
  In  In137  1  0.66666667  0.83333333  -0.00000000  1
  In  In138  1  0.83333333  -0.00000000  -0.00000000  1
  In  In139  1  0.83333333  0.16666667  -0.00000000  1
  In  In140  1  0.83333333  0.33333333  -0.00000000  1
  In  In141  1  0.83333333  0.50000000  -0.00000000  1
  In  In142  1  0.83333333  0.66666667  -0.00000000  1
  In  In143  1  0.83333333  0.83333333  -0.00000000  1
  In  In144  1  0.11111111  0.05555556  0.33333333  1
  In  In145  1  0.11111111  0.22222222  0.33333333  1
  In  In146  1  0.11111111  0.38888889  0.33333333  1
  In  In147  1  0.11111111  0.55555556  0.33333333  1
  In  In148  1  0.11111111  0.72222222  0.33333333  1
  In  In149  1  0.11111111  0.88888889  0.33333333  1
  In  In150  1  0.27777778  0.05555556  0.33333333  1
  In  In151  1  0.27777778  0.22222222  0.33333333  1
  In  In152  1  0.27777778  0.38888889  0.33333333  1
  In  In153  1  0.27777778  0.55555556  0.33333333  1
  In  In154  1  0.27777778  0.72222222  0.33333333  1
  In  In155  1  0.27777778  0.88888889  0.33333333  1
  In  In156  1  0.44444444  0.05555556  0.33333333  1
  In  In157  1  0.44444444  0.22222222  0.33333333  1
  In  In158  1  0.44444444  0.38888889  0.33333333  1
  In  In159  1  0.44444444  0.55555556  0.33333333  1
  In  In160  1  0.44444444  0.72222222  0.33333333  1
  In  In161  1  0.44444444  0.88888889  0.33333333  1
  In  In162  1  0.61111111  0.05555556  0.33333333  1
  In  In163  1  0.61111111  0.22222222  0.33333333  1
  In  In164  1  0.61111111  0.38888889  0.33333333  1
  In  In165  1  0.61111111  0.55555556  0.33333333  1
  In  In166  1  0.61111111  0.72222222  0.33333333  1
  In  In167  1  0.61111111  0.88888889  0.33333333  1
  In  In168  1  0.77777778  0.05555556  0.33333333  1
  In  In169  1  0.77777778  0.22222222  0.33333333  1
  In  In170  1  0.77777778  0.38888889  0.33333333  1
  In  In171  1  0.77777778  0.55555556  0.33333333  1
  In  In172  1  0.77777778  0.72222222  0.33333333  1
  In  In173  1  0.77777778  0.88888889  0.33333333  1
  In  In174  1  0.94444444  0.05555556  0.33333333  1
  In  In175  1  0.94444444  0.22222222  0.33333333  1
  In  In176  1  0.94444444  0.38888889  0.33333333  1
  In  In177  1  0.94444444  0.55555556  0.33333333  1
  In  In178  1  0.94444444  0.72222222  0.33333333  1
  In  In179  1  0.94444444  0.88888889  0.33333333  1
  In  In180  1  0.05555556  0.11111111  0.66666667  1
  In  In181  1  0.05555556  0.27777778  0.66666667  1
  In  In182  1  0.05555556  0.44444444  0.66666667  1
  In  In183  1  0.05555556  0.61111111  0.66666667  1
  In  In184  1  0.05555556  0.77777778  0.66666667  1
  In  In185  1  0.05555556  0.94444444  0.66666667  1
  In  In186  1  0.22222222  0.11111111  0.66666667  1
  In  In187  1  0.22222222  0.27777778  0.66666667  1
  In  In188  1  0.22222222  0.44444444  0.66666667  1
  In  In189  1  0.22222222  0.61111111  0.66666667  1
  In  In190  1  0.22222222  0.77777778  0.66666667  1
  In  In191  1  0.22222222  0.94444444  0.66666667  1
  In  In192  1  0.38888889  0.11111111  0.66666667  1
  In  In193  1  0.38888889  0.27777778  0.66666667  1
  In  In194  1  0.38888889  0.44444444  0.66666667  1
  In  In195  1  0.38888889  0.61111111  0.66666667  1
  In  In196  1  0.38888889  0.77777778  0.66666667  1
  In  In197  1  0.38888889  0.94444444  0.66666667  1
  In  In198  1  0.55555556  0.11111111  0.66666667  1
  In  In199  1  0.55555556  0.27777778  0.66666667  1
  In  In200  1  0.55555556  0.44444444  0.66666667  1
  In  In201  1  0.55555556  0.61111111  0.66666667  1
  In  In202  1  0.55555556  0.77777778  0.66666667  1
  In  In203  1  0.55555556  0.94444444  0.66666667  1
  In  In204  1  0.72222222  0.11111111  0.66666667  1
  In  In205  1  0.72222222  0.27777778  0.66666667  1
  In  In206  1  0.72222222  0.44444444  0.66666667  1
  In  In207  1  0.72222222  0.61111111  0.66666667  1
  In  In208  1  0.72222222  0.77777778  0.66666667  1
  In  In209  1  0.72222222  0.94444444  0.66666667  1
  In  In210  1  0.88888889  0.11111111  0.66666667  1
  In  In211  1  0.88888889  0.27777778  0.66666667  1
  In  In212  1  0.88888889  0.44444444  0.66666667  1
  In  In213  1  0.88888889  0.61111111  0.66666667  1
  In  In214  1  0.88888889  0.77777778  0.66666667  1
  In  In215  1  0.88888889  0.94444444  0.66666667  1
  O  O216  1  0.00000000  0.00000000  0.72920207  1
  O  O217  1  -0.00000000  0.16666667  0.72920207  1
  O  O218  1  -0.00000000  0.33333333  0.72920207  1
  O  O219  1  -0.00000000  0.50000000  0.72920207  1
  O  O220  1  -0.00000000  0.66666667  0.72920207  1
  O  O221  1  -0.00000000  0.83333333  0.72920207  1
  O  O222  1  0.16666667  0.00000000  0.72920207  1
  O  O223  1  0.16666667  0.16666667  0.72920207  1
  O  O224  1  0.16666667  0.33333333  0.72920207  1
  O  O225  1  0.16666667  0.50000000  0.72920207  1
  O  O226  1  0.16666667  0.66666667  0.72920207  1
  O  O227  1  0.16666667  0.83333333  0.72920207  1
  O  O228  1  0.33333333  0.00000000  0.72920207  1
  O  O229  1  0.33333333  0.16666667  0.72920207  1
  O  O230  1  0.33333333  0.33333333  0.72920207  1
  O  O231  1  0.33333333  0.50000000  0.72920207  1
  O  O232  1  0.33333333  0.66666667  0.72920207  1
  O  O233  1  0.33333333  0.83333333  0.72920207  1
  O  O234  1  0.50000000  0.00000000  0.72920207  1
  O  O235  1  0.50000000  0.16666667  0.72920207  1
  O  O236  1  0.50000000  0.33333333  0.72920207  1
  O  O237  1  0.50000000  0.50000000  0.72920207  1
  O  O238  1  0.50000000  0.66666667  0.72920207  1
  O  O239  1  0.50000000  0.83333333  0.72920207  1
  O  O240  1  0.66666667  0.00000000  0.72920207  1
  O  O241  1  0.66666667  0.16666667  0.72920207  1
  O  O242  1  0.66666667  0.33333333  0.72920207  1
  O  O243  1  0.66666667  0.50000000  0.72920207  1
  O  O244  1  0.66666667  0.66666667  0.72920207  1
  O  O245  1  0.66666667  0.83333333  0.72920207  1
  O  O246  1  0.83333333  0.00000000  0.72920207  1
  O  O247  1  0.83333333  0.16666667  0.72920207  1
  O  O248  1  0.83333333  0.33333333  0.72920207  1
  O  O249  1  0.83333333  0.50000000  0.72920207  1
  O  O250  1  0.83333333  0.66666667  0.72920207  1
  O  O251  1  0.83333333  0.83333333  0.72920207  1
  O  O252  1  0.11111111  0.05555556  1.06253540  1
  O  O253  1  0.11111111  0.22222222  1.06253540  1
  O  O254  1  0.11111111  0.38888889  1.06253540  1
  O  O255  1  0.11111111  0.55555556  1.06253540  1
  O  O256  1  0.11111111  0.72222222  1.06253540  1
  O  O257  1  0.11111111  0.88888889  1.06253540  1
  O  O258  1  0.27777778  0.05555556  1.06253540  1
  O  O259  1  0.27777778  0.22222222  1.06253540  1
  O  O260  1  0.27777778  0.38888889  1.06253540  1
  O  O261  1  0.27777778  0.55555556  1.06253540  1
  O  O262  1  0.27777778  0.72222222  1.06253540  1
  O  O263  1  0.27777778  0.88888889  1.06253540  1
  O  O264  1  0.44444444  0.05555556  1.06253540  1
  O  O265  1  0.44444444  0.22222222  1.06253540  1
  O  O266  1  0.44444444  0.38888889  1.06253540  1
  O  O267  1  0.44444444  0.55555556  1.06253540  1
  O  O268  1  0.44444444  0.72222222  1.06253540  1
  O  O269  1  0.44444444  0.88888889  1.06253540  1
  O  O270  1  0.61111111  0.05555556  1.06253540  1
  O  O271  1  0.61111111  0.22222222  1.06253540  1
  O  O272  1  0.61111111  0.38888889  1.06253540  1
  O  O273  1  0.61111111  0.55555556  1.06253540  1
  O  O274  1  0.61111111  0.72222222  1.06253540  1
  O  O275  1  0.61111111  0.88888889  1.06253540  1
  O  O276  1  0.77777778  0.05555556  1.06253540  1
  O  O277  1  0.77777778  0.22222222  1.06253540  1
  O  O278  1  0.77777778  0.38888889  1.06253540  1
  O  O279  1  0.77777778  0.55555556  1.06253540  1
  O  O280  1  0.77777778  0.72222222  1.06253540  1
  O  O281  1  0.77777778  0.88888889  1.06253540  1
  O  O282  1  0.94444444  0.05555556  1.06253540  1
  O  O283  1  0.94444444  0.22222222  1.06253540  1
  O  O284  1  0.94444444  0.38888889  1.06253540  1
  O  O285  1  0.94444444  0.55555556  1.06253540  1
  O  O286  1  0.94444444  0.72222222  1.06253540  1
  O  O287  1  0.94444444  0.88888889  1.06253540  1
  O  O288  1  0.05555556  0.11111111  1.39586874  1
  O  O289  1  0.05555556  0.27777778  1.39586874  1
  O  O290  1  0.05555556  0.44444444  1.39586874  1
  O  O291  1  0.05555556  0.61111111  1.39586874  1
  O  O292  1  0.05555556  0.77777778  1.39586874  1
  O  O293  1  0.05555556  0.94444444  1.39586874  1
  O  O294  1  0.22222222  0.11111111  1.39586874  1
  O  O295  1  0.22222222  0.27777778  1.39586874  1
  O  O296  1  0.22222222  0.44444444  1.39586874  1
  O  O297  1  0.22222222  0.61111111  1.39586874  1
  O  O298  1  0.22222222  0.77777778  1.39586874  1
  O  O299  1  0.22222222  0.94444444  1.39586874  1
  O  O300  1  0.38888889  0.11111111  1.39586874  1
  O  O301  1  0.38888889  0.27777778  1.39586874  1
  O  O302  1  0.38888889  0.44444444  1.39586874  1
  O  O303  1  0.38888889  0.61111111  1.39586874  1
  O  O304  1  0.38888889  0.77777778  1.39586874  1
  O  O305  1  0.38888889  0.94444444  1.39586874  1
  O  O306  1  0.55555556  0.11111111  1.39586874  1
  O  O307  1  0.55555556  0.27777778  1.39586874  1
  O  O308  1  0.55555556  0.44444444  1.39586874  1
  O  O309  1  0.55555556  0.61111111  1.39586874  1
  O  O310  1  0.55555556  0.77777778  1.39586874  1
  O  O311  1  0.55555556  0.94444444  1.39586874  1
  O  O312  1  0.72222222  0.11111111  1.39586874  1
  O  O313  1  0.72222222  0.27777778  1.39586874  1
  O  O314  1  0.72222222  0.44444444  1.39586874  1
  O  O315  1  0.72222222  0.61111111  1.39586874  1
  O  O316  1  0.72222222  0.77777778  1.39586874  1
  O  O317  1  0.72222222  0.94444444  1.39586874  1
  O  O318  1  0.88888889  0.11111111  1.39586874  1
  O  O319  1  0.88888889  0.27777778  1.39586874  1
  O  O320  1  0.88888889  0.44444444  1.39586874  1
  O  O321  1  0.88888889  0.61111111  1.39586874  1
  O  O322  1  0.88888889  0.77777778  1.39586874  1
  O  O323  1  0.88888889  0.94444444  1.39586874  1
  O  O324  1  -0.00000000  -0.00000000  0.27079793  1
  O  O325  1  -0.00000000  0.16666667  0.27079793  1
  O  O326  1  -0.00000000  0.33333333  0.27079793  1
  O  O327  1  -0.00000000  0.50000000  0.27079793  1
  O  O328  1  -0.00000000  0.66666667  0.27079793  1
  O  O329  1  -0.00000000  0.83333333  0.27079793  1
  O  O330  1  0.16666667  -0.00000000  0.27079793  1
  O  O331  1  0.16666667  0.16666667  0.27079793  1
  O  O332  1  0.16666667  0.33333333  0.27079793  1
  O  O333  1  0.16666667  0.50000000  0.27079793  1
  O  O334  1  0.16666667  0.66666667  0.27079793  1
  O  O335  1  0.16666667  0.83333333  0.27079793  1
  O  O336  1  0.33333333  -0.00000000  0.27079793  1
  O  O337  1  0.33333333  0.16666667  0.27079793  1
  O  O338  1  0.33333333  0.33333333  0.27079793  1
  O  O339  1  0.33333333  0.50000000  0.27079793  1
  O  O340  1  0.33333333  0.66666667  0.27079793  1
  O  O341  1  0.33333333  0.83333333  0.27079793  1
  O  O342  1  0.50000000  -0.00000000  0.27079793  1
  O  O343  1  0.50000000  0.16666667  0.27079793  1
  O  O344  1  0.50000000  0.33333333  0.27079793  1
  O  O345  1  0.50000000  0.50000000  0.27079793  1
  O  O346  1  0.50000000  0.66666667  0.27079793  1
  O  O347  1  0.50000000  0.83333333  0.27079793  1
  O  O348  1  0.66666667  -0.00000000  0.27079793  1
  O  O349  1  0.66666667  0.16666667  0.27079793  1
  O  O350  1  0.66666667  0.33333333  0.27079793  1
  O  O351  1  0.66666667  0.50000000  0.27079793  1
  O  O352  1  0.66666667  0.66666667  0.27079793  1
  O  O353  1  0.66666667  0.83333333  0.27079793  1
  O  O354  1  0.83333333  -0.00000000  0.27079793  1
  O  O355  1  0.83333333  0.16666667  0.27079793  1
  O  O356  1  0.83333333  0.33333333  0.27079793  1
  O  O357  1  0.83333333  0.50000000  0.27079793  1
  O  O358  1  0.83333333  0.66666667  0.27079793  1
  O  O359  1  0.83333333  0.83333333  0.27079793  1
  O  O360  1  0.11111111  0.05555556  0.60413126  1
  O  O361  1  0.11111111  0.22222222  0.60413126  1
  O  O362  1  0.11111111  0.38888889  0.60413126  1
  O  O363  1  0.11111111  0.55555556  0.60413126  1
  O  O364  1  0.11111111  0.72222222  0.60413126  1
  O  O365  1  0.11111111  0.88888889  0.60413126  1
  O  O366  1  0.27777778  0.05555556  0.60413126  1
  O  O367  1  0.27777778  0.22222222  0.60413126  1
  O  O368  1  0.27777778  0.38888889  0.60413126  1
  O  O369  1  0.27777778  0.55555556  0.60413126  1
  O  O370  1  0.27777778  0.72222222  0.60413126  1
  O  O371  1  0.27777778  0.88888889  0.60413126  1
  O  O372  1  0.44444444  0.05555556  0.60413126  1
  O  O373  1  0.44444444  0.22222222  0.60413126  1
  O  O374  1  0.44444444  0.38888889  0.60413126  1
  O  O375  1  0.44444444  0.55555556  0.60413126  1
  O  O376  1  0.44444444  0.72222222  0.60413126  1
  O  O377  1  0.44444444  0.88888889  0.60413126  1
  O  O378  1  0.61111111  0.05555556  0.60413126  1
  O  O379  1  0.61111111  0.22222222  0.60413126  1
  O  O380  1  0.61111111  0.38888889  0.60413126  1
  O  O381  1  0.61111111  0.55555556  0.60413126  1
  O  O382  1  0.61111111  0.72222222  0.60413126  1
  O  O383  1  0.61111111  0.88888889  0.60413126  1
  O  O384  1  0.77777778  0.05555556  0.60413126  1
  O  O385  1  0.77777778  0.22222222  0.60413126  1
  O  O386  1  0.77777778  0.38888889  0.60413126  1
  O  O387  1  0.77777778  0.55555556  0.60413126  1
  O  O388  1  0.77777778  0.72222222  0.60413126  1
  O  O389  1  0.77777778  0.88888889  0.60413126  1
  O  O390  1  0.94444444  0.05555556  0.60413126  1
  O  O391  1  0.94444444  0.22222222  0.60413126  1
  O  O392  1  0.94444444  0.38888889  0.60413126  1
  O  O393  1  0.94444444  0.55555556  0.60413126  1
  O  O394  1  0.94444444  0.72222222  0.60413126  1
  O  O395  1  0.94444444  0.88888889  0.60413126  1
  O  O396  1  0.05555556  0.11111111  0.93746460  1
  O  O397  1  0.05555556  0.27777778  0.93746460  1
  O  O398  1  0.05555556  0.44444444  0.93746460  1
  O  O399  1  0.05555556  0.61111111  0.93746460  1
  O  O400  1  0.05555556  0.77777778  0.93746460  1
  O  O401  1  0.05555556  0.94444444  0.93746460  1
  O  O402  1  0.22222222  0.11111111  0.93746460  1
  O  O403  1  0.22222222  0.27777778  0.93746460  1
  O  O404  1  0.22222222  0.44444444  0.93746460  1
  O  O405  1  0.22222222  0.61111111  0.93746460  1
  O  O406  1  0.22222222  0.77777778  0.93746460  1
  O  O407  1  0.22222222  0.94444444  0.93746460  1
  O  O408  1  0.38888889  0.11111111  0.93746460  1
  O  O409  1  0.38888889  0.27777778  0.93746460  1
  O  O410  1  0.38888889  0.44444444  0.93746460  1
  O  O411  1  0.38888889  0.61111111  0.93746460  1
  O  O412  1  0.38888889  0.77777778  0.93746460  1
  O  O413  1  0.38888889  0.94444444  0.93746460  1
  O  O414  1  0.55555556  0.11111111  0.93746460  1
  O  O415  1  0.55555556  0.27777778  0.93746460  1
  O  O416  1  0.55555556  0.44444444  0.93746460  1
  O  O417  1  0.55555556  0.61111111  0.93746460  1
  O  O418  1  0.55555556  0.77777778  0.93746460  1
  O  O419  1  0.55555556  0.94444444  0.93746460  1
  O  O420  1  0.72222222  0.11111111  0.93746460  1
  O  O421  1  0.72222222  0.27777778  0.93746460  1
  O  O422  1  0.72222222  0.44444444  0.93746460  1
  O  O423  1  0.72222222  0.61111111  0.93746460  1
  O  O424  1  0.72222222  0.77777778  0.93746460  1
  O  O425  1  0.72222222  0.94444444  0.93746460  1
  O  O426  1  0.88888889  0.11111111  0.93746460  1
  O  O427  1  0.88888889  0.27777778  0.93746460  1
  O  O428  1  0.88888889  0.44444444  0.93746460  1
  O  O429  1  0.88888889  0.61111111  0.93746460  1
  O  O430  1  0.88888889  0.77777778  0.93746460  1
  O  O431  1  0.88888889  0.94444444  0.93746460  1
