# generated using pymatgen
data_RbNb(GeO3)3
_symmetry_space_group_name_H-M   'P 1'
_cell_length_a   14.22528107
_cell_length_b   14.22528107
_cell_length_c   10.33767236
_cell_angle_alpha   90.00000000
_cell_angle_beta   90.00000000
_cell_angle_gamma   120.00000000
_symmetry_Int_Tables_number   1
_chemical_formula_structural   RbNb(GeO3)3
_chemical_formula_sum   'Rb8 Nb8 Ge24 O72'
_cell_volume   1811.65337462
_cell_formula_units_Z   8
loop_
 _symmetry_equiv_pos_site_id
 _symmetry_equiv_pos_as_xyz
  1  'x, y, z'
loop_
 _atom_site_type_symbol
 _atom_site_label
 _atom_site_symmetry_multiplicity
 _atom_site_fract_x
 _atom_site_fract_y
 _atom_site_fract_z
 _atom_site_occupancy
  Rb  Rb0  1  0.33333333  0.16666667  0.00000000  1
  Rb  Rb1  1  0.33333333  0.66666667  0.00000000  1
  Rb  Rb2  1  0.83333333  0.16666667  0.00000000  1
  Rb  Rb3  1  0.83333333  0.66666667  0.00000000  1
  Rb  Rb4  1  0.33333333  0.16666667  0.50000000  1
  Rb  Rb5  1  0.33333333  0.66666667  0.50000000  1
  Rb  Rb6  1  0.83333333  0.16666667  0.50000000  1
  Rb  Rb7  1  0.83333333  0.66666667  0.50000000  1
  Nb  Nb8  1  0.16666667  0.33333333  0.00000000  1
  Nb  Nb9  1  0.16666667  0.83333333  0.00000000  1
  Nb  Nb10  1  0.66666667  0.33333333  0.00000000  1
  Nb  Nb11  1  0.66666667  0.83333333  0.00000000  1
  Nb  Nb12  1  0.16666667  0.33333333  0.50000000  1
  Nb  Nb13  1  0.16666667  0.83333333  0.50000000  1
  Nb  Nb14  1  0.66666667  0.33333333  0.50000000  1
  Nb  Nb15  1  0.66666667  0.83333333  0.50000000  1
  Ge  Ge16  1  0.03788270  0.14510339  0.25000000  1
  Ge  Ge17  1  0.03788270  0.64510339  0.25000000  1
  Ge  Ge18  1  0.53788270  0.14510339  0.25000000  1
  Ge  Ge19  1  0.53788270  0.64510339  0.25000000  1
  Ge  Ge20  1  0.10722070  0.46211730  0.25000000  1
  Ge  Ge21  1  0.10722070  0.96211730  0.25000000  1
  Ge  Ge22  1  0.60722070  0.46211730  0.25000000  1
  Ge  Ge23  1  0.60722070  0.96211730  0.25000000  1
  Ge  Ge24  1  0.35489661  0.39277930  0.25000000  1
  Ge  Ge25  1  0.35489661  0.89277930  0.25000000  1
  Ge  Ge26  1  0.85489661  0.39277930  0.25000000  1
  Ge  Ge27  1  0.85489661  0.89277930  0.25000000  1
  Ge  Ge28  1  0.35489661  0.46211730  0.75000000  1
  Ge  Ge29  1  0.35489661  0.96211730  0.75000000  1
  Ge  Ge30  1  0.85489661  0.46211730  0.75000000  1
  Ge  Ge31  1  0.85489661  0.96211730  0.75000000  1
  Ge  Ge32  1  0.10722070  0.14510339  0.75000000  1
  Ge  Ge33  1  0.10722070  0.64510339  0.75000000  1
  Ge  Ge34  1  0.60722070  0.14510339  0.75000000  1
  Ge  Ge35  1  0.60722070  0.64510339  0.75000000  1
  Ge  Ge36  1  0.03788270  0.39277930  0.75000000  1
  Ge  Ge37  1  0.03788270  0.89277930  0.75000000  1
  Ge  Ge38  1  0.53788270  0.39277930  0.75000000  1
  Ge  Ge39  1  0.53788270  0.89277930  0.75000000  1
  O  O40  1  0.13449397  0.09965411  0.25000000  1
  O  O41  1  0.13449397  0.59965411  0.25000000  1
  O  O42  1  0.63449397  0.09965411  0.25000000  1
  O  O43  1  0.63449397  0.59965411  0.25000000  1
  O  O44  1  0.46516014  0.36550603  0.25000000  1
  O  O45  1  0.46516014  0.86550603  0.25000000  1
  O  O46  1  0.96516014  0.36550603  0.25000000  1
  O  O47  1  0.96516014  0.86550603  0.25000000  1
  O  O48  1  0.40034589  0.03483986  0.25000000  1
  O  O49  1  0.40034589  0.53483986  0.25000000  1
  O  O50  1  0.90034589  0.03483986  0.25000000  1
  O  O51  1  0.90034589  0.53483986  0.25000000  1
  O  O52  1  0.40034589  0.36550603  0.75000000  1
  O  O53  1  0.40034589  0.86550603  0.75000000  1
  O  O54  1  0.90034589  0.36550603  0.75000000  1
  O  O55  1  0.90034589  0.86550603  0.75000000  1
  O  O56  1  0.46516014  0.09965411  0.75000000  1
  O  O57  1  0.46516014  0.59965411  0.75000000  1
  O  O58  1  0.96516014  0.09965411  0.75000000  1
  O  O59  1  0.96516014  0.59965411  0.75000000  1
  O  O60  1  0.13449397  0.03483986  0.75000000  1
  O  O61  1  0.13449397  0.53483986  0.75000000  1
  O  O62  1  0.63449397  0.03483986  0.75000000  1
  O  O63  1  0.63449397  0.53483986  0.75000000  1
  O  O64  1  0.04948577  0.22032395  0.10945228  1
  O  O65  1  0.04948577  0.72032395  0.10945228  1
  O  O66  1  0.54948577  0.22032395  0.10945228  1
  O  O67  1  0.54948577  0.72032395  0.10945228  1
  O  O68  1  0.17083818  0.45051423  0.39054772  1
  O  O69  1  0.17083818  0.95051423  0.39054772  1
  O  O70  1  0.67083818  0.45051423  0.39054772  1
  O  O71  1  0.67083818  0.95051423  0.39054772  1
  O  O72  1  0.27967605  0.32916182  0.39054772  1
  O  O73  1  0.27967605  0.82916182  0.39054772  1
  O  O74  1  0.77967605  0.32916182  0.39054772  1
  O  O75  1  0.77967605  0.82916182  0.39054772  1
  O  O76  1  0.27967605  0.32916182  0.10945228  1
  O  O77  1  0.27967605  0.82916182  0.10945228  1
  O  O78  1  0.77967605  0.32916182  0.10945228  1
  O  O79  1  0.77967605  0.82916182  0.10945228  1
  O  O80  1  0.17083818  0.45051423  0.10945228  1
  O  O81  1  0.17083818  0.95051423  0.10945228  1
  O  O82  1  0.67083818  0.45051423  0.10945228  1
  O  O83  1  0.67083818  0.95051423  0.10945228  1
  O  O84  1  0.27967605  0.45051423  0.89054772  1
  O  O85  1  0.27967605  0.95051423  0.89054772  1
  O  O86  1  0.77967605  0.45051423  0.89054772  1
  O  O87  1  0.77967605  0.95051423  0.89054772  1
  O  O88  1  0.17083818  0.22032395  0.89054772  1
  O  O89  1  0.17083818  0.72032395  0.89054772  1
  O  O90  1  0.67083818  0.22032395  0.89054772  1
  O  O91  1  0.67083818  0.72032395  0.89054772  1
  O  O92  1  0.04948577  0.32916182  0.89054772  1
  O  O93  1  0.04948577  0.82916182  0.89054772  1
  O  O94  1  0.54948577  0.32916182  0.89054772  1
  O  O95  1  0.54948577  0.82916182  0.89054772  1
  O  O96  1  0.17083818  0.22032395  0.60945228  1
  O  O97  1  0.17083818  0.72032395  0.60945228  1
  O  O98  1  0.67083818  0.22032395  0.60945228  1
  O  O99  1  0.67083818  0.72032395  0.60945228  1
  O  O100  1  0.04948577  0.32916182  0.60945228  1
  O  O101  1  0.04948577  0.82916182  0.60945228  1
  O  O102  1  0.54948577  0.32916182  0.60945228  1
  O  O103  1  0.54948577  0.82916182  0.60945228  1
  O  O104  1  0.04948577  0.22032395  0.39054772  1
  O  O105  1  0.04948577  0.72032395  0.39054772  1
  O  O106  1  0.54948577  0.22032395  0.39054772  1
  O  O107  1  0.54948577  0.72032395  0.39054772  1
  O  O108  1  0.27967605  0.45051423  0.60945228  1
  O  O109  1  0.27967605  0.95051423  0.60945228  1
  O  O110  1  0.77967605  0.45051423  0.60945228  1
  O  O111  1  0.77967605  0.95051423  0.60945228  1
