# generated using pymatgen
data_MgGeO3
_symmetry_space_group_name_H-M   'P 1'
_cell_length_a   9.64455269
_cell_length_b   8.96097369
_cell_length_c   10.40167335
_cell_angle_alpha   90.00000000
_cell_angle_beta   100.53716795
_cell_angle_gamma   90.00000000
_symmetry_Int_Tables_number   1
_chemical_formula_structural   MgGeO3
_chemical_formula_sum   'Mg16 Ge16 O48'
_cell_volume   883.80064979
_cell_formula_units_Z   16
loop_
 _symmetry_equiv_pos_site_id
 _symmetry_equiv_pos_as_xyz
  1  'x, y, z'
loop_
 _atom_site_type_symbol
 _atom_site_label
 _atom_site_symmetry_multiplicity
 _atom_site_fract_x
 _atom_site_fract_y
 _atom_site_fract_z
 _atom_site_occupancy
  Mg  Mg0  1  0.50000000  -0.40823705  0.37500000  1
  Mg  Mg1  1  0.50000000  -0.40823705  0.87500000  1
  Mg  Mg2  1  1.00000000  0.09176295  0.37500000  1
  Mg  Mg3  1  1.00000000  0.09176295  0.87500000  1
  Mg  Mg4  1  0.50000000  0.40823705  0.12500000  1
  Mg  Mg5  1  0.50000000  0.40823705  0.62500000  1
  Mg  Mg6  1  1.00000000  0.90823705  0.12500000  1
  Mg  Mg7  1  1.00000000  0.90823705  0.62500000  1
  Mg  Mg8  1  0.50000000  0.23042692  0.37500000  1
  Mg  Mg9  1  0.50000000  0.23042692  0.87500000  1
  Mg  Mg10  1  1.00000000  0.73042692  0.37500000  1
  Mg  Mg11  1  1.00000000  0.73042692  0.87500000  1
  Mg  Mg12  1  0.50000000  -0.23042692  0.12500000  1
  Mg  Mg13  1  0.50000000  -0.23042692  0.62500000  1
  Mg  Mg14  1  1.00000000  0.26957308  0.12500000  1
  Mg  Mg15  1  1.00000000  0.26957308  0.62500000  1
  Ge  Ge16  1  0.69952601  -0.09573568  0.39492805  1
  Ge  Ge17  1  0.69952601  -0.09573568  0.89492805  1
  Ge  Ge18  1  1.19952601  0.40426432  0.39492805  1
  Ge  Ge19  1  1.19952601  0.40426432  0.89492805  1
  Ge  Ge20  1  0.30047399  -0.09573568  0.35507195  1
  Ge  Ge21  1  0.30047399  -0.09573568  0.85507195  1
  Ge  Ge22  1  0.80047399  0.40426432  0.35507195  1
  Ge  Ge23  1  0.80047399  0.40426432  0.85507195  1
  Ge  Ge24  1  0.30047399  0.09573568  0.10507195  1
  Ge  Ge25  1  0.30047399  0.09573568  0.60507195  1
  Ge  Ge26  1  0.80047399  0.59573568  0.10507195  1
  Ge  Ge27  1  0.80047399  0.59573568  0.60507195  1
  Ge  Ge28  1  0.69952601  0.09573568  0.14492805  1
  Ge  Ge29  1  0.69952601  0.09573568  0.64492805  1
  Ge  Ge30  1  1.19952601  0.59573568  0.14492805  1
  Ge  Ge31  1  1.19952601  0.59573568  0.64492805  1
  O  O32  1  0.63715159  0.07202208  0.30036474  1
  O  O33  1  0.63715159  0.07202208  0.80036474  1
  O  O34  1  1.13715159  0.57202208  0.30036474  1
  O  O35  1  1.13715159  0.57202208  0.80036474  1
  O  O36  1  0.36284841  0.07202208  0.44963526  1
  O  O37  1  0.36284841  0.07202208  0.94963526  1
  O  O38  1  0.86284841  0.57202208  0.44963526  1
  O  O39  1  0.86284841  0.57202208  0.94963526  1
  O  O40  1  0.36284841  -0.07202208  0.19963526  1
  O  O41  1  0.36284841  -0.07202208  0.69963526  1
  O  O42  1  0.86284841  0.42797792  0.19963526  1
  O  O43  1  0.86284841  0.42797792  0.69963526  1
  O  O44  1  0.63715159  -0.07202208  0.05036474  1
  O  O45  1  0.63715159  -0.07202208  0.55036474  1
  O  O46  1  1.13715159  0.42797792  0.05036474  1
  O  O47  1  1.13715159  0.42797792  0.55036474  1
  O  O48  1  0.61665266  0.24612340  0.05730818  1
  O  O49  1  0.61665266  0.24612340  0.55730818  1
  O  O50  1  1.11665266  0.74612340  0.05730818  1
  O  O51  1  1.11665266  0.74612340  0.55730818  1
  O  O52  1  0.38334734  0.24612340  0.19269182  1
  O  O53  1  0.38334734  0.24612340  0.69269182  1
  O  O54  1  0.88334734  0.74612340  0.19269182  1
  O  O55  1  0.88334734  0.74612340  0.69269182  1
  O  O56  1  0.38334734  -0.24612340  0.44269182  1
  O  O57  1  0.38334734  -0.24612340  0.94269182  1
  O  O58  1  0.88334734  0.25387660  0.44269182  1
  O  O59  1  0.88334734  0.25387660  0.94269182  1
  O  O60  1  0.61665266  -0.24612340  0.30730818  1
  O  O61  1  0.61665266  -0.24612340  0.80730818  1
  O  O62  1  1.11665266  0.25387660  0.30730818  1
  O  O63  1  1.11665266  0.25387660  0.80730818  1
  O  O64  1  0.88600193  -0.09026176  0.43539845  1
  O  O65  1  0.88600193  -0.09026176  0.93539845  1
  O  O66  1  1.38600193  0.40973824  0.43539845  1
  O  O67  1  1.38600193  0.40973824  0.93539845  1
  O  O68  1  0.11399807  -0.09026176  0.31460155  1
  O  O69  1  0.11399807  -0.09026176  0.81460155  1
  O  O70  1  0.61399807  0.40973824  0.31460155  1
  O  O71  1  0.61399807  0.40973824  0.81460155  1
  O  O72  1  0.11399807  0.09026176  0.06460155  1
  O  O73  1  0.11399807  0.09026176  0.56460155  1
  O  O74  1  0.61399807  0.59026176  0.06460155  1
  O  O75  1  0.61399807  0.59026176  0.56460155  1
  O  O76  1  0.88600193  0.09026176  0.18539845  1
  O  O77  1  0.88600193  0.09026176  0.68539845  1
  O  O78  1  1.38600193  0.59026176  0.18539845  1
  O  O79  1  1.38600193  0.59026176  0.68539845  1
