# generated using pymatgen
data_Tl6Si2O7
_symmetry_space_group_name_H-M   'P 1'
_cell_length_a   19.21707581
_cell_length_b   19.21707581
_cell_length_c   15.87338969
_cell_angle_alpha   90.00000000
_cell_angle_beta   90.00000000
_cell_angle_gamma   120.00000000
_symmetry_Int_Tables_number   1
_chemical_formula_structural   Tl6Si2O7
_chemical_formula_sum   'Tl96 Si32 O112'
_cell_volume   5076.62304339
_cell_formula_units_Z   16
loop_
 _symmetry_equiv_pos_site_id
 _symmetry_equiv_pos_as_xyz
  1  'x, y, z'
loop_
 _atom_site_type_symbol
 _atom_site_label
 _atom_site_symmetry_multiplicity
 _atom_site_fract_x
 _atom_site_fract_y
 _atom_site_fract_z
 _atom_site_occupancy
  Tl  Tl0  1  0.01772206  0.17475542  0.18402022  1
  Tl  Tl1  1  0.01772206  0.17475542  0.68402022  1
  Tl  Tl2  1  0.01772206  0.67475542  0.18402022  1
  Tl  Tl3  1  0.01772206  0.67475542  0.68402022  1
  Tl  Tl4  1  0.51772206  0.17475542  0.18402022  1
  Tl  Tl5  1  0.51772206  0.17475542  0.68402022  1
  Tl  Tl6  1  0.51772206  0.67475542  0.18402022  1
  Tl  Tl7  1  0.51772206  0.67475542  0.68402022  1
  Tl  Tl8  1  0.15703336  0.48227794  0.18402022  1
  Tl  Tl9  1  0.15703336  0.48227794  0.68402022  1
  Tl  Tl10  1  0.15703336  0.98227794  0.18402022  1
  Tl  Tl11  1  0.15703336  0.98227794  0.68402022  1
  Tl  Tl12  1  0.65703336  0.48227794  0.18402022  1
  Tl  Tl13  1  0.65703336  0.48227794  0.68402022  1
  Tl  Tl14  1  0.65703336  0.98227794  0.18402022  1
  Tl  Tl15  1  0.65703336  0.98227794  0.68402022  1
  Tl  Tl16  1  0.32524458  0.34296664  0.18402022  1
  Tl  Tl17  1  0.32524458  0.34296664  0.68402022  1
  Tl  Tl18  1  0.32524458  0.84296664  0.18402022  1
  Tl  Tl19  1  0.32524458  0.84296664  0.68402022  1
  Tl  Tl20  1  0.82524458  0.34296664  0.18402022  1
  Tl  Tl21  1  0.82524458  0.34296664  0.68402022  1
  Tl  Tl22  1  0.82524458  0.84296664  0.18402022  1
  Tl  Tl23  1  0.82524458  0.84296664  0.68402022  1
  Tl  Tl24  1  0.48227794  0.32524458  0.31597978  1
  Tl  Tl25  1  0.48227794  0.32524458  0.81597978  1
  Tl  Tl26  1  0.48227794  0.82524458  0.31597978  1
  Tl  Tl27  1  0.48227794  0.82524458  0.81597978  1
  Tl  Tl28  1  0.98227794  0.32524458  0.31597978  1
  Tl  Tl29  1  0.98227794  0.32524458  0.81597978  1
  Tl  Tl30  1  0.98227794  0.82524458  0.31597978  1
  Tl  Tl31  1  0.98227794  0.82524458  0.81597978  1
  Tl  Tl32  1  0.34296664  0.01772206  0.31597978  1
  Tl  Tl33  1  0.34296664  0.01772206  0.81597978  1
  Tl  Tl34  1  0.34296664  0.51772206  0.31597978  1
  Tl  Tl35  1  0.34296664  0.51772206  0.81597978  1
  Tl  Tl36  1  0.84296664  0.01772206  0.31597978  1
  Tl  Tl37  1  0.84296664  0.01772206  0.81597978  1
  Tl  Tl38  1  0.84296664  0.51772206  0.31597978  1
  Tl  Tl39  1  0.84296664  0.51772206  0.81597978  1
  Tl  Tl40  1  0.17475542  0.15703336  0.31597978  1
  Tl  Tl41  1  0.17475542  0.15703336  0.81597978  1
  Tl  Tl42  1  0.17475542  0.65703336  0.31597978  1
  Tl  Tl43  1  0.17475542  0.65703336  0.81597978  1
  Tl  Tl44  1  0.67475542  0.15703336  0.31597978  1
  Tl  Tl45  1  0.67475542  0.15703336  0.81597978  1
  Tl  Tl46  1  0.67475542  0.65703336  0.31597978  1
  Tl  Tl47  1  0.67475542  0.65703336  0.81597978  1
  Tl  Tl48  1  0.02473980  0.17700830  0.43997321  1
  Tl  Tl49  1  0.02473980  0.17700830  0.93997321  1
  Tl  Tl50  1  0.02473980  0.67700830  0.43997321  1
  Tl  Tl51  1  0.02473980  0.67700830  0.93997321  1
  Tl  Tl52  1  0.52473980  0.17700830  0.43997321  1
  Tl  Tl53  1  0.52473980  0.17700830  0.93997321  1
  Tl  Tl54  1  0.52473980  0.67700830  0.43997321  1
  Tl  Tl55  1  0.52473980  0.67700830  0.93997321  1
  Tl  Tl56  1  0.15226851  0.47526020  0.43997321  1
  Tl  Tl57  1  0.15226851  0.47526020  0.93997321  1
  Tl  Tl58  1  0.15226851  0.97526020  0.43997321  1
  Tl  Tl59  1  0.15226851  0.97526020  0.93997321  1
  Tl  Tl60  1  0.65226851  0.47526020  0.43997321  1
  Tl  Tl61  1  0.65226851  0.47526020  0.93997321  1
  Tl  Tl62  1  0.65226851  0.97526020  0.43997321  1
  Tl  Tl63  1  0.65226851  0.97526020  0.93997321  1
  Tl  Tl64  1  0.32299170  0.34773149  0.43997321  1
  Tl  Tl65  1  0.32299170  0.34773149  0.93997321  1
  Tl  Tl66  1  0.32299170  0.84773149  0.43997321  1
  Tl  Tl67  1  0.32299170  0.84773149  0.93997321  1
  Tl  Tl68  1  0.82299170  0.34773149  0.43997321  1
  Tl  Tl69  1  0.82299170  0.34773149  0.93997321  1
  Tl  Tl70  1  0.82299170  0.84773149  0.43997321  1
  Tl  Tl71  1  0.82299170  0.84773149  0.93997321  1
  Tl  Tl72  1  0.47526020  0.32299170  0.06002679  1
  Tl  Tl73  1  0.47526020  0.32299170  0.56002679  1
  Tl  Tl74  1  0.47526020  0.82299170  0.06002679  1
  Tl  Tl75  1  0.47526020  0.82299170  0.56002679  1
  Tl  Tl76  1  0.97526020  0.32299170  0.06002679  1
  Tl  Tl77  1  0.97526020  0.32299170  0.56002679  1
  Tl  Tl78  1  0.97526020  0.82299170  0.06002679  1
  Tl  Tl79  1  0.97526020  0.82299170  0.56002679  1
  Tl  Tl80  1  0.34773149  0.02473980  0.06002679  1
  Tl  Tl81  1  0.34773149  0.02473980  0.56002679  1
  Tl  Tl82  1  0.34773149  0.52473980  0.06002679  1
  Tl  Tl83  1  0.34773149  0.52473980  0.56002679  1
  Tl  Tl84  1  0.84773149  0.02473980  0.06002679  1
  Tl  Tl85  1  0.84773149  0.02473980  0.56002679  1
  Tl  Tl86  1  0.84773149  0.52473980  0.06002679  1
  Tl  Tl87  1  0.84773149  0.52473980  0.56002679  1
  Tl  Tl88  1  0.17700830  0.15226851  0.06002679  1
  Tl  Tl89  1  0.17700830  0.15226851  0.56002679  1
  Tl  Tl90  1  0.17700830  0.65226851  0.06002679  1
  Tl  Tl91  1  0.17700830  0.65226851  0.56002679  1
  Tl  Tl92  1  0.67700830  0.15226851  0.06002679  1
  Tl  Tl93  1  0.67700830  0.15226851  0.56002679  1
  Tl  Tl94  1  0.67700830  0.65226851  0.06002679  1
  Tl  Tl95  1  0.67700830  0.65226851  0.56002679  1
  Si  Si96  1  0.16666667  0.33333333  0.08301805  1
  Si  Si97  1  0.16666667  0.33333333  0.58301805  1
  Si  Si98  1  0.16666667  0.83333333  0.08301805  1
  Si  Si99  1  0.16666667  0.83333333  0.58301805  1
  Si  Si100  1  0.66666667  0.33333333  0.08301805  1
  Si  Si101  1  0.66666667  0.33333333  0.58301805  1
  Si  Si102  1  0.66666667  0.83333333  0.08301805  1
  Si  Si103  1  0.66666667  0.83333333  0.58301805  1
  Si  Si104  1  0.33333333  0.16666667  0.20759482  1
  Si  Si105  1  0.33333333  0.16666667  0.70759482  1
  Si  Si106  1  0.33333333  0.66666667  0.20759482  1
  Si  Si107  1  0.33333333  0.66666667  0.70759482  1
  Si  Si108  1  0.83333333  0.16666667  0.20759482  1
  Si  Si109  1  0.83333333  0.16666667  0.70759482  1
  Si  Si110  1  0.83333333  0.66666667  0.20759482  1
  Si  Si111  1  0.83333333  0.66666667  0.70759482  1
  Si  Si112  1  0.16666667  0.33333333  0.29240518  1
  Si  Si113  1  0.16666667  0.33333333  0.79240518  1
  Si  Si114  1  0.16666667  0.83333333  0.29240518  1
  Si  Si115  1  0.16666667  0.83333333  0.79240518  1
  Si  Si116  1  0.66666667  0.33333333  0.29240518  1
  Si  Si117  1  0.66666667  0.33333333  0.79240518  1
  Si  Si118  1  0.66666667  0.83333333  0.29240518  1
  Si  Si119  1  0.66666667  0.83333333  0.79240518  1
  Si  Si120  1  0.33333333  0.16666667  0.41698195  1
  Si  Si121  1  0.33333333  0.16666667  0.91698195  1
  Si  Si122  1  0.33333333  0.66666667  0.41698195  1
  Si  Si123  1  0.33333333  0.66666667  0.91698195  1
  Si  Si124  1  0.83333333  0.16666667  0.41698195  1
  Si  Si125  1  0.83333333  0.16666667  0.91698195  1
  Si  Si126  1  0.83333333  0.66666667  0.41698195  1
  Si  Si127  1  0.83333333  0.66666667  0.91698195  1
  O  O128  1  0.42712737  0.22499538  0.44466062  1
  O  O129  1  0.42712737  0.22499538  0.94466062  1
  O  O130  1  0.42712737  0.72499538  0.44466062  1
  O  O131  1  0.42712737  0.72499538  0.94466062  1
  O  O132  1  0.92712737  0.22499538  0.44466062  1
  O  O133  1  0.92712737  0.22499538  0.94466062  1
  O  O134  1  0.92712737  0.72499538  0.44466062  1
  O  O135  1  0.92712737  0.72499538  0.94466062  1
  O  O136  1  0.27500462  0.20213199  0.44466062  1
  O  O137  1  0.27500462  0.20213199  0.94466062  1
  O  O138  1  0.27500462  0.70213199  0.44466062  1
  O  O139  1  0.27500462  0.70213199  0.94466062  1
  O  O140  1  0.77500462  0.20213199  0.44466062  1
  O  O141  1  0.77500462  0.20213199  0.94466062  1
  O  O142  1  0.77500462  0.70213199  0.44466062  1
  O  O143  1  0.77500462  0.70213199  0.94466062  1
  O  O144  1  0.29786801  0.07287263  0.44466062  1
  O  O145  1  0.29786801  0.07287263  0.94466062  1
  O  O146  1  0.29786801  0.57287263  0.44466062  1
  O  O147  1  0.29786801  0.57287263  0.94466062  1
  O  O148  1  0.79786801  0.07287263  0.44466062  1
  O  O149  1  0.79786801  0.07287263  0.94466062  1
  O  O150  1  0.79786801  0.57287263  0.44466062  1
  O  O151  1  0.79786801  0.57287263  0.94466062  1
  O  O152  1  0.20213199  0.42712737  0.05533938  1
  O  O153  1  0.20213199  0.42712737  0.55533938  1
  O  O154  1  0.20213199  0.92712737  0.05533938  1
  O  O155  1  0.20213199  0.92712737  0.55533938  1
  O  O156  1  0.70213199  0.42712737  0.05533938  1
  O  O157  1  0.70213199  0.42712737  0.55533938  1
  O  O158  1  0.70213199  0.92712737  0.05533938  1
  O  O159  1  0.70213199  0.92712737  0.55533938  1
  O  O160  1  0.33333333  0.16666667  0.31222122  1
  O  O161  1  0.33333333  0.16666667  0.81222122  1
  O  O162  1  0.33333333  0.66666667  0.31222122  1
  O  O163  1  0.33333333  0.66666667  0.81222122  1
  O  O164  1  0.83333333  0.16666667  0.31222122  1
  O  O165  1  0.83333333  0.16666667  0.81222122  1
  O  O166  1  0.83333333  0.66666667  0.31222122  1
  O  O167  1  0.83333333  0.66666667  0.81222122  1
  O  O168  1  0.16666667  0.33333333  0.18777878  1
  O  O169  1  0.16666667  0.33333333  0.68777878  1
  O  O170  1  0.16666667  0.83333333  0.18777878  1
  O  O171  1  0.16666667  0.83333333  0.68777878  1
  O  O172  1  0.66666667  0.33333333  0.18777878  1
  O  O173  1  0.66666667  0.33333333  0.68777878  1
  O  O174  1  0.66666667  0.83333333  0.18777878  1
  O  O175  1  0.66666667  0.83333333  0.68777878  1
  O  O176  1  0.30057362  0.07330911  0.17965340  1
  O  O177  1  0.30057362  0.07330911  0.67965340  1
  O  O178  1  0.30057362  0.57330911  0.17965340  1
  O  O179  1  0.30057362  0.57330911  0.67965340  1
  O  O180  1  0.80057362  0.07330911  0.17965340  1
  O  O181  1  0.80057362  0.07330911  0.67965340  1
  O  O182  1  0.80057362  0.57330911  0.17965340  1
  O  O183  1  0.80057362  0.57330911  0.67965340  1
  O  O184  1  0.27273549  0.19942638  0.17965340  1
  O  O185  1  0.27273549  0.19942638  0.67965340  1
  O  O186  1  0.27273549  0.69942638  0.17965340  1
  O  O187  1  0.27273549  0.69942638  0.67965340  1
  O  O188  1  0.77273549  0.19942638  0.17965340  1
  O  O189  1  0.77273549  0.19942638  0.67965340  1
  O  O190  1  0.77273549  0.69942638  0.17965340  1
  O  O191  1  0.77273549  0.69942638  0.67965340  1
  O  O192  1  0.42669089  0.22726451  0.17965340  1
  O  O193  1  0.42669089  0.22726451  0.67965340  1
  O  O194  1  0.42669089  0.72726451  0.17965340  1
  O  O195  1  0.42669089  0.72726451  0.67965340  1
  O  O196  1  0.92669089  0.22726451  0.17965340  1
  O  O197  1  0.92669089  0.22726451  0.67965340  1
  O  O198  1  0.92669089  0.72726451  0.17965340  1
  O  O199  1  0.92669089  0.72726451  0.67965340  1
  O  O200  1  0.19942638  0.42669089  0.32034660  1
  O  O201  1  0.19942638  0.42669089  0.82034660  1
  O  O202  1  0.19942638  0.92669089  0.32034660  1
  O  O203  1  0.19942638  0.92669089  0.82034660  1
  O  O204  1  0.69942638  0.42669089  0.32034660  1
  O  O205  1  0.69942638  0.42669089  0.82034660  1
  O  O206  1  0.69942638  0.92669089  0.32034660  1
  O  O207  1  0.69942638  0.92669089  0.82034660  1
  O  O208  1  0.22726451  0.30057362  0.32034660  1
  O  O209  1  0.22726451  0.30057362  0.82034660  1
  O  O210  1  0.22726451  0.80057362  0.32034660  1
  O  O211  1  0.22726451  0.80057362  0.82034660  1
  O  O212  1  0.72726451  0.30057362  0.32034660  1
  O  O213  1  0.72726451  0.30057362  0.82034660  1
  O  O214  1  0.72726451  0.80057362  0.32034660  1
  O  O215  1  0.72726451  0.80057362  0.82034660  1
  O  O216  1  0.07330911  0.27273549  0.32034660  1
  O  O217  1  0.07330911  0.27273549  0.82034660  1
  O  O218  1  0.07330911  0.77273549  0.32034660  1
  O  O219  1  0.07330911  0.77273549  0.82034660  1
  O  O220  1  0.57330911  0.27273549  0.32034660  1
  O  O221  1  0.57330911  0.27273549  0.82034660  1
  O  O222  1  0.57330911  0.77273549  0.32034660  1
  O  O223  1  0.57330911  0.77273549  0.82034660  1
  O  O224  1  0.07287263  0.27500462  0.05533938  1
  O  O225  1  0.07287263  0.27500462  0.55533938  1
  O  O226  1  0.07287263  0.77500462  0.05533938  1
  O  O227  1  0.07287263  0.77500462  0.55533938  1
  O  O228  1  0.57287263  0.27500462  0.05533938  1
  O  O229  1  0.57287263  0.27500462  0.55533938  1
  O  O230  1  0.57287263  0.77500462  0.05533938  1
  O  O231  1  0.57287263  0.77500462  0.55533938  1
  O  O232  1  0.22499538  0.29786801  0.05533938  1
  O  O233  1  0.22499538  0.29786801  0.55533938  1
  O  O234  1  0.22499538  0.79786801  0.05533938  1
  O  O235  1  0.22499538  0.79786801  0.55533938  1
  O  O236  1  0.72499538  0.29786801  0.05533938  1
  O  O237  1  0.72499538  0.29786801  0.55533938  1
  O  O238  1  0.72499538  0.79786801  0.05533938  1
  O  O239  1  0.72499538  0.79786801  0.55533938  1
