# generated using pymatgen
data_Cs3TlO3
_symmetry_space_group_name_H-M   'P 1'
_cell_length_a   16.29869578
_cell_length_b   14.67868976
_cell_length_c   11.85918338
_cell_angle_alpha   90.00000000
_cell_angle_beta   94.77723158
_cell_angle_gamma   90.00000000
_symmetry_Int_Tables_number   1
_chemical_formula_structural   Cs3TlO3
_chemical_formula_sum   'Cs48 Tl16 O48'
_cell_volume   2827.37607152
_cell_formula_units_Z   16
loop_
 _symmetry_equiv_pos_site_id
 _symmetry_equiv_pos_as_xyz
  1  'x, y, z'
loop_
 _atom_site_type_symbol
 _atom_site_label
 _atom_site_symmetry_multiplicity
 _atom_site_fract_x
 _atom_site_fract_y
 _atom_site_fract_z
 _atom_site_occupancy
  Cs  Cs0  1  0.32496779  0.41427788  0.57131603  1
  Cs  Cs1  1  0.32496779  0.91427788  0.57131603  1
  Cs  Cs2  1  0.82496779  0.41427788  0.57131603  1
  Cs  Cs3  1  0.82496779  0.91427788  0.57131603  1
  Cs  Cs4  1  0.02430212  0.06459292  0.65721679  1
  Cs  Cs5  1  0.02430212  0.56459292  0.65721679  1
  Cs  Cs6  1  0.52430212  0.06459292  0.65721679  1
  Cs  Cs7  1  0.52430212  0.56459292  0.65721679  1
  Cs  Cs8  1  0.31272667  0.15891490  0.69245803  1
  Cs  Cs9  1  0.31272667  0.65891490  0.69245803  1
  Cs  Cs10  1  0.81272667  0.15891490  0.69245803  1
  Cs  Cs11  1  0.81272667  0.65891490  0.69245803  1
  Cs  Cs12  1  0.18727333  0.40891490  0.80754197  1
  Cs  Cs13  1  0.18727333  0.90891490  0.80754197  1
  Cs  Cs14  1  0.68727333  0.40891490  0.80754197  1
  Cs  Cs15  1  0.68727333  0.90891490  0.80754197  1
  Cs  Cs16  1  0.47569788  0.31459292  0.84278321  1
  Cs  Cs17  1  0.47569788  0.81459292  0.84278321  1
  Cs  Cs18  1  0.97569788  0.31459292  0.84278321  1
  Cs  Cs19  1  0.97569788  0.81459292  0.84278321  1
  Cs  Cs20  1  0.17503221  0.16427788  0.92868397  1
  Cs  Cs21  1  0.17503221  0.66427788  0.92868397  1
  Cs  Cs22  1  0.67503221  0.16427788  0.92868397  1
  Cs  Cs23  1  0.67503221  0.66427788  0.92868397  1
  Cs  Cs24  1  0.32496779  0.33572212  0.07131603  1
  Cs  Cs25  1  0.32496779  0.83572212  0.07131603  1
  Cs  Cs26  1  0.82496779  0.33572212  0.07131603  1
  Cs  Cs27  1  0.82496779  0.83572212  0.07131603  1
  Cs  Cs28  1  0.02430212  0.18540708  0.15721679  1
  Cs  Cs29  1  0.02430212  0.68540708  0.15721679  1
  Cs  Cs30  1  0.52430212  0.18540708  0.15721679  1
  Cs  Cs31  1  0.52430212  0.68540708  0.15721679  1
  Cs  Cs32  1  0.31272667  0.09108510  0.19245803  1
  Cs  Cs33  1  0.31272667  0.59108510  0.19245803  1
  Cs  Cs34  1  0.81272667  0.09108510  0.19245803  1
  Cs  Cs35  1  0.81272667  0.59108510  0.19245803  1
  Cs  Cs36  1  0.18727333  0.34108510  0.30754197  1
  Cs  Cs37  1  0.18727333  0.84108510  0.30754197  1
  Cs  Cs38  1  0.68727333  0.34108510  0.30754197  1
  Cs  Cs39  1  0.68727333  0.84108510  0.30754197  1
  Cs  Cs40  1  0.47569788  0.43540708  0.34278321  1
  Cs  Cs41  1  0.47569788  0.93540708  0.34278321  1
  Cs  Cs42  1  0.97569788  0.43540708  0.34278321  1
  Cs  Cs43  1  0.97569788  0.93540708  0.34278321  1
  Cs  Cs44  1  0.17503221  0.08572212  0.42868397  1
  Cs  Cs45  1  0.17503221  0.58572212  0.42868397  1
  Cs  Cs46  1  0.67503221  0.08572212  0.42868397  1
  Cs  Cs47  1  0.67503221  0.58572212  0.42868397  1
  Tl  Tl48  1  0.08088666  0.29549761  0.57033620  1
  Tl  Tl49  1  0.08088666  0.79549761  0.57033620  1
  Tl  Tl50  1  0.58088666  0.29549761  0.57033620  1
  Tl  Tl51  1  0.58088666  0.79549761  0.57033620  1
  Tl  Tl52  1  0.41911334  0.04549761  0.92966380  1
  Tl  Tl53  1  0.41911334  0.54549761  0.92966380  1
  Tl  Tl54  1  0.91911334  0.04549761  0.92966380  1
  Tl  Tl55  1  0.91911334  0.54549761  0.92966380  1
  Tl  Tl56  1  0.08088666  0.45450239  0.07033620  1
  Tl  Tl57  1  0.08088666  0.95450239  0.07033620  1
  Tl  Tl58  1  0.58088666  0.45450239  0.07033620  1
  Tl  Tl59  1  0.58088666  0.95450239  0.07033620  1
  Tl  Tl60  1  0.41911334  0.20450239  0.42966380  1
  Tl  Tl61  1  0.41911334  0.70450239  0.42966380  1
  Tl  Tl62  1  0.91911334  0.20450239  0.42966380  1
  Tl  Tl63  1  0.91911334  0.70450239  0.42966380  1
  O  O64  1  0.12676508  0.42839598  0.54056845  1
  O  O65  1  0.12676508  0.92839598  0.54056845  1
  O  O66  1  0.62676508  0.42839598  0.54056845  1
  O  O67  1  0.62676508  0.92839598  0.54056845  1
  O  O68  1  0.44712895  0.27155374  0.59775205  1
  O  O69  1  0.44712895  0.77155374  0.59775205  1
  O  O70  1  0.94712895  0.27155374  0.59775205  1
  O  O71  1  0.94712895  0.77155374  0.59775205  1
  O  O72  1  0.14711572  0.22101409  0.70225212  1
  O  O73  1  0.14711572  0.72101409  0.70225212  1
  O  O74  1  0.64711572  0.22101409  0.70225212  1
  O  O75  1  0.64711572  0.72101409  0.70225212  1
  O  O76  1  0.35288428  0.47101409  0.79774788  1
  O  O77  1  0.35288428  0.97101409  0.79774788  1
  O  O78  1  0.85288428  0.47101409  0.79774788  1
  O  O79  1  0.85288428  0.97101409  0.79774788  1
  O  O80  1  0.05287105  0.02155374  0.90224795  1
  O  O81  1  0.05287105  0.52155374  0.90224795  1
  O  O82  1  0.55287105  0.02155374  0.90224795  1
  O  O83  1  0.55287105  0.52155374  0.90224795  1
  O  O84  1  0.37323492  0.17839598  0.95943155  1
  O  O85  1  0.37323492  0.67839598  0.95943155  1
  O  O86  1  0.87323492  0.17839598  0.95943155  1
  O  O87  1  0.87323492  0.67839598  0.95943155  1
  O  O88  1  0.12676508  0.32160402  0.04056845  1
  O  O89  1  0.12676508  0.82160402  0.04056845  1
  O  O90  1  0.62676508  0.32160402  0.04056845  1
  O  O91  1  0.62676508  0.82160402  0.04056845  1
  O  O92  1  0.44712895  0.47844626  0.09775205  1
  O  O93  1  0.44712895  0.97844626  0.09775205  1
  O  O94  1  0.94712895  0.47844626  0.09775205  1
  O  O95  1  0.94712895  0.97844626  0.09775205  1
  O  O96  1  0.14711572  0.02898591  0.20225212  1
  O  O97  1  0.14711572  0.52898591  0.20225212  1
  O  O98  1  0.64711572  0.02898591  0.20225212  1
  O  O99  1  0.64711572  0.52898591  0.20225212  1
  O  O100  1  0.35288428  0.27898591  0.29774788  1
  O  O101  1  0.35288428  0.77898591  0.29774788  1
  O  O102  1  0.85288428  0.27898591  0.29774788  1
  O  O103  1  0.85288428  0.77898591  0.29774788  1
  O  O104  1  0.05287105  0.22844626  0.40224795  1
  O  O105  1  0.05287105  0.72844626  0.40224795  1
  O  O106  1  0.55287105  0.22844626  0.40224795  1
  O  O107  1  0.55287105  0.72844626  0.40224795  1
  O  O108  1  0.37323492  0.07160402  0.45943155  1
  O  O109  1  0.37323492  0.57160402  0.45943155  1
  O  O110  1  0.87323492  0.07160402  0.45943155  1
  O  O111  1  0.87323492  0.57160402  0.45943155  1
