# generated using pymatgen
data_NaTaGeO5
_symmetry_space_group_name_H-M   'P 1'
_cell_length_a   13.68715770
_cell_length_b   17.92160106
_cell_length_c   14.86535158
_cell_angle_alpha   90.00000000
_cell_angle_beta   114.76811461
_cell_angle_gamma   90.00000000
_symmetry_Int_Tables_number   1
_chemical_formula_structural   NaTaGeO5
_chemical_formula_sum   'Na32 Ta32 Ge32 O160'
_cell_volume   3310.97772710
_cell_formula_units_Z   32
loop_
 _symmetry_equiv_pos_site_id
 _symmetry_equiv_pos_as_xyz
  1  'x, y, z'
loop_
 _atom_site_type_symbol
 _atom_site_label
 _atom_site_symmetry_multiplicity
 _atom_site_fract_x
 _atom_site_fract_y
 _atom_site_fract_z
 _atom_site_occupancy
  Na  Na0  1  0.25000000  0.08737240  0.12500000  1
  Na  Na1  1  0.25000000  0.08737240  0.62500000  1
  Na  Na2  1  0.25000000  0.58737240  0.12500000  1
  Na  Na3  1  0.25000000  0.58737240  0.62500000  1
  Na  Na4  1  0.75000000  0.08737240  0.12500000  1
  Na  Na5  1  0.75000000  0.08737240  0.62500000  1
  Na  Na6  1  0.75000000  0.58737240  0.12500000  1
  Na  Na7  1  0.75000000  0.58737240  0.62500000  1
  Na  Na8  1  0.50000000  0.33737240  0.12500000  1
  Na  Na9  1  0.50000000  0.33737240  0.62500000  1
  Na  Na10  1  0.50000000  0.83737240  0.12500000  1
  Na  Na11  1  0.50000000  0.83737240  0.62500000  1
  Na  Na12  1  1.00000000  0.33737240  0.12500000  1
  Na  Na13  1  1.00000000  0.33737240  0.62500000  1
  Na  Na14  1  1.00000000  0.83737240  0.12500000  1
  Na  Na15  1  1.00000000  0.83737240  0.62500000  1
  Na  Na16  1  0.25000000  -0.08737240  0.37500000  1
  Na  Na17  1  0.25000000  -0.08737240  0.87500000  1
  Na  Na18  1  0.25000000  0.41262760  0.37500000  1
  Na  Na19  1  0.25000000  0.41262760  0.87500000  1
  Na  Na20  1  0.75000000  -0.08737240  0.37500000  1
  Na  Na21  1  0.75000000  -0.08737240  0.87500000  1
  Na  Na22  1  0.75000000  0.41262760  0.37500000  1
  Na  Na23  1  0.75000000  0.41262760  0.87500000  1
  Na  Na24  1  0.50000000  0.16262760  0.37500000  1
  Na  Na25  1  0.50000000  0.16262760  0.87500000  1
  Na  Na26  1  0.50000000  0.66262760  0.37500000  1
  Na  Na27  1  0.50000000  0.66262760  0.87500000  1
  Na  Na28  1  1.00000000  0.16262760  0.37500000  1
  Na  Na29  1  1.00000000  0.16262760  0.87500000  1
  Na  Na30  1  1.00000000  0.66262760  0.37500000  1
  Na  Na31  1  1.00000000  0.66262760  0.87500000  1
  Ta  Ta32  1  -0.00000000  -0.00000000  0.25000000  1
  Ta  Ta33  1  -0.00000000  -0.00000000  0.75000000  1
  Ta  Ta34  1  -0.00000000  0.50000000  0.25000000  1
  Ta  Ta35  1  -0.00000000  0.50000000  0.75000000  1
  Ta  Ta36  1  0.50000000  -0.00000000  0.25000000  1
  Ta  Ta37  1  0.50000000  -0.00000000  0.75000000  1
  Ta  Ta38  1  0.50000000  0.50000000  0.25000000  1
  Ta  Ta39  1  0.50000000  0.50000000  0.75000000  1
  Ta  Ta40  1  0.25000000  0.25000000  0.25000000  1
  Ta  Ta41  1  0.25000000  0.25000000  0.75000000  1
  Ta  Ta42  1  0.25000000  0.75000000  0.25000000  1
  Ta  Ta43  1  0.25000000  0.75000000  0.75000000  1
  Ta  Ta44  1  0.75000000  0.25000000  0.25000000  1
  Ta  Ta45  1  0.75000000  0.25000000  0.75000000  1
  Ta  Ta46  1  0.75000000  0.75000000  0.25000000  1
  Ta  Ta47  1  0.75000000  0.75000000  0.75000000  1
  Ta  Ta48  1  0.00000000  -0.00000000  0.00000000  1
  Ta  Ta49  1  -0.00000000  -0.00000000  0.50000000  1
  Ta  Ta50  1  0.00000000  0.50000000  0.00000000  1
  Ta  Ta51  1  -0.00000000  0.50000000  0.50000000  1
  Ta  Ta52  1  0.50000000  -0.00000000  0.00000000  1
  Ta  Ta53  1  0.50000000  -0.00000000  0.50000000  1
  Ta  Ta54  1  0.50000000  0.50000000  0.00000000  1
  Ta  Ta55  1  0.50000000  0.50000000  0.50000000  1
  Ta  Ta56  1  0.25000000  0.25000000  0.00000000  1
  Ta  Ta57  1  0.25000000  0.25000000  0.50000000  1
  Ta  Ta58  1  0.25000000  0.75000000  0.00000000  1
  Ta  Ta59  1  0.25000000  0.75000000  0.50000000  1
  Ta  Ta60  1  0.75000000  0.25000000  0.00000000  1
  Ta  Ta61  1  0.75000000  0.25000000  0.50000000  1
  Ta  Ta62  1  0.75000000  0.75000000  0.00000000  1
  Ta  Ta63  1  0.75000000  0.75000000  0.50000000  1
  Ge  Ge64  1  0.25000000  0.09193827  0.37500000  1
  Ge  Ge65  1  0.25000000  0.09193827  0.87500000  1
  Ge  Ge66  1  0.25000000  0.59193827  0.37500000  1
  Ge  Ge67  1  0.25000000  0.59193827  0.87500000  1
  Ge  Ge68  1  0.75000000  0.09193827  0.37500000  1
  Ge  Ge69  1  0.75000000  0.09193827  0.87500000  1
  Ge  Ge70  1  0.75000000  0.59193827  0.37500000  1
  Ge  Ge71  1  0.75000000  0.59193827  0.87500000  1
  Ge  Ge72  1  0.50000000  0.34193827  0.37500000  1
  Ge  Ge73  1  0.50000000  0.34193827  0.87500000  1
  Ge  Ge74  1  0.50000000  0.84193827  0.37500000  1
  Ge  Ge75  1  0.50000000  0.84193827  0.87500000  1
  Ge  Ge76  1  1.00000000  0.34193827  0.37500000  1
  Ge  Ge77  1  1.00000000  0.34193827  0.87500000  1
  Ge  Ge78  1  1.00000000  0.84193827  0.37500000  1
  Ge  Ge79  1  1.00000000  0.84193827  0.87500000  1
  Ge  Ge80  1  0.25000000  -0.09193827  0.12500000  1
  Ge  Ge81  1  0.25000000  -0.09193827  0.62500000  1
  Ge  Ge82  1  0.25000000  0.40806173  0.12500000  1
  Ge  Ge83  1  0.25000000  0.40806173  0.62500000  1
  Ge  Ge84  1  0.75000000  -0.09193827  0.12500000  1
  Ge  Ge85  1  0.75000000  -0.09193827  0.62500000  1
  Ge  Ge86  1  0.75000000  0.40806173  0.12500000  1
  Ge  Ge87  1  0.75000000  0.40806173  0.62500000  1
  Ge  Ge88  1  0.50000000  0.15806173  0.12500000  1
  Ge  Ge89  1  0.50000000  0.15806173  0.62500000  1
  Ge  Ge90  1  0.50000000  0.65806173  0.12500000  1
  Ge  Ge91  1  0.50000000  0.65806173  0.62500000  1
  Ge  Ge92  1  1.00000000  0.15806173  0.12500000  1
  Ge  Ge93  1  1.00000000  0.15806173  0.62500000  1
  Ge  Ge94  1  1.00000000  0.65806173  0.12500000  1
  Ge  Ge95  1  1.00000000  0.65806173  0.62500000  1
  O  O96  1  0.25000000  -0.21683696  0.37500000  1
  O  O97  1  0.25000000  -0.21683696  0.87500000  1
  O  O98  1  0.25000000  0.28316304  0.37500000  1
  O  O99  1  0.25000000  0.28316304  0.87500000  1
  O  O100  1  0.75000000  -0.21683696  0.37500000  1
  O  O101  1  0.75000000  -0.21683696  0.87500000  1
  O  O102  1  0.75000000  0.28316304  0.37500000  1
  O  O103  1  0.75000000  0.28316304  0.87500000  1
  O  O104  1  0.50000000  0.03316304  0.37500000  1
  O  O105  1  0.50000000  0.03316304  0.87500000  1
  O  O106  1  0.50000000  0.53316304  0.37500000  1
  O  O107  1  0.50000000  0.53316304  0.87500000  1
  O  O108  1  1.00000000  0.03316304  0.37500000  1
  O  O109  1  1.00000000  0.03316304  0.87500000  1
  O  O110  1  1.00000000  0.53316304  0.37500000  1
  O  O111  1  1.00000000  0.53316304  0.87500000  1
  O  O112  1  0.25000000  0.21683696  0.12500000  1
  O  O113  1  0.25000000  0.21683696  0.62500000  1
  O  O114  1  0.25000000  0.71683696  0.12500000  1
  O  O115  1  0.25000000  0.71683696  0.62500000  1
  O  O116  1  0.75000000  0.21683696  0.12500000  1
  O  O117  1  0.75000000  0.21683696  0.62500000  1
  O  O118  1  0.75000000  0.71683696  0.12500000  1
  O  O119  1  0.75000000  0.71683696  0.62500000  1
  O  O120  1  0.50000000  0.46683696  0.12500000  1
  O  O121  1  0.50000000  0.46683696  0.62500000  1
  O  O122  1  0.50000000  0.96683696  0.12500000  1
  O  O123  1  0.50000000  0.96683696  0.62500000  1
  O  O124  1  1.00000000  0.46683696  0.12500000  1
  O  O125  1  1.00000000  0.46683696  0.62500000  1
  O  O126  1  1.00000000  0.96683696  0.12500000  1
  O  O127  1  1.00000000  0.96683696  0.62500000  1
  O  O128  1  0.19880960  -0.14783757  0.19453427  1
  O  O129  1  0.19880960  -0.14783757  0.69453427  1
  O  O130  1  0.19880960  0.35216243  0.19453427  1
  O  O131  1  0.19880960  0.35216243  0.69453427  1
  O  O132  1  0.69880960  -0.14783757  0.19453427  1
  O  O133  1  0.69880960  -0.14783757  0.69453427  1
  O  O134  1  0.69880960  0.35216243  0.19453427  1
  O  O135  1  0.69880960  0.35216243  0.69453427  1
  O  O136  1  0.44880960  0.10216243  0.19453427  1
  O  O137  1  0.44880960  0.10216243  0.69453427  1
  O  O138  1  0.44880960  0.60216243  0.19453427  1
  O  O139  1  0.44880960  0.60216243  0.69453427  1
  O  O140  1  0.94880960  0.10216243  0.19453427  1
  O  O141  1  0.94880960  0.10216243  0.69453427  1
  O  O142  1  0.94880960  0.60216243  0.19453427  1
  O  O143  1  0.94880960  0.60216243  0.69453427  1
  O  O144  1  0.30119040  -0.14783757  0.05546573  1
  O  O145  1  0.30119040  -0.14783757  0.55546573  1
  O  O146  1  0.30119040  0.35216243  0.05546573  1
  O  O147  1  0.30119040  0.35216243  0.55546573  1
  O  O148  1  0.80119040  -0.14783757  0.05546573  1
  O  O149  1  0.80119040  -0.14783757  0.55546573  1
  O  O150  1  0.80119040  0.35216243  0.05546573  1
  O  O151  1  0.80119040  0.35216243  0.55546573  1
  O  O152  1  0.55119040  0.10216243  0.05546573  1
  O  O153  1  0.55119040  0.10216243  0.55546573  1
  O  O154  1  0.55119040  0.60216243  0.05546573  1
  O  O155  1  0.55119040  0.60216243  0.55546573  1
  O  O156  1  1.05119040  0.10216243  0.05546573  1
  O  O157  1  1.05119040  0.10216243  0.55546573  1
  O  O158  1  1.05119040  0.60216243  0.05546573  1
  O  O159  1  1.05119040  0.60216243  0.55546573  1
  O  O160  1  0.30119040  0.14783757  0.30546573  1
  O  O161  1  0.30119040  0.14783757  0.80546573  1
  O  O162  1  0.30119040  0.64783757  0.30546573  1
  O  O163  1  0.30119040  0.64783757  0.80546573  1
  O  O164  1  0.80119040  0.14783757  0.30546573  1
  O  O165  1  0.80119040  0.14783757  0.80546573  1
  O  O166  1  0.80119040  0.64783757  0.30546573  1
  O  O167  1  0.80119040  0.64783757  0.80546573  1
  O  O168  1  0.55119040  0.39783757  0.30546573  1
  O  O169  1  0.55119040  0.39783757  0.80546573  1
  O  O170  1  0.55119040  0.89783757  0.30546573  1
  O  O171  1  0.55119040  0.89783757  0.80546573  1
  O  O172  1  1.05119040  0.39783757  0.30546573  1
  O  O173  1  1.05119040  0.39783757  0.80546573  1
  O  O174  1  1.05119040  0.89783757  0.30546573  1
  O  O175  1  1.05119040  0.89783757  0.80546573  1
  O  O176  1  0.19880960  0.14783757  0.44453427  1
  O  O177  1  0.19880960  0.14783757  0.94453427  1
  O  O178  1  0.19880960  0.64783757  0.44453427  1
  O  O179  1  0.19880960  0.64783757  0.94453427  1
  O  O180  1  0.69880960  0.14783757  0.44453427  1
  O  O181  1  0.69880960  0.14783757  0.94453427  1
  O  O182  1  0.69880960  0.64783757  0.44453427  1
  O  O183  1  0.69880960  0.64783757  0.94453427  1
  O  O184  1  0.44880960  0.39783757  0.44453427  1
  O  O185  1  0.44880960  0.39783757  0.94453427  1
  O  O186  1  0.44880960  0.89783757  0.44453427  1
  O  O187  1  0.44880960  0.89783757  0.94453427  1
  O  O188  1  0.94880960  0.39783757  0.44453427  1
  O  O189  1  0.94880960  0.39783757  0.94453427  1
  O  O190  1  0.94880960  0.89783757  0.44453427  1
  O  O191  1  0.94880960  0.89783757  0.94453427  1
  O  O192  1  0.15192178  0.03026400  0.29250277  1
  O  O193  1  0.15192178  0.03026400  0.79250277  1
  O  O194  1  0.15192178  0.53026400  0.29250277  1
  O  O195  1  0.15192178  0.53026400  0.79250277  1
  O  O196  1  0.65192178  0.03026400  0.29250277  1
  O  O197  1  0.65192178  0.03026400  0.79250277  1
  O  O198  1  0.65192178  0.53026400  0.29250277  1
  O  O199  1  0.65192178  0.53026400  0.79250277  1
  O  O200  1  0.40192178  0.28026400  0.29250277  1
  O  O201  1  0.40192178  0.28026400  0.79250277  1
  O  O202  1  0.40192178  0.78026400  0.29250277  1
  O  O203  1  0.40192178  0.78026400  0.79250277  1
  O  O204  1  0.90192178  0.28026400  0.29250277  1
  O  O205  1  0.90192178  0.28026400  0.79250277  1
  O  O206  1  0.90192178  0.78026400  0.29250277  1
  O  O207  1  0.90192178  0.78026400  0.79250277  1
  O  O208  1  0.34807822  0.03026400  0.45749723  1
  O  O209  1  0.34807822  0.03026400  0.95749723  1
  O  O210  1  0.34807822  0.53026400  0.45749723  1
  O  O211  1  0.34807822  0.53026400  0.95749723  1
  O  O212  1  0.84807822  0.03026400  0.45749723  1
  O  O213  1  0.84807822  0.03026400  0.95749723  1
  O  O214  1  0.84807822  0.53026400  0.45749723  1
  O  O215  1  0.84807822  0.53026400  0.95749723  1
  O  O216  1  0.59807822  0.28026400  0.45749723  1
  O  O217  1  0.59807822  0.28026400  0.95749723  1
  O  O218  1  0.59807822  0.78026400  0.45749723  1
  O  O219  1  0.59807822  0.78026400  0.95749723  1
  O  O220  1  1.09807822  0.28026400  0.45749723  1
  O  O221  1  1.09807822  0.28026400  0.95749723  1
  O  O222  1  1.09807822  0.78026400  0.45749723  1
  O  O223  1  1.09807822  0.78026400  0.95749723  1
  O  O224  1  0.34807822  -0.03026400  0.20749723  1
  O  O225  1  0.34807822  -0.03026400  0.70749723  1
  O  O226  1  0.34807822  0.46973600  0.20749723  1
  O  O227  1  0.34807822  0.46973600  0.70749723  1
  O  O228  1  0.84807822  -0.03026400  0.20749723  1
  O  O229  1  0.84807822  -0.03026400  0.70749723  1
  O  O230  1  0.84807822  0.46973600  0.20749723  1
  O  O231  1  0.84807822  0.46973600  0.70749723  1
  O  O232  1  0.59807822  0.21973600  0.20749723  1
  O  O233  1  0.59807822  0.21973600  0.70749723  1
  O  O234  1  0.59807822  0.71973600  0.20749723  1
  O  O235  1  0.59807822  0.71973600  0.70749723  1
  O  O236  1  1.09807822  0.21973600  0.20749723  1
  O  O237  1  1.09807822  0.21973600  0.70749723  1
  O  O238  1  1.09807822  0.71973600  0.20749723  1
  O  O239  1  1.09807822  0.71973600  0.70749723  1
  O  O240  1  0.15192178  -0.03026400  0.04250277  1
  O  O241  1  0.15192178  -0.03026400  0.54250277  1
  O  O242  1  0.15192178  0.46973600  0.04250277  1
  O  O243  1  0.15192178  0.46973600  0.54250277  1
  O  O244  1  0.65192178  -0.03026400  0.04250277  1
  O  O245  1  0.65192178  -0.03026400  0.54250277  1
  O  O246  1  0.65192178  0.46973600  0.04250277  1
  O  O247  1  0.65192178  0.46973600  0.54250277  1
  O  O248  1  0.40192178  0.21973600  0.04250277  1
  O  O249  1  0.40192178  0.21973600  0.54250277  1
  O  O250  1  0.40192178  0.71973600  0.04250277  1
  O  O251  1  0.40192178  0.71973600  0.54250277  1
  O  O252  1  0.90192178  0.21973600  0.04250277  1
  O  O253  1  0.90192178  0.21973600  0.54250277  1
  O  O254  1  0.90192178  0.71973600  0.04250277  1
  O  O255  1  0.90192178  0.71973600  0.54250277  1
