# generated using pymatgen
data_Na2WO4
_symmetry_space_group_name_H-M   'P 1'
_cell_length_a   18.07923903
_cell_length_b   18.07923903
_cell_length_c   18.07923903
_cell_angle_alpha   90.00000000
_cell_angle_beta   90.00000000
_cell_angle_gamma   90.00000000
_symmetry_Int_Tables_number   1
_chemical_formula_structural   Na2WO4
_chemical_formula_sum   'Na128 W64 O256'
_cell_volume   5909.35989370
_cell_formula_units_Z   64
loop_
 _symmetry_equiv_pos_site_id
 _symmetry_equiv_pos_as_xyz
  1  'x, y, z'
loop_
 _atom_site_type_symbol
 _atom_site_label
 _atom_site_symmetry_multiplicity
 _atom_site_fract_x
 _atom_site_fract_y
 _atom_site_fract_z
 _atom_site_occupancy
  Na  Na0  1  0.06250000  0.06250000  0.06250000  1
  Na  Na1  1  0.06250000  0.06250000  0.56250000  1
  Na  Na2  1  0.06250000  0.56250000  0.06250000  1
  Na  Na3  1  0.06250000  0.56250000  0.56250000  1
  Na  Na4  1  0.56250000  0.06250000  0.06250000  1
  Na  Na5  1  0.56250000  0.06250000  0.56250000  1
  Na  Na6  1  0.56250000  0.56250000  0.06250000  1
  Na  Na7  1  0.56250000  0.56250000  0.56250000  1
  Na  Na8  1  0.31250000  0.31250000  0.06250000  1
  Na  Na9  1  0.31250000  0.31250000  0.56250000  1
  Na  Na10  1  0.31250000  0.81250000  0.06250000  1
  Na  Na11  1  0.31250000  0.81250000  0.56250000  1
  Na  Na12  1  0.81250000  0.31250000  0.06250000  1
  Na  Na13  1  0.81250000  0.31250000  0.56250000  1
  Na  Na14  1  0.81250000  0.81250000  0.06250000  1
  Na  Na15  1  0.81250000  0.81250000  0.56250000  1
  Na  Na16  1  0.31250000  0.06250000  0.31250000  1
  Na  Na17  1  0.31250000  0.06250000  0.81250000  1
  Na  Na18  1  0.31250000  0.56250000  0.31250000  1
  Na  Na19  1  0.31250000  0.56250000  0.81250000  1
  Na  Na20  1  0.81250000  0.06250000  0.31250000  1
  Na  Na21  1  0.81250000  0.06250000  0.81250000  1
  Na  Na22  1  0.81250000  0.56250000  0.31250000  1
  Na  Na23  1  0.81250000  0.56250000  0.81250000  1
  Na  Na24  1  0.06250000  0.31250000  0.31250000  1
  Na  Na25  1  0.06250000  0.31250000  0.81250000  1
  Na  Na26  1  0.06250000  0.81250000  0.31250000  1
  Na  Na27  1  0.06250000  0.81250000  0.81250000  1
  Na  Na28  1  0.56250000  0.31250000  0.31250000  1
  Na  Na29  1  0.56250000  0.31250000  0.81250000  1
  Na  Na30  1  0.56250000  0.81250000  0.31250000  1
  Na  Na31  1  0.56250000  0.81250000  0.81250000  1
  Na  Na32  1  0.06250000  0.18750000  0.18750000  1
  Na  Na33  1  0.06250000  0.18750000  0.68750000  1
  Na  Na34  1  0.06250000  0.68750000  0.18750000  1
  Na  Na35  1  0.06250000  0.68750000  0.68750000  1
  Na  Na36  1  0.56250000  0.18750000  0.18750000  1
  Na  Na37  1  0.56250000  0.18750000  0.68750000  1
  Na  Na38  1  0.56250000  0.68750000  0.18750000  1
  Na  Na39  1  0.56250000  0.68750000  0.68750000  1
  Na  Na40  1  0.31250000  0.43750000  0.18750000  1
  Na  Na41  1  0.31250000  0.43750000  0.68750000  1
  Na  Na42  1  0.31250000  0.93750000  0.18750000  1
  Na  Na43  1  0.31250000  0.93750000  0.68750000  1
  Na  Na44  1  0.81250000  0.43750000  0.18750000  1
  Na  Na45  1  0.81250000  0.43750000  0.68750000  1
  Na  Na46  1  0.81250000  0.93750000  0.18750000  1
  Na  Na47  1  0.81250000  0.93750000  0.68750000  1
  Na  Na48  1  0.31250000  0.18750000  0.43750000  1
  Na  Na49  1  0.31250000  0.18750000  0.93750000  1
  Na  Na50  1  0.31250000  0.68750000  0.43750000  1
  Na  Na51  1  0.31250000  0.68750000  0.93750000  1
  Na  Na52  1  0.81250000  0.18750000  0.43750000  1
  Na  Na53  1  0.81250000  0.18750000  0.93750000  1
  Na  Na54  1  0.81250000  0.68750000  0.43750000  1
  Na  Na55  1  0.81250000  0.68750000  0.93750000  1
  Na  Na56  1  0.06250000  0.43750000  0.43750000  1
  Na  Na57  1  0.06250000  0.43750000  0.93750000  1
  Na  Na58  1  0.06250000  0.93750000  0.43750000  1
  Na  Na59  1  0.06250000  0.93750000  0.93750000  1
  Na  Na60  1  0.56250000  0.43750000  0.43750000  1
  Na  Na61  1  0.56250000  0.43750000  0.93750000  1
  Na  Na62  1  0.56250000  0.93750000  0.43750000  1
  Na  Na63  1  0.56250000  0.93750000  0.93750000  1
  Na  Na64  1  0.18750000  0.18750000  0.06250000  1
  Na  Na65  1  0.18750000  0.18750000  0.56250000  1
  Na  Na66  1  0.18750000  0.68750000  0.06250000  1
  Na  Na67  1  0.18750000  0.68750000  0.56250000  1
  Na  Na68  1  0.68750000  0.18750000  0.06250000  1
  Na  Na69  1  0.68750000  0.18750000  0.56250000  1
  Na  Na70  1  0.68750000  0.68750000  0.06250000  1
  Na  Na71  1  0.68750000  0.68750000  0.56250000  1
  Na  Na72  1  0.43750000  0.43750000  0.06250000  1
  Na  Na73  1  0.43750000  0.43750000  0.56250000  1
  Na  Na74  1  0.43750000  0.93750000  0.06250000  1
  Na  Na75  1  0.43750000  0.93750000  0.56250000  1
  Na  Na76  1  0.93750000  0.43750000  0.06250000  1
  Na  Na77  1  0.93750000  0.43750000  0.56250000  1
  Na  Na78  1  0.93750000  0.93750000  0.06250000  1
  Na  Na79  1  0.93750000  0.93750000  0.56250000  1
  Na  Na80  1  0.43750000  0.18750000  0.31250000  1
  Na  Na81  1  0.43750000  0.18750000  0.81250000  1
  Na  Na82  1  0.43750000  0.68750000  0.31250000  1
  Na  Na83  1  0.43750000  0.68750000  0.81250000  1
  Na  Na84  1  0.93750000  0.18750000  0.31250000  1
  Na  Na85  1  0.93750000  0.18750000  0.81250000  1
  Na  Na86  1  0.93750000  0.68750000  0.31250000  1
  Na  Na87  1  0.93750000  0.68750000  0.81250000  1
  Na  Na88  1  0.18750000  0.43750000  0.31250000  1
  Na  Na89  1  0.18750000  0.43750000  0.81250000  1
  Na  Na90  1  0.18750000  0.93750000  0.31250000  1
  Na  Na91  1  0.18750000  0.93750000  0.81250000  1
  Na  Na92  1  0.68750000  0.43750000  0.31250000  1
  Na  Na93  1  0.68750000  0.43750000  0.81250000  1
  Na  Na94  1  0.68750000  0.93750000  0.31250000  1
  Na  Na95  1  0.68750000  0.93750000  0.81250000  1
  Na  Na96  1  0.18750000  0.06250000  0.18750000  1
  Na  Na97  1  0.18750000  0.06250000  0.68750000  1
  Na  Na98  1  0.18750000  0.56250000  0.18750000  1
  Na  Na99  1  0.18750000  0.56250000  0.68750000  1
  Na  Na100  1  0.68750000  0.06250000  0.18750000  1
  Na  Na101  1  0.68750000  0.06250000  0.68750000  1
  Na  Na102  1  0.68750000  0.56250000  0.18750000  1
  Na  Na103  1  0.68750000  0.56250000  0.68750000  1
  Na  Na104  1  0.43750000  0.31250000  0.18750000  1
  Na  Na105  1  0.43750000  0.31250000  0.68750000  1
  Na  Na106  1  0.43750000  0.81250000  0.18750000  1
  Na  Na107  1  0.43750000  0.81250000  0.68750000  1
  Na  Na108  1  0.93750000  0.31250000  0.18750000  1
  Na  Na109  1  0.93750000  0.31250000  0.68750000  1
  Na  Na110  1  0.93750000  0.81250000  0.18750000  1
  Na  Na111  1  0.93750000  0.81250000  0.68750000  1
  Na  Na112  1  0.43750000  0.06250000  0.43750000  1
  Na  Na113  1  0.43750000  0.06250000  0.93750000  1
  Na  Na114  1  0.43750000  0.56250000  0.43750000  1
  Na  Na115  1  0.43750000  0.56250000  0.93750000  1
  Na  Na116  1  0.93750000  0.06250000  0.43750000  1
  Na  Na117  1  0.93750000  0.06250000  0.93750000  1
  Na  Na118  1  0.93750000  0.56250000  0.43750000  1
  Na  Na119  1  0.93750000  0.56250000  0.93750000  1
  Na  Na120  1  0.18750000  0.31250000  0.43750000  1
  Na  Na121  1  0.18750000  0.31250000  0.93750000  1
  Na  Na122  1  0.18750000  0.81250000  0.43750000  1
  Na  Na123  1  0.18750000  0.81250000  0.93750000  1
  Na  Na124  1  0.68750000  0.31250000  0.43750000  1
  Na  Na125  1  0.68750000  0.31250000  0.93750000  1
  Na  Na126  1  0.68750000  0.81250000  0.43750000  1
  Na  Na127  1  0.68750000  0.81250000  0.93750000  1
  W  W128  1  0.25000000  0.25000000  0.25000000  1
  W  W129  1  0.25000000  0.25000000  0.75000000  1
  W  W130  1  0.25000000  0.75000000  0.25000000  1
  W  W131  1  0.25000000  0.75000000  0.75000000  1
  W  W132  1  0.75000000  0.25000000  0.25000000  1
  W  W133  1  0.75000000  0.25000000  0.75000000  1
  W  W134  1  0.75000000  0.75000000  0.25000000  1
  W  W135  1  0.75000000  0.75000000  0.75000000  1
  W  W136  1  0.50000000  0.50000000  0.25000000  1
  W  W137  1  0.50000000  0.50000000  0.75000000  1
  W  W138  1  0.50000000  1.00000000  0.25000000  1
  W  W139  1  0.50000000  1.00000000  0.75000000  1
  W  W140  1  1.00000000  0.50000000  0.25000000  1
  W  W141  1  1.00000000  0.50000000  0.75000000  1
  W  W142  1  1.00000000  1.00000000  0.25000000  1
  W  W143  1  1.00000000  1.00000000  0.75000000  1
  W  W144  1  0.50000000  0.25000000  0.50000000  1
  W  W145  1  0.50000000  0.25000000  1.00000000  1
  W  W146  1  0.50000000  0.75000000  0.50000000  1
  W  W147  1  0.50000000  0.75000000  1.00000000  1
  W  W148  1  1.00000000  0.25000000  0.50000000  1
  W  W149  1  1.00000000  0.25000000  1.00000000  1
  W  W150  1  1.00000000  0.75000000  0.50000000  1
  W  W151  1  1.00000000  0.75000000  1.00000000  1
  W  W152  1  0.25000000  0.50000000  0.50000000  1
  W  W153  1  0.25000000  0.50000000  1.00000000  1
  W  W154  1  0.25000000  1.00000000  0.50000000  1
  W  W155  1  0.25000000  1.00000000  1.00000000  1
  W  W156  1  0.75000000  0.50000000  0.50000000  1
  W  W157  1  0.75000000  0.50000000  1.00000000  1
  W  W158  1  0.75000000  1.00000000  0.50000000  1
  W  W159  1  0.75000000  1.00000000  1.00000000  1
  W  W160  1  0.37500000  0.37500000  0.37500000  1
  W  W161  1  0.37500000  0.37500000  0.87500000  1
  W  W162  1  0.37500000  0.87500000  0.37500000  1
  W  W163  1  0.37500000  0.87500000  0.87500000  1
  W  W164  1  0.87500000  0.37500000  0.37500000  1
  W  W165  1  0.87500000  0.37500000  0.87500000  1
  W  W166  1  0.87500000  0.87500000  0.37500000  1
  W  W167  1  0.87500000  0.87500000  0.87500000  1
  W  W168  1  0.62500000  0.62500000  0.37500000  1
  W  W169  1  0.62500000  0.62500000  0.87500000  1
  W  W170  1  0.62500000  1.12500000  0.37500000  1
  W  W171  1  0.62500000  1.12500000  0.87500000  1
  W  W172  1  1.12500000  0.62500000  0.37500000  1
  W  W173  1  1.12500000  0.62500000  0.87500000  1
  W  W174  1  1.12500000  1.12500000  0.37500000  1
  W  W175  1  1.12500000  1.12500000  0.87500000  1
  W  W176  1  0.62500000  0.37500000  0.62500000  1
  W  W177  1  0.62500000  0.37500000  1.12500000  1
  W  W178  1  0.62500000  0.87500000  0.62500000  1
  W  W179  1  0.62500000  0.87500000  1.12500000  1
  W  W180  1  1.12500000  0.37500000  0.62500000  1
  W  W181  1  1.12500000  0.37500000  1.12500000  1
  W  W182  1  1.12500000  0.87500000  0.62500000  1
  W  W183  1  1.12500000  0.87500000  1.12500000  1
  W  W184  1  0.37500000  0.62500000  0.62500000  1
  W  W185  1  0.37500000  0.62500000  1.12500000  1
  W  W186  1  0.37500000  1.12500000  0.62500000  1
  W  W187  1  0.37500000  1.12500000  1.12500000  1
  W  W188  1  0.87500000  0.62500000  0.62500000  1
  W  W189  1  0.87500000  0.62500000  1.12500000  1
  W  W190  1  0.87500000  1.12500000  0.62500000  1
  W  W191  1  0.87500000  1.12500000  1.12500000  1
  O  O192  1  0.31762763  0.43237237  0.31762763  1
  O  O193  1  0.31762763  0.43237237  0.81762763  1
  O  O194  1  0.31762763  0.93237237  0.31762763  1
  O  O195  1  0.31762763  0.93237237  0.81762763  1
  O  O196  1  0.81762763  0.43237237  0.31762763  1
  O  O197  1  0.81762763  0.43237237  0.81762763  1
  O  O198  1  0.81762763  0.93237237  0.31762763  1
  O  O199  1  0.81762763  0.93237237  0.81762763  1
  O  O200  1  0.56762763  0.68237237  0.31762763  1
  O  O201  1  0.56762763  0.68237237  0.81762763  1
  O  O202  1  0.56762763  1.18237237  0.31762763  1
  O  O203  1  0.56762763  1.18237237  0.81762763  1
  O  O204  1  1.06762763  0.68237237  0.31762763  1
  O  O205  1  1.06762763  0.68237237  0.81762763  1
  O  O206  1  1.06762763  1.18237237  0.31762763  1
  O  O207  1  1.06762763  1.18237237  0.81762763  1
  O  O208  1  0.56762763  0.43237237  0.56762763  1
  O  O209  1  0.56762763  0.43237237  1.06762763  1
  O  O210  1  0.56762763  0.93237237  0.56762763  1
  O  O211  1  0.56762763  0.93237237  1.06762763  1
  O  O212  1  1.06762763  0.43237237  0.56762763  1
  O  O213  1  1.06762763  0.43237237  1.06762763  1
  O  O214  1  1.06762763  0.93237237  0.56762763  1
  O  O215  1  1.06762763  0.93237237  1.06762763  1
  O  O216  1  0.31762763  0.68237237  0.56762763  1
  O  O217  1  0.31762763  0.68237237  1.06762763  1
  O  O218  1  0.31762763  1.18237237  0.56762763  1
  O  O219  1  0.31762763  1.18237237  1.06762763  1
  O  O220  1  0.81762763  0.68237237  0.56762763  1
  O  O221  1  0.81762763  0.68237237  1.06762763  1
  O  O222  1  0.81762763  1.18237237  0.56762763  1
  O  O223  1  0.81762763  1.18237237  1.06762763  1
  O  O224  1  0.30737237  0.30737237  0.19262763  1
  O  O225  1  0.30737237  0.30737237  0.69262763  1
  O  O226  1  0.30737237  0.80737237  0.19262763  1
  O  O227  1  0.30737237  0.80737237  0.69262763  1
  O  O228  1  0.80737237  0.30737237  0.19262763  1
  O  O229  1  0.80737237  0.30737237  0.69262763  1
  O  O230  1  0.80737237  0.80737237  0.19262763  1
  O  O231  1  0.80737237  0.80737237  0.69262763  1
  O  O232  1  0.55737237  0.55737237  0.19262763  1
  O  O233  1  0.55737237  0.55737237  0.69262763  1
  O  O234  1  0.55737237  1.05737237  0.19262763  1
  O  O235  1  0.55737237  1.05737237  0.69262763  1
  O  O236  1  1.05737237  0.55737237  0.19262763  1
  O  O237  1  1.05737237  0.55737237  0.69262763  1
  O  O238  1  1.05737237  1.05737237  0.19262763  1
  O  O239  1  1.05737237  1.05737237  0.69262763  1
  O  O240  1  0.55737237  0.30737237  0.44262763  1
  O  O241  1  0.55737237  0.30737237  0.94262763  1
  O  O242  1  0.55737237  0.80737237  0.44262763  1
  O  O243  1  0.55737237  0.80737237  0.94262763  1
  O  O244  1  1.05737237  0.30737237  0.44262763  1
  O  O245  1  1.05737237  0.30737237  0.94262763  1
  O  O246  1  1.05737237  0.80737237  0.44262763  1
  O  O247  1  1.05737237  0.80737237  0.94262763  1
  O  O248  1  0.30737237  0.55737237  0.44262763  1
  O  O249  1  0.30737237  0.55737237  0.94262763  1
  O  O250  1  0.30737237  1.05737237  0.44262763  1
  O  O251  1  0.30737237  1.05737237  0.94262763  1
  O  O252  1  0.80737237  0.55737237  0.44262763  1
  O  O253  1  0.80737237  0.55737237  0.94262763  1
  O  O254  1  0.80737237  1.05737237  0.44262763  1
  O  O255  1  0.80737237  1.05737237  0.94262763  1
  O  O256  1  0.19262763  0.19262763  0.19262763  1
  O  O257  1  0.19262763  0.19262763  0.69262763  1
  O  O258  1  0.19262763  0.69262763  0.19262763  1
  O  O259  1  0.19262763  0.69262763  0.69262763  1
  O  O260  1  0.69262763  0.19262763  0.19262763  1
  O  O261  1  0.69262763  0.19262763  0.69262763  1
  O  O262  1  0.69262763  0.69262763  0.19262763  1
  O  O263  1  0.69262763  0.69262763  0.69262763  1
  O  O264  1  0.44262763  0.44262763  0.19262763  1
  O  O265  1  0.44262763  0.44262763  0.69262763  1
  O  O266  1  0.44262763  0.94262763  0.19262763  1
  O  O267  1  0.44262763  0.94262763  0.69262763  1
  O  O268  1  0.94262763  0.44262763  0.19262763  1
  O  O269  1  0.94262763  0.44262763  0.69262763  1
  O  O270  1  0.94262763  0.94262763  0.19262763  1
  O  O271  1  0.94262763  0.94262763  0.69262763  1
  O  O272  1  0.44262763  0.19262763  0.44262763  1
  O  O273  1  0.44262763  0.19262763  0.94262763  1
  O  O274  1  0.44262763  0.69262763  0.44262763  1
  O  O275  1  0.44262763  0.69262763  0.94262763  1
  O  O276  1  0.94262763  0.19262763  0.44262763  1
  O  O277  1  0.94262763  0.19262763  0.94262763  1
  O  O278  1  0.94262763  0.69262763  0.44262763  1
  O  O279  1  0.94262763  0.69262763  0.94262763  1
  O  O280  1  0.19262763  0.44262763  0.44262763  1
  O  O281  1  0.19262763  0.44262763  0.94262763  1
  O  O282  1  0.19262763  0.94262763  0.44262763  1
  O  O283  1  0.19262763  0.94262763  0.94262763  1
  O  O284  1  0.69262763  0.44262763  0.44262763  1
  O  O285  1  0.69262763  0.44262763  0.94262763  1
  O  O286  1  0.69262763  0.94262763  0.44262763  1
  O  O287  1  0.69262763  0.94262763  0.94262763  1
  O  O288  1  0.19262763  0.30737237  0.30737237  1
  O  O289  1  0.19262763  0.30737237  0.80737237  1
  O  O290  1  0.19262763  0.80737237  0.30737237  1
  O  O291  1  0.19262763  0.80737237  0.80737237  1
  O  O292  1  0.69262763  0.30737237  0.30737237  1
  O  O293  1  0.69262763  0.30737237  0.80737237  1
  O  O294  1  0.69262763  0.80737237  0.30737237  1
  O  O295  1  0.69262763  0.80737237  0.80737237  1
  O  O296  1  0.44262763  0.55737237  0.30737237  1
  O  O297  1  0.44262763  0.55737237  0.80737237  1
  O  O298  1  0.44262763  1.05737237  0.30737237  1
  O  O299  1  0.44262763  1.05737237  0.80737237  1
  O  O300  1  0.94262763  0.55737237  0.30737237  1
  O  O301  1  0.94262763  0.55737237  0.80737237  1
  O  O302  1  0.94262763  1.05737237  0.30737237  1
  O  O303  1  0.94262763  1.05737237  0.80737237  1
  O  O304  1  0.44262763  0.30737237  0.55737237  1
  O  O305  1  0.44262763  0.30737237  1.05737237  1
  O  O306  1  0.44262763  0.80737237  0.55737237  1
  O  O307  1  0.44262763  0.80737237  1.05737237  1
  O  O308  1  0.94262763  0.30737237  0.55737237  1
  O  O309  1  0.94262763  0.30737237  1.05737237  1
  O  O310  1  0.94262763  0.80737237  0.55737237  1
  O  O311  1  0.94262763  0.80737237  1.05737237  1
  O  O312  1  0.19262763  0.55737237  0.55737237  1
  O  O313  1  0.19262763  0.55737237  1.05737237  1
  O  O314  1  0.19262763  1.05737237  0.55737237  1
  O  O315  1  0.19262763  1.05737237  1.05737237  1
  O  O316  1  0.69262763  0.55737237  0.55737237  1
  O  O317  1  0.69262763  0.55737237  1.05737237  1
  O  O318  1  0.69262763  1.05737237  0.55737237  1
  O  O319  1  0.69262763  1.05737237  1.05737237  1
  O  O320  1  0.43237237  0.43237237  0.43237237  1
  O  O321  1  0.43237237  0.43237237  0.93237237  1
  O  O322  1  0.43237237  0.93237237  0.43237237  1
  O  O323  1  0.43237237  0.93237237  0.93237237  1
  O  O324  1  0.93237237  0.43237237  0.43237237  1
  O  O325  1  0.93237237  0.43237237  0.93237237  1
  O  O326  1  0.93237237  0.93237237  0.43237237  1
  O  O327  1  0.93237237  0.93237237  0.93237237  1
  O  O328  1  0.68237237  0.68237237  0.43237237  1
  O  O329  1  0.68237237  0.68237237  0.93237237  1
  O  O330  1  0.68237237  1.18237237  0.43237237  1
  O  O331  1  0.68237237  1.18237237  0.93237237  1
  O  O332  1  1.18237237  0.68237237  0.43237237  1
  O  O333  1  1.18237237  0.68237237  0.93237237  1
  O  O334  1  1.18237237  1.18237237  0.43237237  1
  O  O335  1  1.18237237  1.18237237  0.93237237  1
  O  O336  1  0.68237237  0.43237237  0.68237237  1
  O  O337  1  0.68237237  0.43237237  1.18237237  1
  O  O338  1  0.68237237  0.93237237  0.68237237  1
  O  O339  1  0.68237237  0.93237237  1.18237237  1
  O  O340  1  1.18237237  0.43237237  0.68237237  1
  O  O341  1  1.18237237  0.43237237  1.18237237  1
  O  O342  1  1.18237237  0.93237237  0.68237237  1
  O  O343  1  1.18237237  0.93237237  1.18237237  1
  O  O344  1  0.43237237  0.68237237  0.68237237  1
  O  O345  1  0.43237237  0.68237237  1.18237237  1
  O  O346  1  0.43237237  1.18237237  0.68237237  1
  O  O347  1  0.43237237  1.18237237  1.18237237  1
  O  O348  1  0.93237237  0.68237237  0.68237237  1
  O  O349  1  0.93237237  0.68237237  1.18237237  1
  O  O350  1  0.93237237  1.18237237  0.68237237  1
  O  O351  1  0.93237237  1.18237237  1.18237237  1
  O  O352  1  0.43237237  0.31762763  0.31762763  1
  O  O353  1  0.43237237  0.31762763  0.81762763  1
  O  O354  1  0.43237237  0.81762763  0.31762763  1
  O  O355  1  0.43237237  0.81762763  0.81762763  1
  O  O356  1  0.93237237  0.31762763  0.31762763  1
  O  O357  1  0.93237237  0.31762763  0.81762763  1
  O  O358  1  0.93237237  0.81762763  0.31762763  1
  O  O359  1  0.93237237  0.81762763  0.81762763  1
  O  O360  1  0.68237237  0.56762763  0.31762763  1
  O  O361  1  0.68237237  0.56762763  0.81762763  1
  O  O362  1  0.68237237  1.06762763  0.31762763  1
  O  O363  1  0.68237237  1.06762763  0.81762763  1
  O  O364  1  1.18237237  0.56762763  0.31762763  1
  O  O365  1  1.18237237  0.56762763  0.81762763  1
  O  O366  1  1.18237237  1.06762763  0.31762763  1
  O  O367  1  1.18237237  1.06762763  0.81762763  1
  O  O368  1  0.68237237  0.31762763  0.56762763  1
  O  O369  1  0.68237237  0.31762763  1.06762763  1
  O  O370  1  0.68237237  0.81762763  0.56762763  1
  O  O371  1  0.68237237  0.81762763  1.06762763  1
  O  O372  1  1.18237237  0.31762763  0.56762763  1
  O  O373  1  1.18237237  0.31762763  1.06762763  1
  O  O374  1  1.18237237  0.81762763  0.56762763  1
  O  O375  1  1.18237237  0.81762763  1.06762763  1
  O  O376  1  0.43237237  0.56762763  0.56762763  1
  O  O377  1  0.43237237  0.56762763  1.06762763  1
  O  O378  1  0.43237237  1.06762763  0.56762763  1
  O  O379  1  0.43237237  1.06762763  1.06762763  1
  O  O380  1  0.93237237  0.56762763  0.56762763  1
  O  O381  1  0.93237237  0.56762763  1.06762763  1
  O  O382  1  0.93237237  1.06762763  0.56762763  1
  O  O383  1  0.93237237  1.06762763  1.06762763  1
  O  O384  1  0.30737237  0.19262763  0.30737237  1
  O  O385  1  0.30737237  0.19262763  0.80737237  1
  O  O386  1  0.30737237  0.69262763  0.30737237  1
  O  O387  1  0.30737237  0.69262763  0.80737237  1
  O  O388  1  0.80737237  0.19262763  0.30737237  1
  O  O389  1  0.80737237  0.19262763  0.80737237  1
  O  O390  1  0.80737237  0.69262763  0.30737237  1
  O  O391  1  0.80737237  0.69262763  0.80737237  1
  O  O392  1  0.55737237  0.44262763  0.30737237  1
  O  O393  1  0.55737237  0.44262763  0.80737237  1
  O  O394  1  0.55737237  0.94262763  0.30737237  1
  O  O395  1  0.55737237  0.94262763  0.80737237  1
  O  O396  1  1.05737237  0.44262763  0.30737237  1
  O  O397  1  1.05737237  0.44262763  0.80737237  1
  O  O398  1  1.05737237  0.94262763  0.30737237  1
  O  O399  1  1.05737237  0.94262763  0.80737237  1
  O  O400  1  0.55737237  0.19262763  0.55737237  1
  O  O401  1  0.55737237  0.19262763  1.05737237  1
  O  O402  1  0.55737237  0.69262763  0.55737237  1
  O  O403  1  0.55737237  0.69262763  1.05737237  1
  O  O404  1  1.05737237  0.19262763  0.55737237  1
  O  O405  1  1.05737237  0.19262763  1.05737237  1
  O  O406  1  1.05737237  0.69262763  0.55737237  1
  O  O407  1  1.05737237  0.69262763  1.05737237  1
  O  O408  1  0.30737237  0.44262763  0.55737237  1
  O  O409  1  0.30737237  0.44262763  1.05737237  1
  O  O410  1  0.30737237  0.94262763  0.55737237  1
  O  O411  1  0.30737237  0.94262763  1.05737237  1
  O  O412  1  0.80737237  0.44262763  0.55737237  1
  O  O413  1  0.80737237  0.44262763  1.05737237  1
  O  O414  1  0.80737237  0.94262763  0.55737237  1
  O  O415  1  0.80737237  0.94262763  1.05737237  1
  O  O416  1  0.31762763  0.31762763  0.43237237  1
  O  O417  1  0.31762763  0.31762763  0.93237237  1
  O  O418  1  0.31762763  0.81762763  0.43237237  1
  O  O419  1  0.31762763  0.81762763  0.93237237  1
  O  O420  1  0.81762763  0.31762763  0.43237237  1
  O  O421  1  0.81762763  0.31762763  0.93237237  1
  O  O422  1  0.81762763  0.81762763  0.43237237  1
  O  O423  1  0.81762763  0.81762763  0.93237237  1
  O  O424  1  0.56762763  0.56762763  0.43237237  1
  O  O425  1  0.56762763  0.56762763  0.93237237  1
  O  O426  1  0.56762763  1.06762763  0.43237237  1
  O  O427  1  0.56762763  1.06762763  0.93237237  1
  O  O428  1  1.06762763  0.56762763  0.43237237  1
  O  O429  1  1.06762763  0.56762763  0.93237237  1
  O  O430  1  1.06762763  1.06762763  0.43237237  1
  O  O431  1  1.06762763  1.06762763  0.93237237  1
  O  O432  1  0.56762763  0.31762763  0.68237237  1
  O  O433  1  0.56762763  0.31762763  1.18237237  1
  O  O434  1  0.56762763  0.81762763  0.68237237  1
  O  O435  1  0.56762763  0.81762763  1.18237237  1
  O  O436  1  1.06762763  0.31762763  0.68237237  1
  O  O437  1  1.06762763  0.31762763  1.18237237  1
  O  O438  1  1.06762763  0.81762763  0.68237237  1
  O  O439  1  1.06762763  0.81762763  1.18237237  1
  O  O440  1  0.31762763  0.56762763  0.68237237  1
  O  O441  1  0.31762763  0.56762763  1.18237237  1
  O  O442  1  0.31762763  1.06762763  0.68237237  1
  O  O443  1  0.31762763  1.06762763  1.18237237  1
  O  O444  1  0.81762763  0.56762763  0.68237237  1
  O  O445  1  0.81762763  0.56762763  1.18237237  1
  O  O446  1  0.81762763  1.06762763  0.68237237  1
  O  O447  1  0.81762763  1.06762763  1.18237237  1
