# generated using pymatgen
data_BaHf(BO3)2
_symmetry_space_group_name_H-M   'P 1'
_cell_length_a   10.29638762
_cell_length_b   10.29638762
_cell_length_c   33.73118156
_cell_angle_alpha   90.00000000
_cell_angle_beta   90.00000000
_cell_angle_gamma   120.00000000
_symmetry_Int_Tables_number   1
_chemical_formula_structural   BaHf(BO3)2
_chemical_formula_sum   'Ba24 Hf24 B48 O144'
_cell_volume   3096.93402115
_cell_formula_units_Z   24
loop_
 _symmetry_equiv_pos_site_id
 _symmetry_equiv_pos_as_xyz
  1  'x, y, z'
loop_
 _atom_site_type_symbol
 _atom_site_label
 _atom_site_symmetry_multiplicity
 _atom_site_fract_x
 _atom_site_fract_y
 _atom_site_fract_z
 _atom_site_occupancy
  Ba  Ba0  1  -0.00000000  -0.00000000  0.25000000  1
  Ba  Ba1  1  0.00000000  0.50000000  0.25000000  1
  Ba  Ba2  1  0.50000000  -0.00000000  0.25000000  1
  Ba  Ba3  1  0.50000000  0.50000000  0.25000000  1
  Ba  Ba4  1  0.33333333  0.16666667  0.58333333  1
  Ba  Ba5  1  0.33333333  0.66666667  0.58333333  1
  Ba  Ba6  1  0.83333333  0.16666667  0.58333333  1
  Ba  Ba7  1  0.83333333  0.66666667  0.58333333  1
  Ba  Ba8  1  0.16666667  0.33333333  0.91666667  1
  Ba  Ba9  1  0.16666667  0.83333333  0.91666667  1
  Ba  Ba10  1  0.66666667  0.33333333  0.91666667  1
  Ba  Ba11  1  0.66666667  0.83333333  0.91666667  1
  Ba  Ba12  1  0.00000000  0.00000000  0.75000000  1
  Ba  Ba13  1  0.00000000  0.50000000  0.75000000  1
  Ba  Ba14  1  0.50000000  0.00000000  0.75000000  1
  Ba  Ba15  1  0.50000000  0.50000000  0.75000000  1
  Ba  Ba16  1  0.33333333  0.16666667  1.08333333  1
  Ba  Ba17  1  0.33333333  0.66666667  1.08333333  1
  Ba  Ba18  1  0.83333333  0.16666667  1.08333333  1
  Ba  Ba19  1  0.83333333  0.66666667  1.08333333  1
  Ba  Ba20  1  0.16666667  0.33333333  1.41666667  1
  Ba  Ba21  1  0.16666667  0.83333333  1.41666667  1
  Ba  Ba22  1  0.66666667  0.33333333  1.41666667  1
  Ba  Ba23  1  0.66666667  0.83333333  1.41666667  1
  Hf  Hf24  1  -0.00000000  -0.00000000  0.50000000  1
  Hf  Hf25  1  0.00000000  0.50000000  0.50000000  1
  Hf  Hf26  1  0.50000000  -0.00000000  0.50000000  1
  Hf  Hf27  1  0.50000000  0.50000000  0.50000000  1
  Hf  Hf28  1  0.33333333  0.16666667  0.83333333  1
  Hf  Hf29  1  0.33333333  0.66666667  0.83333333  1
  Hf  Hf30  1  0.83333333  0.16666667  0.83333333  1
  Hf  Hf31  1  0.83333333  0.66666667  0.83333333  1
  Hf  Hf32  1  0.16666667  0.33333333  1.16666667  1
  Hf  Hf33  1  0.16666667  0.83333333  1.16666667  1
  Hf  Hf34  1  0.66666667  0.33333333  1.16666667  1
  Hf  Hf35  1  0.66666667  0.83333333  1.16666667  1
  Hf  Hf36  1  -0.00000000  -0.00000000  0.00000000  1
  Hf  Hf37  1  0.00000000  0.50000000  0.00000000  1
  Hf  Hf38  1  0.50000000  -0.00000000  0.00000000  1
  Hf  Hf39  1  0.50000000  0.50000000  0.00000000  1
  Hf  Hf40  1  0.33333333  0.16666667  0.33333333  1
  Hf  Hf41  1  0.33333333  0.66666667  0.33333333  1
  Hf  Hf42  1  0.83333333  0.16666667  0.33333333  1
  Hf  Hf43  1  0.83333333  0.66666667  0.33333333  1
  Hf  Hf44  1  0.16666667  0.33333333  0.66666667  1
  Hf  Hf45  1  0.16666667  0.83333333  0.66666667  1
  Hf  Hf46  1  0.66666667  0.33333333  0.66666667  1
  Hf  Hf47  1  0.66666667  0.83333333  0.66666667  1
  B  B48  1  -0.00000000  -0.00000000  0.36876261  1
  B  B49  1  0.00000000  0.50000000  0.36876261  1
  B  B50  1  0.50000000  -0.00000000  0.36876261  1
  B  B51  1  0.50000000  0.50000000  0.36876261  1
  B  B52  1  0.33333333  0.16666667  0.70209594  1
  B  B53  1  0.33333333  0.66666667  0.70209594  1
  B  B54  1  0.83333333  0.16666667  0.70209594  1
  B  B55  1  0.83333333  0.66666667  0.70209594  1
  B  B56  1  0.16666667  0.33333333  1.03542927  1
  B  B57  1  0.16666667  0.83333333  1.03542927  1
  B  B58  1  0.66666667  0.33333333  1.03542927  1
  B  B59  1  0.66666667  0.83333333  1.03542927  1
  B  B60  1  -0.00000000  -0.00000000  0.86876261  1
  B  B61  1  0.00000000  0.50000000  0.86876261  1
  B  B62  1  0.50000000  -0.00000000  0.86876261  1
  B  B63  1  0.50000000  0.50000000  0.86876261  1
  B  B64  1  0.33333333  0.16666667  1.20209594  1
  B  B65  1  0.33333333  0.66666667  1.20209594  1
  B  B66  1  0.83333333  0.16666667  1.20209594  1
  B  B67  1  0.83333333  0.66666667  1.20209594  1
  B  B68  1  0.16666667  0.33333333  1.53542927  1
  B  B69  1  0.16666667  0.83333333  1.53542927  1
  B  B70  1  0.66666667  0.33333333  1.53542927  1
  B  B71  1  0.66666667  0.83333333  1.53542927  1
  B  B72  1  -0.00000000  -0.00000000  0.63123739  1
  B  B73  1  0.00000000  0.50000000  0.63123739  1
  B  B74  1  0.50000000  -0.00000000  0.63123739  1
  B  B75  1  0.50000000  0.50000000  0.63123739  1
  B  B76  1  0.33333333  0.16666667  0.96457073  1
  B  B77  1  0.33333333  0.66666667  0.96457073  1
  B  B78  1  0.83333333  0.16666667  0.96457073  1
  B  B79  1  0.83333333  0.66666667  0.96457073  1
  B  B80  1  0.16666667  0.33333333  1.29790406  1
  B  B81  1  0.16666667  0.83333333  1.29790406  1
  B  B82  1  0.66666667  0.33333333  1.29790406  1
  B  B83  1  0.66666667  0.83333333  1.29790406  1
  B  B84  1  -0.00000000  -0.00000000  0.13123739  1
  B  B85  1  0.00000000  0.50000000  0.13123739  1
  B  B86  1  0.50000000  -0.00000000  0.13123739  1
  B  B87  1  0.50000000  0.50000000  0.13123739  1
  B  B88  1  0.33333333  0.16666667  0.46457073  1
  B  B89  1  0.33333333  0.66666667  0.46457073  1
  B  B90  1  0.83333333  0.16666667  0.46457073  1
  B  B91  1  0.83333333  0.66666667  0.46457073  1
  B  B92  1  0.16666667  0.33333333  0.79790406  1
  B  B93  1  0.16666667  0.83333333  0.79790406  1
  B  B94  1  0.66666667  0.33333333  0.79790406  1
  B  B95  1  0.66666667  0.83333333  0.79790406  1
  O  O96  1  0.15065045  0.10468923  0.36965298  1
  O  O97  1  0.15065045  0.60468923  0.36965298  1
  O  O98  1  0.65065045  0.10468923  0.36965298  1
  O  O99  1  0.65065045  0.60468923  0.36965298  1
  O  O100  1  0.48398378  0.27135590  0.70298631  1
  O  O101  1  0.48398378  0.77135590  0.70298631  1
  O  O102  1  0.98398378  0.27135590  0.70298631  1
  O  O103  1  0.98398378  0.77135590  0.70298631  1
  O  O104  1  0.31731712  0.43802256  1.03631965  1
  O  O105  1  0.31731712  0.93802256  1.03631965  1
  O  O106  1  0.81731712  0.43802256  1.03631965  1
  O  O107  1  0.81731712  0.93802256  1.03631965  1
  O  O108  1  -0.04596122  -0.15065045  0.36965298  1
  O  O109  1  -0.04596122  0.34934955  0.36965298  1
  O  O110  1  0.45403878  -0.15065045  0.36965298  1
  O  O111  1  0.45403878  0.34934955  0.36965298  1
  O  O112  1  0.28737211  0.01601622  0.70298631  1
  O  O113  1  0.28737211  0.51601622  0.70298631  1
  O  O114  1  0.78737211  0.01601622  0.70298631  1
  O  O115  1  0.78737211  0.51601622  0.70298631  1
  O  O116  1  0.12070545  0.18268288  1.03631965  1
  O  O117  1  0.12070545  0.68268288  1.03631965  1
  O  O118  1  0.62070545  0.18268288  1.03631965  1
  O  O119  1  0.62070545  0.68268288  1.03631965  1
  O  O120  1  -0.10468923  0.04596122  0.36965298  1
  O  O121  1  -0.10468923  0.54596122  0.36965298  1
  O  O122  1  0.39531077  0.04596122  0.36965298  1
  O  O123  1  0.39531077  0.54596122  0.36965298  1
  O  O124  1  0.22864410  0.21262789  0.70298631  1
  O  O125  1  0.22864410  0.71262789  0.70298631  1
  O  O126  1  0.72864410  0.21262789  0.70298631  1
  O  O127  1  0.72864410  0.71262789  0.70298631  1
  O  O128  1  0.06197744  0.37929455  1.03631965  1
  O  O129  1  0.06197744  0.87929455  1.03631965  1
  O  O130  1  0.56197744  0.37929455  1.03631965  1
  O  O131  1  0.56197744  0.87929455  1.03631965  1
  O  O132  1  0.12070545  -0.06197744  0.53631965  1
  O  O133  1  0.12070545  0.43802256  0.53631965  1
  O  O134  1  0.62070545  -0.06197744  0.53631965  1
  O  O135  1  0.62070545  0.43802256  0.53631965  1
  O  O136  1  0.45403878  0.10468923  0.86965298  1
  O  O137  1  0.45403878  0.60468923  0.86965298  1
  O  O138  1  0.95403878  0.10468923  0.86965298  1
  O  O139  1  0.95403878  0.60468923  0.86965298  1
  O  O140  1  0.28737211  0.27135590  1.20298631  1
  O  O141  1  0.28737211  0.77135590  1.20298631  1
  O  O142  1  0.78737211  0.27135590  1.20298631  1
  O  O143  1  0.78737211  0.77135590  1.20298631  1
  O  O144  1  -0.18268288  -0.12070545  0.53631965  1
  O  O145  1  -0.18268288  0.37929455  0.53631965  1
  O  O146  1  0.31731712  -0.12070545  0.53631965  1
  O  O147  1  0.31731712  0.37929455  0.53631965  1
  O  O148  1  0.15065045  0.04596122  0.86965298  1
  O  O149  1  0.15065045  0.54596122  0.86965298  1
  O  O150  1  0.65065045  0.04596122  0.86965298  1
  O  O151  1  0.65065045  0.54596122  0.86965298  1
  O  O152  1  -0.01601622  0.21262789  1.20298631  1
  O  O153  1  -0.01601622  0.71262789  1.20298631  1
  O  O154  1  0.48398378  0.21262789  1.20298631  1
  O  O155  1  0.48398378  0.71262789  1.20298631  1
  O  O156  1  0.06197744  0.18268288  0.53631965  1
  O  O157  1  0.06197744  0.68268288  0.53631965  1
  O  O158  1  0.56197744  0.18268288  0.53631965  1
  O  O159  1  0.56197744  0.68268288  0.53631965  1
  O  O160  1  0.39531077  0.34934955  0.86965298  1
  O  O161  1  0.39531077  0.84934955  0.86965298  1
  O  O162  1  0.89531077  0.34934955  0.86965298  1
  O  O163  1  0.89531077  0.84934955  0.86965298  1
  O  O164  1  0.22864410  0.51601622  1.20298631  1
  O  O165  1  0.22864410  1.01601622  1.20298631  1
  O  O166  1  0.72864410  0.51601622  1.20298631  1
  O  O167  1  0.72864410  1.01601622  1.20298631  1
  O  O168  1  0.10468923  -0.04596122  0.63034702  1
  O  O169  1  0.10468923  0.45403878  0.63034702  1
  O  O170  1  0.60468923  -0.04596122  0.63034702  1
  O  O171  1  0.60468923  0.45403878  0.63034702  1
  O  O172  1  0.43802256  0.12070545  0.96368035  1
  O  O173  1  0.43802256  0.62070545  0.96368035  1
  O  O174  1  0.93802256  0.12070545  0.96368035  1
  O  O175  1  0.93802256  0.62070545  0.96368035  1
  O  O176  1  0.27135590  0.28737211  1.29701369  1
  O  O177  1  0.27135590  0.78737211  1.29701369  1
  O  O178  1  0.77135590  0.28737211  1.29701369  1
  O  O179  1  0.77135590  0.78737211  1.29701369  1
  O  O180  1  -0.15065045  -0.10468923  0.63034702  1
  O  O181  1  -0.15065045  0.39531077  0.63034702  1
  O  O182  1  0.34934955  -0.10468923  0.63034702  1
  O  O183  1  0.34934955  0.39531077  0.63034702  1
  O  O184  1  0.18268288  0.06197744  0.96368035  1
  O  O185  1  0.18268288  0.56197744  0.96368035  1
  O  O186  1  0.68268288  0.06197744  0.96368035  1
  O  O187  1  0.68268288  0.56197744  0.96368035  1
  O  O188  1  0.01601622  0.22864410  1.29701369  1
  O  O189  1  0.01601622  0.72864410  1.29701369  1
  O  O190  1  0.51601622  0.22864410  1.29701369  1
  O  O191  1  0.51601622  0.72864410  1.29701369  1
  O  O192  1  0.04596122  0.15065045  0.63034702  1
  O  O193  1  0.04596122  0.65065045  0.63034702  1
  O  O194  1  0.54596122  0.15065045  0.63034702  1
  O  O195  1  0.54596122  0.65065045  0.63034702  1
  O  O196  1  0.37929455  0.31731712  0.96368035  1
  O  O197  1  0.37929455  0.81731712  0.96368035  1
  O  O198  1  0.87929455  0.31731712  0.96368035  1
  O  O199  1  0.87929455  0.81731712  0.96368035  1
  O  O200  1  0.21262789  0.48398378  1.29701369  1
  O  O201  1  0.21262789  0.98398378  1.29701369  1
  O  O202  1  0.71262789  0.48398378  1.29701369  1
  O  O203  1  0.71262789  0.98398378  1.29701369  1
  O  O204  1  0.18268288  0.12070545  0.46368035  1
  O  O205  1  0.18268288  0.62070545  0.46368035  1
  O  O206  1  0.68268288  0.12070545  0.46368035  1
  O  O207  1  0.68268288  0.62070545  0.46368035  1
  O  O208  1  0.51601622  0.28737211  0.79701369  1
  O  O209  1  0.51601622  0.78737211  0.79701369  1
  O  O210  1  1.01601622  0.28737211  0.79701369  1
  O  O211  1  1.01601622  0.78737211  0.79701369  1
  O  O212  1  0.34934955  0.45403878  1.13034702  1
  O  O213  1  0.34934955  0.95403878  1.13034702  1
  O  O214  1  0.84934955  0.45403878  1.13034702  1
  O  O215  1  0.84934955  0.95403878  1.13034702  1
  O  O216  1  -0.06197744  -0.18268288  0.46368035  1
  O  O217  1  -0.06197744  0.31731712  0.46368035  1
  O  O218  1  0.43802256  -0.18268288  0.46368035  1
  O  O219  1  0.43802256  0.31731712  0.46368035  1
  O  O220  1  0.27135590  -0.01601622  0.79701369  1
  O  O221  1  0.27135590  0.48398378  0.79701369  1
  O  O222  1  0.77135590  -0.01601622  0.79701369  1
  O  O223  1  0.77135590  0.48398378  0.79701369  1
  O  O224  1  0.10468923  0.15065045  1.13034702  1
  O  O225  1  0.10468923  0.65065045  1.13034702  1
  O  O226  1  0.60468923  0.15065045  1.13034702  1
  O  O227  1  0.60468923  0.65065045  1.13034702  1
  O  O228  1  -0.12070545  0.06197744  0.46368035  1
  O  O229  1  -0.12070545  0.56197744  0.46368035  1
  O  O230  1  0.37929455  0.06197744  0.46368035  1
  O  O231  1  0.37929455  0.56197744  0.46368035  1
  O  O232  1  0.21262789  0.22864410  0.79701369  1
  O  O233  1  0.21262789  0.72864410  0.79701369  1
  O  O234  1  0.71262789  0.22864410  0.79701369  1
  O  O235  1  0.71262789  0.72864410  0.79701369  1
  O  O236  1  0.04596122  0.39531077  1.13034702  1
  O  O237  1  0.04596122  0.89531077  1.13034702  1
  O  O238  1  0.54596122  0.39531077  1.13034702  1
  O  O239  1  0.54596122  0.89531077  1.13034702  1
