# generated using pymatgen
data_KNa2AuO2
_symmetry_space_group_name_H-M   'P 1'
_cell_length_a   21.81872648
_cell_length_b   20.03481642
_cell_length_c   19.53058863
_cell_angle_alpha   90.00000000
_cell_angle_beta   90.00000000
_cell_angle_gamma   90.00000000
_symmetry_Int_Tables_number   1
_chemical_formula_structural   KNa2AuO2
_chemical_formula_sum   'K80 Na160 Au80 O160'
_cell_volume   8537.48783685
_cell_formula_units_Z   80
loop_
 _symmetry_equiv_pos_site_id
 _symmetry_equiv_pos_as_xyz
  1  'x, y, z'
loop_
 _atom_site_type_symbol
 _atom_site_label
 _atom_site_symmetry_multiplicity
 _atom_site_fract_x
 _atom_site_fract_y
 _atom_site_fract_z
 _atom_site_occupancy
  K  K0  1  0.00000000  0.25000000  0.00000000  1
  K  K1  1  0.00000000  0.25000000  0.20000000  1
  K  K2  1  0.00000000  0.25000000  0.40000000  1
  K  K3  1  0.00000000  0.25000000  0.60000000  1
  K  K4  1  0.00000000  0.25000000  0.80000000  1
  K  K5  1  0.00000000  0.75000000  0.00000000  1
  K  K6  1  0.00000000  0.75000000  0.20000000  1
  K  K7  1  0.00000000  0.75000000  0.40000000  1
  K  K8  1  0.00000000  0.75000000  0.60000000  1
  K  K9  1  0.00000000  0.75000000  0.80000000  1
  K  K10  1  0.25000000  0.25000000  0.00000000  1
  K  K11  1  0.25000000  0.25000000  0.20000000  1
  K  K12  1  0.25000000  0.25000000  0.40000000  1
  K  K13  1  0.25000000  0.25000000  0.60000000  1
  K  K14  1  0.25000000  0.25000000  0.80000000  1
  K  K15  1  0.25000000  0.75000000  0.00000000  1
  K  K16  1  0.25000000  0.75000000  0.20000000  1
  K  K17  1  0.25000000  0.75000000  0.40000000  1
  K  K18  1  0.25000000  0.75000000  0.60000000  1
  K  K19  1  0.25000000  0.75000000  0.80000000  1
  K  K20  1  0.50000000  0.25000000  0.00000000  1
  K  K21  1  0.50000000  0.25000000  0.20000000  1
  K  K22  1  0.50000000  0.25000000  0.40000000  1
  K  K23  1  0.50000000  0.25000000  0.60000000  1
  K  K24  1  0.50000000  0.25000000  0.80000000  1
  K  K25  1  0.50000000  0.75000000  0.00000000  1
  K  K26  1  0.50000000  0.75000000  0.20000000  1
  K  K27  1  0.50000000  0.75000000  0.40000000  1
  K  K28  1  0.50000000  0.75000000  0.60000000  1
  K  K29  1  0.50000000  0.75000000  0.80000000  1
  K  K30  1  0.75000000  0.25000000  0.00000000  1
  K  K31  1  0.75000000  0.25000000  0.20000000  1
  K  K32  1  0.75000000  0.25000000  0.40000000  1
  K  K33  1  0.75000000  0.25000000  0.60000000  1
  K  K34  1  0.75000000  0.25000000  0.80000000  1
  K  K35  1  0.75000000  0.75000000  0.00000000  1
  K  K36  1  0.75000000  0.75000000  0.20000000  1
  K  K37  1  0.75000000  0.75000000  0.40000000  1
  K  K38  1  0.75000000  0.75000000  0.60000000  1
  K  K39  1  0.75000000  0.75000000  0.80000000  1
  K  K40  1  0.12500000  0.00000000  0.10000000  1
  K  K41  1  0.12500000  0.00000000  0.30000000  1
  K  K42  1  0.12500000  0.00000000  0.50000000  1
  K  K43  1  0.12500000  0.00000000  0.70000000  1
  K  K44  1  0.12500000  0.00000000  0.90000000  1
  K  K45  1  0.12500000  0.50000000  0.10000000  1
  K  K46  1  0.12500000  0.50000000  0.30000000  1
  K  K47  1  0.12500000  0.50000000  0.50000000  1
  K  K48  1  0.12500000  0.50000000  0.70000000  1
  K  K49  1  0.12500000  0.50000000  0.90000000  1
  K  K50  1  0.37500000  0.00000000  0.10000000  1
  K  K51  1  0.37500000  0.00000000  0.30000000  1
  K  K52  1  0.37500000  0.00000000  0.50000000  1
  K  K53  1  0.37500000  0.00000000  0.70000000  1
  K  K54  1  0.37500000  0.00000000  0.90000000  1
  K  K55  1  0.37500000  0.50000000  0.10000000  1
  K  K56  1  0.37500000  0.50000000  0.30000000  1
  K  K57  1  0.37500000  0.50000000  0.50000000  1
  K  K58  1  0.37500000  0.50000000  0.70000000  1
  K  K59  1  0.37500000  0.50000000  0.90000000  1
  K  K60  1  0.62500000  0.00000000  0.10000000  1
  K  K61  1  0.62500000  0.00000000  0.30000000  1
  K  K62  1  0.62500000  0.00000000  0.50000000  1
  K  K63  1  0.62500000  0.00000000  0.70000000  1
  K  K64  1  0.62500000  0.00000000  0.90000000  1
  K  K65  1  0.62500000  0.50000000  0.10000000  1
  K  K66  1  0.62500000  0.50000000  0.30000000  1
  K  K67  1  0.62500000  0.50000000  0.50000000  1
  K  K68  1  0.62500000  0.50000000  0.70000000  1
  K  K69  1  0.62500000  0.50000000  0.90000000  1
  K  K70  1  0.87500000  0.00000000  0.10000000  1
  K  K71  1  0.87500000  0.00000000  0.30000000  1
  K  K72  1  0.87500000  0.00000000  0.50000000  1
  K  K73  1  0.87500000  0.00000000  0.70000000  1
  K  K74  1  0.87500000  0.00000000  0.90000000  1
  K  K75  1  0.87500000  0.50000000  0.10000000  1
  K  K76  1  0.87500000  0.50000000  0.30000000  1
  K  K77  1  0.87500000  0.50000000  0.50000000  1
  K  K78  1  0.87500000  0.50000000  0.70000000  1
  K  K79  1  0.87500000  0.50000000  0.90000000  1
  Na  Na80  1  0.22937489  0.11451605  0.10000000  1
  Na  Na81  1  0.22937489  0.11451605  0.30000000  1
  Na  Na82  1  0.22937489  0.11451605  0.50000000  1
  Na  Na83  1  0.22937489  0.11451605  0.70000000  1
  Na  Na84  1  0.22937489  0.11451605  0.90000000  1
  Na  Na85  1  0.22937489  0.61451605  0.10000000  1
  Na  Na86  1  0.22937489  0.61451605  0.30000000  1
  Na  Na87  1  0.22937489  0.61451605  0.50000000  1
  Na  Na88  1  0.22937489  0.61451605  0.70000000  1
  Na  Na89  1  0.22937489  0.61451605  0.90000000  1
  Na  Na90  1  0.47937489  0.11451605  0.10000000  1
  Na  Na91  1  0.47937489  0.11451605  0.30000000  1
  Na  Na92  1  0.47937489  0.11451605  0.50000000  1
  Na  Na93  1  0.47937489  0.11451605  0.70000000  1
  Na  Na94  1  0.47937489  0.11451605  0.90000000  1
  Na  Na95  1  0.47937489  0.61451605  0.10000000  1
  Na  Na96  1  0.47937489  0.61451605  0.30000000  1
  Na  Na97  1  0.47937489  0.61451605  0.50000000  1
  Na  Na98  1  0.47937489  0.61451605  0.70000000  1
  Na  Na99  1  0.47937489  0.61451605  0.90000000  1
  Na  Na100  1  0.72937489  0.11451605  0.10000000  1
  Na  Na101  1  0.72937489  0.11451605  0.30000000  1
  Na  Na102  1  0.72937489  0.11451605  0.50000000  1
  Na  Na103  1  0.72937489  0.11451605  0.70000000  1
  Na  Na104  1  0.72937489  0.11451605  0.90000000  1
  Na  Na105  1  0.72937489  0.61451605  0.10000000  1
  Na  Na106  1  0.72937489  0.61451605  0.30000000  1
  Na  Na107  1  0.72937489  0.61451605  0.50000000  1
  Na  Na108  1  0.72937489  0.61451605  0.70000000  1
  Na  Na109  1  0.72937489  0.61451605  0.90000000  1
  Na  Na110  1  0.97937489  0.11451605  0.10000000  1
  Na  Na111  1  0.97937489  0.11451605  0.30000000  1
  Na  Na112  1  0.97937489  0.11451605  0.50000000  1
  Na  Na113  1  0.97937489  0.11451605  0.70000000  1
  Na  Na114  1  0.97937489  0.11451605  0.90000000  1
  Na  Na115  1  0.97937489  0.61451605  0.10000000  1
  Na  Na116  1  0.97937489  0.61451605  0.30000000  1
  Na  Na117  1  0.97937489  0.61451605  0.50000000  1
  Na  Na118  1  0.97937489  0.61451605  0.70000000  1
  Na  Na119  1  0.97937489  0.61451605  0.90000000  1
  Na  Na120  1  0.02062511  0.38548395  0.10000000  1
  Na  Na121  1  0.02062511  0.38548395  0.30000000  1
  Na  Na122  1  0.02062511  0.38548395  0.50000000  1
  Na  Na123  1  0.02062511  0.38548395  0.70000000  1
  Na  Na124  1  0.02062511  0.38548395  0.90000000  1
  Na  Na125  1  0.02062511  0.88548395  0.10000000  1
  Na  Na126  1  0.02062511  0.88548395  0.30000000  1
  Na  Na127  1  0.02062511  0.88548395  0.50000000  1
  Na  Na128  1  0.02062511  0.88548395  0.70000000  1
  Na  Na129  1  0.02062511  0.88548395  0.90000000  1
  Na  Na130  1  0.27062511  0.38548395  0.10000000  1
  Na  Na131  1  0.27062511  0.38548395  0.30000000  1
  Na  Na132  1  0.27062511  0.38548395  0.50000000  1
  Na  Na133  1  0.27062511  0.38548395  0.70000000  1
  Na  Na134  1  0.27062511  0.38548395  0.90000000  1
  Na  Na135  1  0.27062511  0.88548395  0.10000000  1
  Na  Na136  1  0.27062511  0.88548395  0.30000000  1
  Na  Na137  1  0.27062511  0.88548395  0.50000000  1
  Na  Na138  1  0.27062511  0.88548395  0.70000000  1
  Na  Na139  1  0.27062511  0.88548395  0.90000000  1
  Na  Na140  1  0.52062511  0.38548395  0.10000000  1
  Na  Na141  1  0.52062511  0.38548395  0.30000000  1
  Na  Na142  1  0.52062511  0.38548395  0.50000000  1
  Na  Na143  1  0.52062511  0.38548395  0.70000000  1
  Na  Na144  1  0.52062511  0.38548395  0.90000000  1
  Na  Na145  1  0.52062511  0.88548395  0.10000000  1
  Na  Na146  1  0.52062511  0.88548395  0.30000000  1
  Na  Na147  1  0.52062511  0.88548395  0.50000000  1
  Na  Na148  1  0.52062511  0.88548395  0.70000000  1
  Na  Na149  1  0.52062511  0.88548395  0.90000000  1
  Na  Na150  1  0.77062511  0.38548395  0.10000000  1
  Na  Na151  1  0.77062511  0.38548395  0.30000000  1
  Na  Na152  1  0.77062511  0.38548395  0.50000000  1
  Na  Na153  1  0.77062511  0.38548395  0.70000000  1
  Na  Na154  1  0.77062511  0.38548395  0.90000000  1
  Na  Na155  1  0.77062511  0.88548395  0.10000000  1
  Na  Na156  1  0.77062511  0.88548395  0.30000000  1
  Na  Na157  1  0.77062511  0.88548395  0.50000000  1
  Na  Na158  1  0.77062511  0.88548395  0.70000000  1
  Na  Na159  1  0.77062511  0.88548395  0.90000000  1
  Na  Na160  1  0.10437489  0.13548395  0.00000000  1
  Na  Na161  1  0.10437489  0.13548395  0.20000000  1
  Na  Na162  1  0.10437489  0.13548395  0.40000000  1
  Na  Na163  1  0.10437489  0.13548395  0.60000000  1
  Na  Na164  1  0.10437489  0.13548395  0.80000000  1
  Na  Na165  1  0.10437489  0.63548395  0.00000000  1
  Na  Na166  1  0.10437489  0.63548395  0.20000000  1
  Na  Na167  1  0.10437489  0.63548395  0.40000000  1
  Na  Na168  1  0.10437489  0.63548395  0.60000000  1
  Na  Na169  1  0.10437489  0.63548395  0.80000000  1
  Na  Na170  1  0.35437489  0.13548395  0.00000000  1
  Na  Na171  1  0.35437489  0.13548395  0.20000000  1
  Na  Na172  1  0.35437489  0.13548395  0.40000000  1
  Na  Na173  1  0.35437489  0.13548395  0.60000000  1
  Na  Na174  1  0.35437489  0.13548395  0.80000000  1
  Na  Na175  1  0.35437489  0.63548395  0.00000000  1
  Na  Na176  1  0.35437489  0.63548395  0.20000000  1
  Na  Na177  1  0.35437489  0.63548395  0.40000000  1
  Na  Na178  1  0.35437489  0.63548395  0.60000000  1
  Na  Na179  1  0.35437489  0.63548395  0.80000000  1
  Na  Na180  1  0.60437489  0.13548395  0.00000000  1
  Na  Na181  1  0.60437489  0.13548395  0.20000000  1
  Na  Na182  1  0.60437489  0.13548395  0.40000000  1
  Na  Na183  1  0.60437489  0.13548395  0.60000000  1
  Na  Na184  1  0.60437489  0.13548395  0.80000000  1
  Na  Na185  1  0.60437489  0.63548395  0.00000000  1
  Na  Na186  1  0.60437489  0.63548395  0.20000000  1
  Na  Na187  1  0.60437489  0.63548395  0.40000000  1
  Na  Na188  1  0.60437489  0.63548395  0.60000000  1
  Na  Na189  1  0.60437489  0.63548395  0.80000000  1
  Na  Na190  1  0.85437489  0.13548395  0.00000000  1
  Na  Na191  1  0.85437489  0.13548395  0.20000000  1
  Na  Na192  1  0.85437489  0.13548395  0.40000000  1
  Na  Na193  1  0.85437489  0.13548395  0.60000000  1
  Na  Na194  1  0.85437489  0.13548395  0.80000000  1
  Na  Na195  1  0.85437489  0.63548395  0.00000000  1
  Na  Na196  1  0.85437489  0.63548395  0.20000000  1
  Na  Na197  1  0.85437489  0.63548395  0.40000000  1
  Na  Na198  1  0.85437489  0.63548395  0.60000000  1
  Na  Na199  1  0.85437489  0.63548395  0.80000000  1
  Na  Na200  1  0.14562511  0.36451605  0.00000000  1
  Na  Na201  1  0.14562511  0.36451605  0.20000000  1
  Na  Na202  1  0.14562511  0.36451605  0.40000000  1
  Na  Na203  1  0.14562511  0.36451605  0.60000000  1
  Na  Na204  1  0.14562511  0.36451605  0.80000000  1
  Na  Na205  1  0.14562511  0.86451605  0.00000000  1
  Na  Na206  1  0.14562511  0.86451605  0.20000000  1
  Na  Na207  1  0.14562511  0.86451605  0.40000000  1
  Na  Na208  1  0.14562511  0.86451605  0.60000000  1
  Na  Na209  1  0.14562511  0.86451605  0.80000000  1
  Na  Na210  1  0.39562511  0.36451605  0.00000000  1
  Na  Na211  1  0.39562511  0.36451605  0.20000000  1
  Na  Na212  1  0.39562511  0.36451605  0.40000000  1
  Na  Na213  1  0.39562511  0.36451605  0.60000000  1
  Na  Na214  1  0.39562511  0.36451605  0.80000000  1
  Na  Na215  1  0.39562511  0.86451605  0.00000000  1
  Na  Na216  1  0.39562511  0.86451605  0.20000000  1
  Na  Na217  1  0.39562511  0.86451605  0.40000000  1
  Na  Na218  1  0.39562511  0.86451605  0.60000000  1
  Na  Na219  1  0.39562511  0.86451605  0.80000000  1
  Na  Na220  1  0.64562511  0.36451605  0.00000000  1
  Na  Na221  1  0.64562511  0.36451605  0.20000000  1
  Na  Na222  1  0.64562511  0.36451605  0.40000000  1
  Na  Na223  1  0.64562511  0.36451605  0.60000000  1
  Na  Na224  1  0.64562511  0.36451605  0.80000000  1
  Na  Na225  1  0.64562511  0.86451605  0.00000000  1
  Na  Na226  1  0.64562511  0.86451605  0.20000000  1
  Na  Na227  1  0.64562511  0.86451605  0.40000000  1
  Na  Na228  1  0.64562511  0.86451605  0.60000000  1
  Na  Na229  1  0.64562511  0.86451605  0.80000000  1
  Na  Na230  1  0.89562511  0.36451605  0.00000000  1
  Na  Na231  1  0.89562511  0.36451605  0.20000000  1
  Na  Na232  1  0.89562511  0.36451605  0.40000000  1
  Na  Na233  1  0.89562511  0.36451605  0.60000000  1
  Na  Na234  1  0.89562511  0.36451605  0.80000000  1
  Na  Na235  1  0.89562511  0.86451605  0.00000000  1
  Na  Na236  1  0.89562511  0.86451605  0.20000000  1
  Na  Na237  1  0.89562511  0.86451605  0.40000000  1
  Na  Na238  1  0.89562511  0.86451605  0.60000000  1
  Na  Na239  1  0.89562511  0.86451605  0.80000000  1
  Au  Au240  1  0.00000000  0.00000000  0.00000000  1
  Au  Au241  1  0.00000000  0.00000000  0.20000000  1
  Au  Au242  1  0.00000000  0.00000000  0.40000000  1
  Au  Au243  1  0.00000000  0.00000000  0.60000000  1
  Au  Au244  1  0.00000000  0.00000000  0.80000000  1
  Au  Au245  1  0.00000000  0.50000000  0.00000000  1
  Au  Au246  1  0.00000000  0.50000000  0.20000000  1
  Au  Au247  1  0.00000000  0.50000000  0.40000000  1
  Au  Au248  1  0.00000000  0.50000000  0.60000000  1
  Au  Au249  1  0.00000000  0.50000000  0.80000000  1
  Au  Au250  1  0.25000000  0.00000000  0.00000000  1
  Au  Au251  1  0.25000000  0.00000000  0.20000000  1
  Au  Au252  1  0.25000000  0.00000000  0.40000000  1
  Au  Au253  1  0.25000000  0.00000000  0.60000000  1
  Au  Au254  1  0.25000000  0.00000000  0.80000000  1
  Au  Au255  1  0.25000000  0.50000000  0.00000000  1
  Au  Au256  1  0.25000000  0.50000000  0.20000000  1
  Au  Au257  1  0.25000000  0.50000000  0.40000000  1
  Au  Au258  1  0.25000000  0.50000000  0.60000000  1
  Au  Au259  1  0.25000000  0.50000000  0.80000000  1
  Au  Au260  1  0.50000000  0.00000000  0.00000000  1
  Au  Au261  1  0.50000000  0.00000000  0.20000000  1
  Au  Au262  1  0.50000000  0.00000000  0.40000000  1
  Au  Au263  1  0.50000000  0.00000000  0.60000000  1
  Au  Au264  1  0.50000000  0.00000000  0.80000000  1
  Au  Au265  1  0.50000000  0.50000000  0.00000000  1
  Au  Au266  1  0.50000000  0.50000000  0.20000000  1
  Au  Au267  1  0.50000000  0.50000000  0.40000000  1
  Au  Au268  1  0.50000000  0.50000000  0.60000000  1
  Au  Au269  1  0.50000000  0.50000000  0.80000000  1
  Au  Au270  1  0.75000000  0.00000000  0.00000000  1
  Au  Au271  1  0.75000000  0.00000000  0.20000000  1
  Au  Au272  1  0.75000000  0.00000000  0.40000000  1
  Au  Au273  1  0.75000000  0.00000000  0.60000000  1
  Au  Au274  1  0.75000000  0.00000000  0.80000000  1
  Au  Au275  1  0.75000000  0.50000000  0.00000000  1
  Au  Au276  1  0.75000000  0.50000000  0.20000000  1
  Au  Au277  1  0.75000000  0.50000000  0.40000000  1
  Au  Au278  1  0.75000000  0.50000000  0.60000000  1
  Au  Au279  1  0.75000000  0.50000000  0.80000000  1
  Au  Au280  1  0.12500000  0.25000000  0.10000000  1
  Au  Au281  1  0.12500000  0.25000000  0.30000000  1
  Au  Au282  1  0.12500000  0.25000000  0.50000000  1
  Au  Au283  1  0.12500000  0.25000000  0.70000000  1
  Au  Au284  1  0.12500000  0.25000000  0.90000000  1
  Au  Au285  1  0.12500000  0.75000000  0.10000000  1
  Au  Au286  1  0.12500000  0.75000000  0.30000000  1
  Au  Au287  1  0.12500000  0.75000000  0.50000000  1
  Au  Au288  1  0.12500000  0.75000000  0.70000000  1
  Au  Au289  1  0.12500000  0.75000000  0.90000000  1
  Au  Au290  1  0.37500000  0.25000000  0.10000000  1
  Au  Au291  1  0.37500000  0.25000000  0.30000000  1
  Au  Au292  1  0.37500000  0.25000000  0.50000000  1
  Au  Au293  1  0.37500000  0.25000000  0.70000000  1
  Au  Au294  1  0.37500000  0.25000000  0.90000000  1
  Au  Au295  1  0.37500000  0.75000000  0.10000000  1
  Au  Au296  1  0.37500000  0.75000000  0.30000000  1
  Au  Au297  1  0.37500000  0.75000000  0.50000000  1
  Au  Au298  1  0.37500000  0.75000000  0.70000000  1
  Au  Au299  1  0.37500000  0.75000000  0.90000000  1
  Au  Au300  1  0.62500000  0.25000000  0.10000000  1
  Au  Au301  1  0.62500000  0.25000000  0.30000000  1
  Au  Au302  1  0.62500000  0.25000000  0.50000000  1
  Au  Au303  1  0.62500000  0.25000000  0.70000000  1
  Au  Au304  1  0.62500000  0.25000000  0.90000000  1
  Au  Au305  1  0.62500000  0.75000000  0.10000000  1
  Au  Au306  1  0.62500000  0.75000000  0.30000000  1
  Au  Au307  1  0.62500000  0.75000000  0.50000000  1
  Au  Au308  1  0.62500000  0.75000000  0.70000000  1
  Au  Au309  1  0.62500000  0.75000000  0.90000000  1
  Au  Au310  1  0.87500000  0.25000000  0.10000000  1
  Au  Au311  1  0.87500000  0.25000000  0.30000000  1
  Au  Au312  1  0.87500000  0.25000000  0.50000000  1
  Au  Au313  1  0.87500000  0.25000000  0.70000000  1
  Au  Au314  1  0.87500000  0.25000000  0.90000000  1
  Au  Au315  1  0.87500000  0.75000000  0.10000000  1
  Au  Au316  1  0.87500000  0.75000000  0.30000000  1
  Au  Au317  1  0.87500000  0.75000000  0.50000000  1
  Au  Au318  1  0.87500000  0.75000000  0.70000000  1
  Au  Au319  1  0.87500000  0.75000000  0.90000000  1
  O  O320  1  0.18578296  0.32489981  0.10000000  1
  O  O321  1  0.18578296  0.32489981  0.30000000  1
  O  O322  1  0.18578296  0.32489981  0.50000000  1
  O  O323  1  0.18578296  0.32489981  0.70000000  1
  O  O324  1  0.18578296  0.32489981  0.90000000  1
  O  O325  1  0.18578296  0.82489981  0.10000000  1
  O  O326  1  0.18578296  0.82489981  0.30000000  1
  O  O327  1  0.18578296  0.82489981  0.50000000  1
  O  O328  1  0.18578296  0.82489981  0.70000000  1
  O  O329  1  0.18578296  0.82489981  0.90000000  1
  O  O330  1  0.43578296  0.32489981  0.10000000  1
  O  O331  1  0.43578296  0.32489981  0.30000000  1
  O  O332  1  0.43578296  0.32489981  0.50000000  1
  O  O333  1  0.43578296  0.32489981  0.70000000  1
  O  O334  1  0.43578296  0.32489981  0.90000000  1
  O  O335  1  0.43578296  0.82489981  0.10000000  1
  O  O336  1  0.43578296  0.82489981  0.30000000  1
  O  O337  1  0.43578296  0.82489981  0.50000000  1
  O  O338  1  0.43578296  0.82489981  0.70000000  1
  O  O339  1  0.43578296  0.82489981  0.90000000  1
  O  O340  1  0.68578296  0.32489981  0.10000000  1
  O  O341  1  0.68578296  0.32489981  0.30000000  1
  O  O342  1  0.68578296  0.32489981  0.50000000  1
  O  O343  1  0.68578296  0.32489981  0.70000000  1
  O  O344  1  0.68578296  0.32489981  0.90000000  1
  O  O345  1  0.68578296  0.82489981  0.10000000  1
  O  O346  1  0.68578296  0.82489981  0.30000000  1
  O  O347  1  0.68578296  0.82489981  0.50000000  1
  O  O348  1  0.68578296  0.82489981  0.70000000  1
  O  O349  1  0.68578296  0.82489981  0.90000000  1
  O  O350  1  0.93578296  0.32489981  0.10000000  1
  O  O351  1  0.93578296  0.32489981  0.30000000  1
  O  O352  1  0.93578296  0.32489981  0.50000000  1
  O  O353  1  0.93578296  0.32489981  0.70000000  1
  O  O354  1  0.93578296  0.32489981  0.90000000  1
  O  O355  1  0.93578296  0.82489981  0.10000000  1
  O  O356  1  0.93578296  0.82489981  0.30000000  1
  O  O357  1  0.93578296  0.82489981  0.50000000  1
  O  O358  1  0.93578296  0.82489981  0.70000000  1
  O  O359  1  0.93578296  0.82489981  0.90000000  1
  O  O360  1  0.06078296  0.42510019  0.00000000  1
  O  O361  1  0.06078296  0.42510019  0.20000000  1
  O  O362  1  0.06078296  0.42510019  0.40000000  1
  O  O363  1  0.06078296  0.42510019  0.60000000  1
  O  O364  1  0.06078296  0.42510019  0.80000000  1
  O  O365  1  0.06078296  0.92510019  0.00000000  1
  O  O366  1  0.06078296  0.92510019  0.20000000  1
  O  O367  1  0.06078296  0.92510019  0.40000000  1
  O  O368  1  0.06078296  0.92510019  0.60000000  1
  O  O369  1  0.06078296  0.92510019  0.80000000  1
  O  O370  1  0.31078296  0.42510019  0.00000000  1
  O  O371  1  0.31078296  0.42510019  0.20000000  1
  O  O372  1  0.31078296  0.42510019  0.40000000  1
  O  O373  1  0.31078296  0.42510019  0.60000000  1
  O  O374  1  0.31078296  0.42510019  0.80000000  1
  O  O375  1  0.31078296  0.92510019  0.00000000  1
  O  O376  1  0.31078296  0.92510019  0.20000000  1
  O  O377  1  0.31078296  0.92510019  0.40000000  1
  O  O378  1  0.31078296  0.92510019  0.60000000  1
  O  O379  1  0.31078296  0.92510019  0.80000000  1
  O  O380  1  0.56078296  0.42510019  0.00000000  1
  O  O381  1  0.56078296  0.42510019  0.20000000  1
  O  O382  1  0.56078296  0.42510019  0.40000000  1
  O  O383  1  0.56078296  0.42510019  0.60000000  1
  O  O384  1  0.56078296  0.42510019  0.80000000  1
  O  O385  1  0.56078296  0.92510019  0.00000000  1
  O  O386  1  0.56078296  0.92510019  0.20000000  1
  O  O387  1  0.56078296  0.92510019  0.40000000  1
  O  O388  1  0.56078296  0.92510019  0.60000000  1
  O  O389  1  0.56078296  0.92510019  0.80000000  1
  O  O390  1  0.81078296  0.42510019  0.00000000  1
  O  O391  1  0.81078296  0.42510019  0.20000000  1
  O  O392  1  0.81078296  0.42510019  0.40000000  1
  O  O393  1  0.81078296  0.42510019  0.60000000  1
  O  O394  1  0.81078296  0.42510019  0.80000000  1
  O  O395  1  0.81078296  0.92510019  0.00000000  1
  O  O396  1  0.81078296  0.92510019  0.20000000  1
  O  O397  1  0.81078296  0.92510019  0.40000000  1
  O  O398  1  0.81078296  0.92510019  0.60000000  1
  O  O399  1  0.81078296  0.92510019  0.80000000  1
  O  O400  1  0.18921704  0.07489981  0.00000000  1
  O  O401  1  0.18921704  0.07489981  0.20000000  1
  O  O402  1  0.18921704  0.07489981  0.40000000  1
  O  O403  1  0.18921704  0.07489981  0.60000000  1
  O  O404  1  0.18921704  0.07489981  0.80000000  1
  O  O405  1  0.18921704  0.57489981  0.00000000  1
  O  O406  1  0.18921704  0.57489981  0.20000000  1
  O  O407  1  0.18921704  0.57489981  0.40000000  1
  O  O408  1  0.18921704  0.57489981  0.60000000  1
  O  O409  1  0.18921704  0.57489981  0.80000000  1
  O  O410  1  0.43921704  0.07489981  0.00000000  1
  O  O411  1  0.43921704  0.07489981  0.20000000  1
  O  O412  1  0.43921704  0.07489981  0.40000000  1
  O  O413  1  0.43921704  0.07489981  0.60000000  1
  O  O414  1  0.43921704  0.07489981  0.80000000  1
  O  O415  1  0.43921704  0.57489981  0.00000000  1
  O  O416  1  0.43921704  0.57489981  0.20000000  1
  O  O417  1  0.43921704  0.57489981  0.40000000  1
  O  O418  1  0.43921704  0.57489981  0.60000000  1
  O  O419  1  0.43921704  0.57489981  0.80000000  1
  O  O420  1  0.68921704  0.07489981  0.00000000  1
  O  O421  1  0.68921704  0.07489981  0.20000000  1
  O  O422  1  0.68921704  0.07489981  0.40000000  1
  O  O423  1  0.68921704  0.07489981  0.60000000  1
  O  O424  1  0.68921704  0.07489981  0.80000000  1
  O  O425  1  0.68921704  0.57489981  0.00000000  1
  O  O426  1  0.68921704  0.57489981  0.20000000  1
  O  O427  1  0.68921704  0.57489981  0.40000000  1
  O  O428  1  0.68921704  0.57489981  0.60000000  1
  O  O429  1  0.68921704  0.57489981  0.80000000  1
  O  O430  1  0.93921704  0.07489981  0.00000000  1
  O  O431  1  0.93921704  0.07489981  0.20000000  1
  O  O432  1  0.93921704  0.07489981  0.40000000  1
  O  O433  1  0.93921704  0.07489981  0.60000000  1
  O  O434  1  0.93921704  0.07489981  0.80000000  1
  O  O435  1  0.93921704  0.57489981  0.00000000  1
  O  O436  1  0.93921704  0.57489981  0.20000000  1
  O  O437  1  0.93921704  0.57489981  0.40000000  1
  O  O438  1  0.93921704  0.57489981  0.60000000  1
  O  O439  1  0.93921704  0.57489981  0.80000000  1
  O  O440  1  0.06421704  0.17510019  0.10000000  1
  O  O441  1  0.06421704  0.17510019  0.30000000  1
  O  O442  1  0.06421704  0.17510019  0.50000000  1
  O  O443  1  0.06421704  0.17510019  0.70000000  1
  O  O444  1  0.06421704  0.17510019  0.90000000  1
  O  O445  1  0.06421704  0.67510019  0.10000000  1
  O  O446  1  0.06421704  0.67510019  0.30000000  1
  O  O447  1  0.06421704  0.67510019  0.50000000  1
  O  O448  1  0.06421704  0.67510019  0.70000000  1
  O  O449  1  0.06421704  0.67510019  0.90000000  1
  O  O450  1  0.31421704  0.17510019  0.10000000  1
  O  O451  1  0.31421704  0.17510019  0.30000000  1
  O  O452  1  0.31421704  0.17510019  0.50000000  1
  O  O453  1  0.31421704  0.17510019  0.70000000  1
  O  O454  1  0.31421704  0.17510019  0.90000000  1
  O  O455  1  0.31421704  0.67510019  0.10000000  1
  O  O456  1  0.31421704  0.67510019  0.30000000  1
  O  O457  1  0.31421704  0.67510019  0.50000000  1
  O  O458  1  0.31421704  0.67510019  0.70000000  1
  O  O459  1  0.31421704  0.67510019  0.90000000  1
  O  O460  1  0.56421704  0.17510019  0.10000000  1
  O  O461  1  0.56421704  0.17510019  0.30000000  1
  O  O462  1  0.56421704  0.17510019  0.50000000  1
  O  O463  1  0.56421704  0.17510019  0.70000000  1
  O  O464  1  0.56421704  0.17510019  0.90000000  1
  O  O465  1  0.56421704  0.67510019  0.10000000  1
  O  O466  1  0.56421704  0.67510019  0.30000000  1
  O  O467  1  0.56421704  0.67510019  0.50000000  1
  O  O468  1  0.56421704  0.67510019  0.70000000  1
  O  O469  1  0.56421704  0.67510019  0.90000000  1
  O  O470  1  0.81421704  0.17510019  0.10000000  1
  O  O471  1  0.81421704  0.17510019  0.30000000  1
  O  O472  1  0.81421704  0.17510019  0.50000000  1
  O  O473  1  0.81421704  0.17510019  0.70000000  1
  O  O474  1  0.81421704  0.17510019  0.90000000  1
  O  O475  1  0.81421704  0.67510019  0.10000000  1
  O  O476  1  0.81421704  0.67510019  0.30000000  1
  O  O477  1  0.81421704  0.67510019  0.50000000  1
  O  O478  1  0.81421704  0.67510019  0.70000000  1
  O  O479  1  0.81421704  0.67510019  0.90000000  1
