# generated using pymatgen
data_Sr2PbO4
_symmetry_space_group_name_H-M   'P 1'
_cell_length_a   18.46188586
_cell_length_b   20.26721717
_cell_length_c   17.48503203
_cell_angle_alpha   90.00000000
_cell_angle_beta   90.00000000
_cell_angle_gamma   90.00000000
_symmetry_Int_Tables_number   1
_chemical_formula_structural   Sr2PbO4
_chemical_formula_sum   'Sr120 Pb60 O240'
_cell_volume   6542.39279508
_cell_formula_units_Z   60
loop_
 _symmetry_equiv_pos_site_id
 _symmetry_equiv_pos_as_xyz
  1  'x, y, z'
loop_
 _atom_site_type_symbol
 _atom_site_label
 _atom_site_symmetry_multiplicity
 _atom_site_fract_x
 _atom_site_fract_y
 _atom_site_fract_z
 _atom_site_occupancy
  Sr  Sr0  1  0.14194565  0.40945718  0.10000000  1
  Sr  Sr1  1  0.14194565  0.40945718  0.30000000  1
  Sr  Sr2  1  0.14194565  0.40945718  0.50000000  1
  Sr  Sr3  1  0.14194565  0.40945718  0.70000000  1
  Sr  Sr4  1  0.14194565  0.40945718  0.90000000  1
  Sr  Sr5  1  0.14194565  0.90945718  0.10000000  1
  Sr  Sr6  1  0.14194565  0.90945718  0.30000000  1
  Sr  Sr7  1  0.14194565  0.90945718  0.50000000  1
  Sr  Sr8  1  0.14194565  0.90945718  0.70000000  1
  Sr  Sr9  1  0.14194565  0.90945718  0.90000000  1
  Sr  Sr10  1  0.47527898  0.40945718  0.10000000  1
  Sr  Sr11  1  0.47527898  0.40945718  0.30000000  1
  Sr  Sr12  1  0.47527898  0.40945718  0.50000000  1
  Sr  Sr13  1  0.47527898  0.40945718  0.70000000  1
  Sr  Sr14  1  0.47527898  0.40945718  0.90000000  1
  Sr  Sr15  1  0.47527898  0.90945718  0.10000000  1
  Sr  Sr16  1  0.47527898  0.90945718  0.30000000  1
  Sr  Sr17  1  0.47527898  0.90945718  0.50000000  1
  Sr  Sr18  1  0.47527898  0.90945718  0.70000000  1
  Sr  Sr19  1  0.47527898  0.90945718  0.90000000  1
  Sr  Sr20  1  0.80861232  0.40945718  0.10000000  1
  Sr  Sr21  1  0.80861232  0.40945718  0.30000000  1
  Sr  Sr22  1  0.80861232  0.40945718  0.50000000  1
  Sr  Sr23  1  0.80861232  0.40945718  0.70000000  1
  Sr  Sr24  1  0.80861232  0.40945718  0.90000000  1
  Sr  Sr25  1  0.80861232  0.90945718  0.10000000  1
  Sr  Sr26  1  0.80861232  0.90945718  0.30000000  1
  Sr  Sr27  1  0.80861232  0.90945718  0.50000000  1
  Sr  Sr28  1  0.80861232  0.90945718  0.70000000  1
  Sr  Sr29  1  0.80861232  0.90945718  0.90000000  1
  Sr  Sr30  1  0.19138768  0.09054282  0.10000000  1
  Sr  Sr31  1  0.19138768  0.09054282  0.30000000  1
  Sr  Sr32  1  0.19138768  0.09054282  0.50000000  1
  Sr  Sr33  1  0.19138768  0.09054282  0.70000000  1
  Sr  Sr34  1  0.19138768  0.09054282  0.90000000  1
  Sr  Sr35  1  0.19138768  0.59054282  0.10000000  1
  Sr  Sr36  1  0.19138768  0.59054282  0.30000000  1
  Sr  Sr37  1  0.19138768  0.59054282  0.50000000  1
  Sr  Sr38  1  0.19138768  0.59054282  0.70000000  1
  Sr  Sr39  1  0.19138768  0.59054282  0.90000000  1
  Sr  Sr40  1  0.52472102  0.09054282  0.10000000  1
  Sr  Sr41  1  0.52472102  0.09054282  0.30000000  1
  Sr  Sr42  1  0.52472102  0.09054282  0.50000000  1
  Sr  Sr43  1  0.52472102  0.09054282  0.70000000  1
  Sr  Sr44  1  0.52472102  0.09054282  0.90000000  1
  Sr  Sr45  1  0.52472102  0.59054282  0.10000000  1
  Sr  Sr46  1  0.52472102  0.59054282  0.30000000  1
  Sr  Sr47  1  0.52472102  0.59054282  0.50000000  1
  Sr  Sr48  1  0.52472102  0.59054282  0.70000000  1
  Sr  Sr49  1  0.52472102  0.59054282  0.90000000  1
  Sr  Sr50  1  0.85805435  0.09054282  0.10000000  1
  Sr  Sr51  1  0.85805435  0.09054282  0.30000000  1
  Sr  Sr52  1  0.85805435  0.09054282  0.50000000  1
  Sr  Sr53  1  0.85805435  0.09054282  0.70000000  1
  Sr  Sr54  1  0.85805435  0.09054282  0.90000000  1
  Sr  Sr55  1  0.85805435  0.59054282  0.10000000  1
  Sr  Sr56  1  0.85805435  0.59054282  0.30000000  1
  Sr  Sr57  1  0.85805435  0.59054282  0.50000000  1
  Sr  Sr58  1  0.85805435  0.59054282  0.70000000  1
  Sr  Sr59  1  0.85805435  0.59054282  0.90000000  1
  Sr  Sr60  1  0.30861232  0.34054282  0.10000000  1
  Sr  Sr61  1  0.30861232  0.34054282  0.30000000  1
  Sr  Sr62  1  0.30861232  0.34054282  0.50000000  1
  Sr  Sr63  1  0.30861232  0.34054282  0.70000000  1
  Sr  Sr64  1  0.30861232  0.34054282  0.90000000  1
  Sr  Sr65  1  0.30861232  0.84054282  0.10000000  1
  Sr  Sr66  1  0.30861232  0.84054282  0.30000000  1
  Sr  Sr67  1  0.30861232  0.84054282  0.50000000  1
  Sr  Sr68  1  0.30861232  0.84054282  0.70000000  1
  Sr  Sr69  1  0.30861232  0.84054282  0.90000000  1
  Sr  Sr70  1  0.64194565  0.34054282  0.10000000  1
  Sr  Sr71  1  0.64194565  0.34054282  0.30000000  1
  Sr  Sr72  1  0.64194565  0.34054282  0.50000000  1
  Sr  Sr73  1  0.64194565  0.34054282  0.70000000  1
  Sr  Sr74  1  0.64194565  0.34054282  0.90000000  1
  Sr  Sr75  1  0.64194565  0.84054282  0.10000000  1
  Sr  Sr76  1  0.64194565  0.84054282  0.30000000  1
  Sr  Sr77  1  0.64194565  0.84054282  0.50000000  1
  Sr  Sr78  1  0.64194565  0.84054282  0.70000000  1
  Sr  Sr79  1  0.64194565  0.84054282  0.90000000  1
  Sr  Sr80  1  0.97527898  0.34054282  0.10000000  1
  Sr  Sr81  1  0.97527898  0.34054282  0.30000000  1
  Sr  Sr82  1  0.97527898  0.34054282  0.50000000  1
  Sr  Sr83  1  0.97527898  0.34054282  0.70000000  1
  Sr  Sr84  1  0.97527898  0.34054282  0.90000000  1
  Sr  Sr85  1  0.97527898  0.84054282  0.10000000  1
  Sr  Sr86  1  0.97527898  0.84054282  0.30000000  1
  Sr  Sr87  1  0.97527898  0.84054282  0.50000000  1
  Sr  Sr88  1  0.97527898  0.84054282  0.70000000  1
  Sr  Sr89  1  0.97527898  0.84054282  0.90000000  1
  Sr  Sr90  1  0.02472102  0.15945718  0.10000000  1
  Sr  Sr91  1  0.02472102  0.15945718  0.30000000  1
  Sr  Sr92  1  0.02472102  0.15945718  0.50000000  1
  Sr  Sr93  1  0.02472102  0.15945718  0.70000000  1
  Sr  Sr94  1  0.02472102  0.15945718  0.90000000  1
  Sr  Sr95  1  0.02472102  0.65945718  0.10000000  1
  Sr  Sr96  1  0.02472102  0.65945718  0.30000000  1
  Sr  Sr97  1  0.02472102  0.65945718  0.50000000  1
  Sr  Sr98  1  0.02472102  0.65945718  0.70000000  1
  Sr  Sr99  1  0.02472102  0.65945718  0.90000000  1
  Sr  Sr100  1  0.35805435  0.15945718  0.10000000  1
  Sr  Sr101  1  0.35805435  0.15945718  0.30000000  1
  Sr  Sr102  1  0.35805435  0.15945718  0.50000000  1
  Sr  Sr103  1  0.35805435  0.15945718  0.70000000  1
  Sr  Sr104  1  0.35805435  0.15945718  0.90000000  1
  Sr  Sr105  1  0.35805435  0.65945718  0.10000000  1
  Sr  Sr106  1  0.35805435  0.65945718  0.30000000  1
  Sr  Sr107  1  0.35805435  0.65945718  0.50000000  1
  Sr  Sr108  1  0.35805435  0.65945718  0.70000000  1
  Sr  Sr109  1  0.35805435  0.65945718  0.90000000  1
  Sr  Sr110  1  0.69138768  0.15945718  0.10000000  1
  Sr  Sr111  1  0.69138768  0.15945718  0.30000000  1
  Sr  Sr112  1  0.69138768  0.15945718  0.50000000  1
  Sr  Sr113  1  0.69138768  0.15945718  0.70000000  1
  Sr  Sr114  1  0.69138768  0.15945718  0.90000000  1
  Sr  Sr115  1  0.69138768  0.65945718  0.10000000  1
  Sr  Sr116  1  0.69138768  0.65945718  0.30000000  1
  Sr  Sr117  1  0.69138768  0.65945718  0.50000000  1
  Sr  Sr118  1  0.69138768  0.65945718  0.70000000  1
  Sr  Sr119  1  0.69138768  0.65945718  0.90000000  1
  Pb  Pb120  1  0.16666667  0.25000000  0.00000000  1
  Pb  Pb121  1  0.16666667  0.25000000  0.20000000  1
  Pb  Pb122  1  0.16666667  0.25000000  0.40000000  1
  Pb  Pb123  1  0.16666667  0.25000000  0.60000000  1
  Pb  Pb124  1  0.16666667  0.25000000  0.80000000  1
  Pb  Pb125  1  0.16666667  0.75000000  0.00000000  1
  Pb  Pb126  1  0.16666667  0.75000000  0.20000000  1
  Pb  Pb127  1  0.16666667  0.75000000  0.40000000  1
  Pb  Pb128  1  0.16666667  0.75000000  0.60000000  1
  Pb  Pb129  1  0.16666667  0.75000000  0.80000000  1
  Pb  Pb130  1  0.50000000  0.25000000  0.00000000  1
  Pb  Pb131  1  0.50000000  0.25000000  0.20000000  1
  Pb  Pb132  1  0.50000000  0.25000000  0.40000000  1
  Pb  Pb133  1  0.50000000  0.25000000  0.60000000  1
  Pb  Pb134  1  0.50000000  0.25000000  0.80000000  1
  Pb  Pb135  1  0.50000000  0.75000000  0.00000000  1
  Pb  Pb136  1  0.50000000  0.75000000  0.20000000  1
  Pb  Pb137  1  0.50000000  0.75000000  0.40000000  1
  Pb  Pb138  1  0.50000000  0.75000000  0.60000000  1
  Pb  Pb139  1  0.50000000  0.75000000  0.80000000  1
  Pb  Pb140  1  0.83333333  0.25000000  0.00000000  1
  Pb  Pb141  1  0.83333333  0.25000000  0.20000000  1
  Pb  Pb142  1  0.83333333  0.25000000  0.40000000  1
  Pb  Pb143  1  0.83333333  0.25000000  0.60000000  1
  Pb  Pb144  1  0.83333333  0.25000000  0.80000000  1
  Pb  Pb145  1  0.83333333  0.75000000  0.00000000  1
  Pb  Pb146  1  0.83333333  0.75000000  0.20000000  1
  Pb  Pb147  1  0.83333333  0.75000000  0.40000000  1
  Pb  Pb148  1  0.83333333  0.75000000  0.60000000  1
  Pb  Pb149  1  0.83333333  0.75000000  0.80000000  1
  Pb  Pb150  1  0.00000000  0.00000000  0.00000000  1
  Pb  Pb151  1  0.00000000  0.00000000  0.20000000  1
  Pb  Pb152  1  0.00000000  0.00000000  0.40000000  1
  Pb  Pb153  1  0.00000000  0.00000000  0.60000000  1
  Pb  Pb154  1  0.00000000  0.00000000  0.80000000  1
  Pb  Pb155  1  0.00000000  0.50000000  0.00000000  1
  Pb  Pb156  1  0.00000000  0.50000000  0.20000000  1
  Pb  Pb157  1  0.00000000  0.50000000  0.40000000  1
  Pb  Pb158  1  0.00000000  0.50000000  0.60000000  1
  Pb  Pb159  1  0.00000000  0.50000000  0.80000000  1
  Pb  Pb160  1  0.33333333  0.00000000  0.00000000  1
  Pb  Pb161  1  0.33333333  0.00000000  0.20000000  1
  Pb  Pb162  1  0.33333333  0.00000000  0.40000000  1
  Pb  Pb163  1  0.33333333  0.00000000  0.60000000  1
  Pb  Pb164  1  0.33333333  0.00000000  0.80000000  1
  Pb  Pb165  1  0.33333333  0.50000000  0.00000000  1
  Pb  Pb166  1  0.33333333  0.50000000  0.20000000  1
  Pb  Pb167  1  0.33333333  0.50000000  0.40000000  1
  Pb  Pb168  1  0.33333333  0.50000000  0.60000000  1
  Pb  Pb169  1  0.33333333  0.50000000  0.80000000  1
  Pb  Pb170  1  0.66666667  0.00000000  0.00000000  1
  Pb  Pb171  1  0.66666667  0.00000000  0.20000000  1
  Pb  Pb172  1  0.66666667  0.00000000  0.40000000  1
  Pb  Pb173  1  0.66666667  0.00000000  0.60000000  1
  Pb  Pb174  1  0.66666667  0.00000000  0.80000000  1
  Pb  Pb175  1  0.66666667  0.50000000  0.00000000  1
  Pb  Pb176  1  0.66666667  0.50000000  0.20000000  1
  Pb  Pb177  1  0.66666667  0.50000000  0.40000000  1
  Pb  Pb178  1  0.66666667  0.50000000  0.60000000  1
  Pb  Pb179  1  0.66666667  0.50000000  0.80000000  1
  O  O180  1  0.04495222  0.40208350  0.00000000  1
  O  O181  1  0.04495222  0.40208350  0.20000000  1
  O  O182  1  0.04495222  0.40208350  0.40000000  1
  O  O183  1  0.04495222  0.40208350  0.60000000  1
  O  O184  1  0.04495222  0.40208350  0.80000000  1
  O  O185  1  0.04495222  0.90208350  0.00000000  1
  O  O186  1  0.04495222  0.90208350  0.20000000  1
  O  O187  1  0.04495222  0.90208350  0.40000000  1
  O  O188  1  0.04495222  0.90208350  0.60000000  1
  O  O189  1  0.04495222  0.90208350  0.80000000  1
  O  O190  1  0.37828556  0.40208350  0.00000000  1
  O  O191  1  0.37828556  0.40208350  0.20000000  1
  O  O192  1  0.37828556  0.40208350  0.40000000  1
  O  O193  1  0.37828556  0.40208350  0.60000000  1
  O  O194  1  0.37828556  0.40208350  0.80000000  1
  O  O195  1  0.37828556  0.90208350  0.00000000  1
  O  O196  1  0.37828556  0.90208350  0.20000000  1
  O  O197  1  0.37828556  0.90208350  0.40000000  1
  O  O198  1  0.37828556  0.90208350  0.60000000  1
  O  O199  1  0.37828556  0.90208350  0.80000000  1
  O  O200  1  0.71161889  0.40208350  0.00000000  1
  O  O201  1  0.71161889  0.40208350  0.20000000  1
  O  O202  1  0.71161889  0.40208350  0.40000000  1
  O  O203  1  0.71161889  0.40208350  0.60000000  1
  O  O204  1  0.71161889  0.40208350  0.80000000  1
  O  O205  1  0.71161889  0.90208350  0.00000000  1
  O  O206  1  0.71161889  0.90208350  0.20000000  1
  O  O207  1  0.71161889  0.90208350  0.40000000  1
  O  O208  1  0.71161889  0.90208350  0.60000000  1
  O  O209  1  0.71161889  0.90208350  0.80000000  1
  O  O210  1  0.28838111  0.09791650  0.00000000  1
  O  O211  1  0.28838111  0.09791650  0.20000000  1
  O  O212  1  0.28838111  0.09791650  0.40000000  1
  O  O213  1  0.28838111  0.09791650  0.60000000  1
  O  O214  1  0.28838111  0.09791650  0.80000000  1
  O  O215  1  0.28838111  0.59791650  0.00000000  1
  O  O216  1  0.28838111  0.59791650  0.20000000  1
  O  O217  1  0.28838111  0.59791650  0.40000000  1
  O  O218  1  0.28838111  0.59791650  0.60000000  1
  O  O219  1  0.28838111  0.59791650  0.80000000  1
  O  O220  1  0.62171444  0.09791650  0.00000000  1
  O  O221  1  0.62171444  0.09791650  0.20000000  1
  O  O222  1  0.62171444  0.09791650  0.40000000  1
  O  O223  1  0.62171444  0.09791650  0.60000000  1
  O  O224  1  0.62171444  0.09791650  0.80000000  1
  O  O225  1  0.62171444  0.59791650  0.00000000  1
  O  O226  1  0.62171444  0.59791650  0.20000000  1
  O  O227  1  0.62171444  0.59791650  0.40000000  1
  O  O228  1  0.62171444  0.59791650  0.60000000  1
  O  O229  1  0.62171444  0.59791650  0.80000000  1
  O  O230  1  0.95504778  0.09791650  0.00000000  1
  O  O231  1  0.95504778  0.09791650  0.20000000  1
  O  O232  1  0.95504778  0.09791650  0.40000000  1
  O  O233  1  0.95504778  0.09791650  0.60000000  1
  O  O234  1  0.95504778  0.09791650  0.80000000  1
  O  O235  1  0.95504778  0.59791650  0.00000000  1
  O  O236  1  0.95504778  0.59791650  0.20000000  1
  O  O237  1  0.95504778  0.59791650  0.40000000  1
  O  O238  1  0.95504778  0.59791650  0.60000000  1
  O  O239  1  0.95504778  0.59791650  0.80000000  1
  O  O240  1  0.21161889  0.34791650  0.00000000  1
  O  O241  1  0.21161889  0.34791650  0.20000000  1
  O  O242  1  0.21161889  0.34791650  0.40000000  1
  O  O243  1  0.21161889  0.34791650  0.60000000  1
  O  O244  1  0.21161889  0.34791650  0.80000000  1
  O  O245  1  0.21161889  0.84791650  0.00000000  1
  O  O246  1  0.21161889  0.84791650  0.20000000  1
  O  O247  1  0.21161889  0.84791650  0.40000000  1
  O  O248  1  0.21161889  0.84791650  0.60000000  1
  O  O249  1  0.21161889  0.84791650  0.80000000  1
  O  O250  1  0.54495222  0.34791650  0.00000000  1
  O  O251  1  0.54495222  0.34791650  0.20000000  1
  O  O252  1  0.54495222  0.34791650  0.40000000  1
  O  O253  1  0.54495222  0.34791650  0.60000000  1
  O  O254  1  0.54495222  0.34791650  0.80000000  1
  O  O255  1  0.54495222  0.84791650  0.00000000  1
  O  O256  1  0.54495222  0.84791650  0.20000000  1
  O  O257  1  0.54495222  0.84791650  0.40000000  1
  O  O258  1  0.54495222  0.84791650  0.60000000  1
  O  O259  1  0.54495222  0.84791650  0.80000000  1
  O  O260  1  0.87828556  0.34791650  0.00000000  1
  O  O261  1  0.87828556  0.34791650  0.20000000  1
  O  O262  1  0.87828556  0.34791650  0.40000000  1
  O  O263  1  0.87828556  0.34791650  0.60000000  1
  O  O264  1  0.87828556  0.34791650  0.80000000  1
  O  O265  1  0.87828556  0.84791650  0.00000000  1
  O  O266  1  0.87828556  0.84791650  0.20000000  1
  O  O267  1  0.87828556  0.84791650  0.40000000  1
  O  O268  1  0.87828556  0.84791650  0.60000000  1
  O  O269  1  0.87828556  0.84791650  0.80000000  1
  O  O270  1  0.12171444  0.15208350  0.00000000  1
  O  O271  1  0.12171444  0.15208350  0.20000000  1
  O  O272  1  0.12171444  0.15208350  0.40000000  1
  O  O273  1  0.12171444  0.15208350  0.60000000  1
  O  O274  1  0.12171444  0.15208350  0.80000000  1
  O  O275  1  0.12171444  0.65208350  0.00000000  1
  O  O276  1  0.12171444  0.65208350  0.20000000  1
  O  O277  1  0.12171444  0.65208350  0.40000000  1
  O  O278  1  0.12171444  0.65208350  0.60000000  1
  O  O279  1  0.12171444  0.65208350  0.80000000  1
  O  O280  1  0.45504778  0.15208350  0.00000000  1
  O  O281  1  0.45504778  0.15208350  0.20000000  1
  O  O282  1  0.45504778  0.15208350  0.40000000  1
  O  O283  1  0.45504778  0.15208350  0.60000000  1
  O  O284  1  0.45504778  0.15208350  0.80000000  1
  O  O285  1  0.45504778  0.65208350  0.00000000  1
  O  O286  1  0.45504778  0.65208350  0.20000000  1
  O  O287  1  0.45504778  0.65208350  0.40000000  1
  O  O288  1  0.45504778  0.65208350  0.60000000  1
  O  O289  1  0.45504778  0.65208350  0.80000000  1
  O  O290  1  0.78838111  0.15208350  0.00000000  1
  O  O291  1  0.78838111  0.15208350  0.20000000  1
  O  O292  1  0.78838111  0.15208350  0.40000000  1
  O  O293  1  0.78838111  0.15208350  0.60000000  1
  O  O294  1  0.78838111  0.15208350  0.80000000  1
  O  O295  1  0.78838111  0.65208350  0.00000000  1
  O  O296  1  0.78838111  0.65208350  0.20000000  1
  O  O297  1  0.78838111  0.65208350  0.40000000  1
  O  O298  1  0.78838111  0.65208350  0.60000000  1
  O  O299  1  0.78838111  0.65208350  0.80000000  1
  O  O300  1  0.09140481  0.27528629  0.10000000  1
  O  O301  1  0.09140481  0.27528629  0.30000000  1
  O  O302  1  0.09140481  0.27528629  0.50000000  1
  O  O303  1  0.09140481  0.27528629  0.70000000  1
  O  O304  1  0.09140481  0.27528629  0.90000000  1
  O  O305  1  0.09140481  0.77528629  0.10000000  1
  O  O306  1  0.09140481  0.77528629  0.30000000  1
  O  O307  1  0.09140481  0.77528629  0.50000000  1
  O  O308  1  0.09140481  0.77528629  0.70000000  1
  O  O309  1  0.09140481  0.77528629  0.90000000  1
  O  O310  1  0.42473815  0.27528629  0.10000000  1
  O  O311  1  0.42473815  0.27528629  0.30000000  1
  O  O312  1  0.42473815  0.27528629  0.50000000  1
  O  O313  1  0.42473815  0.27528629  0.70000000  1
  O  O314  1  0.42473815  0.27528629  0.90000000  1
  O  O315  1  0.42473815  0.77528629  0.10000000  1
  O  O316  1  0.42473815  0.77528629  0.30000000  1
  O  O317  1  0.42473815  0.77528629  0.50000000  1
  O  O318  1  0.42473815  0.77528629  0.70000000  1
  O  O319  1  0.42473815  0.77528629  0.90000000  1
  O  O320  1  0.75807148  0.27528629  0.10000000  1
  O  O321  1  0.75807148  0.27528629  0.30000000  1
  O  O322  1  0.75807148  0.27528629  0.50000000  1
  O  O323  1  0.75807148  0.27528629  0.70000000  1
  O  O324  1  0.75807148  0.27528629  0.90000000  1
  O  O325  1  0.75807148  0.77528629  0.10000000  1
  O  O326  1  0.75807148  0.77528629  0.30000000  1
  O  O327  1  0.75807148  0.77528629  0.50000000  1
  O  O328  1  0.75807148  0.77528629  0.70000000  1
  O  O329  1  0.75807148  0.77528629  0.90000000  1
  O  O330  1  0.24192852  0.22471371  0.10000000  1
  O  O331  1  0.24192852  0.22471371  0.30000000  1
  O  O332  1  0.24192852  0.22471371  0.50000000  1
  O  O333  1  0.24192852  0.22471371  0.70000000  1
  O  O334  1  0.24192852  0.22471371  0.90000000  1
  O  O335  1  0.24192852  0.72471371  0.10000000  1
  O  O336  1  0.24192852  0.72471371  0.30000000  1
  O  O337  1  0.24192852  0.72471371  0.50000000  1
  O  O338  1  0.24192852  0.72471371  0.70000000  1
  O  O339  1  0.24192852  0.72471371  0.90000000  1
  O  O340  1  0.57526185  0.22471371  0.10000000  1
  O  O341  1  0.57526185  0.22471371  0.30000000  1
  O  O342  1  0.57526185  0.22471371  0.50000000  1
  O  O343  1  0.57526185  0.22471371  0.70000000  1
  O  O344  1  0.57526185  0.22471371  0.90000000  1
  O  O345  1  0.57526185  0.72471371  0.10000000  1
  O  O346  1  0.57526185  0.72471371  0.30000000  1
  O  O347  1  0.57526185  0.72471371  0.50000000  1
  O  O348  1  0.57526185  0.72471371  0.70000000  1
  O  O349  1  0.57526185  0.72471371  0.90000000  1
  O  O350  1  0.90859519  0.22471371  0.10000000  1
  O  O351  1  0.90859519  0.22471371  0.30000000  1
  O  O352  1  0.90859519  0.22471371  0.50000000  1
  O  O353  1  0.90859519  0.22471371  0.70000000  1
  O  O354  1  0.90859519  0.22471371  0.90000000  1
  O  O355  1  0.90859519  0.72471371  0.10000000  1
  O  O356  1  0.90859519  0.72471371  0.30000000  1
  O  O357  1  0.90859519  0.72471371  0.50000000  1
  O  O358  1  0.90859519  0.72471371  0.70000000  1
  O  O359  1  0.90859519  0.72471371  0.90000000  1
  O  O360  1  0.07526185  0.02528629  0.10000000  1
  O  O361  1  0.07526185  0.02528629  0.30000000  1
  O  O362  1  0.07526185  0.02528629  0.50000000  1
  O  O363  1  0.07526185  0.02528629  0.70000000  1
  O  O364  1  0.07526185  0.02528629  0.90000000  1
  O  O365  1  0.07526185  0.52528629  0.10000000  1
  O  O366  1  0.07526185  0.52528629  0.30000000  1
  O  O367  1  0.07526185  0.52528629  0.50000000  1
  O  O368  1  0.07526185  0.52528629  0.70000000  1
  O  O369  1  0.07526185  0.52528629  0.90000000  1
  O  O370  1  0.40859519  0.02528629  0.10000000  1
  O  O371  1  0.40859519  0.02528629  0.30000000  1
  O  O372  1  0.40859519  0.02528629  0.50000000  1
  O  O373  1  0.40859519  0.02528629  0.70000000  1
  O  O374  1  0.40859519  0.02528629  0.90000000  1
  O  O375  1  0.40859519  0.52528629  0.10000000  1
  O  O376  1  0.40859519  0.52528629  0.30000000  1
  O  O377  1  0.40859519  0.52528629  0.50000000  1
  O  O378  1  0.40859519  0.52528629  0.70000000  1
  O  O379  1  0.40859519  0.52528629  0.90000000  1
  O  O380  1  0.74192852  0.02528629  0.10000000  1
  O  O381  1  0.74192852  0.02528629  0.30000000  1
  O  O382  1  0.74192852  0.02528629  0.50000000  1
  O  O383  1  0.74192852  0.02528629  0.70000000  1
  O  O384  1  0.74192852  0.02528629  0.90000000  1
  O  O385  1  0.74192852  0.52528629  0.10000000  1
  O  O386  1  0.74192852  0.52528629  0.30000000  1
  O  O387  1  0.74192852  0.52528629  0.50000000  1
  O  O388  1  0.74192852  0.52528629  0.70000000  1
  O  O389  1  0.74192852  0.52528629  0.90000000  1
  O  O390  1  0.25807148  0.47471371  0.10000000  1
  O  O391  1  0.25807148  0.47471371  0.30000000  1
  O  O392  1  0.25807148  0.47471371  0.50000000  1
  O  O393  1  0.25807148  0.47471371  0.70000000  1
  O  O394  1  0.25807148  0.47471371  0.90000000  1
  O  O395  1  0.25807148  0.97471371  0.10000000  1
  O  O396  1  0.25807148  0.97471371  0.30000000  1
  O  O397  1  0.25807148  0.97471371  0.50000000  1
  O  O398  1  0.25807148  0.97471371  0.70000000  1
  O  O399  1  0.25807148  0.97471371  0.90000000  1
  O  O400  1  0.59140481  0.47471371  0.10000000  1
  O  O401  1  0.59140481  0.47471371  0.30000000  1
  O  O402  1  0.59140481  0.47471371  0.50000000  1
  O  O403  1  0.59140481  0.47471371  0.70000000  1
  O  O404  1  0.59140481  0.47471371  0.90000000  1
  O  O405  1  0.59140481  0.97471371  0.10000000  1
  O  O406  1  0.59140481  0.97471371  0.30000000  1
  O  O407  1  0.59140481  0.97471371  0.50000000  1
  O  O408  1  0.59140481  0.97471371  0.70000000  1
  O  O409  1  0.59140481  0.97471371  0.90000000  1
  O  O410  1  0.92473815  0.47471371  0.10000000  1
  O  O411  1  0.92473815  0.47471371  0.30000000  1
  O  O412  1  0.92473815  0.47471371  0.50000000  1
  O  O413  1  0.92473815  0.47471371  0.70000000  1
  O  O414  1  0.92473815  0.47471371  0.90000000  1
  O  O415  1  0.92473815  0.97471371  0.10000000  1
  O  O416  1  0.92473815  0.97471371  0.30000000  1
  O  O417  1  0.92473815  0.97471371  0.50000000  1
  O  O418  1  0.92473815  0.97471371  0.70000000  1
  O  O419  1  0.92473815  0.97471371  0.90000000  1
