# generated using pymatgen
data_TiO2
_symmetry_space_group_name_H-M   'P 1'
_cell_length_a   12.23190677
_cell_length_b   11.28943901
_cell_length_c   13.08974913
_cell_angle_alpha   90.00000000
_cell_angle_beta   106.89030654
_cell_angle_gamma   90.00000000
_symmetry_Int_Tables_number   1
_chemical_formula_structural   TiO2
_chemical_formula_sum   'Ti48 O96'
_cell_volume   1729.60724770
_cell_formula_units_Z   48
loop_
 _symmetry_equiv_pos_site_id
 _symmetry_equiv_pos_as_xyz
  1  'x, y, z'
loop_
 _atom_site_type_symbol
 _atom_site_label
 _atom_site_symmetry_multiplicity
 _atom_site_fract_x
 _atom_site_fract_y
 _atom_site_fract_z
 _atom_site_occupancy
  Ti  Ti0  1  0.19624786  0.00000000  0.14343183  1
  Ti  Ti1  1  0.19624786  0.00000000  0.64343183  1
  Ti  Ti2  1  0.19624786  0.33333333  0.14343183  1
  Ti  Ti3  1  0.19624786  0.33333333  0.64343183  1
  Ti  Ti4  1  0.19624786  0.66666667  0.14343183  1
  Ti  Ti5  1  0.19624786  0.66666667  0.64343183  1
  Ti  Ti6  1  0.69624786  0.16666667  0.14343183  1
  Ti  Ti7  1  0.69624786  0.16666667  0.64343183  1
  Ti  Ti8  1  0.69624786  0.50000000  0.14343183  1
  Ti  Ti9  1  0.69624786  0.50000000  0.64343183  1
  Ti  Ti10  1  0.69624786  0.83333333  0.14343183  1
  Ti  Ti11  1  0.69624786  0.83333333  0.64343183  1
  Ti  Ti12  1  0.89839587  -0.00000000  0.14685455  1
  Ti  Ti13  1  0.89839587  -0.00000000  0.64685455  1
  Ti  Ti14  1  0.89839587  0.33333333  0.14685455  1
  Ti  Ti15  1  0.89839587  0.33333333  0.64685455  1
  Ti  Ti16  1  0.89839587  0.66666667  0.14685455  1
  Ti  Ti17  1  0.89839587  0.66666667  0.64685455  1
  Ti  Ti18  1  1.39839587  0.16666667  0.14685455  1
  Ti  Ti19  1  1.39839587  0.16666667  0.64685455  1
  Ti  Ti20  1  1.39839587  0.50000000  0.14685455  1
  Ti  Ti21  1  1.39839587  0.50000000  0.64685455  1
  Ti  Ti22  1  1.39839587  0.83333333  0.14685455  1
  Ti  Ti23  1  1.39839587  0.83333333  0.64685455  1
  Ti  Ti24  1  0.80375214  -0.00000000  0.35656817  1
  Ti  Ti25  1  0.80375214  -0.00000000  0.85656817  1
  Ti  Ti26  1  0.80375214  0.33333333  0.35656817  1
  Ti  Ti27  1  0.80375214  0.33333333  0.85656817  1
  Ti  Ti28  1  0.80375214  0.66666667  0.35656817  1
  Ti  Ti29  1  0.80375214  0.66666667  0.85656817  1
  Ti  Ti30  1  1.30375214  0.16666667  0.35656817  1
  Ti  Ti31  1  1.30375214  0.16666667  0.85656817  1
  Ti  Ti32  1  1.30375214  0.50000000  0.35656817  1
  Ti  Ti33  1  1.30375214  0.50000000  0.85656817  1
  Ti  Ti34  1  1.30375214  0.83333333  0.35656817  1
  Ti  Ti35  1  1.30375214  0.83333333  0.85656817  1
  Ti  Ti36  1  0.10160413  0.00000000  0.35314545  1
  Ti  Ti37  1  0.10160413  0.00000000  0.85314545  1
  Ti  Ti38  1  0.10160413  0.33333333  0.35314545  1
  Ti  Ti39  1  0.10160413  0.33333333  0.85314545  1
  Ti  Ti40  1  0.10160413  0.66666667  0.35314545  1
  Ti  Ti41  1  0.10160413  0.66666667  0.85314545  1
  Ti  Ti42  1  0.60160413  0.16666667  0.35314545  1
  Ti  Ti43  1  0.60160413  0.16666667  0.85314545  1
  Ti  Ti44  1  0.60160413  0.50000000  0.35314545  1
  Ti  Ti45  1  0.60160413  0.50000000  0.85314545  1
  Ti  Ti46  1  0.60160413  0.83333333  0.35314545  1
  Ti  Ti47  1  0.60160413  0.83333333  0.85314545  1
  O  O48  1  0.94133298  -0.00000000  0.31447344  1
  O  O49  1  0.94133298  -0.00000000  0.81447344  1
  O  O50  1  0.94133298  0.33333333  0.31447344  1
  O  O51  1  0.94133298  0.33333333  0.81447344  1
  O  O52  1  0.94133298  0.66666667  0.31447344  1
  O  O53  1  0.94133298  0.66666667  0.81447344  1
  O  O54  1  1.44133298  0.16666667  0.31447344  1
  O  O55  1  1.44133298  0.16666667  0.81447344  1
  O  O56  1  1.44133298  0.50000000  0.31447344  1
  O  O57  1  1.44133298  0.50000000  0.81447344  1
  O  O58  1  1.44133298  0.83333333  0.31447344  1
  O  O59  1  1.44133298  0.83333333  0.81447344  1
  O  O60  1  0.36162702  -0.00000000  0.14804808  1
  O  O61  1  0.36162702  -0.00000000  0.64804808  1
  O  O62  1  0.36162702  0.33333333  0.14804808  1
  O  O63  1  0.36162702  0.33333333  0.64804808  1
  O  O64  1  0.36162702  0.66666667  0.14804808  1
  O  O65  1  0.36162702  0.66666667  0.64804808  1
  O  O66  1  0.86162702  0.16666667  0.14804808  1
  O  O67  1  0.86162702  0.16666667  0.64804808  1
  O  O68  1  0.86162702  0.50000000  0.14804808  1
  O  O69  1  0.86162702  0.50000000  0.64804808  1
  O  O70  1  0.86162702  0.83333333  0.14804808  1
  O  O71  1  0.86162702  0.83333333  0.64804808  1
  O  O72  1  0.86587577  0.00000000  0.49855650  1
  O  O73  1  0.86587577  0.00000000  0.99855650  1
  O  O74  1  0.86587577  0.33333333  0.49855650  1
  O  O75  1  0.86587577  0.33333333  0.99855650  1
  O  O76  1  0.86587577  0.66666667  0.49855650  1
  O  O77  1  0.86587577  0.66666667  0.99855650  1
  O  O78  1  1.36587577  0.16666667  0.49855650  1
  O  O79  1  1.36587577  0.16666667  0.99855650  1
  O  O80  1  1.36587577  0.50000000  0.49855650  1
  O  O81  1  1.36587577  0.50000000  0.99855650  1
  O  O82  1  1.36587577  0.83333333  0.49855650  1
  O  O83  1  1.36587577  0.83333333  0.99855650  1
  O  O84  1  0.05866702  -0.00000000  0.18552656  1
  O  O85  1  0.05866702  -0.00000000  0.68552656  1
  O  O86  1  0.05866702  0.33333333  0.18552656  1
  O  O87  1  0.05866702  0.33333333  0.68552656  1
  O  O88  1  0.05866702  0.66666667  0.18552656  1
  O  O89  1  0.05866702  0.66666667  0.68552656  1
  O  O90  1  0.55866702  0.16666667  0.18552656  1
  O  O91  1  0.55866702  0.16666667  0.68552656  1
  O  O92  1  0.55866702  0.50000000  0.18552656  1
  O  O93  1  0.55866702  0.50000000  0.68552656  1
  O  O94  1  0.55866702  0.83333333  0.18552656  1
  O  O95  1  0.55866702  0.83333333  0.68552656  1
  O  O96  1  0.26271218  -0.00000000  0.32433663  1
  O  O97  1  0.26271218  -0.00000000  0.82433663  1
  O  O98  1  0.26271218  0.33333333  0.32433663  1
  O  O99  1  0.26271218  0.33333333  0.82433663  1
  O  O100  1  0.26271218  0.66666667  0.32433663  1
  O  O101  1  0.26271218  0.66666667  0.82433663  1
  O  O102  1  0.76271218  0.16666667  0.32433663  1
  O  O103  1  0.76271218  0.16666667  0.82433663  1
  O  O104  1  0.76271218  0.50000000  0.32433663  1
  O  O105  1  0.76271218  0.50000000  0.82433663  1
  O  O106  1  0.76271218  0.83333333  0.32433663  1
  O  O107  1  0.76271218  0.83333333  0.82433663  1
  O  O108  1  0.13412423  -0.00000000  0.00144350  1
  O  O109  1  0.13412423  -0.00000000  0.50144350  1
  O  O110  1  0.13412423  0.33333333  0.00144350  1
  O  O111  1  0.13412423  0.33333333  0.50144350  1
  O  O112  1  0.13412423  0.66666667  0.00144350  1
  O  O113  1  0.13412423  0.66666667  0.50144350  1
  O  O114  1  0.63412423  0.16666667  0.00144350  1
  O  O115  1  0.63412423  0.16666667  0.50144350  1
  O  O116  1  0.63412423  0.50000000  0.00144350  1
  O  O117  1  0.63412423  0.50000000  0.50144350  1
  O  O118  1  0.63412423  0.83333333  0.00144350  1
  O  O119  1  0.63412423  0.83333333  0.50144350  1
  O  O120  1  0.73728782  0.00000000  0.17566337  1
  O  O121  1  0.73728782  0.00000000  0.67566337  1
  O  O122  1  0.73728782  0.33333333  0.17566337  1
  O  O123  1  0.73728782  0.33333333  0.67566337  1
  O  O124  1  0.73728782  0.66666667  0.17566337  1
  O  O125  1  0.73728782  0.66666667  0.67566337  1
  O  O126  1  1.23728782  0.16666667  0.17566337  1
  O  O127  1  1.23728782  0.16666667  0.67566337  1
  O  O128  1  1.23728782  0.50000000  0.17566337  1
  O  O129  1  1.23728782  0.50000000  0.67566337  1
  O  O130  1  1.23728782  0.83333333  0.17566337  1
  O  O131  1  1.23728782  0.83333333  0.67566337  1
  O  O132  1  0.63837298  -0.00000000  0.35195192  1
  O  O133  1  0.63837298  -0.00000000  0.85195192  1
  O  O134  1  0.63837298  0.33333333  0.35195192  1
  O  O135  1  0.63837298  0.33333333  0.85195192  1
  O  O136  1  0.63837298  0.66666667  0.35195192  1
  O  O137  1  0.63837298  0.66666667  0.85195192  1
  O  O138  1  1.13837298  0.16666667  0.35195192  1
  O  O139  1  1.13837298  0.16666667  0.85195192  1
  O  O140  1  1.13837298  0.50000000  0.35195192  1
  O  O141  1  1.13837298  0.50000000  0.85195192  1
  O  O142  1  1.13837298  0.83333333  0.35195192  1
  O  O143  1  1.13837298  0.83333333  0.85195192  1
