# generated using pymatgen
data_K2O
_symmetry_space_group_name_H-M   'P 1'
_cell_length_a   12.83666701
_cell_length_b   12.83666701
_cell_length_c   12.83666701
_cell_angle_alpha   90.00000000
_cell_angle_beta   90.00000000
_cell_angle_gamma   90.00000000
_symmetry_Int_Tables_number   1
_chemical_formula_structural   K2O
_chemical_formula_sum   'K64 O32'
_cell_volume   2115.22624547
_cell_formula_units_Z   32
loop_
 _symmetry_equiv_pos_site_id
 _symmetry_equiv_pos_as_xyz
  1  'x, y, z'
loop_
 _atom_site_type_symbol
 _atom_site_label
 _atom_site_symmetry_multiplicity
 _atom_site_fract_x
 _atom_site_fract_y
 _atom_site_fract_z
 _atom_site_occupancy
  K  K0  1  0.12500000  0.12500000  0.12500000  1
  K  K1  1  0.12500000  0.12500000  0.62500000  1
  K  K2  1  0.12500000  0.62500000  0.12500000  1
  K  K3  1  0.12500000  0.62500000  0.62500000  1
  K  K4  1  0.62500000  0.12500000  0.12500000  1
  K  K5  1  0.62500000  0.12500000  0.62500000  1
  K  K6  1  0.62500000  0.62500000  0.12500000  1
  K  K7  1  0.62500000  0.62500000  0.62500000  1
  K  K8  1  0.37500000  0.37500000  0.12500000  1
  K  K9  1  0.37500000  0.37500000  0.62500000  1
  K  K10  1  0.37500000  0.87500000  0.12500000  1
  K  K11  1  0.37500000  0.87500000  0.62500000  1
  K  K12  1  0.87500000  0.37500000  0.12500000  1
  K  K13  1  0.87500000  0.37500000  0.62500000  1
  K  K14  1  0.87500000  0.87500000  0.12500000  1
  K  K15  1  0.87500000  0.87500000  0.62500000  1
  K  K16  1  0.37500000  0.12500000  0.37500000  1
  K  K17  1  0.37500000  0.12500000  0.87500000  1
  K  K18  1  0.37500000  0.62500000  0.37500000  1
  K  K19  1  0.37500000  0.62500000  0.87500000  1
  K  K20  1  0.87500000  0.12500000  0.37500000  1
  K  K21  1  0.87500000  0.12500000  0.87500000  1
  K  K22  1  0.87500000  0.62500000  0.37500000  1
  K  K23  1  0.87500000  0.62500000  0.87500000  1
  K  K24  1  0.12500000  0.37500000  0.37500000  1
  K  K25  1  0.12500000  0.37500000  0.87500000  1
  K  K26  1  0.12500000  0.87500000  0.37500000  1
  K  K27  1  0.12500000  0.87500000  0.87500000  1
  K  K28  1  0.62500000  0.37500000  0.37500000  1
  K  K29  1  0.62500000  0.37500000  0.87500000  1
  K  K30  1  0.62500000  0.87500000  0.37500000  1
  K  K31  1  0.62500000  0.87500000  0.87500000  1
  K  K32  1  0.37500000  0.37500000  0.37500000  1
  K  K33  1  0.37500000  0.37500000  0.87500000  1
  K  K34  1  0.37500000  0.87500000  0.37500000  1
  K  K35  1  0.37500000  0.87500000  0.87500000  1
  K  K36  1  0.87500000  0.37500000  0.37500000  1
  K  K37  1  0.87500000  0.37500000  0.87500000  1
  K  K38  1  0.87500000  0.87500000  0.37500000  1
  K  K39  1  0.87500000  0.87500000  0.87500000  1
  K  K40  1  0.62500000  0.62500000  0.37500000  1
  K  K41  1  0.62500000  0.62500000  0.87500000  1
  K  K42  1  0.62500000  1.12500000  0.37500000  1
  K  K43  1  0.62500000  1.12500000  0.87500000  1
  K  K44  1  1.12500000  0.62500000  0.37500000  1
  K  K45  1  1.12500000  0.62500000  0.87500000  1
  K  K46  1  1.12500000  1.12500000  0.37500000  1
  K  K47  1  1.12500000  1.12500000  0.87500000  1
  K  K48  1  0.62500000  0.37500000  0.62500000  1
  K  K49  1  0.62500000  0.37500000  1.12500000  1
  K  K50  1  0.62500000  0.87500000  0.62500000  1
  K  K51  1  0.62500000  0.87500000  1.12500000  1
  K  K52  1  1.12500000  0.37500000  0.62500000  1
  K  K53  1  1.12500000  0.37500000  1.12500000  1
  K  K54  1  1.12500000  0.87500000  0.62500000  1
  K  K55  1  1.12500000  0.87500000  1.12500000  1
  K  K56  1  0.37500000  0.62500000  0.62500000  1
  K  K57  1  0.37500000  0.62500000  1.12500000  1
  K  K58  1  0.37500000  1.12500000  0.62500000  1
  K  K59  1  0.37500000  1.12500000  1.12500000  1
  K  K60  1  0.87500000  0.62500000  0.62500000  1
  K  K61  1  0.87500000  0.62500000  1.12500000  1
  K  K62  1  0.87500000  1.12500000  0.62500000  1
  K  K63  1  0.87500000  1.12500000  1.12500000  1
  O  O64  1  0.00000000  0.00000000  0.00000000  1
  O  O65  1  0.00000000  0.00000000  0.50000000  1
  O  O66  1  0.00000000  0.50000000  0.00000000  1
  O  O67  1  0.00000000  0.50000000  0.50000000  1
  O  O68  1  0.50000000  0.00000000  0.00000000  1
  O  O69  1  0.50000000  0.00000000  0.50000000  1
  O  O70  1  0.50000000  0.50000000  0.00000000  1
  O  O71  1  0.50000000  0.50000000  0.50000000  1
  O  O72  1  0.25000000  0.25000000  0.00000000  1
  O  O73  1  0.25000000  0.25000000  0.50000000  1
  O  O74  1  0.25000000  0.75000000  0.00000000  1
  O  O75  1  0.25000000  0.75000000  0.50000000  1
  O  O76  1  0.75000000  0.25000000  0.00000000  1
  O  O77  1  0.75000000  0.25000000  0.50000000  1
  O  O78  1  0.75000000  0.75000000  0.00000000  1
  O  O79  1  0.75000000  0.75000000  0.50000000  1
  O  O80  1  0.25000000  0.00000000  0.25000000  1
  O  O81  1  0.25000000  0.00000000  0.75000000  1
  O  O82  1  0.25000000  0.50000000  0.25000000  1
  O  O83  1  0.25000000  0.50000000  0.75000000  1
  O  O84  1  0.75000000  0.00000000  0.25000000  1
  O  O85  1  0.75000000  0.00000000  0.75000000  1
  O  O86  1  0.75000000  0.50000000  0.25000000  1
  O  O87  1  0.75000000  0.50000000  0.75000000  1
  O  O88  1  0.00000000  0.25000000  0.25000000  1
  O  O89  1  0.00000000  0.25000000  0.75000000  1
  O  O90  1  0.00000000  0.75000000  0.25000000  1
  O  O91  1  0.00000000  0.75000000  0.75000000  1
  O  O92  1  0.50000000  0.25000000  0.25000000  1
  O  O93  1  0.50000000  0.25000000  0.75000000  1
  O  O94  1  0.50000000  0.75000000  0.25000000  1
  O  O95  1  0.50000000  0.75000000  0.75000000  1
