# generated using pymatgen
data_LiSb3O8
_symmetry_space_group_name_H-M   'P 1'
_cell_length_a   11.28890947
_cell_length_b   9.46474629
_cell_length_c   10.35429394
_cell_angle_alpha   90.00000000
_cell_angle_beta   96.55155003
_cell_angle_gamma   90.00000000
_symmetry_Int_Tables_number   1
_chemical_formula_structural   LiSb3O8
_chemical_formula_sum   'Li8 Sb24 O64'
_cell_volume   1099.09704563
_cell_formula_units_Z   8
loop_
 _symmetry_equiv_pos_site_id
 _symmetry_equiv_pos_as_xyz
  1  'x, y, z'
loop_
 _atom_site_type_symbol
 _atom_site_label
 _atom_site_symmetry_multiplicity
 _atom_site_fract_x
 _atom_site_fract_y
 _atom_site_fract_z
 _atom_site_occupancy
  Li  Li0  1  0.00000000  0.00000000  0.00000000  1
  Li  Li1  1  0.00000000  0.50000000  0.00000000  1
  Li  Li2  1  0.50000000  0.00000000  0.00000000  1
  Li  Li3  1  0.50000000  0.50000000  0.00000000  1
  Li  Li4  1  -0.00000000  0.25000000  0.50000000  1
  Li  Li5  1  -0.00000000  0.75000000  0.50000000  1
  Li  Li6  1  0.50000000  0.25000000  0.50000000  1
  Li  Li7  1  0.50000000  0.75000000  0.50000000  1
  Sb  Sb8  1  0.25000000  0.00000000  0.50000000  1
  Sb  Sb9  1  0.25000000  0.50000000  0.50000000  1
  Sb  Sb10  1  0.75000000  0.00000000  0.50000000  1
  Sb  Sb11  1  0.75000000  0.50000000  0.50000000  1
  Sb  Sb12  1  0.25000000  0.25000000  0.00000000  1
  Sb  Sb13  1  0.25000000  0.75000000  0.00000000  1
  Sb  Sb14  1  0.75000000  0.25000000  0.00000000  1
  Sb  Sb15  1  0.75000000  0.75000000  0.00000000  1
  Sb  Sb16  1  0.11838704  0.23909574  0.25102298  1
  Sb  Sb17  1  0.11838704  0.73909574  0.25102298  1
  Sb  Sb18  1  0.61838704  0.23909574  0.25102298  1
  Sb  Sb19  1  0.61838704  0.73909574  0.25102298  1
  Sb  Sb20  1  0.38161296  0.48909574  0.24897702  1
  Sb  Sb21  1  0.38161296  0.98909574  0.24897702  1
  Sb  Sb22  1  0.88161296  0.48909574  0.24897702  1
  Sb  Sb23  1  0.88161296  0.98909574  0.24897702  1
  Sb  Sb24  1  0.38161296  0.26090426  0.74897702  1
  Sb  Sb25  1  0.38161296  0.76090426  0.74897702  1
  Sb  Sb26  1  0.88161296  0.26090426  0.74897702  1
  Sb  Sb27  1  0.88161296  0.76090426  0.74897702  1
  Sb  Sb28  1  0.11838704  0.01090426  0.75102298  1
  Sb  Sb29  1  0.11838704  0.51090426  0.75102298  1
  Sb  Sb30  1  0.61838704  0.01090426  0.75102298  1
  Sb  Sb31  1  0.61838704  0.51090426  0.75102298  1
  O  O32  1  0.11749230  0.41424139  0.58146857  1
  O  O33  1  0.11749230  0.91424139  0.58146857  1
  O  O34  1  0.61749230  0.41424139  0.58146857  1
  O  O35  1  0.61749230  0.91424139  0.58146857  1
  O  O36  1  0.38250770  0.16424139  0.91853143  1
  O  O37  1  0.38250770  0.66424139  0.91853143  1
  O  O38  1  0.88250770  0.16424139  0.91853143  1
  O  O39  1  0.88250770  0.66424139  0.91853143  1
  O  O40  1  0.38250770  0.08575861  0.41853143  1
  O  O41  1  0.38250770  0.58575861  0.41853143  1
  O  O42  1  0.88250770  0.08575861  0.41853143  1
  O  O43  1  0.88250770  0.58575861  0.41853143  1
  O  O44  1  0.11749230  0.33575861  0.08146857  1
  O  O45  1  0.11749230  0.83575861  0.08146857  1
  O  O46  1  0.61749230  0.33575861  0.08146857  1
  O  O47  1  0.61749230  0.83575861  0.08146857  1
  O  O48  1  0.23952258  0.35887980  0.82603507  1
  O  O49  1  0.23952258  0.85887980  0.82603507  1
  O  O50  1  0.73952258  0.35887980  0.82603507  1
  O  O51  1  0.73952258  0.85887980  0.82603507  1
  O  O52  1  0.26047742  0.10887980  0.67396493  1
  O  O53  1  0.26047742  0.60887980  0.67396493  1
  O  O54  1  0.76047742  0.10887980  0.67396493  1
  O  O55  1  0.76047742  0.60887980  0.67396493  1
  O  O56  1  0.26047742  0.14112020  0.17396493  1
  O  O57  1  0.26047742  0.64112020  0.17396493  1
  O  O58  1  0.76047742  0.14112020  0.17396493  1
  O  O59  1  0.76047742  0.64112020  0.17396493  1
  O  O60  1  0.23952258  0.39112020  0.32603507  1
  O  O61  1  0.23952258  0.89112020  0.32603507  1
  O  O62  1  0.73952258  0.39112020  0.32603507  1
  O  O63  1  0.73952258  0.89112020  0.32603507  1
  O  O64  1  0.13972553  0.10299474  0.92130790  1
  O  O65  1  0.13972553  0.60299474  0.92130790  1
  O  O66  1  0.63972553  0.10299474  0.92130790  1
  O  O67  1  0.63972553  0.60299474  0.92130790  1
  O  O68  1  0.36027447  0.35299474  0.57869210  1
  O  O69  1  0.36027447  0.85299474  0.57869210  1
  O  O70  1  0.86027447  0.35299474  0.57869210  1
  O  O71  1  0.86027447  0.85299474  0.57869210  1
  O  O72  1  0.36027447  0.39700526  0.07869210  1
  O  O73  1  0.36027447  0.89700526  0.07869210  1
  O  O74  1  0.86027447  0.39700526  0.07869210  1
  O  O75  1  0.86027447  0.89700526  0.07869210  1
  O  O76  1  0.13972553  0.14700526  0.42130790  1
  O  O77  1  0.13972553  0.64700526  0.42130790  1
  O  O78  1  0.63972553  0.14700526  0.42130790  1
  O  O79  1  0.63972553  0.64700526  0.42130790  1
  O  O80  1  0.49358080  0.34502604  0.32545351  1
  O  O81  1  0.49358080  0.84502604  0.32545351  1
  O  O82  1  0.99358080  0.34502604  0.32545351  1
  O  O83  1  0.99358080  0.84502604  0.32545351  1
  O  O84  1  0.00641920  0.09502604  0.17454649  1
  O  O85  1  0.00641920  0.59502604  0.17454649  1
  O  O86  1  0.50641920  0.09502604  0.17454649  1
  O  O87  1  0.50641920  0.59502604  0.17454649  1
  O  O88  1  0.00641920  0.15497396  0.67454649  1
  O  O89  1  0.00641920  0.65497396  0.67454649  1
  O  O90  1  0.50641920  0.15497396  0.67454649  1
  O  O91  1  0.50641920  0.65497396  0.67454649  1
  O  O92  1  0.49358080  0.40497396  0.82545351  1
  O  O93  1  0.49358080  0.90497396  0.82545351  1
  O  O94  1  0.99358080  0.40497396  0.82545351  1
  O  O95  1  0.99358080  0.90497396  0.82545351  1
