# generated using pymatgen
data_CsSr2Ta3O10
_symmetry_space_group_name_H-M   'P 1'
_cell_length_a   15.75430707
_cell_length_b   15.75430707
_cell_length_c   15.34866294
_cell_angle_alpha   90.00000000
_cell_angle_beta   90.00000000
_cell_angle_gamma   90.00000000
_symmetry_Int_Tables_number   1
_chemical_formula_structural   CsSr2Ta3O10
_chemical_formula_sum   'Cs16 Sr32 Ta48 O160'
_cell_volume   3809.51038025
_cell_formula_units_Z   16
loop_
 _symmetry_equiv_pos_site_id
 _symmetry_equiv_pos_as_xyz
  1  'x, y, z'
loop_
 _atom_site_type_symbol
 _atom_site_label
 _atom_site_symmetry_multiplicity
 _atom_site_fract_x
 _atom_site_fract_y
 _atom_site_fract_z
 _atom_site_occupancy
  Cs  Cs0  1  0.62500000  0.62500000  0.50000000  1
  Cs  Cs1  1  0.62500000  0.37500000  0.50000000  1
  Cs  Cs2  1  0.62500000  0.12500000  0.50000000  1
  Cs  Cs3  1  0.62500000  -0.12500000  0.50000000  1
  Cs  Cs4  1  0.37500000  0.62500000  0.50000000  1
  Cs  Cs5  1  0.37500000  0.37500000  0.50000000  1
  Cs  Cs6  1  0.37500000  0.12500000  0.50000000  1
  Cs  Cs7  1  0.37500000  -0.12500000  0.50000000  1
  Cs  Cs8  1  0.12500000  0.62500000  0.50000000  1
  Cs  Cs9  1  0.12500000  0.37500000  0.50000000  1
  Cs  Cs10  1  0.12500000  0.12500000  0.50000000  1
  Cs  Cs11  1  0.12500000  -0.12500000  0.50000000  1
  Cs  Cs12  1  -0.12500000  0.62500000  0.50000000  1
  Cs  Cs13  1  -0.12500000  0.37500000  0.50000000  1
  Cs  Cs14  1  -0.12500000  0.12500000  0.50000000  1
  Cs  Cs15  1  -0.12500000  -0.12500000  0.50000000  1
  Sr  Sr16  1  0.62500000  0.62500000  0.85526095  1
  Sr  Sr17  1  0.62500000  0.37500000  0.85526095  1
  Sr  Sr18  1  0.62500000  0.12500000  0.85526095  1
  Sr  Sr19  1  0.62500000  -0.12500000  0.85526095  1
  Sr  Sr20  1  0.37500000  0.62500000  0.85526095  1
  Sr  Sr21  1  0.37500000  0.37500000  0.85526095  1
  Sr  Sr22  1  0.37500000  0.12500000  0.85526095  1
  Sr  Sr23  1  0.37500000  -0.12500000  0.85526095  1
  Sr  Sr24  1  0.12500000  0.62500000  0.85526095  1
  Sr  Sr25  1  0.12500000  0.37500000  0.85526095  1
  Sr  Sr26  1  0.12500000  0.12500000  0.85526095  1
  Sr  Sr27  1  0.12500000  -0.12500000  0.85526095  1
  Sr  Sr28  1  -0.12500000  0.62500000  0.85526095  1
  Sr  Sr29  1  -0.12500000  0.37500000  0.85526095  1
  Sr  Sr30  1  -0.12500000  0.12500000  0.85526095  1
  Sr  Sr31  1  -0.12500000  -0.12500000  0.85526095  1
  Sr  Sr32  1  0.62500000  0.62500000  0.14473905  1
  Sr  Sr33  1  0.62500000  0.37500000  0.14473905  1
  Sr  Sr34  1  0.62500000  0.12500000  0.14473905  1
  Sr  Sr35  1  0.62500000  -0.12500000  0.14473905  1
  Sr  Sr36  1  0.37500000  0.62500000  0.14473905  1
  Sr  Sr37  1  0.37500000  0.37500000  0.14473905  1
  Sr  Sr38  1  0.37500000  0.12500000  0.14473905  1
  Sr  Sr39  1  0.37500000  -0.12500000  0.14473905  1
  Sr  Sr40  1  0.12500000  0.62500000  0.14473905  1
  Sr  Sr41  1  0.12500000  0.37500000  0.14473905  1
  Sr  Sr42  1  0.12500000  0.12500000  0.14473905  1
  Sr  Sr43  1  0.12500000  -0.12500000  0.14473905  1
  Sr  Sr44  1  -0.12500000  0.62500000  0.14473905  1
  Sr  Sr45  1  -0.12500000  0.37500000  0.14473905  1
  Sr  Sr46  1  -0.12500000  0.12500000  0.14473905  1
  Sr  Sr47  1  -0.12500000  -0.12500000  0.14473905  1
  Ta  Ta48  1  0.75000000  0.75000000  0.00000000  1
  Ta  Ta49  1  0.75000000  0.50000000  0.00000000  1
  Ta  Ta50  1  0.75000000  0.25000000  0.00000000  1
  Ta  Ta51  1  0.75000000  0.00000000  0.00000000  1
  Ta  Ta52  1  0.50000000  0.75000000  0.00000000  1
  Ta  Ta53  1  0.50000000  0.50000000  0.00000000  1
  Ta  Ta54  1  0.50000000  0.25000000  0.00000000  1
  Ta  Ta55  1  0.50000000  0.00000000  0.00000000  1
  Ta  Ta56  1  0.25000000  0.75000000  0.00000000  1
  Ta  Ta57  1  0.25000000  0.50000000  0.00000000  1
  Ta  Ta58  1  0.25000000  0.25000000  0.00000000  1
  Ta  Ta59  1  0.25000000  0.00000000  0.00000000  1
  Ta  Ta60  1  0.00000000  0.75000000  0.00000000  1
  Ta  Ta61  1  0.00000000  0.50000000  0.00000000  1
  Ta  Ta62  1  0.00000000  0.25000000  0.00000000  1
  Ta  Ta63  1  0.00000000  0.00000000  0.00000000  1
  Ta  Ta64  1  0.75000000  0.75000000  0.28059604  1
  Ta  Ta65  1  0.75000000  0.50000000  0.28059604  1
  Ta  Ta66  1  0.75000000  0.25000000  0.28059604  1
  Ta  Ta67  1  0.75000000  0.00000000  0.28059604  1
  Ta  Ta68  1  0.50000000  0.75000000  0.28059604  1
  Ta  Ta69  1  0.50000000  0.50000000  0.28059604  1
  Ta  Ta70  1  0.50000000  0.25000000  0.28059604  1
  Ta  Ta71  1  0.50000000  0.00000000  0.28059604  1
  Ta  Ta72  1  0.25000000  0.75000000  0.28059604  1
  Ta  Ta73  1  0.25000000  0.50000000  0.28059604  1
  Ta  Ta74  1  0.25000000  0.25000000  0.28059604  1
  Ta  Ta75  1  0.25000000  0.00000000  0.28059604  1
  Ta  Ta76  1  0.00000000  0.75000000  0.28059604  1
  Ta  Ta77  1  0.00000000  0.50000000  0.28059604  1
  Ta  Ta78  1  0.00000000  0.25000000  0.28059604  1
  Ta  Ta79  1  0.00000000  0.00000000  0.28059604  1
  Ta  Ta80  1  0.75000000  0.75000000  0.71940396  1
  Ta  Ta81  1  0.75000000  0.50000000  0.71940396  1
  Ta  Ta82  1  0.75000000  0.25000000  0.71940396  1
  Ta  Ta83  1  0.75000000  0.00000000  0.71940396  1
  Ta  Ta84  1  0.50000000  0.75000000  0.71940396  1
  Ta  Ta85  1  0.50000000  0.50000000  0.71940396  1
  Ta  Ta86  1  0.50000000  0.25000000  0.71940396  1
  Ta  Ta87  1  0.50000000  0.00000000  0.71940396  1
  Ta  Ta88  1  0.25000000  0.75000000  0.71940396  1
  Ta  Ta89  1  0.25000000  0.50000000  0.71940396  1
  Ta  Ta90  1  0.25000000  0.25000000  0.71940396  1
  Ta  Ta91  1  0.25000000  0.00000000  0.71940396  1
  Ta  Ta92  1  0.00000000  0.75000000  0.71940396  1
  Ta  Ta93  1  0.00000000  0.50000000  0.71940396  1
  Ta  Ta94  1  0.00000000  0.25000000  0.71940396  1
  Ta  Ta95  1  0.00000000  0.00000000  0.71940396  1
  O  O96  1  0.75000000  0.75000000  0.60338894  1
  O  O97  1  0.75000000  0.50000000  0.60338894  1
  O  O98  1  0.75000000  0.25000000  0.60338894  1
  O  O99  1  0.75000000  0.00000000  0.60338894  1
  O  O100  1  0.50000000  0.75000000  0.60338894  1
  O  O101  1  0.50000000  0.50000000  0.60338894  1
  O  O102  1  0.50000000  0.25000000  0.60338894  1
  O  O103  1  0.50000000  0.00000000  0.60338894  1
  O  O104  1  0.25000000  0.75000000  0.60338894  1
  O  O105  1  0.25000000  0.50000000  0.60338894  1
  O  O106  1  0.25000000  0.25000000  0.60338894  1
  O  O107  1  0.25000000  0.00000000  0.60338894  1
  O  O108  1  0.00000000  0.75000000  0.60338894  1
  O  O109  1  0.00000000  0.50000000  0.60338894  1
  O  O110  1  0.00000000  0.25000000  0.60338894  1
  O  O111  1  0.00000000  0.00000000  0.60338894  1
  O  O112  1  0.75000000  0.75000000  0.39661106  1
  O  O113  1  0.75000000  0.50000000  0.39661106  1
  O  O114  1  0.75000000  0.25000000  0.39661106  1
  O  O115  1  0.75000000  0.00000000  0.39661106  1
  O  O116  1  0.50000000  0.75000000  0.39661106  1
  O  O117  1  0.50000000  0.50000000  0.39661106  1
  O  O118  1  0.50000000  0.25000000  0.39661106  1
  O  O119  1  0.50000000  0.00000000  0.39661106  1
  O  O120  1  0.25000000  0.75000000  0.39661106  1
  O  O121  1  0.25000000  0.50000000  0.39661106  1
  O  O122  1  0.25000000  0.25000000  0.39661106  1
  O  O123  1  0.25000000  0.00000000  0.39661106  1
  O  O124  1  0.00000000  0.75000000  0.39661106  1
  O  O125  1  0.00000000  0.50000000  0.39661106  1
  O  O126  1  0.00000000  0.25000000  0.39661106  1
  O  O127  1  0.00000000  0.00000000  0.39661106  1
  O  O128  1  0.62500000  0.75000000  0.74542293  1
  O  O129  1  0.62500000  0.50000000  0.74542293  1
  O  O130  1  0.62500000  0.25000000  0.74542293  1
  O  O131  1  0.62500000  0.00000000  0.74542293  1
  O  O132  1  0.37500000  0.75000000  0.74542293  1
  O  O133  1  0.37500000  0.50000000  0.74542293  1
  O  O134  1  0.37500000  0.25000000  0.74542293  1
  O  O135  1  0.37500000  0.00000000  0.74542293  1
  O  O136  1  0.12500000  0.75000000  0.74542293  1
  O  O137  1  0.12500000  0.50000000  0.74542293  1
  O  O138  1  0.12500000  0.25000000  0.74542293  1
  O  O139  1  0.12500000  0.00000000  0.74542293  1
  O  O140  1  -0.12500000  0.75000000  0.74542293  1
  O  O141  1  -0.12500000  0.50000000  0.74542293  1
  O  O142  1  -0.12500000  0.25000000  0.74542293  1
  O  O143  1  -0.12500000  0.00000000  0.74542293  1
  O  O144  1  0.75000000  0.62500000  0.74542293  1
  O  O145  1  0.75000000  0.37500000  0.74542293  1
  O  O146  1  0.75000000  0.12500000  0.74542293  1
  O  O147  1  0.75000000  -0.12500000  0.74542293  1
  O  O148  1  0.50000000  0.62500000  0.74542293  1
  O  O149  1  0.50000000  0.37500000  0.74542293  1
  O  O150  1  0.50000000  0.12500000  0.74542293  1
  O  O151  1  0.50000000  -0.12500000  0.74542293  1
  O  O152  1  0.25000000  0.62500000  0.74542293  1
  O  O153  1  0.25000000  0.37500000  0.74542293  1
  O  O154  1  0.25000000  0.12500000  0.74542293  1
  O  O155  1  0.25000000  -0.12500000  0.74542293  1
  O  O156  1  0.00000000  0.62500000  0.74542293  1
  O  O157  1  0.00000000  0.37500000  0.74542293  1
  O  O158  1  0.00000000  0.12500000  0.74542293  1
  O  O159  1  0.00000000  -0.12500000  0.74542293  1
  O  O160  1  0.62500000  0.75000000  0.25457707  1
  O  O161  1  0.62500000  0.50000000  0.25457707  1
  O  O162  1  0.62500000  0.25000000  0.25457707  1
  O  O163  1  0.62500000  0.00000000  0.25457707  1
  O  O164  1  0.37500000  0.75000000  0.25457707  1
  O  O165  1  0.37500000  0.50000000  0.25457707  1
  O  O166  1  0.37500000  0.25000000  0.25457707  1
  O  O167  1  0.37500000  0.00000000  0.25457707  1
  O  O168  1  0.12500000  0.75000000  0.25457707  1
  O  O169  1  0.12500000  0.50000000  0.25457707  1
  O  O170  1  0.12500000  0.25000000  0.25457707  1
  O  O171  1  0.12500000  0.00000000  0.25457707  1
  O  O172  1  -0.12500000  0.75000000  0.25457707  1
  O  O173  1  -0.12500000  0.50000000  0.25457707  1
  O  O174  1  -0.12500000  0.25000000  0.25457707  1
  O  O175  1  -0.12500000  0.00000000  0.25457707  1
  O  O176  1  0.75000000  0.62500000  0.25457707  1
  O  O177  1  0.75000000  0.37500000  0.25457707  1
  O  O178  1  0.75000000  0.12500000  0.25457707  1
  O  O179  1  0.75000000  -0.12500000  0.25457707  1
  O  O180  1  0.50000000  0.62500000  0.25457707  1
  O  O181  1  0.50000000  0.37500000  0.25457707  1
  O  O182  1  0.50000000  0.12500000  0.25457707  1
  O  O183  1  0.50000000  -0.12500000  0.25457707  1
  O  O184  1  0.25000000  0.62500000  0.25457707  1
  O  O185  1  0.25000000  0.37500000  0.25457707  1
  O  O186  1  0.25000000  0.12500000  0.25457707  1
  O  O187  1  0.25000000  -0.12500000  0.25457707  1
  O  O188  1  0.00000000  0.62500000  0.25457707  1
  O  O189  1  0.00000000  0.37500000  0.25457707  1
  O  O190  1  0.00000000  0.12500000  0.25457707  1
  O  O191  1  0.00000000  -0.12500000  0.25457707  1
  O  O192  1  0.75000000  0.62500000  0.00000000  1
  O  O193  1  0.75000000  0.37500000  0.00000000  1
  O  O194  1  0.75000000  0.12500000  0.00000000  1
  O  O195  1  0.75000000  -0.12500000  0.00000000  1
  O  O196  1  0.50000000  0.62500000  0.00000000  1
  O  O197  1  0.50000000  0.37500000  0.00000000  1
  O  O198  1  0.50000000  0.12500000  0.00000000  1
  O  O199  1  0.50000000  -0.12500000  0.00000000  1
  O  O200  1  0.25000000  0.62500000  0.00000000  1
  O  O201  1  0.25000000  0.37500000  0.00000000  1
  O  O202  1  0.25000000  0.12500000  0.00000000  1
  O  O203  1  0.25000000  -0.12500000  0.00000000  1
  O  O204  1  0.00000000  0.62500000  0.00000000  1
  O  O205  1  0.00000000  0.37500000  0.00000000  1
  O  O206  1  0.00000000  0.12500000  0.00000000  1
  O  O207  1  0.00000000  -0.12500000  0.00000000  1
  O  O208  1  0.62500000  0.75000000  0.00000000  1
  O  O209  1  0.62500000  0.50000000  0.00000000  1
  O  O210  1  0.62500000  0.25000000  0.00000000  1
  O  O211  1  0.62500000  0.00000000  0.00000000  1
  O  O212  1  0.37500000  0.75000000  0.00000000  1
  O  O213  1  0.37500000  0.50000000  0.00000000  1
  O  O214  1  0.37500000  0.25000000  0.00000000  1
  O  O215  1  0.37500000  0.00000000  0.00000000  1
  O  O216  1  0.12500000  0.75000000  0.00000000  1
  O  O217  1  0.12500000  0.50000000  0.00000000  1
  O  O218  1  0.12500000  0.25000000  0.00000000  1
  O  O219  1  0.12500000  0.00000000  0.00000000  1
  O  O220  1  -0.12500000  0.75000000  0.00000000  1
  O  O221  1  -0.12500000  0.50000000  0.00000000  1
  O  O222  1  -0.12500000  0.25000000  0.00000000  1
  O  O223  1  -0.12500000  0.00000000  0.00000000  1
  O  O224  1  0.75000000  0.75000000  0.12758692  1
  O  O225  1  0.75000000  0.50000000  0.12758692  1
  O  O226  1  0.75000000  0.25000000  0.12758692  1
  O  O227  1  0.75000000  0.00000000  0.12758692  1
  O  O228  1  0.50000000  0.75000000  0.12758692  1
  O  O229  1  0.50000000  0.50000000  0.12758692  1
  O  O230  1  0.50000000  0.25000000  0.12758692  1
  O  O231  1  0.50000000  0.00000000  0.12758692  1
  O  O232  1  0.25000000  0.75000000  0.12758692  1
  O  O233  1  0.25000000  0.50000000  0.12758692  1
  O  O234  1  0.25000000  0.25000000  0.12758692  1
  O  O235  1  0.25000000  0.00000000  0.12758692  1
  O  O236  1  0.00000000  0.75000000  0.12758692  1
  O  O237  1  0.00000000  0.50000000  0.12758692  1
  O  O238  1  0.00000000  0.25000000  0.12758692  1
  O  O239  1  0.00000000  0.00000000  0.12758692  1
  O  O240  1  0.75000000  0.75000000  0.87241308  1
  O  O241  1  0.75000000  0.50000000  0.87241308  1
  O  O242  1  0.75000000  0.25000000  0.87241308  1
  O  O243  1  0.75000000  0.00000000  0.87241308  1
  O  O244  1  0.50000000  0.75000000  0.87241308  1
  O  O245  1  0.50000000  0.50000000  0.87241308  1
  O  O246  1  0.50000000  0.25000000  0.87241308  1
  O  O247  1  0.50000000  0.00000000  0.87241308  1
  O  O248  1  0.25000000  0.75000000  0.87241308  1
  O  O249  1  0.25000000  0.50000000  0.87241308  1
  O  O250  1  0.25000000  0.25000000  0.87241308  1
  O  O251  1  0.25000000  0.00000000  0.87241308  1
  O  O252  1  0.00000000  0.75000000  0.87241308  1
  O  O253  1  0.00000000  0.50000000  0.87241308  1
  O  O254  1  0.00000000  0.25000000  0.87241308  1
  O  O255  1  0.00000000  0.00000000  0.87241308  1
