# generated using pymatgen
data_BaTi(SiO3)3
_symmetry_space_group_name_H-M   'P 1'
_cell_length_a   13.30118640
_cell_length_b   13.30118640
_cell_length_c   9.84904012
_cell_angle_alpha   90.00000000
_cell_angle_beta   90.00000000
_cell_angle_gamma   120.00000000
_symmetry_Int_Tables_number   1
_chemical_formula_structural   BaTi(SiO3)3
_chemical_formula_sum   'Ba8 Ti8 Si24 O72'
_cell_volume   1509.05579470
_cell_formula_units_Z   8
loop_
 _symmetry_equiv_pos_site_id
 _symmetry_equiv_pos_as_xyz
  1  'x, y, z'
loop_
 _atom_site_type_symbol
 _atom_site_label
 _atom_site_symmetry_multiplicity
 _atom_site_fract_x
 _atom_site_fract_y
 _atom_site_fract_z
 _atom_site_occupancy
  Ba  Ba0  1  0.33333333  0.16666667  0.50000000  1
  Ba  Ba1  1  0.33333333  0.66666667  0.50000000  1
  Ba  Ba2  1  0.83333333  0.16666667  0.50000000  1
  Ba  Ba3  1  0.83333333  0.66666667  0.50000000  1
  Ba  Ba4  1  0.33333333  0.16666667  0.00000000  1
  Ba  Ba5  1  0.33333333  0.66666667  0.00000000  1
  Ba  Ba6  1  0.83333333  0.16666667  0.00000000  1
  Ba  Ba7  1  0.83333333  0.66666667  0.00000000  1
  Ti  Ti8  1  0.16666667  0.33333333  0.50000000  1
  Ti  Ti9  1  0.16666667  0.83333333  0.50000000  1
  Ti  Ti10  1  0.66666667  0.33333333  0.50000000  1
  Ti  Ti11  1  0.66666667  0.83333333  0.50000000  1
  Ti  Ti12  1  0.16666667  0.33333333  0.00000000  1
  Ti  Ti13  1  0.16666667  0.83333333  0.00000000  1
  Ti  Ti14  1  0.66666667  0.33333333  0.00000000  1
  Ti  Ti15  1  0.66666667  0.83333333  0.00000000  1
  Si  Si16  1  0.11001997  0.46499505  0.25000000  1
  Si  Si17  1  0.11001997  0.96499505  0.25000000  1
  Si  Si18  1  0.61001997  0.46499505  0.25000000  1
  Si  Si19  1  0.61001997  0.96499505  0.25000000  1
  Si  Si20  1  0.11001997  0.14502492  0.75000000  1
  Si  Si21  1  0.11001997  0.64502492  0.75000000  1
  Si  Si22  1  0.61001997  0.14502492  0.75000000  1
  Si  Si23  1  0.61001997  0.64502492  0.75000000  1
  Si  Si24  1  0.35497508  0.46499505  0.75000000  1
  Si  Si25  1  0.35497508  0.96499505  0.75000000  1
  Si  Si26  1  0.85497508  0.46499505  0.75000000  1
  Si  Si27  1  0.85497508  0.96499505  0.75000000  1
  Si  Si28  1  0.35497508  0.38998003  0.25000000  1
  Si  Si29  1  0.35497508  0.88998003  0.25000000  1
  Si  Si30  1  0.85497508  0.38998003  0.25000000  1
  Si  Si31  1  0.85497508  0.88998003  0.25000000  1
  Si  Si32  1  0.03500495  0.14502492  0.25000000  1
  Si  Si33  1  0.03500495  0.64502492  0.25000000  1
  Si  Si34  1  0.53500495  0.14502492  0.25000000  1
  Si  Si35  1  0.53500495  0.64502492  0.25000000  1
  Si  Si36  1  0.03500495  0.38998003  0.75000000  1
  Si  Si37  1  0.03500495  0.88998003  0.75000000  1
  Si  Si38  1  0.53500495  0.38998003  0.75000000  1
  Si  Si39  1  0.53500495  0.88998003  0.75000000  1
  O  O40  1  0.04271281  0.32718603  0.61269738  1
  O  O41  1  0.04271281  0.82718603  0.61269738  1
  O  O42  1  0.54271281  0.32718603  0.61269738  1
  O  O43  1  0.54271281  0.82718603  0.61269738  1
  O  O44  1  0.17281397  0.45728719  0.38730262  1
  O  O45  1  0.17281397  0.95728719  0.38730262  1
  O  O46  1  0.67281397  0.45728719  0.38730262  1
  O  O47  1  0.67281397  0.95728719  0.38730262  1
  O  O48  1  0.28447322  0.45728719  0.61269738  1
  O  O49  1  0.28447322  0.95728719  0.61269738  1
  O  O50  1  0.78447322  0.45728719  0.61269738  1
  O  O51  1  0.78447322  0.95728719  0.61269738  1
  O  O52  1  0.17281397  0.21552678  0.88730262  1
  O  O53  1  0.17281397  0.71552678  0.88730262  1
  O  O54  1  0.67281397  0.21552678  0.88730262  1
  O  O55  1  0.67281397  0.71552678  0.88730262  1
  O  O56  1  0.28447322  0.45728719  0.88730262  1
  O  O57  1  0.28447322  0.95728719  0.88730262  1
  O  O58  1  0.78447322  0.45728719  0.88730262  1
  O  O59  1  0.78447322  0.95728719  0.88730262  1
  O  O60  1  0.04271281  0.32718603  0.88730262  1
  O  O61  1  0.04271281  0.82718603  0.88730262  1
  O  O62  1  0.54271281  0.32718603  0.88730262  1
  O  O63  1  0.54271281  0.82718603  0.88730262  1
  O  O64  1  0.28447322  0.32718603  0.11269738  1
  O  O65  1  0.28447322  0.82718603  0.11269738  1
  O  O66  1  0.78447322  0.32718603  0.11269738  1
  O  O67  1  0.78447322  0.82718603  0.11269738  1
  O  O68  1  0.04271281  0.21552678  0.11269738  1
  O  O69  1  0.04271281  0.71552678  0.11269738  1
  O  O70  1  0.54271281  0.21552678  0.11269738  1
  O  O71  1  0.54271281  0.71552678  0.11269738  1
  O  O72  1  0.12806123  0.09759836  0.25000000  1
  O  O73  1  0.12806123  0.59759836  0.25000000  1
  O  O74  1  0.62806123  0.09759836  0.25000000  1
  O  O75  1  0.62806123  0.59759836  0.25000000  1
  O  O76  1  0.46953713  0.37193877  0.25000000  1
  O  O77  1  0.46953713  0.87193877  0.25000000  1
  O  O78  1  0.96953713  0.37193877  0.25000000  1
  O  O79  1  0.96953713  0.87193877  0.25000000  1
  O  O80  1  0.40240164  0.03046287  0.25000000  1
  O  O81  1  0.40240164  0.53046287  0.25000000  1
  O  O82  1  0.90240164  0.03046287  0.25000000  1
  O  O83  1  0.90240164  0.53046287  0.25000000  1
  O  O84  1  0.40240164  0.37193877  0.75000000  1
  O  O85  1  0.40240164  0.87193877  0.75000000  1
  O  O86  1  0.90240164  0.37193877  0.75000000  1
  O  O87  1  0.90240164  0.87193877  0.75000000  1
  O  O88  1  0.28447322  0.32718603  0.38730262  1
  O  O89  1  0.28447322  0.82718603  0.38730262  1
  O  O90  1  0.78447322  0.32718603  0.38730262  1
  O  O91  1  0.78447322  0.82718603  0.38730262  1
  O  O92  1  0.12806123  0.03046287  0.75000000  1
  O  O93  1  0.12806123  0.53046287  0.75000000  1
  O  O94  1  0.62806123  0.03046287  0.75000000  1
  O  O95  1  0.62806123  0.53046287  0.75000000  1
  O  O96  1  0.46953713  0.09759836  0.75000000  1
  O  O97  1  0.46953713  0.59759836  0.75000000  1
  O  O98  1  0.96953713  0.09759836  0.75000000  1
  O  O99  1  0.96953713  0.59759836  0.75000000  1
  O  O100  1  0.04271281  0.21552678  0.38730262  1
  O  O101  1  0.04271281  0.71552678  0.38730262  1
  O  O102  1  0.54271281  0.21552678  0.38730262  1
  O  O103  1  0.54271281  0.71552678  0.38730262  1
  O  O104  1  0.17281397  0.45728719  0.11269738  1
  O  O105  1  0.17281397  0.95728719  0.11269738  1
  O  O106  1  0.67281397  0.45728719  0.11269738  1
  O  O107  1  0.67281397  0.95728719  0.11269738  1
  O  O108  1  0.17281397  0.21552678  0.61269738  1
  O  O109  1  0.17281397  0.71552678  0.61269738  1
  O  O110  1  0.67281397  0.21552678  0.61269738  1
  O  O111  1  0.67281397  0.71552678  0.61269738  1
