# generated using pymatgen
data_Mg4Nb2O9
_symmetry_space_group_name_H-M   'P 1'
_cell_length_a   15.52303571
_cell_length_b   15.52303571
_cell_length_c   14.02568574
_cell_angle_alpha   90.00000000
_cell_angle_beta   90.00000000
_cell_angle_gamma   120.00000000
_symmetry_Int_Tables_number   1
_chemical_formula_structural   Mg4Nb2O9
_chemical_formula_sum   'Mg72 Nb36 O162'
_cell_volume   2926.90110571
_cell_formula_units_Z   18
loop_
 _symmetry_equiv_pos_site_id
 _symmetry_equiv_pos_as_xyz
  1  'x, y, z'
loop_
 _atom_site_type_symbol
 _atom_site_label
 _atom_site_symmetry_multiplicity
 _atom_site_fract_x
 _atom_site_fract_y
 _atom_site_fract_z
 _atom_site_occupancy
  Mg  Mg0  1  0.22222222  0.11111111  0.51669162  1
  Mg  Mg1  1  0.22222222  0.44444444  0.51669162  1
  Mg  Mg2  1  0.22222222  0.77777778  0.51669162  1
  Mg  Mg3  1  0.55555556  0.11111111  0.51669162  1
  Mg  Mg4  1  0.55555556  0.44444444  0.51669162  1
  Mg  Mg5  1  0.55555556  0.77777778  0.51669162  1
  Mg  Mg6  1  0.88888889  0.11111111  0.51669162  1
  Mg  Mg7  1  0.88888889  0.44444444  0.51669162  1
  Mg  Mg8  1  0.88888889  0.77777778  0.51669162  1
  Mg  Mg9  1  0.11111111  0.22222222  0.98330838  1
  Mg  Mg10  1  0.11111111  0.55555556  0.98330838  1
  Mg  Mg11  1  0.11111111  0.88888889  0.98330838  1
  Mg  Mg12  1  0.44444444  0.22222222  0.98330838  1
  Mg  Mg13  1  0.44444444  0.55555556  0.98330838  1
  Mg  Mg14  1  0.44444444  0.88888889  0.98330838  1
  Mg  Mg15  1  0.77777778  0.22222222  0.98330838  1
  Mg  Mg16  1  0.77777778  0.55555556  0.98330838  1
  Mg  Mg17  1  0.77777778  0.88888889  0.98330838  1
  Mg  Mg18  1  0.11111111  0.22222222  0.48330838  1
  Mg  Mg19  1  0.11111111  0.55555556  0.48330838  1
  Mg  Mg20  1  0.11111111  0.88888889  0.48330838  1
  Mg  Mg21  1  0.44444444  0.22222222  0.48330838  1
  Mg  Mg22  1  0.44444444  0.55555556  0.48330838  1
  Mg  Mg23  1  0.44444444  0.88888889  0.48330838  1
  Mg  Mg24  1  0.77777778  0.22222222  0.48330838  1
  Mg  Mg25  1  0.77777778  0.55555556  0.48330838  1
  Mg  Mg26  1  0.77777778  0.88888889  0.48330838  1
  Mg  Mg27  1  0.22222222  0.11111111  0.01669162  1
  Mg  Mg28  1  0.22222222  0.44444444  0.01669162  1
  Mg  Mg29  1  0.22222222  0.77777778  0.01669162  1
  Mg  Mg30  1  0.55555556  0.11111111  0.01669162  1
  Mg  Mg31  1  0.55555556  0.44444444  0.01669162  1
  Mg  Mg32  1  0.55555556  0.77777778  0.01669162  1
  Mg  Mg33  1  0.88888889  0.11111111  0.01669162  1
  Mg  Mg34  1  0.88888889  0.44444444  0.01669162  1
  Mg  Mg35  1  0.88888889  0.77777778  0.01669162  1
  Mg  Mg36  1  0.22222222  0.11111111  0.30840189  1
  Mg  Mg37  1  0.22222222  0.44444444  0.30840189  1
  Mg  Mg38  1  0.22222222  0.77777778  0.30840189  1
  Mg  Mg39  1  0.55555556  0.11111111  0.30840189  1
  Mg  Mg40  1  0.55555556  0.44444444  0.30840189  1
  Mg  Mg41  1  0.55555556  0.77777778  0.30840189  1
  Mg  Mg42  1  0.88888889  0.11111111  0.30840189  1
  Mg  Mg43  1  0.88888889  0.44444444  0.30840189  1
  Mg  Mg44  1  0.88888889  0.77777778  0.30840189  1
  Mg  Mg45  1  0.11111111  0.22222222  0.19159811  1
  Mg  Mg46  1  0.11111111  0.55555556  0.19159811  1
  Mg  Mg47  1  0.11111111  0.88888889  0.19159811  1
  Mg  Mg48  1  0.44444444  0.22222222  0.19159811  1
  Mg  Mg49  1  0.44444444  0.55555556  0.19159811  1
  Mg  Mg50  1  0.44444444  0.88888889  0.19159811  1
  Mg  Mg51  1  0.77777778  0.22222222  0.19159811  1
  Mg  Mg52  1  0.77777778  0.55555556  0.19159811  1
  Mg  Mg53  1  0.77777778  0.88888889  0.19159811  1
  Mg  Mg54  1  0.11111111  0.22222222  0.69159811  1
  Mg  Mg55  1  0.11111111  0.55555556  0.69159811  1
  Mg  Mg56  1  0.11111111  0.88888889  0.69159811  1
  Mg  Mg57  1  0.44444444  0.22222222  0.69159811  1
  Mg  Mg58  1  0.44444444  0.55555556  0.69159811  1
  Mg  Mg59  1  0.44444444  0.88888889  0.69159811  1
  Mg  Mg60  1  0.77777778  0.22222222  0.69159811  1
  Mg  Mg61  1  0.77777778  0.55555556  0.69159811  1
  Mg  Mg62  1  0.77777778  0.88888889  0.69159811  1
  Mg  Mg63  1  0.22222222  0.11111111  0.80840189  1
  Mg  Mg64  1  0.22222222  0.44444444  0.80840189  1
  Mg  Mg65  1  0.22222222  0.77777778  0.80840189  1
  Mg  Mg66  1  0.55555556  0.11111111  0.80840189  1
  Mg  Mg67  1  0.55555556  0.44444444  0.80840189  1
  Mg  Mg68  1  0.55555556  0.77777778  0.80840189  1
  Mg  Mg69  1  0.88888889  0.11111111  0.80840189  1
  Mg  Mg70  1  0.88888889  0.44444444  0.80840189  1
  Mg  Mg71  1  0.88888889  0.77777778  0.80840189  1
  Nb  Nb72  1  0.00000000  0.00000000  0.35818432  1
  Nb  Nb73  1  -0.00000000  0.33333333  0.35818432  1
  Nb  Nb74  1  -0.00000000  0.66666667  0.35818432  1
  Nb  Nb75  1  0.33333333  0.00000000  0.35818432  1
  Nb  Nb76  1  0.33333333  0.33333333  0.35818432  1
  Nb  Nb77  1  0.33333333  0.66666667  0.35818432  1
  Nb  Nb78  1  0.66666667  0.00000000  0.35818432  1
  Nb  Nb79  1  0.66666667  0.33333333  0.35818432  1
  Nb  Nb80  1  0.66666667  0.66666667  0.35818432  1
  Nb  Nb81  1  0.00000000  0.00000000  0.14181568  1
  Nb  Nb82  1  -0.00000000  0.33333333  0.14181568  1
  Nb  Nb83  1  -0.00000000  0.66666667  0.14181568  1
  Nb  Nb84  1  0.33333333  0.00000000  0.14181568  1
  Nb  Nb85  1  0.33333333  0.33333333  0.14181568  1
  Nb  Nb86  1  0.33333333  0.66666667  0.14181568  1
  Nb  Nb87  1  0.66666667  0.00000000  0.14181568  1
  Nb  Nb88  1  0.66666667  0.33333333  0.14181568  1
  Nb  Nb89  1  0.66666667  0.66666667  0.14181568  1
  Nb  Nb90  1  0.00000000  0.00000000  0.64181568  1
  Nb  Nb91  1  -0.00000000  0.33333333  0.64181568  1
  Nb  Nb92  1  -0.00000000  0.66666667  0.64181568  1
  Nb  Nb93  1  0.33333333  0.00000000  0.64181568  1
  Nb  Nb94  1  0.33333333  0.33333333  0.64181568  1
  Nb  Nb95  1  0.33333333  0.66666667  0.64181568  1
  Nb  Nb96  1  0.66666667  0.00000000  0.64181568  1
  Nb  Nb97  1  0.66666667  0.33333333  0.64181568  1
  Nb  Nb98  1  0.66666667  0.66666667  0.64181568  1
  Nb  Nb99  1  0.00000000  0.00000000  0.85818432  1
  Nb  Nb100  1  -0.00000000  0.33333333  0.85818432  1
  Nb  Nb101  1  -0.00000000  0.66666667  0.85818432  1
  Nb  Nb102  1  0.33333333  0.00000000  0.85818432  1
  Nb  Nb103  1  0.33333333  0.33333333  0.85818432  1
  Nb  Nb104  1  0.33333333  0.66666667  0.85818432  1
  Nb  Nb105  1  0.66666667  0.00000000  0.85818432  1
  Nb  Nb106  1  0.66666667  0.33333333  0.85818432  1
  Nb  Nb107  1  0.66666667  0.66666667  0.85818432  1
  O  O108  1  0.11661105  0.00984420  0.91571335  1
  O  O109  1  0.11661105  0.34317754  0.91571335  1
  O  O110  1  0.11661105  0.67651087  0.91571335  1
  O  O111  1  0.44994438  0.00984420  0.91571335  1
  O  O112  1  0.44994438  0.34317754  0.91571335  1
  O  O113  1  0.44994438  0.67651087  0.91571335  1
  O  O114  1  0.78327771  0.00984420  0.91571335  1
  O  O115  1  0.78327771  0.34317754  0.91571335  1
  O  O116  1  0.78327771  0.67651087  0.91571335  1
  O  O117  1  0.32348913  0.10676684  0.91571335  1
  O  O118  1  0.32348913  0.44010018  0.91571335  1
  O  O119  1  0.32348913  0.77343351  0.91571335  1
  O  O120  1  0.65682246  0.10676684  0.91571335  1
  O  O121  1  0.65682246  0.44010018  0.91571335  1
  O  O122  1  0.65682246  0.77343351  0.91571335  1
  O  O123  1  0.99015580  0.10676684  0.91571335  1
  O  O124  1  0.99015580  0.44010018  0.91571335  1
  O  O125  1  0.99015580  0.77343351  0.91571335  1
  O  O126  1  0.22656649  0.21672229  0.91571335  1
  O  O127  1  0.22656649  0.55005562  0.91571335  1
  O  O128  1  0.22656649  0.88338895  0.91571335  1
  O  O129  1  0.55989982  0.21672229  0.91571335  1
  O  O130  1  0.55989982  0.55005562  0.91571335  1
  O  O131  1  0.55989982  0.88338895  0.91571335  1
  O  O132  1  0.89323316  0.21672229  0.91571335  1
  O  O133  1  0.89323316  0.55005562  0.91571335  1
  O  O134  1  0.89323316  0.88338895  0.91571335  1
  O  O135  1  0.10676684  0.32348913  0.58428665  1
  O  O136  1  0.10676684  0.65682246  0.58428665  1
  O  O137  1  0.10676684  0.99015580  0.58428665  1
  O  O138  1  0.44010018  0.32348913  0.58428665  1
  O  O139  1  0.44010018  0.65682246  0.58428665  1
  O  O140  1  0.44010018  0.99015580  0.58428665  1
  O  O141  1  0.77343351  0.32348913  0.58428665  1
  O  O142  1  0.77343351  0.65682246  0.58428665  1
  O  O143  1  0.77343351  0.99015580  0.58428665  1
  O  O144  1  0.21672229  0.22656649  0.58428665  1
  O  O145  1  0.21672229  0.55989982  0.58428665  1
  O  O146  1  0.21672229  0.89323316  0.58428665  1
  O  O147  1  0.55005562  0.22656649  0.58428665  1
  O  O148  1  0.55005562  0.55989982  0.58428665  1
  O  O149  1  0.55005562  0.89323316  0.58428665  1
  O  O150  1  0.88338895  0.22656649  0.58428665  1
  O  O151  1  0.88338895  0.55989982  0.58428665  1
  O  O152  1  0.88338895  0.89323316  0.58428665  1
  O  O153  1  0.00984420  0.11661105  0.58428665  1
  O  O154  1  0.00984420  0.44994438  0.58428665  1
  O  O155  1  0.00984420  0.78327771  0.58428665  1
  O  O156  1  0.34317754  0.11661105  0.58428665  1
  O  O157  1  0.34317754  0.44994438  0.58428665  1
  O  O158  1  0.34317754  0.78327771  0.58428665  1
  O  O159  1  0.67651087  0.11661105  0.58428665  1
  O  O160  1  0.67651087  0.44994438  0.58428665  1
  O  O161  1  0.67651087  0.78327771  0.58428665  1
  O  O162  1  0.21672229  0.32348913  0.08428665  1
  O  O163  1  0.21672229  0.65682246  0.08428665  1
  O  O164  1  0.21672229  0.99015580  0.08428665  1
  O  O165  1  0.55005562  0.32348913  0.08428665  1
  O  O166  1  0.55005562  0.65682246  0.08428665  1
  O  O167  1  0.55005562  0.99015580  0.08428665  1
  O  O168  1  0.88338895  0.32348913  0.08428665  1
  O  O169  1  0.88338895  0.65682246  0.08428665  1
  O  O170  1  0.88338895  0.99015580  0.08428665  1
  O  O171  1  0.00984420  0.22656649  0.08428665  1
  O  O172  1  0.00984420  0.55989982  0.08428665  1
  O  O173  1  0.00984420  0.89323316  0.08428665  1
  O  O174  1  0.34317754  0.22656649  0.08428665  1
  O  O175  1  0.34317754  0.55989982  0.08428665  1
  O  O176  1  0.34317754  0.89323316  0.08428665  1
  O  O177  1  0.67651087  0.22656649  0.08428665  1
  O  O178  1  0.67651087  0.55989982  0.08428665  1
  O  O179  1  0.67651087  0.89323316  0.08428665  1
  O  O180  1  0.10676684  0.11661105  0.08428665  1
  O  O181  1  0.10676684  0.44994438  0.08428665  1
  O  O182  1  0.10676684  0.78327771  0.08428665  1
  O  O183  1  0.44010018  0.11661105  0.08428665  1
  O  O184  1  0.44010018  0.44994438  0.08428665  1
  O  O185  1  0.44010018  0.78327771  0.08428665  1
  O  O186  1  0.77343351  0.11661105  0.08428665  1
  O  O187  1  0.77343351  0.44994438  0.08428665  1
  O  O188  1  0.77343351  0.78327771  0.08428665  1
  O  O189  1  0.22656649  0.00984420  0.41571335  1
  O  O190  1  0.22656649  0.34317754  0.41571335  1
  O  O191  1  0.22656649  0.67651087  0.41571335  1
  O  O192  1  0.55989982  0.00984420  0.41571335  1
  O  O193  1  0.55989982  0.34317754  0.41571335  1
  O  O194  1  0.55989982  0.67651087  0.41571335  1
  O  O195  1  0.89323316  0.00984420  0.41571335  1
  O  O196  1  0.89323316  0.34317754  0.41571335  1
  O  O197  1  0.89323316  0.67651087  0.41571335  1
  O  O198  1  0.11661105  0.10676684  0.41571335  1
  O  O199  1  0.11661105  0.44010018  0.41571335  1
  O  O200  1  0.11661105  0.77343351  0.41571335  1
  O  O201  1  0.44994438  0.10676684  0.41571335  1
  O  O202  1  0.44994438  0.44010018  0.41571335  1
  O  O203  1  0.44994438  0.77343351  0.41571335  1
  O  O204  1  0.78327771  0.10676684  0.41571335  1
  O  O205  1  0.78327771  0.44010018  0.41571335  1
  O  O206  1  0.78327771  0.77343351  0.41571335  1
  O  O207  1  0.32348913  0.21672229  0.41571335  1
  O  O208  1  0.32348913  0.55005562  0.41571335  1
  O  O209  1  0.32348913  0.88338895  0.41571335  1
  O  O210  1  0.65682246  0.21672229  0.41571335  1
  O  O211  1  0.65682246  0.55005562  0.41571335  1
  O  O212  1  0.65682246  0.88338895  0.41571335  1
  O  O213  1  0.99015580  0.21672229  0.41571335  1
  O  O214  1  0.99015580  0.55005562  0.41571335  1
  O  O215  1  0.99015580  0.88338895  0.41571335  1
  O  O216  1  0.09677704  0.00000000  0.25000000  1
  O  O217  1  0.09677704  0.33333333  0.25000000  1
  O  O218  1  0.09677704  0.66666667  0.25000000  1
  O  O219  1  0.43011037  0.00000000  0.25000000  1
  O  O220  1  0.43011037  0.33333333  0.25000000  1
  O  O221  1  0.43011037  0.66666667  0.25000000  1
  O  O222  1  0.76344371  0.00000000  0.25000000  1
  O  O223  1  0.76344371  0.33333333  0.25000000  1
  O  O224  1  0.76344371  0.66666667  0.25000000  1
  O  O225  1  -0.00000000  0.09677704  0.25000000  1
  O  O226  1  -0.00000000  0.43011037  0.25000000  1
  O  O227  1  -0.00000000  0.76344371  0.25000000  1
  O  O228  1  0.33333333  0.09677704  0.25000000  1
  O  O229  1  0.33333333  0.43011037  0.25000000  1
  O  O230  1  0.33333333  0.76344371  0.25000000  1
  O  O231  1  0.66666667  0.09677704  0.25000000  1
  O  O232  1  0.66666667  0.43011037  0.25000000  1
  O  O233  1  0.66666667  0.76344371  0.25000000  1
  O  O234  1  0.23655629  0.23655629  0.25000000  1
  O  O235  1  0.23655629  0.56988963  0.25000000  1
  O  O236  1  0.23655629  0.90322296  0.25000000  1
  O  O237  1  0.56988963  0.23655629  0.25000000  1
  O  O238  1  0.56988963  0.56988963  0.25000000  1
  O  O239  1  0.56988963  0.90322296  0.25000000  1
  O  O240  1  0.90322296  0.23655629  0.25000000  1
  O  O241  1  0.90322296  0.56988963  0.25000000  1
  O  O242  1  0.90322296  0.90322296  0.25000000  1
  O  O243  1  0.23655629  0.00000000  0.75000000  1
  O  O244  1  0.23655629  0.33333333  0.75000000  1
  O  O245  1  0.23655629  0.66666667  0.75000000  1
  O  O246  1  0.56988963  0.00000000  0.75000000  1
  O  O247  1  0.56988963  0.33333333  0.75000000  1
  O  O248  1  0.56988963  0.66666667  0.75000000  1
  O  O249  1  0.90322296  0.00000000  0.75000000  1
  O  O250  1  0.90322296  0.33333333  0.75000000  1
  O  O251  1  0.90322296  0.66666667  0.75000000  1
  O  O252  1  -0.00000000  0.23655629  0.75000000  1
  O  O253  1  -0.00000000  0.56988963  0.75000000  1
  O  O254  1  -0.00000000  0.90322296  0.75000000  1
  O  O255  1  0.33333333  0.23655629  0.75000000  1
  O  O256  1  0.33333333  0.56988963  0.75000000  1
  O  O257  1  0.33333333  0.90322296  0.75000000  1
  O  O258  1  0.66666667  0.23655629  0.75000000  1
  O  O259  1  0.66666667  0.56988963  0.75000000  1
  O  O260  1  0.66666667  0.90322296  0.75000000  1
  O  O261  1  0.09677704  0.09677704  0.75000000  1
  O  O262  1  0.09677704  0.43011037  0.75000000  1
  O  O263  1  0.09677704  0.76344371  0.75000000  1
  O  O264  1  0.43011037  0.09677704  0.75000000  1
  O  O265  1  0.43011037  0.43011037  0.75000000  1
  O  O266  1  0.43011037  0.76344371  0.75000000  1
  O  O267  1  0.76344371  0.09677704  0.75000000  1
  O  O268  1  0.76344371  0.43011037  0.75000000  1
  O  O269  1  0.76344371  0.76344371  0.75000000  1
