# generated using pymatgen
data_Sr2TaInO6
_symmetry_space_group_name_H-M   'P 1'
_cell_length_a   11.45319683
_cell_length_b   11.58917700
_cell_length_c   9.94726810
_cell_angle_alpha   90.00000000
_cell_angle_beta   125.22874279
_cell_angle_gamma   90.00000000
_symmetry_Int_Tables_number   1
_chemical_formula_structural   Sr2TaInO6
_chemical_formula_sum   'Sr16 Ta8 In8 O48'
_cell_volume   1078.52060630
_cell_formula_units_Z   8
loop_
 _symmetry_equiv_pos_site_id
 _symmetry_equiv_pos_as_xyz
  1  'x, y, z'
loop_
 _atom_site_type_symbol
 _atom_site_label
 _atom_site_symmetry_multiplicity
 _atom_site_fract_x
 _atom_site_fract_y
 _atom_site_fract_z
 _atom_site_occupancy
  Sr  Sr0  1  0.12062654  0.23169692  0.24929609  1
  Sr  Sr1  1  0.12062654  0.73169692  0.24929609  1
  Sr  Sr2  1  0.62062654  0.23169692  0.24929609  1
  Sr  Sr3  1  0.62062654  0.73169692  0.24929609  1
  Sr  Sr4  1  0.12062654  0.01830308  0.74929609  1
  Sr  Sr5  1  0.12062654  0.51830308  0.74929609  1
  Sr  Sr6  1  0.62062654  0.01830308  0.74929609  1
  Sr  Sr7  1  0.62062654  0.51830308  0.74929609  1
  Sr  Sr8  1  0.37937346  0.26830308  0.75070391  1
  Sr  Sr9  1  0.37937346  0.76830308  0.75070391  1
  Sr  Sr10  1  0.87937346  0.26830308  0.75070391  1
  Sr  Sr11  1  0.87937346  0.76830308  0.75070391  1
  Sr  Sr12  1  0.37937346  0.48169692  0.25070391  1
  Sr  Sr13  1  0.37937346  0.98169692  0.25070391  1
  Sr  Sr14  1  0.87937346  0.48169692  0.25070391  1
  Sr  Sr15  1  0.87937346  0.98169692  0.25070391  1
  Ta  Ta16  1  0.25000000  0.25000000  0.00000000  1
  Ta  Ta17  1  0.25000000  0.75000000  0.00000000  1
  Ta  Ta18  1  0.75000000  0.25000000  0.00000000  1
  Ta  Ta19  1  0.75000000  0.75000000  0.00000000  1
  Ta  Ta20  1  0.25000000  0.00000000  0.50000000  1
  Ta  Ta21  1  0.25000000  0.50000000  0.50000000  1
  Ta  Ta22  1  0.75000000  0.00000000  0.50000000  1
  Ta  Ta23  1  0.75000000  0.50000000  0.50000000  1
  In  In24  1  -0.00000000  0.25000000  0.50000000  1
  In  In25  1  -0.00000000  0.75000000  0.50000000  1
  In  In26  1  0.50000000  0.25000000  0.50000000  1
  In  In27  1  0.50000000  0.75000000  0.50000000  1
  In  In28  1  0.00000000  0.00000000  0.00000000  1
  In  In29  1  0.00000000  0.50000000  0.00000000  1
  In  In30  1  0.50000000  0.00000000  0.00000000  1
  In  In31  1  0.50000000  0.50000000  0.00000000  1
  O  O32  1  0.37083125  0.13797951  0.54261655  1
  O  O33  1  0.37083125  0.63797951  0.54261655  1
  O  O34  1  0.87083125  0.13797951  0.54261655  1
  O  O35  1  0.87083125  0.63797951  0.54261655  1
  O  O36  1  0.37083125  0.11202049  0.04261655  1
  O  O37  1  0.37083125  0.61202049  0.04261655  1
  O  O38  1  0.87083125  0.11202049  0.04261655  1
  O  O39  1  0.87083125  0.61202049  0.04261655  1
  O  O40  1  0.12916875  0.36202049  0.45738345  1
  O  O41  1  0.12916875  0.86202049  0.45738345  1
  O  O42  1  0.62916875  0.36202049  0.45738345  1
  O  O43  1  0.62916875  0.86202049  0.45738345  1
  O  O44  1  0.12916875  0.38797951  0.95738345  1
  O  O45  1  0.12916875  0.88797951  0.95738345  1
  O  O46  1  0.62916875  0.38797951  0.95738345  1
  O  O47  1  0.62916875  0.88797951  0.95738345  1
  O  O48  1  0.40744836  0.39948332  0.53873247  1
  O  O49  1  0.40744836  0.89948332  0.53873247  1
  O  O50  1  0.90744836  0.39948332  0.53873247  1
  O  O51  1  0.90744836  0.89948332  0.53873247  1
  O  O52  1  0.40744836  0.35051668  0.03873247  1
  O  O53  1  0.40744836  0.85051668  0.03873247  1
  O  O54  1  0.90744836  0.35051668  0.03873247  1
  O  O55  1  0.90744836  0.85051668  0.03873247  1
  O  O56  1  0.09255164  0.10051668  0.46126753  1
  O  O57  1  0.09255164  0.60051668  0.46126753  1
  O  O58  1  0.59255164  0.10051668  0.46126753  1
  O  O59  1  0.59255164  0.60051668  0.46126753  1
  O  O60  1  0.09255164  0.14948332  0.96126753  1
  O  O61  1  0.09255164  0.64948332  0.96126753  1
  O  O62  1  0.59255164  0.14948332  0.96126753  1
  O  O63  1  0.59255164  0.64948332  0.96126753  1
  O  O64  1  0.33050050  0.26053553  0.23803694  1
  O  O65  1  0.33050050  0.76053553  0.23803694  1
  O  O66  1  0.83050050  0.26053553  0.23803694  1
  O  O67  1  0.83050050  0.76053553  0.23803694  1
  O  O68  1  0.33050050  0.48946447  0.73803694  1
  O  O69  1  0.33050050  0.98946447  0.73803694  1
  O  O70  1  0.83050050  0.48946447  0.73803694  1
  O  O71  1  0.83050050  0.98946447  0.73803694  1
  O  O72  1  0.16949950  0.23946447  0.76196306  1
  O  O73  1  0.16949950  0.73946447  0.76196306  1
  O  O74  1  0.66949950  0.23946447  0.76196306  1
  O  O75  1  0.66949950  0.73946447  0.76196306  1
  O  O76  1  0.16949950  0.01053553  0.26196306  1
  O  O77  1  0.16949950  0.51053553  0.26196306  1
  O  O78  1  0.66949950  0.01053553  0.26196306  1
  O  O79  1  0.66949950  0.51053553  0.26196306  1
