# generated using pymatgen
data_Na3AgO2
_symmetry_space_group_name_H-M   'P 1'
_cell_length_a   10.77936535
_cell_length_b   10.76768372
_cell_length_c   11.70042071
_cell_angle_alpha   90.00000000
_cell_angle_beta   90.00000000
_cell_angle_gamma   90.00000000
_symmetry_Int_Tables_number   1
_chemical_formula_structural   Na3AgO2
_chemical_formula_sum   'Na48 Ag16 O32'
_cell_volume   1358.05375359
_cell_formula_units_Z   16
loop_
 _symmetry_equiv_pos_site_id
 _symmetry_equiv_pos_as_xyz
  1  'x, y, z'
loop_
 _atom_site_type_symbol
 _atom_site_label
 _atom_site_symmetry_multiplicity
 _atom_site_fract_x
 _atom_site_fract_y
 _atom_site_fract_z
 _atom_site_occupancy
  Na  Na0  1  0.00000000  0.23943482  0.37500000  1
  Na  Na1  1  0.00000000  0.23943482  0.87500000  1
  Na  Na2  1  0.50000000  0.23943482  0.37500000  1
  Na  Na3  1  0.50000000  0.23943482  0.87500000  1
  Na  Na4  1  0.25000000  0.73943482  0.62500000  1
  Na  Na5  1  0.25000000  0.73943482  1.12500000  1
  Na  Na6  1  0.75000000  0.73943482  0.62500000  1
  Na  Na7  1  0.75000000  0.73943482  1.12500000  1
  Na  Na8  1  0.00000000  0.50000000  0.12500000  1
  Na  Na9  1  0.00000000  0.50000000  0.62500000  1
  Na  Na10  1  0.50000000  0.50000000  0.12500000  1
  Na  Na11  1  0.50000000  0.50000000  0.62500000  1
  Na  Na12  1  0.25000000  1.00000000  0.37500000  1
  Na  Na13  1  0.25000000  1.00000000  0.87500000  1
  Na  Na14  1  0.75000000  1.00000000  0.37500000  1
  Na  Na15  1  0.75000000  1.00000000  0.87500000  1
  Na  Na16  1  -0.00000000  0.23943482  0.12500000  1
  Na  Na17  1  -0.00000000  0.23943482  0.62500000  1
  Na  Na18  1  0.50000000  0.23943482  0.12500000  1
  Na  Na19  1  0.50000000  0.23943482  0.62500000  1
  Na  Na20  1  0.25000000  0.73943482  0.37500000  1
  Na  Na21  1  0.25000000  0.73943482  0.87500000  1
  Na  Na22  1  0.75000000  0.73943482  0.37500000  1
  Na  Na23  1  0.75000000  0.73943482  0.87500000  1
  Na  Na24  1  0.25000000  0.26056518  -0.12500000  1
  Na  Na25  1  0.25000000  0.26056518  0.37500000  1
  Na  Na26  1  0.75000000  0.26056518  -0.12500000  1
  Na  Na27  1  0.75000000  0.26056518  0.37500000  1
  Na  Na28  1  0.50000000  0.76056518  0.12500000  1
  Na  Na29  1  0.50000000  0.76056518  0.62500000  1
  Na  Na30  1  1.00000000  0.76056518  0.12500000  1
  Na  Na31  1  1.00000000  0.76056518  0.62500000  1
  Na  Na32  1  0.25000000  0.00000000  0.12500000  1
  Na  Na33  1  0.25000000  0.00000000  0.62500000  1
  Na  Na34  1  0.75000000  0.00000000  0.12500000  1
  Na  Na35  1  0.75000000  0.00000000  0.62500000  1
  Na  Na36  1  0.50000000  0.50000000  0.37500000  1
  Na  Na37  1  0.50000000  0.50000000  0.87500000  1
  Na  Na38  1  1.00000000  0.50000000  0.37500000  1
  Na  Na39  1  1.00000000  0.50000000  0.87500000  1
  Na  Na40  1  0.25000000  0.26056518  0.12500000  1
  Na  Na41  1  0.25000000  0.26056518  0.62500000  1
  Na  Na42  1  0.75000000  0.26056518  0.12500000  1
  Na  Na43  1  0.75000000  0.26056518  0.62500000  1
  Na  Na44  1  0.50000000  0.76056518  0.37500000  1
  Na  Na45  1  0.50000000  0.76056518  0.87500000  1
  Na  Na46  1  1.00000000  0.76056518  0.37500000  1
  Na  Na47  1  1.00000000  0.76056518  0.87500000  1
  Ag  Ag48  1  0.00000000  0.00000000  0.00000000  1
  Ag  Ag49  1  0.00000000  0.00000000  0.50000000  1
  Ag  Ag50  1  0.50000000  0.00000000  0.00000000  1
  Ag  Ag51  1  0.50000000  0.00000000  0.50000000  1
  Ag  Ag52  1  0.25000000  0.50000000  0.25000000  1
  Ag  Ag53  1  0.25000000  0.50000000  0.75000000  1
  Ag  Ag54  1  0.75000000  0.50000000  0.25000000  1
  Ag  Ag55  1  0.75000000  0.50000000  0.75000000  1
  Ag  Ag56  1  0.00000000  0.00000000  0.25000000  1
  Ag  Ag57  1  0.00000000  0.00000000  0.75000000  1
  Ag  Ag58  1  0.50000000  0.00000000  0.25000000  1
  Ag  Ag59  1  0.50000000  0.00000000  0.75000000  1
  Ag  Ag60  1  0.25000000  0.50000000  0.50000000  1
  Ag  Ag61  1  0.25000000  0.50000000  1.00000000  1
  Ag  Ag62  1  0.75000000  0.50000000  0.50000000  1
  Ag  Ag63  1  0.75000000  0.50000000  1.00000000  1
  O  O64  1  0.36318566  0.13535577  0.00000000  1
  O  O65  1  0.36318566  0.13535577  0.50000000  1
  O  O66  1  0.86318566  0.13535577  0.00000000  1
  O  O67  1  0.86318566  0.13535577  0.50000000  1
  O  O68  1  0.61318566  0.63535577  0.25000000  1
  O  O69  1  0.61318566  0.63535577  0.75000000  1
  O  O70  1  1.11318566  0.63535577  0.25000000  1
  O  O71  1  1.11318566  0.63535577  0.75000000  1
  O  O72  1  0.11318566  0.36464423  0.00000000  1
  O  O73  1  0.11318566  0.36464423  0.50000000  1
  O  O74  1  0.61318566  0.36464423  0.00000000  1
  O  O75  1  0.61318566  0.36464423  0.50000000  1
  O  O76  1  0.36318566  0.86464423  0.25000000  1
  O  O77  1  0.36318566  0.86464423  0.75000000  1
  O  O78  1  0.86318566  0.86464423  0.25000000  1
  O  O79  1  0.86318566  0.86464423  0.75000000  1
  O  O80  1  -0.11318566  0.36464423  0.25000000  1
  O  O81  1  -0.11318566  0.36464423  0.75000000  1
  O  O82  1  0.38681434  0.36464423  0.25000000  1
  O  O83  1  0.38681434  0.36464423  0.75000000  1
  O  O84  1  0.13681434  0.86464423  0.50000000  1
  O  O85  1  0.13681434  0.86464423  1.00000000  1
  O  O86  1  0.63681434  0.86464423  0.50000000  1
  O  O87  1  0.63681434  0.86464423  1.00000000  1
  O  O88  1  0.13681434  0.13535577  0.25000000  1
  O  O89  1  0.13681434  0.13535577  0.75000000  1
  O  O90  1  0.63681434  0.13535577  0.25000000  1
  O  O91  1  0.63681434  0.13535577  0.75000000  1
  O  O92  1  0.38681434  0.63535577  0.50000000  1
  O  O93  1  0.38681434  0.63535577  1.00000000  1
  O  O94  1  0.88681434  0.63535577  0.50000000  1
  O  O95  1  0.88681434  0.63535577  1.00000000  1
