# generated using pymatgen
data_Ca4PdO6
_symmetry_space_group_name_H-M   'P 1'
_cell_length_a   9.22239301
_cell_length_b   9.22239301
_cell_length_c   11.12316707
_cell_angle_alpha   90.00000000
_cell_angle_beta   90.00000000
_cell_angle_gamma   120.00000000
_symmetry_Int_Tables_number   1
_chemical_formula_structural   Ca4PdO6
_chemical_formula_sum   'Ca24 Pd6 O36'
_cell_volume   819.30639135
_cell_formula_units_Z   6
loop_
 _symmetry_equiv_pos_site_id
 _symmetry_equiv_pos_as_xyz
  1  'x, y, z'
loop_
 _atom_site_type_symbol
 _atom_site_label
 _atom_site_symmetry_multiplicity
 _atom_site_fract_x
 _atom_site_fract_y
 _atom_site_fract_z
 _atom_site_occupancy
  Ca  Ca0  1  -0.00000000  -0.00000000  0.25000000  1
  Ca  Ca1  1  0.66666667  0.33333333  0.58333333  1
  Ca  Ca2  1  0.33333333  0.66666667  0.91666667  1
  Ca  Ca3  1  0.00000000  0.00000000  0.75000000  1
  Ca  Ca4  1  0.66666667  0.33333333  1.08333333  1
  Ca  Ca5  1  0.33333333  0.66666667  1.41666667  1
  Ca  Ca6  1  -0.30048656  -0.33333333  0.41666667  1
  Ca  Ca7  1  0.36618010  -0.00000000  0.75000000  1
  Ca  Ca8  1  0.03284677  0.33333333  1.08333333  1
  Ca  Ca9  1  0.33333333  0.03284677  0.41666667  1
  Ca  Ca10  1  1.00000000  0.36618010  0.75000000  1
  Ca  Ca11  1  0.66666667  0.69951344  1.08333333  1
  Ca  Ca12  1  -0.03284677  0.30048656  0.41666667  1
  Ca  Ca13  1  0.63381990  0.63381990  0.75000000  1
  Ca  Ca14  1  0.30048656  0.96715323  1.08333333  1
  Ca  Ca15  1  0.30048656  0.33333333  0.58333333  1
  Ca  Ca16  1  0.96715323  0.66666667  0.91666667  1
  Ca  Ca17  1  0.63381990  1.00000000  1.25000000  1
  Ca  Ca18  1  -0.33333333  -0.03284677  0.58333333  1
  Ca  Ca19  1  0.33333333  0.30048656  0.91666667  1
  Ca  Ca20  1  -0.00000000  0.63381990  1.25000000  1
  Ca  Ca21  1  0.03284677  -0.30048656  0.58333333  1
  Ca  Ca22  1  0.69951344  0.03284677  0.91666667  1
  Ca  Ca23  1  0.36618010  0.36618010  1.25000000  1
  Pd  Pd24  1  -0.00000000  -0.00000000  -0.00000000  1
  Pd  Pd25  1  0.66666667  0.33333333  0.33333333  1
  Pd  Pd26  1  0.33333333  0.66666667  0.66666667  1
  Pd  Pd27  1  0.00000000  0.00000000  0.50000000  1
  Pd  Pd28  1  0.66666667  0.33333333  0.83333333  1
  Pd  Pd29  1  0.33333333  0.66666667  1.16666667  1
  O  O30  1  0.19226160  0.03317554  0.60445247  1
  O  O31  1  0.85892827  0.36650888  0.93778580  1
  O  O32  1  0.52559493  0.69984221  1.27111913  1
  O  O33  1  -0.03317554  0.15908606  0.60445247  1
  O  O34  1  0.63349112  0.49241939  0.93778580  1
  O  O35  1  0.30015779  0.82575272  1.27111913  1
  O  O36  1  -0.15908606  -0.19226160  0.60445247  1
  O  O37  1  0.50758061  0.14107173  0.93778580  1
  O  O38  1  0.17424728  0.47440507  1.27111913  1
  O  O39  1  -0.50758061  -0.36650888  0.56221420  1
  O  O40  1  0.15908606  -0.03317554  0.89554753  1
  O  O41  1  -0.17424728  0.30015779  1.22888087  1
  O  O42  1  0.36650888  -0.14107173  0.56221420  1
  O  O43  1  1.03317554  0.19226160  0.89554753  1
  O  O44  1  0.69984221  0.52559493  1.22888087  1
  O  O45  1  0.14107173  0.50758061  0.56221420  1
  O  O46  1  0.80773840  0.84091394  0.89554753  1
  O  O47  1  0.47440507  1.17424728  1.22888087  1
  O  O48  1  -0.19226160  -0.03317554  0.39554753  1
  O  O49  1  0.47440507  0.30015779  0.72888087  1
  O  O50  1  0.14107173  0.63349112  1.06221420  1
  O  O51  1  0.03317554  -0.15908606  0.39554753  1
  O  O52  1  0.69984221  0.17424728  0.72888087  1
  O  O53  1  0.36650888  0.50758061  1.06221420  1
  O  O54  1  0.15908606  0.19226160  0.39554753  1
  O  O55  1  0.82575272  0.52559493  0.72888087  1
  O  O56  1  0.49241939  0.85892827  1.06221420  1
  O  O57  1  0.50758061  0.36650888  0.43778580  1
  O  O58  1  1.17424728  0.69984221  0.77111913  1
  O  O59  1  0.84091394  1.03317554  1.10445247  1
  O  O60  1  -0.14107173  -0.50758061  0.43778580  1
  O  O61  1  0.52559493  -0.17424728  0.77111913  1
  O  O62  1  0.19226160  0.15908606  1.10445247  1
  O  O63  1  -0.36650888  0.14107173  0.43778580  1
  O  O64  1  0.30015779  0.47440507  0.77111913  1
  O  O65  1  -0.03317554  0.80773840  1.10445247  1
