# generated using pymatgen
data_Rb2Zn3O4
_symmetry_space_group_name_H-M   'P 1'
_cell_length_a   15.03526902
_cell_length_b   19.19554279
_cell_length_c   16.91026446
_cell_angle_alpha   90.00000000
_cell_angle_beta   101.09709852
_cell_angle_gamma   90.00000000
_symmetry_Int_Tables_number   1
_chemical_formula_structural   Rb2Zn3O4
_chemical_formula_sum   'Rb72 Zn108 O144'
_cell_volume   4789.22086764
_cell_formula_units_Z   36
loop_
 _symmetry_equiv_pos_site_id
 _symmetry_equiv_pos_as_xyz
  1  'x, y, z'
loop_
 _atom_site_type_symbol
 _atom_site_label
 _atom_site_symmetry_multiplicity
 _atom_site_fract_x
 _atom_site_fract_y
 _atom_site_fract_z
 _atom_site_occupancy
  Rb  Rb0  1  0.38483775  -0.12129112  0.33254896  1
  Rb  Rb1  1  0.38483775  -0.12129112  0.66588229  1
  Rb  Rb2  1  0.38483775  -0.12129112  0.99921562  1
  Rb  Rb3  1  0.38483775  0.21204222  0.33254896  1
  Rb  Rb4  1  0.38483775  0.21204222  0.66588229  1
  Rb  Rb5  1  0.38483775  0.21204222  0.99921562  1
  Rb  Rb6  1  0.38483775  0.54537555  0.33254896  1
  Rb  Rb7  1  0.38483775  0.54537555  0.66588229  1
  Rb  Rb8  1  0.38483775  0.54537555  0.99921562  1
  Rb  Rb9  1  0.88483775  0.04537555  0.33254896  1
  Rb  Rb10  1  0.88483775  0.04537555  0.66588229  1
  Rb  Rb11  1  0.88483775  0.04537555  0.99921562  1
  Rb  Rb12  1  0.88483775  0.37870888  0.33254896  1
  Rb  Rb13  1  0.88483775  0.37870888  0.66588229  1
  Rb  Rb14  1  0.88483775  0.37870888  0.99921562  1
  Rb  Rb15  1  0.88483775  0.71204222  0.33254896  1
  Rb  Rb16  1  0.88483775  0.71204222  0.66588229  1
  Rb  Rb17  1  0.88483775  0.71204222  0.99921562  1
  Rb  Rb18  1  0.61516225  -0.12129112  0.16745104  1
  Rb  Rb19  1  0.61516225  -0.12129112  0.50078438  1
  Rb  Rb20  1  0.61516225  -0.12129112  0.83411771  1
  Rb  Rb21  1  0.61516225  0.21204222  0.16745104  1
  Rb  Rb22  1  0.61516225  0.21204222  0.50078438  1
  Rb  Rb23  1  0.61516225  0.21204222  0.83411771  1
  Rb  Rb24  1  0.61516225  0.54537555  0.16745104  1
  Rb  Rb25  1  0.61516225  0.54537555  0.50078438  1
  Rb  Rb26  1  0.61516225  0.54537555  0.83411771  1
  Rb  Rb27  1  1.11516225  0.04537555  0.16745104  1
  Rb  Rb28  1  1.11516225  0.04537555  0.50078438  1
  Rb  Rb29  1  1.11516225  0.04537555  0.83411771  1
  Rb  Rb30  1  1.11516225  0.37870888  0.16745104  1
  Rb  Rb31  1  1.11516225  0.37870888  0.50078438  1
  Rb  Rb32  1  1.11516225  0.37870888  0.83411771  1
  Rb  Rb33  1  1.11516225  0.71204222  0.16745104  1
  Rb  Rb34  1  1.11516225  0.71204222  0.50078438  1
  Rb  Rb35  1  1.11516225  0.71204222  0.83411771  1
  Rb  Rb36  1  0.61516225  0.12129112  0.00078438  1
  Rb  Rb37  1  0.61516225  0.12129112  0.33411771  1
  Rb  Rb38  1  0.61516225  0.12129112  0.66745104  1
  Rb  Rb39  1  0.61516225  0.45462445  0.00078438  1
  Rb  Rb40  1  0.61516225  0.45462445  0.33411771  1
  Rb  Rb41  1  0.61516225  0.45462445  0.66745104  1
  Rb  Rb42  1  0.61516225  0.78795778  0.00078438  1
  Rb  Rb43  1  0.61516225  0.78795778  0.33411771  1
  Rb  Rb44  1  0.61516225  0.78795778  0.66745104  1
  Rb  Rb45  1  1.11516225  0.28795778  0.00078438  1
  Rb  Rb46  1  1.11516225  0.28795778  0.33411771  1
  Rb  Rb47  1  1.11516225  0.28795778  0.66745104  1
  Rb  Rb48  1  1.11516225  0.62129112  0.00078438  1
  Rb  Rb49  1  1.11516225  0.62129112  0.33411771  1
  Rb  Rb50  1  1.11516225  0.62129112  0.66745104  1
  Rb  Rb51  1  1.11516225  0.95462445  0.00078438  1
  Rb  Rb52  1  1.11516225  0.95462445  0.33411771  1
  Rb  Rb53  1  1.11516225  0.95462445  0.66745104  1
  Rb  Rb54  1  0.38483775  0.12129112  0.16588229  1
  Rb  Rb55  1  0.38483775  0.12129112  0.49921562  1
  Rb  Rb56  1  0.38483775  0.12129112  0.83254896  1
  Rb  Rb57  1  0.38483775  0.45462445  0.16588229  1
  Rb  Rb58  1  0.38483775  0.45462445  0.49921562  1
  Rb  Rb59  1  0.38483775  0.45462445  0.83254896  1
  Rb  Rb60  1  0.38483775  0.78795778  0.16588229  1
  Rb  Rb61  1  0.38483775  0.78795778  0.49921562  1
  Rb  Rb62  1  0.38483775  0.78795778  0.83254896  1
  Rb  Rb63  1  0.88483775  0.28795778  0.16588229  1
  Rb  Rb64  1  0.88483775  0.28795778  0.49921562  1
  Rb  Rb65  1  0.88483775  0.28795778  0.83254896  1
  Rb  Rb66  1  0.88483775  0.62129112  0.16588229  1
  Rb  Rb67  1  0.88483775  0.62129112  0.49921562  1
  Rb  Rb68  1  0.88483775  0.62129112  0.83254896  1
  Rb  Rb69  1  0.88483775  0.95462445  0.16588229  1
  Rb  Rb70  1  0.88483775  0.95462445  0.49921562  1
  Rb  Rb71  1  0.88483775  0.95462445  0.83254896  1
  Zn  Zn72  1  0.30421735  0.03854869  0.30343926  1
  Zn  Zn73  1  0.30421735  0.03854869  0.63677259  1
  Zn  Zn74  1  0.30421735  0.03854869  0.97010593  1
  Zn  Zn75  1  0.30421735  0.37188202  0.30343926  1
  Zn  Zn76  1  0.30421735  0.37188202  0.63677259  1
  Zn  Zn77  1  0.30421735  0.37188202  0.97010593  1
  Zn  Zn78  1  0.30421735  0.70521535  0.30343926  1
  Zn  Zn79  1  0.30421735  0.70521535  0.63677259  1
  Zn  Zn80  1  0.30421735  0.70521535  0.97010593  1
  Zn  Zn81  1  0.80421735  0.20521535  0.30343926  1
  Zn  Zn82  1  0.80421735  0.20521535  0.63677259  1
  Zn  Zn83  1  0.80421735  0.20521535  0.97010593  1
  Zn  Zn84  1  0.80421735  0.53854869  0.30343926  1
  Zn  Zn85  1  0.80421735  0.53854869  0.63677259  1
  Zn  Zn86  1  0.80421735  0.53854869  0.97010593  1
  Zn  Zn87  1  0.80421735  0.87188202  0.30343926  1
  Zn  Zn88  1  0.80421735  0.87188202  0.63677259  1
  Zn  Zn89  1  0.80421735  0.87188202  0.97010593  1
  Zn  Zn90  1  0.69578265  0.03854869  0.19656074  1
  Zn  Zn91  1  0.69578265  0.03854869  0.52989407  1
  Zn  Zn92  1  0.69578265  0.03854869  0.86322741  1
  Zn  Zn93  1  0.69578265  0.37188202  0.19656074  1
  Zn  Zn94  1  0.69578265  0.37188202  0.52989407  1
  Zn  Zn95  1  0.69578265  0.37188202  0.86322741  1
  Zn  Zn96  1  0.69578265  0.70521535  0.19656074  1
  Zn  Zn97  1  0.69578265  0.70521535  0.52989407  1
  Zn  Zn98  1  0.69578265  0.70521535  0.86322741  1
  Zn  Zn99  1  1.19578265  0.20521535  0.19656074  1
  Zn  Zn100  1  1.19578265  0.20521535  0.52989407  1
  Zn  Zn101  1  1.19578265  0.20521535  0.86322741  1
  Zn  Zn102  1  1.19578265  0.53854869  0.19656074  1
  Zn  Zn103  1  1.19578265  0.53854869  0.52989407  1
  Zn  Zn104  1  1.19578265  0.53854869  0.86322741  1
  Zn  Zn105  1  1.19578265  0.87188202  0.19656074  1
  Zn  Zn106  1  1.19578265  0.87188202  0.52989407  1
  Zn  Zn107  1  1.19578265  0.87188202  0.86322741  1
  Zn  Zn108  1  0.50000000  -0.00474788  0.25000000  1
  Zn  Zn109  1  0.50000000  -0.00474788  0.58333333  1
  Zn  Zn110  1  0.50000000  -0.00474788  0.91666667  1
  Zn  Zn111  1  0.50000000  0.32858546  0.25000000  1
  Zn  Zn112  1  0.50000000  0.32858546  0.58333333  1
  Zn  Zn113  1  0.50000000  0.32858546  0.91666667  1
  Zn  Zn114  1  0.50000000  0.66191879  0.25000000  1
  Zn  Zn115  1  0.50000000  0.66191879  0.58333333  1
  Zn  Zn116  1  0.50000000  0.66191879  0.91666667  1
  Zn  Zn117  1  1.00000000  0.16191879  0.25000000  1
  Zn  Zn118  1  1.00000000  0.16191879  0.58333333  1
  Zn  Zn119  1  1.00000000  0.16191879  0.91666667  1
  Zn  Zn120  1  1.00000000  0.49525212  0.25000000  1
  Zn  Zn121  1  1.00000000  0.49525212  0.58333333  1
  Zn  Zn122  1  1.00000000  0.49525212  0.91666667  1
  Zn  Zn123  1  1.00000000  0.82858546  0.25000000  1
  Zn  Zn124  1  1.00000000  0.82858546  0.58333333  1
  Zn  Zn125  1  1.00000000  0.82858546  0.91666667  1
  Zn  Zn126  1  0.50000000  0.00474788  0.08333333  1
  Zn  Zn127  1  0.50000000  0.00474788  0.41666667  1
  Zn  Zn128  1  0.50000000  0.00474788  0.75000000  1
  Zn  Zn129  1  0.50000000  0.33808121  0.08333333  1
  Zn  Zn130  1  0.50000000  0.33808121  0.41666667  1
  Zn  Zn131  1  0.50000000  0.33808121  0.75000000  1
  Zn  Zn132  1  0.50000000  0.67141454  0.08333333  1
  Zn  Zn133  1  0.50000000  0.67141454  0.41666667  1
  Zn  Zn134  1  0.50000000  0.67141454  0.75000000  1
  Zn  Zn135  1  1.00000000  0.17141454  0.08333333  1
  Zn  Zn136  1  1.00000000  0.17141454  0.41666667  1
  Zn  Zn137  1  1.00000000  0.17141454  0.75000000  1
  Zn  Zn138  1  1.00000000  0.50474788  0.08333333  1
  Zn  Zn139  1  1.00000000  0.50474788  0.41666667  1
  Zn  Zn140  1  1.00000000  0.50474788  0.75000000  1
  Zn  Zn141  1  1.00000000  0.83808121  0.08333333  1
  Zn  Zn142  1  1.00000000  0.83808121  0.41666667  1
  Zn  Zn143  1  1.00000000  0.83808121  0.75000000  1
  Zn  Zn144  1  0.69578265  -0.03854869  0.02989407  1
  Zn  Zn145  1  0.69578265  -0.03854869  0.36322741  1
  Zn  Zn146  1  0.69578265  -0.03854869  0.69656074  1
  Zn  Zn147  1  0.69578265  0.29478465  0.02989407  1
  Zn  Zn148  1  0.69578265  0.29478465  0.36322741  1
  Zn  Zn149  1  0.69578265  0.29478465  0.69656074  1
  Zn  Zn150  1  0.69578265  0.62811798  0.02989407  1
  Zn  Zn151  1  0.69578265  0.62811798  0.36322741  1
  Zn  Zn152  1  0.69578265  0.62811798  0.69656074  1
  Zn  Zn153  1  1.19578265  0.12811798  0.02989407  1
  Zn  Zn154  1  1.19578265  0.12811798  0.36322741  1
  Zn  Zn155  1  1.19578265  0.12811798  0.69656074  1
  Zn  Zn156  1  1.19578265  0.46145131  0.02989407  1
  Zn  Zn157  1  1.19578265  0.46145131  0.36322741  1
  Zn  Zn158  1  1.19578265  0.46145131  0.69656074  1
  Zn  Zn159  1  1.19578265  0.79478465  0.02989407  1
  Zn  Zn160  1  1.19578265  0.79478465  0.36322741  1
  Zn  Zn161  1  1.19578265  0.79478465  0.69656074  1
  Zn  Zn162  1  0.30421735  -0.03854869  0.13677259  1
  Zn  Zn163  1  0.30421735  -0.03854869  0.47010593  1
  Zn  Zn164  1  0.30421735  -0.03854869  0.80343926  1
  Zn  Zn165  1  0.30421735  0.29478465  0.13677259  1
  Zn  Zn166  1  0.30421735  0.29478465  0.47010593  1
  Zn  Zn167  1  0.30421735  0.29478465  0.80343926  1
  Zn  Zn168  1  0.30421735  0.62811798  0.13677259  1
  Zn  Zn169  1  0.30421735  0.62811798  0.47010593  1
  Zn  Zn170  1  0.30421735  0.62811798  0.80343926  1
  Zn  Zn171  1  0.80421735  0.12811798  0.13677259  1
  Zn  Zn172  1  0.80421735  0.12811798  0.47010593  1
  Zn  Zn173  1  0.80421735  0.12811798  0.80343926  1
  Zn  Zn174  1  0.80421735  0.46145131  0.13677259  1
  Zn  Zn175  1  0.80421735  0.46145131  0.47010593  1
  Zn  Zn176  1  0.80421735  0.46145131  0.80343926  1
  Zn  Zn177  1  0.80421735  0.79478465  0.13677259  1
  Zn  Zn178  1  0.80421735  0.79478465  0.47010593  1
  Zn  Zn179  1  0.80421735  0.79478465  0.80343926  1
  O  O180  1  0.74149263  -0.03958110  0.26334088  1
  O  O181  1  0.74149263  -0.03958110  0.59667422  1
  O  O182  1  0.74149263  -0.03958110  0.93000755  1
  O  O183  1  0.74149263  0.29375223  0.26334088  1
  O  O184  1  0.74149263  0.29375223  0.59667422  1
  O  O185  1  0.74149263  0.29375223  0.93000755  1
  O  O186  1  0.74149263  0.62708556  0.26334088  1
  O  O187  1  0.74149263  0.62708556  0.59667422  1
  O  O188  1  0.74149263  0.62708556  0.93000755  1
  O  O189  1  1.24149263  0.12708556  0.26334088  1
  O  O190  1  1.24149263  0.12708556  0.59667422  1
  O  O191  1  1.24149263  0.12708556  0.93000755  1
  O  O192  1  1.24149263  0.46041890  0.26334088  1
  O  O193  1  1.24149263  0.46041890  0.59667422  1
  O  O194  1  1.24149263  0.46041890  0.93000755  1
  O  O195  1  1.24149263  0.79375223  0.26334088  1
  O  O196  1  1.24149263  0.79375223  0.59667422  1
  O  O197  1  1.24149263  0.79375223  0.93000755  1
  O  O198  1  0.25850737  -0.03958110  0.23665912  1
  O  O199  1  0.25850737  -0.03958110  0.56999245  1
  O  O200  1  0.25850737  -0.03958110  0.90332578  1
  O  O201  1  0.25850737  0.29375223  0.23665912  1
  O  O202  1  0.25850737  0.29375223  0.56999245  1
  O  O203  1  0.25850737  0.29375223  0.90332578  1
  O  O204  1  0.25850737  0.62708556  0.23665912  1
  O  O205  1  0.25850737  0.62708556  0.56999245  1
  O  O206  1  0.25850737  0.62708556  0.90332578  1
  O  O207  1  0.75850737  0.12708556  0.23665912  1
  O  O208  1  0.75850737  0.12708556  0.56999245  1
  O  O209  1  0.75850737  0.12708556  0.90332578  1
  O  O210  1  0.75850737  0.46041890  0.23665912  1
  O  O211  1  0.75850737  0.46041890  0.56999245  1
  O  O212  1  0.75850737  0.46041890  0.90332578  1
  O  O213  1  0.75850737  0.79375223  0.23665912  1
  O  O214  1  0.75850737  0.79375223  0.56999245  1
  O  O215  1  0.75850737  0.79375223  0.90332578  1
  O  O216  1  0.25850737  0.03958110  0.06999245  1
  O  O217  1  0.25850737  0.03958110  0.40332578  1
  O  O218  1  0.25850737  0.03958110  0.73665912  1
  O  O219  1  0.25850737  0.37291444  0.06999245  1
  O  O220  1  0.25850737  0.37291444  0.40332578  1
  O  O221  1  0.25850737  0.37291444  0.73665912  1
  O  O222  1  0.25850737  0.70624777  0.06999245  1
  O  O223  1  0.25850737  0.70624777  0.40332578  1
  O  O224  1  0.25850737  0.70624777  0.73665912  1
  O  O225  1  0.75850737  0.20624777  0.06999245  1
  O  O226  1  0.75850737  0.20624777  0.40332578  1
  O  O227  1  0.75850737  0.20624777  0.73665912  1
  O  O228  1  0.75850737  0.53958110  0.06999245  1
  O  O229  1  0.75850737  0.53958110  0.40332578  1
  O  O230  1  0.75850737  0.53958110  0.73665912  1
  O  O231  1  0.75850737  0.87291444  0.06999245  1
  O  O232  1  0.75850737  0.87291444  0.40332578  1
  O  O233  1  0.75850737  0.87291444  0.73665912  1
  O  O234  1  0.74149263  0.03958110  0.09667422  1
  O  O235  1  0.74149263  0.03958110  0.43000755  1
  O  O236  1  0.74149263  0.03958110  0.76334088  1
  O  O237  1  0.74149263  0.37291444  0.09667422  1
  O  O238  1  0.74149263  0.37291444  0.43000755  1
  O  O239  1  0.74149263  0.37291444  0.76334088  1
  O  O240  1  0.74149263  0.70624777  0.09667422  1
  O  O241  1  0.74149263  0.70624777  0.43000755  1
  O  O242  1  0.74149263  0.70624777  0.76334088  1
  O  O243  1  1.24149263  0.20624777  0.09667422  1
  O  O244  1  1.24149263  0.20624777  0.43000755  1
  O  O245  1  1.24149263  0.20624777  0.76334088  1
  O  O246  1  1.24149263  0.53958110  0.09667422  1
  O  O247  1  1.24149263  0.53958110  0.43000755  1
  O  O248  1  1.24149263  0.53958110  0.76334088  1
  O  O249  1  1.24149263  0.87291444  0.09667422  1
  O  O250  1  1.24149263  0.87291444  0.43000755  1
  O  O251  1  1.24149263  0.87291444  0.76334088  1
  O  O252  1  0.56574955  0.05114064  0.18004755  1
  O  O253  1  0.56574955  0.05114064  0.51338089  1
  O  O254  1  0.56574955  0.05114064  0.84671422  1
  O  O255  1  0.56574955  0.38447397  0.18004755  1
  O  O256  1  0.56574955  0.38447397  0.51338089  1
  O  O257  1  0.56574955  0.38447397  0.84671422  1
  O  O258  1  0.56574955  0.71780731  0.18004755  1
  O  O259  1  0.56574955  0.71780731  0.51338089  1
  O  O260  1  0.56574955  0.71780731  0.84671422  1
  O  O261  1  1.06574955  0.21780731  0.18004755  1
  O  O262  1  1.06574955  0.21780731  0.51338089  1
  O  O263  1  1.06574955  0.21780731  0.84671422  1
  O  O264  1  1.06574955  0.55114064  0.18004755  1
  O  O265  1  1.06574955  0.55114064  0.51338089  1
  O  O266  1  1.06574955  0.55114064  0.84671422  1
  O  O267  1  1.06574955  0.88447397  0.18004755  1
  O  O268  1  1.06574955  0.88447397  0.51338089  1
  O  O269  1  1.06574955  0.88447397  0.84671422  1
  O  O270  1  0.43425045  0.05114064  0.31995245  1
  O  O271  1  0.43425045  0.05114064  0.65328578  1
  O  O272  1  0.43425045  0.05114064  0.98661911  1
  O  O273  1  0.43425045  0.38447397  0.31995245  1
  O  O274  1  0.43425045  0.38447397  0.65328578  1
  O  O275  1  0.43425045  0.38447397  0.98661911  1
  O  O276  1  0.43425045  0.71780731  0.31995245  1
  O  O277  1  0.43425045  0.71780731  0.65328578  1
  O  O278  1  0.43425045  0.71780731  0.98661911  1
  O  O279  1  0.93425045  0.21780731  0.31995245  1
  O  O280  1  0.93425045  0.21780731  0.65328578  1
  O  O281  1  0.93425045  0.21780731  0.98661911  1
  O  O282  1  0.93425045  0.55114064  0.31995245  1
  O  O283  1  0.93425045  0.55114064  0.65328578  1
  O  O284  1  0.93425045  0.55114064  0.98661911  1
  O  O285  1  0.93425045  0.88447397  0.31995245  1
  O  O286  1  0.93425045  0.88447397  0.65328578  1
  O  O287  1  0.93425045  0.88447397  0.98661911  1
  O  O288  1  0.56574955  -0.05114064  0.01338089  1
  O  O289  1  0.56574955  -0.05114064  0.34671422  1
  O  O290  1  0.56574955  -0.05114064  0.68004755  1
  O  O291  1  0.56574955  0.28219269  0.01338089  1
  O  O292  1  0.56574955  0.28219269  0.34671422  1
  O  O293  1  0.56574955  0.28219269  0.68004755  1
  O  O294  1  0.56574955  0.61552603  0.01338089  1
  O  O295  1  0.56574955  0.61552603  0.34671422  1
  O  O296  1  0.56574955  0.61552603  0.68004755  1
  O  O297  1  1.06574955  0.11552603  0.01338089  1
  O  O298  1  1.06574955  0.11552603  0.34671422  1
  O  O299  1  1.06574955  0.11552603  0.68004755  1
  O  O300  1  1.06574955  0.44885936  0.01338089  1
  O  O301  1  1.06574955  0.44885936  0.34671422  1
  O  O302  1  1.06574955  0.44885936  0.68004755  1
  O  O303  1  1.06574955  0.78219269  0.01338089  1
  O  O304  1  1.06574955  0.78219269  0.34671422  1
  O  O305  1  1.06574955  0.78219269  0.68004755  1
  O  O306  1  0.43425045  -0.05114064  0.15328578  1
  O  O307  1  0.43425045  -0.05114064  0.48661911  1
  O  O308  1  0.43425045  -0.05114064  0.81995245  1
  O  O309  1  0.43425045  0.28219269  0.15328578  1
  O  O310  1  0.43425045  0.28219269  0.48661911  1
  O  O311  1  0.43425045  0.28219269  0.81995245  1
  O  O312  1  0.43425045  0.61552603  0.15328578  1
  O  O313  1  0.43425045  0.61552603  0.48661911  1
  O  O314  1  0.43425045  0.61552603  0.81995245  1
  O  O315  1  0.93425045  0.11552603  0.15328578  1
  O  O316  1  0.93425045  0.11552603  0.48661911  1
  O  O317  1  0.93425045  0.11552603  0.81995245  1
  O  O318  1  0.93425045  0.44885936  0.15328578  1
  O  O319  1  0.93425045  0.44885936  0.48661911  1
  O  O320  1  0.93425045  0.44885936  0.81995245  1
  O  O321  1  0.93425045  0.78219269  0.15328578  1
  O  O322  1  0.93425045  0.78219269  0.48661911  1
  O  O323  1  0.93425045  0.78219269  0.81995245  1
