# generated using pymatgen
data_Ba2ZnO3
_symmetry_space_group_name_H-M   'P 1'
_cell_length_a   11.58803233
_cell_length_b   11.31880296
_cell_length_c   12.52305969
_cell_angle_alpha   90.00000000
_cell_angle_beta   93.11393271
_cell_angle_gamma   90.00000000
_symmetry_Int_Tables_number   1
_chemical_formula_structural   Ba2ZnO3
_chemical_formula_sum   'Ba32 Zn16 O48'
_cell_volume   1640.13250055
_cell_formula_units_Z   16
loop_
 _symmetry_equiv_pos_site_id
 _symmetry_equiv_pos_as_xyz
  1  'x, y, z'
loop_
 _atom_site_type_symbol
 _atom_site_label
 _atom_site_symmetry_multiplicity
 _atom_site_fract_x
 _atom_site_fract_y
 _atom_site_fract_z
 _atom_site_occupancy
  Ba  Ba0  1  0.38315992  0.20435437  0.15280110  1
  Ba  Ba1  1  0.88315992  0.20435437  0.15280110  1
  Ba  Ba2  1  0.63315992  0.70435437  0.15280110  1
  Ba  Ba3  1  1.13315992  0.70435437  0.15280110  1
  Ba  Ba4  1  0.38315992  -0.20435437  0.65280110  1
  Ba  Ba5  1  0.88315992  -0.20435437  0.65280110  1
  Ba  Ba6  1  0.63315992  0.29564563  0.65280110  1
  Ba  Ba7  1  1.13315992  0.29564563  0.65280110  1
  Ba  Ba8  1  0.11684008  -0.20435437  0.84719890  1
  Ba  Ba9  1  0.61684008  -0.20435437  0.84719890  1
  Ba  Ba10  1  0.36684008  0.29564563  0.84719890  1
  Ba  Ba11  1  0.86684008  0.29564563  0.84719890  1
  Ba  Ba12  1  0.11684008  0.20435437  0.34719890  1
  Ba  Ba13  1  0.61684008  0.20435437  0.34719890  1
  Ba  Ba14  1  0.36684008  0.70435437  0.34719890  1
  Ba  Ba15  1  0.86684008  0.70435437  0.34719890  1
  Ba  Ba16  1  0.12138431  0.10375796  0.92515389  1
  Ba  Ba17  1  0.62138431  0.10375796  0.92515389  1
  Ba  Ba18  1  0.37138431  0.60375796  0.92515389  1
  Ba  Ba19  1  0.87138431  0.60375796  0.92515389  1
  Ba  Ba20  1  0.37861569  0.10375796  0.57484611  1
  Ba  Ba21  1  0.87861569  0.10375796  0.57484611  1
  Ba  Ba22  1  0.62861569  0.60375796  0.57484611  1
  Ba  Ba23  1  1.12861569  0.60375796  0.57484611  1
  Ba  Ba24  1  0.37861569  -0.10375796  0.07484611  1
  Ba  Ba25  1  0.87861569  -0.10375796  0.07484611  1
  Ba  Ba26  1  0.62861569  0.39624204  0.07484611  1
  Ba  Ba27  1  1.12861569  0.39624204  0.07484611  1
  Ba  Ba28  1  0.12138431  -0.10375796  0.42515389  1
  Ba  Ba29  1  0.62138431  -0.10375796  0.42515389  1
  Ba  Ba30  1  0.37138431  0.39624204  0.42515389  1
  Ba  Ba31  1  0.87138431  0.39624204  0.42515389  1
  Zn  Zn32  1  0.13422814  -0.00114131  0.66471892  1
  Zn  Zn33  1  0.63422814  -0.00114131  0.66471892  1
  Zn  Zn34  1  0.38422814  0.49885869  0.66471892  1
  Zn  Zn35  1  0.88422814  0.49885869  0.66471892  1
  Zn  Zn36  1  0.36577186  0.00114131  0.33528108  1
  Zn  Zn37  1  0.86577186  0.00114131  0.33528108  1
  Zn  Zn38  1  0.61577186  0.50114131  0.33528108  1
  Zn  Zn39  1  1.11577186  0.50114131  0.33528108  1
  Zn  Zn40  1  0.36577186  -0.00114131  0.83528108  1
  Zn  Zn41  1  0.86577186  -0.00114131  0.83528108  1
  Zn  Zn42  1  0.61577186  0.49885869  0.83528108  1
  Zn  Zn43  1  1.11577186  0.49885869  0.83528108  1
  Zn  Zn44  1  0.13422814  0.00114131  0.16471892  1
  Zn  Zn45  1  0.63422814  0.00114131  0.16471892  1
  Zn  Zn46  1  0.38422814  0.50114131  0.16471892  1
  Zn  Zn47  1  0.88422814  0.50114131  0.16471892  1
  O  O48  1  0.38521359  0.09762361  0.96288105  1
  O  O49  1  0.88521359  0.09762361  0.96288105  1
  O  O50  1  0.63521359  0.59762361  0.96288105  1
  O  O51  1  1.13521359  0.59762361  0.96288105  1
  O  O52  1  0.11478641  0.09762361  0.53711895  1
  O  O53  1  0.61478641  0.09762361  0.53711895  1
  O  O54  1  0.36478641  0.59762361  0.53711895  1
  O  O55  1  0.86478641  0.59762361  0.53711895  1
  O  O56  1  0.11478641  -0.09762361  0.03711895  1
  O  O57  1  0.61478641  -0.09762361  0.03711895  1
  O  O58  1  0.36478641  0.40237639  0.03711895  1
  O  O59  1  0.86478641  0.40237639  0.03711895  1
  O  O60  1  0.38521359  -0.09762361  0.46288105  1
  O  O61  1  0.88521359  -0.09762361  0.46288105  1
  O  O62  1  0.63521359  0.40237639  0.46288105  1
  O  O63  1  1.13521359  0.40237639  0.46288105  1
  O  O64  1  0.25000000  0.49796597  0.75000000  1
  O  O65  1  0.75000000  0.49796597  0.75000000  1
  O  O66  1  0.50000000  0.99796597  0.75000000  1
  O  O67  1  1.00000000  0.99796597  0.75000000  1
  O  O68  1  0.25000000  -0.49796597  0.25000000  1
  O  O69  1  0.75000000  -0.49796597  0.25000000  1
  O  O70  1  0.50000000  0.00203403  0.25000000  1
  O  O71  1  1.00000000  0.00203403  0.25000000  1
  O  O72  1  0.25000000  0.09014303  0.75000000  1
  O  O73  1  0.75000000  0.09014303  0.75000000  1
  O  O74  1  0.50000000  0.59014303  0.75000000  1
  O  O75  1  1.00000000  0.59014303  0.75000000  1
  O  O76  1  0.34242681  0.16843520  0.36618675  1
  O  O77  1  0.84242681  0.16843520  0.36618675  1
  O  O78  1  0.59242681  0.66843520  0.36618675  1
  O  O79  1  1.09242681  0.66843520  0.36618675  1
  O  O80  1  0.34242681  -0.16843520  0.86618675  1
  O  O81  1  0.84242681  -0.16843520  0.86618675  1
  O  O82  1  0.59242681  0.33156480  0.86618675  1
  O  O83  1  1.09242681  0.33156480  0.86618675  1
  O  O84  1  0.15757319  -0.16843520  0.63381325  1
  O  O85  1  0.65757319  -0.16843520  0.63381325  1
  O  O86  1  0.40757319  0.33156480  0.63381325  1
  O  O87  1  0.90757319  0.33156480  0.63381325  1
  O  O88  1  0.15757319  0.16843520  0.13381325  1
  O  O89  1  0.65757319  0.16843520  0.13381325  1
  O  O90  1  0.40757319  0.66843520  0.13381325  1
  O  O91  1  0.90757319  0.66843520  0.13381325  1
  O  O92  1  0.25000000  -0.09014303  0.25000000  1
  O  O93  1  0.75000000  -0.09014303  0.25000000  1
  O  O94  1  0.50000000  0.40985697  0.25000000  1
  O  O95  1  1.00000000  0.40985697  0.25000000  1
