# generated using pymatgen
data_VBiO4
_symmetry_space_group_name_H-M   'P 1'
_cell_length_a   14.62290004
_cell_length_b   14.62290004
_cell_length_c   12.81104942
_cell_angle_alpha   90.00000000
_cell_angle_beta   90.00000000
_cell_angle_gamma   90.00000000
_symmetry_Int_Tables_number   1
_chemical_formula_structural   VBiO4
_chemical_formula_sum   'V32 Bi32 O128'
_cell_volume   2739.37652052
_cell_formula_units_Z   32
loop_
 _symmetry_equiv_pos_site_id
 _symmetry_equiv_pos_as_xyz
  1  'x, y, z'
loop_
 _atom_site_type_symbol
 _atom_site_label
 _atom_site_symmetry_multiplicity
 _atom_site_fract_x
 _atom_site_fract_y
 _atom_site_fract_z
 _atom_site_occupancy
  V  V0  1  0.25000000  0.50000000  0.12500000  1
  V  V1  1  0.25000000  0.50000000  0.62500000  1
  V  V2  1  0.75000000  0.50000000  0.12500000  1
  V  V3  1  0.75000000  0.50000000  0.62500000  1
  V  V4  1  0.25000000  0.00000000  0.12500000  1
  V  V5  1  0.25000000  0.00000000  0.62500000  1
  V  V6  1  0.75000000  0.00000000  0.12500000  1
  V  V7  1  0.75000000  0.00000000  0.62500000  1
  V  V8  1  0.50000000  0.25000000  0.37500000  1
  V  V9  1  0.50000000  0.25000000  0.87500000  1
  V  V10  1  1.00000000  0.25000000  0.37500000  1
  V  V11  1  1.00000000  0.25000000  0.87500000  1
  V  V12  1  0.50000000  -0.25000000  0.37500000  1
  V  V13  1  0.50000000  -0.25000000  0.87500000  1
  V  V14  1  1.00000000  -0.25000000  0.37500000  1
  V  V15  1  1.00000000  -0.25000000  0.87500000  1
  V  V16  1  0.00000000  0.50000000  0.00000000  1
  V  V17  1  0.00000000  0.50000000  0.50000000  1
  V  V18  1  0.50000000  0.50000000  0.00000000  1
  V  V19  1  0.50000000  0.50000000  0.50000000  1
  V  V20  1  0.00000000  0.00000000  0.00000000  1
  V  V21  1  0.00000000  0.00000000  0.50000000  1
  V  V22  1  0.50000000  0.00000000  0.00000000  1
  V  V23  1  0.50000000  0.00000000  0.50000000  1
  V  V24  1  0.25000000  0.25000000  0.25000000  1
  V  V25  1  0.25000000  0.25000000  0.75000000  1
  V  V26  1  0.75000000  0.25000000  0.25000000  1
  V  V27  1  0.75000000  0.25000000  0.75000000  1
  V  V28  1  0.25000000  -0.25000000  0.25000000  1
  V  V29  1  0.25000000  -0.25000000  0.75000000  1
  V  V30  1  0.75000000  -0.25000000  0.25000000  1
  V  V31  1  0.75000000  -0.25000000  0.75000000  1
  Bi  Bi32  1  0.00000000  0.50000000  0.25000000  1
  Bi  Bi33  1  0.00000000  0.50000000  0.75000000  1
  Bi  Bi34  1  0.50000000  0.50000000  0.25000000  1
  Bi  Bi35  1  0.50000000  0.50000000  0.75000000  1
  Bi  Bi36  1  0.00000000  0.00000000  0.25000000  1
  Bi  Bi37  1  0.00000000  0.00000000  0.75000000  1
  Bi  Bi38  1  0.50000000  0.00000000  0.25000000  1
  Bi  Bi39  1  0.50000000  0.00000000  0.75000000  1
  Bi  Bi40  1  0.25000000  0.25000000  0.50000000  1
  Bi  Bi41  1  0.25000000  0.25000000  1.00000000  1
  Bi  Bi42  1  0.75000000  0.25000000  0.50000000  1
  Bi  Bi43  1  0.75000000  0.25000000  1.00000000  1
  Bi  Bi44  1  0.25000000  -0.25000000  0.50000000  1
  Bi  Bi45  1  0.25000000  -0.25000000  1.00000000  1
  Bi  Bi46  1  0.75000000  -0.25000000  0.50000000  1
  Bi  Bi47  1  0.75000000  -0.25000000  1.00000000  1
  Bi  Bi48  1  0.00000000  0.25000000  0.12500000  1
  Bi  Bi49  1  0.00000000  0.25000000  0.62500000  1
  Bi  Bi50  1  0.50000000  0.25000000  0.12500000  1
  Bi  Bi51  1  0.50000000  0.25000000  0.62500000  1
  Bi  Bi52  1  0.00000000  -0.25000000  0.12500000  1
  Bi  Bi53  1  0.00000000  -0.25000000  0.62500000  1
  Bi  Bi54  1  0.50000000  -0.25000000  0.12500000  1
  Bi  Bi55  1  0.50000000  -0.25000000  0.62500000  1
  Bi  Bi56  1  0.25000000  0.00000000  0.37500000  1
  Bi  Bi57  1  0.25000000  0.00000000  0.87500000  1
  Bi  Bi58  1  0.75000000  0.00000000  0.37500000  1
  Bi  Bi59  1  0.75000000  0.00000000  0.87500000  1
  Bi  Bi60  1  0.25000000  -0.50000000  0.37500000  1
  Bi  Bi61  1  0.25000000  -0.50000000  0.87500000  1
  Bi  Bi62  1  0.75000000  -0.50000000  0.37500000  1
  Bi  Bi63  1  0.75000000  -0.50000000  0.87500000  1
  O  O64  1  -0.15916154  0.25000000  0.16415023  1
  O  O65  1  -0.15916154  0.25000000  0.66415023  1
  O  O66  1  0.34083846  0.25000000  0.16415023  1
  O  O67  1  0.34083846  0.25000000  0.66415023  1
  O  O68  1  -0.15916154  -0.25000000  0.16415023  1
  O  O69  1  -0.15916154  -0.25000000  0.66415023  1
  O  O70  1  0.34083846  -0.25000000  0.16415023  1
  O  O71  1  0.34083846  -0.25000000  0.66415023  1
  O  O72  1  0.09083846  0.00000000  0.41415023  1
  O  O73  1  0.09083846  0.00000000  0.91415023  1
  O  O74  1  0.59083846  0.00000000  0.41415023  1
  O  O75  1  0.59083846  0.00000000  0.91415023  1
  O  O76  1  0.09083846  -0.50000000  0.41415023  1
  O  O77  1  0.09083846  -0.50000000  0.91415023  1
  O  O78  1  0.59083846  -0.50000000  0.41415023  1
  O  O79  1  0.59083846  -0.50000000  0.91415023  1
  O  O80  1  0.25000000  0.40916154  0.03915023  1
  O  O81  1  0.25000000  0.40916154  0.53915023  1
  O  O82  1  0.75000000  0.40916154  0.03915023  1
  O  O83  1  0.75000000  0.40916154  0.53915023  1
  O  O84  1  0.25000000  -0.09083846  0.03915023  1
  O  O85  1  0.25000000  -0.09083846  0.53915023  1
  O  O86  1  0.75000000  -0.09083846  0.03915023  1
  O  O87  1  0.75000000  -0.09083846  0.53915023  1
  O  O88  1  0.50000000  0.15916154  0.28915023  1
  O  O89  1  0.50000000  0.15916154  0.78915023  1
  O  O90  1  1.00000000  0.15916154  0.28915023  1
  O  O91  1  1.00000000  0.15916154  0.78915023  1
  O  O92  1  0.50000000  -0.34083846  0.28915023  1
  O  O93  1  0.50000000  -0.34083846  0.78915023  1
  O  O94  1  1.00000000  -0.34083846  0.28915023  1
  O  O95  1  1.00000000  -0.34083846  0.78915023  1
  O  O96  1  0.09083846  0.25000000  -0.03915023  1
  O  O97  1  0.09083846  0.25000000  0.46084977  1
  O  O98  1  0.59083846  0.25000000  -0.03915023  1
  O  O99  1  0.59083846  0.25000000  0.46084977  1
  O  O100  1  0.09083846  -0.25000000  -0.03915023  1
  O  O101  1  0.09083846  -0.25000000  0.46084977  1
  O  O102  1  0.59083846  -0.25000000  -0.03915023  1
  O  O103  1  0.59083846  -0.25000000  0.46084977  1
  O  O104  1  0.34083846  0.00000000  0.21084977  1
  O  O105  1  0.34083846  0.00000000  0.71084977  1
  O  O106  1  0.84083846  0.00000000  0.21084977  1
  O  O107  1  0.84083846  0.00000000  0.71084977  1
  O  O108  1  0.34083846  -0.50000000  0.21084977  1
  O  O109  1  0.34083846  -0.50000000  0.71084977  1
  O  O110  1  0.84083846  -0.50000000  0.21084977  1
  O  O111  1  0.84083846  -0.50000000  0.71084977  1
  O  O112  1  -0.00000000  0.34083846  0.28915023  1
  O  O113  1  -0.00000000  0.34083846  0.78915023  1
  O  O114  1  0.50000000  0.34083846  0.28915023  1
  O  O115  1  0.50000000  0.34083846  0.78915023  1
  O  O116  1  -0.00000000  -0.15916154  0.28915023  1
  O  O117  1  -0.00000000  -0.15916154  0.78915023  1
  O  O118  1  0.50000000  -0.15916154  0.28915023  1
  O  O119  1  0.50000000  -0.15916154  0.78915023  1
  O  O120  1  0.25000000  0.09083846  0.53915023  1
  O  O121  1  0.25000000  0.09083846  1.03915023  1
  O  O122  1  0.75000000  0.09083846  0.53915023  1
  O  O123  1  0.75000000  0.09083846  1.03915023  1
  O  O124  1  0.25000000  -0.40916154  0.53915023  1
  O  O125  1  0.25000000  -0.40916154  1.03915023  1
  O  O126  1  0.75000000  -0.40916154  0.53915023  1
  O  O127  1  0.75000000  -0.40916154  1.03915023  1
  O  O128  1  -0.00000000  0.40916154  0.08584977  1
  O  O129  1  -0.00000000  0.40916154  0.58584977  1
  O  O130  1  0.50000000  0.40916154  0.08584977  1
  O  O131  1  0.50000000  0.40916154  0.58584977  1
  O  O132  1  -0.00000000  -0.09083846  0.08584977  1
  O  O133  1  -0.00000000  -0.09083846  0.58584977  1
  O  O134  1  0.50000000  -0.09083846  0.08584977  1
  O  O135  1  0.50000000  -0.09083846  0.58584977  1
  O  O136  1  0.25000000  0.15916154  0.33584977  1
  O  O137  1  0.25000000  0.15916154  0.83584977  1
  O  O138  1  0.75000000  0.15916154  0.33584977  1
  O  O139  1  0.75000000  0.15916154  0.83584977  1
  O  O140  1  0.25000000  -0.34083846  0.33584977  1
  O  O141  1  0.25000000  -0.34083846  0.83584977  1
  O  O142  1  0.75000000  -0.34083846  0.33584977  1
  O  O143  1  0.75000000  -0.34083846  0.83584977  1
  O  O144  1  0.15916154  0.25000000  0.16415023  1
  O  O145  1  0.15916154  0.25000000  0.66415023  1
  O  O146  1  0.65916154  0.25000000  0.16415023  1
  O  O147  1  0.65916154  0.25000000  0.66415023  1
  O  O148  1  0.15916154  -0.25000000  0.16415023  1
  O  O149  1  0.15916154  -0.25000000  0.66415023  1
  O  O150  1  0.65916154  -0.25000000  0.16415023  1
  O  O151  1  0.65916154  -0.25000000  0.66415023  1
  O  O152  1  0.40916154  0.00000000  0.41415023  1
  O  O153  1  0.40916154  0.00000000  0.91415023  1
  O  O154  1  0.90916154  0.00000000  0.41415023  1
  O  O155  1  0.90916154  0.00000000  0.91415023  1
  O  O156  1  0.40916154  -0.50000000  0.41415023  1
  O  O157  1  0.40916154  -0.50000000  0.91415023  1
  O  O158  1  0.90916154  -0.50000000  0.41415023  1
  O  O159  1  0.90916154  -0.50000000  0.91415023  1
  O  O160  1  -0.00000000  0.09083846  0.08584977  1
  O  O161  1  -0.00000000  0.09083846  0.58584977  1
  O  O162  1  0.50000000  0.09083846  0.08584977  1
  O  O163  1  0.50000000  0.09083846  0.58584977  1
  O  O164  1  -0.00000000  -0.40916154  0.08584977  1
  O  O165  1  -0.00000000  -0.40916154  0.58584977  1
  O  O166  1  0.50000000  -0.40916154  0.08584977  1
  O  O167  1  0.50000000  -0.40916154  0.58584977  1
  O  O168  1  0.25000000  -0.15916154  0.33584977  1
  O  O169  1  0.25000000  -0.15916154  0.83584977  1
  O  O170  1  0.75000000  -0.15916154  0.33584977  1
  O  O171  1  0.75000000  -0.15916154  0.83584977  1
  O  O172  1  0.25000000  -0.65916154  0.33584977  1
  O  O173  1  0.25000000  -0.65916154  0.83584977  1
  O  O174  1  0.75000000  -0.65916154  0.33584977  1
  O  O175  1  0.75000000  -0.65916154  0.83584977  1
  O  O176  1  0.15916154  0.50000000  0.21084977  1
  O  O177  1  0.15916154  0.50000000  0.71084977  1
  O  O178  1  0.65916154  0.50000000  0.21084977  1
  O  O179  1  0.65916154  0.50000000  0.71084977  1
  O  O180  1  0.15916154  -0.00000000  0.21084977  1
  O  O181  1  0.15916154  -0.00000000  0.71084977  1
  O  O182  1  0.65916154  -0.00000000  0.21084977  1
  O  O183  1  0.65916154  -0.00000000  0.71084977  1
  O  O184  1  0.40916154  0.25000000  0.46084977  1
  O  O185  1  0.40916154  0.25000000  0.96084977  1
  O  O186  1  0.90916154  0.25000000  0.46084977  1
  O  O187  1  0.90916154  0.25000000  0.96084977  1
  O  O188  1  0.40916154  -0.25000000  0.46084977  1
  O  O189  1  0.40916154  -0.25000000  0.96084977  1
  O  O190  1  0.90916154  -0.25000000  0.46084977  1
  O  O191  1  0.90916154  -0.25000000  0.96084977  1
