# generated using pymatgen
data_Ba2Ca(PdO2)3
_symmetry_space_group_name_H-M   'P 1'
_cell_length_a   17.44998667
_cell_length_b   11.36681565
_cell_length_c   14.96158288
_cell_angle_alpha   90.00000000
_cell_angle_beta   90.00000000
_cell_angle_gamma   90.00000000
_symmetry_Int_Tables_number   1
_chemical_formula_structural   Ba2Ca(PdO2)3
_chemical_formula_sum   'Ba32 Ca16 Pd48 O96'
_cell_volume   2967.64165694
_cell_formula_units_Z   16
loop_
 _symmetry_equiv_pos_site_id
 _symmetry_equiv_pos_as_xyz
  1  'x, y, z'
loop_
 _atom_site_type_symbol
 _atom_site_label
 _atom_site_symmetry_multiplicity
 _atom_site_fract_x
 _atom_site_fract_y
 _atom_site_fract_z
 _atom_site_occupancy
  Ba  Ba0  1  0.37500000  0.75000000  0.75000000  1
  Ba  Ba1  1  0.87500000  0.75000000  0.75000000  1
  Ba  Ba2  1  0.62500000  1.25000000  0.75000000  1
  Ba  Ba3  1  1.12500000  1.25000000  0.75000000  1
  Ba  Ba4  1  0.62500000  0.75000000  1.25000000  1
  Ba  Ba5  1  1.12500000  0.75000000  1.25000000  1
  Ba  Ba6  1  0.37500000  1.25000000  1.25000000  1
  Ba  Ba7  1  0.87500000  1.25000000  1.25000000  1
  Ba  Ba8  1  0.12500000  0.25000000  0.25000000  1
  Ba  Ba9  1  0.62500000  0.25000000  0.25000000  1
  Ba  Ba10  1  0.37500000  0.75000000  0.25000000  1
  Ba  Ba11  1  0.87500000  0.75000000  0.25000000  1
  Ba  Ba12  1  0.37500000  0.25000000  0.75000000  1
  Ba  Ba13  1  0.87500000  0.25000000  0.75000000  1
  Ba  Ba14  1  0.12500000  0.75000000  0.75000000  1
  Ba  Ba15  1  0.62500000  0.75000000  0.75000000  1
  Ba  Ba16  1  0.25000000  0.22982006  0.50000000  1
  Ba  Ba17  1  0.75000000  0.22982006  0.50000000  1
  Ba  Ba18  1  0.50000000  0.72982006  0.50000000  1
  Ba  Ba19  1  1.00000000  0.72982006  0.50000000  1
  Ba  Ba20  1  0.50000000  0.22982006  1.00000000  1
  Ba  Ba21  1  1.00000000  0.22982006  1.00000000  1
  Ba  Ba22  1  0.25000000  0.72982006  1.00000000  1
  Ba  Ba23  1  0.75000000  0.72982006  1.00000000  1
  Ba  Ba24  1  0.25000000  0.77017994  0.50000000  1
  Ba  Ba25  1  0.75000000  0.77017994  0.50000000  1
  Ba  Ba26  1  0.50000000  1.27017994  0.50000000  1
  Ba  Ba27  1  1.00000000  1.27017994  0.50000000  1
  Ba  Ba28  1  0.50000000  0.77017994  1.00000000  1
  Ba  Ba29  1  1.00000000  0.77017994  1.00000000  1
  Ba  Ba30  1  0.25000000  1.27017994  1.00000000  1
  Ba  Ba31  1  0.75000000  1.27017994  1.00000000  1
  Ca  Ca32  1  0.25000000  0.50000000  0.67088346  1
  Ca  Ca33  1  0.75000000  0.50000000  0.67088346  1
  Ca  Ca34  1  0.50000000  1.00000000  0.67088346  1
  Ca  Ca35  1  1.00000000  1.00000000  0.67088346  1
  Ca  Ca36  1  0.50000000  0.50000000  1.17088346  1
  Ca  Ca37  1  1.00000000  0.50000000  1.17088346  1
  Ca  Ca38  1  0.25000000  1.00000000  1.17088346  1
  Ca  Ca39  1  0.75000000  1.00000000  1.17088346  1
  Ca  Ca40  1  0.25000000  0.50000000  0.32911654  1
  Ca  Ca41  1  0.75000000  0.50000000  0.32911654  1
  Ca  Ca42  1  0.50000000  1.00000000  0.32911654  1
  Ca  Ca43  1  1.00000000  1.00000000  0.32911654  1
  Ca  Ca44  1  0.50000000  0.50000000  0.82911654  1
  Ca  Ca45  1  1.00000000  0.50000000  0.82911654  1
  Ca  Ca46  1  0.25000000  1.00000000  0.82911654  1
  Ca  Ca47  1  0.75000000  1.00000000  0.82911654  1
  Pd  Pd48  1  0.07929937  0.50000000  0.34831281  1
  Pd  Pd49  1  0.57929937  0.50000000  0.34831281  1
  Pd  Pd50  1  0.32929937  1.00000000  0.34831281  1
  Pd  Pd51  1  0.82929937  1.00000000  0.34831281  1
  Pd  Pd52  1  0.32929937  0.50000000  0.84831281  1
  Pd  Pd53  1  0.82929937  0.50000000  0.84831281  1
  Pd  Pd54  1  0.07929937  1.00000000  0.84831281  1
  Pd  Pd55  1  0.57929937  1.00000000  0.84831281  1
  Pd  Pd56  1  0.07929937  0.50000000  0.65168719  1
  Pd  Pd57  1  0.57929937  0.50000000  0.65168719  1
  Pd  Pd58  1  0.32929937  1.00000000  0.65168719  1
  Pd  Pd59  1  0.82929937  1.00000000  0.65168719  1
  Pd  Pd60  1  0.32929937  0.50000000  1.15168719  1
  Pd  Pd61  1  0.82929937  0.50000000  1.15168719  1
  Pd  Pd62  1  0.07929937  1.00000000  1.15168719  1
  Pd  Pd63  1  0.57929937  1.00000000  1.15168719  1
  Pd  Pd64  1  0.42070063  0.50000000  0.34831281  1
  Pd  Pd65  1  0.92070063  0.50000000  0.34831281  1
  Pd  Pd66  1  0.67070063  1.00000000  0.34831281  1
  Pd  Pd67  1  1.17070063  1.00000000  0.34831281  1
  Pd  Pd68  1  0.67070063  0.50000000  0.84831281  1
  Pd  Pd69  1  1.17070063  0.50000000  0.84831281  1
  Pd  Pd70  1  0.42070063  1.00000000  0.84831281  1
  Pd  Pd71  1  0.92070063  1.00000000  0.84831281  1
  Pd  Pd72  1  0.42070063  0.50000000  0.65168719  1
  Pd  Pd73  1  0.92070063  0.50000000  0.65168719  1
  Pd  Pd74  1  0.67070063  1.00000000  0.65168719  1
  Pd  Pd75  1  1.17070063  1.00000000  0.65168719  1
  Pd  Pd76  1  0.67070063  0.50000000  1.15168719  1
  Pd  Pd77  1  1.17070063  0.50000000  1.15168719  1
  Pd  Pd78  1  0.42070063  1.00000000  1.15168719  1
  Pd  Pd79  1  0.92070063  1.00000000  1.15168719  1
  Pd  Pd80  1  0.33680430  0.50000000  0.50000000  1
  Pd  Pd81  1  0.83680430  0.50000000  0.50000000  1
  Pd  Pd82  1  0.58680430  1.00000000  0.50000000  1
  Pd  Pd83  1  1.08680430  1.00000000  0.50000000  1
  Pd  Pd84  1  0.58680430  0.50000000  1.00000000  1
  Pd  Pd85  1  1.08680430  0.50000000  1.00000000  1
  Pd  Pd86  1  0.33680430  1.00000000  1.00000000  1
  Pd  Pd87  1  0.83680430  1.00000000  1.00000000  1
  Pd  Pd88  1  0.16319570  0.50000000  0.50000000  1
  Pd  Pd89  1  0.66319570  0.50000000  0.50000000  1
  Pd  Pd90  1  0.41319570  1.00000000  0.50000000  1
  Pd  Pd91  1  0.91319570  1.00000000  0.50000000  1
  Pd  Pd92  1  0.41319570  0.50000000  1.00000000  1
  Pd  Pd93  1  0.91319570  0.50000000  1.00000000  1
  Pd  Pd94  1  0.16319570  1.00000000  1.00000000  1
  Pd  Pd95  1  0.66319570  1.00000000  1.00000000  1
  O  O96  1  0.34381132  0.61725681  0.39874713  1
  O  O97  1  0.84381132  0.61725681  0.39874713  1
  O  O98  1  0.59381132  1.11725681  0.39874713  1
  O  O99  1  1.09381132  1.11725681  0.39874713  1
  O  O100  1  0.59381132  0.61725681  0.89874713  1
  O  O101  1  1.09381132  0.61725681  0.89874713  1
  O  O102  1  0.34381132  1.11725681  0.89874713  1
  O  O103  1  0.84381132  1.11725681  0.89874713  1
  O  O104  1  0.34381132  0.38274319  0.60125287  1
  O  O105  1  0.84381132  0.38274319  0.60125287  1
  O  O106  1  0.59381132  0.88274319  0.60125287  1
  O  O107  1  1.09381132  0.88274319  0.60125287  1
  O  O108  1  0.59381132  0.38274319  1.10125287  1
  O  O109  1  1.09381132  0.38274319  1.10125287  1
  O  O110  1  0.34381132  0.88274319  1.10125287  1
  O  O111  1  0.84381132  0.88274319  1.10125287  1
  O  O112  1  0.15618868  0.61725681  0.60125287  1
  O  O113  1  0.65618868  0.61725681  0.60125287  1
  O  O114  1  0.40618868  1.11725681  0.60125287  1
  O  O115  1  0.90618868  1.11725681  0.60125287  1
  O  O116  1  0.40618868  0.61725681  1.10125287  1
  O  O117  1  0.90618868  0.61725681  1.10125287  1
  O  O118  1  0.15618868  1.11725681  1.10125287  1
  O  O119  1  0.65618868  1.11725681  1.10125287  1
  O  O120  1  0.15618868  0.38274319  0.39874713  1
  O  O121  1  0.65618868  0.38274319  0.39874713  1
  O  O122  1  0.40618868  0.88274319  0.39874713  1
  O  O123  1  0.90618868  0.88274319  0.39874713  1
  O  O124  1  0.40618868  0.38274319  0.89874713  1
  O  O125  1  0.90618868  0.38274319  0.89874713  1
  O  O126  1  0.15618868  0.88274319  0.89874713  1
  O  O127  1  0.65618868  0.88274319  0.89874713  1
  O  O128  1  0.15618868  0.38274319  0.60125287  1
  O  O129  1  0.65618868  0.38274319  0.60125287  1
  O  O130  1  0.40618868  0.88274319  0.60125287  1
  O  O131  1  0.90618868  0.88274319  0.60125287  1
  O  O132  1  0.40618868  0.38274319  1.10125287  1
  O  O133  1  0.90618868  0.38274319  1.10125287  1
  O  O134  1  0.15618868  0.88274319  1.10125287  1
  O  O135  1  0.65618868  0.88274319  1.10125287  1
  O  O136  1  0.15618868  0.61725681  0.39874713  1
  O  O137  1  0.65618868  0.61725681  0.39874713  1
  O  O138  1  0.40618868  1.11725681  0.39874713  1
  O  O139  1  0.90618868  1.11725681  0.39874713  1
  O  O140  1  0.40618868  0.61725681  0.89874713  1
  O  O141  1  0.90618868  0.61725681  0.89874713  1
  O  O142  1  0.15618868  1.11725681  0.89874713  1
  O  O143  1  0.65618868  1.11725681  0.89874713  1
  O  O144  1  0.25000000  0.38223539  0.80546458  1
  O  O145  1  0.75000000  0.38223539  0.80546458  1
  O  O146  1  0.50000000  0.88223539  0.80546458  1
  O  O147  1  1.00000000  0.88223539  0.80546458  1
  O  O148  1  0.50000000  0.38223539  1.30546458  1
  O  O149  1  1.00000000  0.38223539  1.30546458  1
  O  O150  1  0.25000000  0.88223539  1.30546458  1
  O  O151  1  0.75000000  0.88223539  1.30546458  1
  O  O152  1  0.34381132  0.61725681  0.60125287  1
  O  O153  1  0.84381132  0.61725681  0.60125287  1
  O  O154  1  0.59381132  1.11725681  0.60125287  1
  O  O155  1  1.09381132  1.11725681  0.60125287  1
  O  O156  1  0.59381132  0.61725681  1.10125287  1
  O  O157  1  1.09381132  0.61725681  1.10125287  1
  O  O158  1  0.34381132  1.11725681  1.10125287  1
  O  O159  1  0.84381132  1.11725681  1.10125287  1
  O  O160  1  0.25000000  0.61776461  0.80546458  1
  O  O161  1  0.75000000  0.61776461  0.80546458  1
  O  O162  1  0.50000000  1.11776461  0.80546458  1
  O  O163  1  1.00000000  1.11776461  0.80546458  1
  O  O164  1  0.50000000  0.61776461  1.30546458  1
  O  O165  1  1.00000000  0.61776461  1.30546458  1
  O  O166  1  0.25000000  1.11776461  1.30546458  1
  O  O167  1  0.75000000  1.11776461  1.30546458  1
  O  O168  1  0.25000000  0.38223539  0.19453542  1
  O  O169  1  0.75000000  0.38223539  0.19453542  1
  O  O170  1  0.50000000  0.88223539  0.19453542  1
  O  O171  1  1.00000000  0.88223539  0.19453542  1
  O  O172  1  0.50000000  0.38223539  0.69453542  1
  O  O173  1  1.00000000  0.38223539  0.69453542  1
  O  O174  1  0.25000000  0.88223539  0.69453542  1
  O  O175  1  0.75000000  0.88223539  0.69453542  1
  O  O176  1  0.25000000  0.61776461  0.19453542  1
  O  O177  1  0.75000000  0.61776461  0.19453542  1
  O  O178  1  0.50000000  1.11776461  0.19453542  1
  O  O179  1  1.00000000  1.11776461  0.19453542  1
  O  O180  1  0.50000000  0.61776461  0.69453542  1
  O  O181  1  1.00000000  0.61776461  0.69453542  1
  O  O182  1  0.25000000  1.11776461  0.69453542  1
  O  O183  1  0.75000000  1.11776461  0.69453542  1
  O  O184  1  0.34381132  0.38274319  0.39874713  1
  O  O185  1  0.84381132  0.38274319  0.39874713  1
  O  O186  1  0.59381132  0.88274319  0.39874713  1
  O  O187  1  1.09381132  0.88274319  0.39874713  1
  O  O188  1  0.59381132  0.38274319  0.89874713  1
  O  O189  1  1.09381132  0.38274319  0.89874713  1
  O  O190  1  0.34381132  0.88274319  0.89874713  1
  O  O191  1  0.84381132  0.88274319  0.89874713  1
