# generated using pymatgen
data_Cs3InO3
_symmetry_space_group_name_H-M   'P 1'
_cell_length_a   16.20706286
_cell_length_b   14.64203963
_cell_length_c   11.77354585
_cell_angle_alpha   90.00000000
_cell_angle_beta   95.18763260
_cell_angle_gamma   90.00000000
_symmetry_Int_Tables_number   1
_chemical_formula_structural   Cs3InO3
_chemical_formula_sum   'Cs48 In16 O48'
_cell_volume   2782.47085435
_cell_formula_units_Z   16
loop_
 _symmetry_equiv_pos_site_id
 _symmetry_equiv_pos_as_xyz
  1  'x, y, z'
loop_
 _atom_site_type_symbol
 _atom_site_label
 _atom_site_symmetry_multiplicity
 _atom_site_fract_x
 _atom_site_fract_y
 _atom_site_fract_z
 _atom_site_occupancy
  Cs  Cs0  1  0.17518404  0.16659967  0.92796675  1
  Cs  Cs1  1  0.17518404  0.66659967  0.92796675  1
  Cs  Cs2  1  0.67518404  0.16659967  0.92796675  1
  Cs  Cs3  1  0.67518404  0.66659967  0.92796675  1
  Cs  Cs4  1  0.31245894  0.15998739  0.69284769  1
  Cs  Cs5  1  0.31245894  0.65998739  0.69284769  1
  Cs  Cs6  1  0.81245894  0.15998739  0.69284769  1
  Cs  Cs7  1  0.81245894  0.65998739  0.69284769  1
  Cs  Cs8  1  0.18754106  0.40998739  0.80715231  1
  Cs  Cs9  1  0.18754106  0.90998739  0.80715231  1
  Cs  Cs10  1  0.68754106  0.40998739  0.80715231  1
  Cs  Cs11  1  0.68754106  0.90998739  0.80715231  1
  Cs  Cs12  1  0.31245894  0.09001261  0.19284769  1
  Cs  Cs13  1  0.31245894  0.59001261  0.19284769  1
  Cs  Cs14  1  0.81245894  0.09001261  0.19284769  1
  Cs  Cs15  1  0.81245894  0.59001261  0.19284769  1
  Cs  Cs16  1  0.02447291  0.06257700  0.65679779  1
  Cs  Cs17  1  0.02447291  0.56257700  0.65679779  1
  Cs  Cs18  1  0.52447291  0.06257700  0.65679779  1
  Cs  Cs19  1  0.52447291  0.56257700  0.65679779  1
  Cs  Cs20  1  0.32481596  0.33340033  0.07203325  1
  Cs  Cs21  1  0.32481596  0.83340033  0.07203325  1
  Cs  Cs22  1  0.82481596  0.33340033  0.07203325  1
  Cs  Cs23  1  0.82481596  0.83340033  0.07203325  1
  Cs  Cs24  1  0.02447291  0.18742300  0.15679779  1
  Cs  Cs25  1  0.02447291  0.68742300  0.15679779  1
  Cs  Cs26  1  0.52447291  0.18742300  0.15679779  1
  Cs  Cs27  1  0.52447291  0.68742300  0.15679779  1
  Cs  Cs28  1  0.18754106  0.34001261  0.30715231  1
  Cs  Cs29  1  0.18754106  0.84001261  0.30715231  1
  Cs  Cs30  1  0.68754106  0.34001261  0.30715231  1
  Cs  Cs31  1  0.68754106  0.84001261  0.30715231  1
  Cs  Cs32  1  0.17518404  0.08340033  0.42796675  1
  Cs  Cs33  1  0.17518404  0.58340033  0.42796675  1
  Cs  Cs34  1  0.67518404  0.08340033  0.42796675  1
  Cs  Cs35  1  0.67518404  0.58340033  0.42796675  1
  Cs  Cs36  1  0.47552709  0.43742300  0.34320221  1
  Cs  Cs37  1  0.47552709  0.93742300  0.34320221  1
  Cs  Cs38  1  0.97552709  0.43742300  0.34320221  1
  Cs  Cs39  1  0.97552709  0.93742300  0.34320221  1
  Cs  Cs40  1  0.47552709  0.31257700  0.84320221  1
  Cs  Cs41  1  0.47552709  0.81257700  0.84320221  1
  Cs  Cs42  1  0.97552709  0.31257700  0.84320221  1
  Cs  Cs43  1  0.97552709  0.81257700  0.84320221  1
  Cs  Cs44  1  0.32481596  0.41659967  0.57203325  1
  Cs  Cs45  1  0.32481596  0.91659967  0.57203325  1
  Cs  Cs46  1  0.82481596  0.41659967  0.57203325  1
  Cs  Cs47  1  0.82481596  0.91659967  0.57203325  1
  In  In48  1  0.07811416  0.45665907  0.06862602  1
  In  In49  1  0.07811416  0.95665907  0.06862602  1
  In  In50  1  0.57811416  0.45665907  0.06862602  1
  In  In51  1  0.57811416  0.95665907  0.06862602  1
  In  In52  1  0.07811416  0.29334093  0.56862602  1
  In  In53  1  0.07811416  0.79334093  0.56862602  1
  In  In54  1  0.57811416  0.29334093  0.56862602  1
  In  In55  1  0.57811416  0.79334093  0.56862602  1
  In  In56  1  0.42188584  0.04334093  0.93137398  1
  In  In57  1  0.42188584  0.54334093  0.93137398  1
  In  In58  1  0.92188584  0.04334093  0.93137398  1
  In  In59  1  0.92188584  0.54334093  0.93137398  1
  In  In60  1  0.42188584  0.20665907  0.43137398  1
  In  In61  1  0.42188584  0.70665907  0.43137398  1
  In  In62  1  0.92188584  0.20665907  0.43137398  1
  In  In63  1  0.92188584  0.70665907  0.43137398  1
  O  O64  1  0.14622904  0.22229261  0.69821230  1
  O  O65  1  0.14622904  0.72229261  0.69821230  1
  O  O66  1  0.64622904  0.22229261  0.69821230  1
  O  O67  1  0.64622904  0.72229261  0.69821230  1
  O  O68  1  0.12378524  0.32602423  0.04221507  1
  O  O69  1  0.12378524  0.82602423  0.04221507  1
  O  O70  1  0.62378524  0.32602423  0.04221507  1
  O  O71  1  0.62378524  0.82602423  0.04221507  1
  O  O72  1  0.44770257  0.47466462  0.09331883  1
  O  O73  1  0.44770257  0.97466462  0.09331883  1
  O  O74  1  0.94770257  0.47466462  0.09331883  1
  O  O75  1  0.94770257  0.97466462  0.09331883  1
  O  O76  1  0.12378524  0.42397577  0.54221507  1
  O  O77  1  0.12378524  0.92397577  0.54221507  1
  O  O78  1  0.62378524  0.42397577  0.54221507  1
  O  O79  1  0.62378524  0.92397577  0.54221507  1
  O  O80  1  0.14622904  0.02770739  0.19821230  1
  O  O81  1  0.14622904  0.52770739  0.19821230  1
  O  O82  1  0.64622904  0.02770739  0.19821230  1
  O  O83  1  0.64622904  0.52770739  0.19821230  1
  O  O84  1  0.05229743  0.02533538  0.90668117  1
  O  O85  1  0.05229743  0.52533538  0.90668117  1
  O  O86  1  0.55229743  0.02533538  0.90668117  1
  O  O87  1  0.55229743  0.52533538  0.90668117  1
  O  O88  1  0.35377096  0.27770739  0.30178770  1
  O  O89  1  0.35377096  0.77770739  0.30178770  1
  O  O90  1  0.85377096  0.27770739  0.30178770  1
  O  O91  1  0.85377096  0.77770739  0.30178770  1
  O  O92  1  0.35377096  0.47229261  0.80178770  1
  O  O93  1  0.35377096  0.97229261  0.80178770  1
  O  O94  1  0.85377096  0.47229261  0.80178770  1
  O  O95  1  0.85377096  0.97229261  0.80178770  1
  O  O96  1  0.37621476  0.17397577  0.95778493  1
  O  O97  1  0.37621476  0.67397577  0.95778493  1
  O  O98  1  0.87621476  0.17397577  0.95778493  1
  O  O99  1  0.87621476  0.67397577  0.95778493  1
  O  O100  1  0.37621476  0.07602423  0.45778493  1
  O  O101  1  0.37621476  0.57602423  0.45778493  1
  O  O102  1  0.87621476  0.07602423  0.45778493  1
  O  O103  1  0.87621476  0.57602423  0.45778493  1
  O  O104  1  0.44770257  0.27533538  0.59331883  1
  O  O105  1  0.44770257  0.77533538  0.59331883  1
  O  O106  1  0.94770257  0.27533538  0.59331883  1
  O  O107  1  0.94770257  0.77533538  0.59331883  1
  O  O108  1  0.05229743  0.22466462  0.40668117  1
  O  O109  1  0.05229743  0.72466462  0.40668117  1
  O  O110  1  0.55229743  0.22466462  0.40668117  1
  O  O111  1  0.55229743  0.72466462  0.40668117  1
