# generated using pymatgen
data_Ca2ScTaO6
_symmetry_space_group_name_H-M   'P 1'
_cell_length_a   16.37316898
_cell_length_b   16.90890663
_cell_length_c   19.07981297
_cell_angle_alpha   90.00000000
_cell_angle_beta   124.96536412
_cell_angle_gamma   90.00000000
_symmetry_Int_Tables_number   1
_chemical_formula_structural   Ca2ScTaO6
_chemical_formula_sum   'Ca72 Sc36 Ta36 O216'
_cell_volume   4328.83082671
_cell_formula_units_Z   36
loop_
 _symmetry_equiv_pos_site_id
 _symmetry_equiv_pos_as_xyz
  1  'x, y, z'
loop_
 _atom_site_type_symbol
 _atom_site_label
 _atom_site_symmetry_multiplicity
 _atom_site_fract_x
 _atom_site_fract_y
 _atom_site_fract_z
 _atom_site_occupancy
  Ca  Ca0  1  0.24610371  0.18404563  0.37577929  1
  Ca  Ca1  1  0.24610371  0.18404563  0.87577929  1
  Ca  Ca2  1  0.24610371  0.51737896  0.37577929  1
  Ca  Ca3  1  0.24610371  0.51737896  0.87577929  1
  Ca  Ca4  1  0.24610371  0.85071229  0.37577929  1
  Ca  Ca5  1  0.24610371  0.85071229  0.87577929  1
  Ca  Ca6  1  0.57943705  0.18404563  0.37577929  1
  Ca  Ca7  1  0.57943705  0.18404563  0.87577929  1
  Ca  Ca8  1  0.57943705  0.51737896  0.37577929  1
  Ca  Ca9  1  0.57943705  0.51737896  0.87577929  1
  Ca  Ca10  1  0.57943705  0.85071229  0.37577929  1
  Ca  Ca11  1  0.57943705  0.85071229  0.87577929  1
  Ca  Ca12  1  0.91277038  0.18404563  0.37577929  1
  Ca  Ca13  1  0.91277038  0.18404563  0.87577929  1
  Ca  Ca14  1  0.91277038  0.51737896  0.37577929  1
  Ca  Ca15  1  0.91277038  0.51737896  0.87577929  1
  Ca  Ca16  1  0.91277038  0.85071229  0.37577929  1
  Ca  Ca17  1  0.91277038  0.85071229  0.87577929  1
  Ca  Ca18  1  0.08722962  0.14928771  0.12422071  1
  Ca  Ca19  1  0.08722962  0.14928771  0.62422071  1
  Ca  Ca20  1  0.08722962  0.48262104  0.12422071  1
  Ca  Ca21  1  0.08722962  0.48262104  0.62422071  1
  Ca  Ca22  1  0.08722962  0.81595437  0.12422071  1
  Ca  Ca23  1  0.08722962  0.81595437  0.62422071  1
  Ca  Ca24  1  0.42056295  0.14928771  0.12422071  1
  Ca  Ca25  1  0.42056295  0.14928771  0.62422071  1
  Ca  Ca26  1  0.42056295  0.48262104  0.12422071  1
  Ca  Ca27  1  0.42056295  0.48262104  0.62422071  1
  Ca  Ca28  1  0.42056295  0.81595437  0.12422071  1
  Ca  Ca29  1  0.42056295  0.81595437  0.62422071  1
  Ca  Ca30  1  0.75389629  0.14928771  0.12422071  1
  Ca  Ca31  1  0.75389629  0.14928771  0.62422071  1
  Ca  Ca32  1  0.75389629  0.48262104  0.12422071  1
  Ca  Ca33  1  0.75389629  0.48262104  0.62422071  1
  Ca  Ca34  1  0.75389629  0.81595437  0.12422071  1
  Ca  Ca35  1  0.75389629  0.81595437  0.62422071  1
  Ca  Ca36  1  0.08722962  0.01737896  0.37422071  1
  Ca  Ca37  1  0.08722962  0.01737896  0.87422071  1
  Ca  Ca38  1  0.08722962  0.35071229  0.37422071  1
  Ca  Ca39  1  0.08722962  0.35071229  0.87422071  1
  Ca  Ca40  1  0.08722962  0.68404563  0.37422071  1
  Ca  Ca41  1  0.08722962  0.68404563  0.87422071  1
  Ca  Ca42  1  0.42056295  0.01737896  0.37422071  1
  Ca  Ca43  1  0.42056295  0.01737896  0.87422071  1
  Ca  Ca44  1  0.42056295  0.35071229  0.37422071  1
  Ca  Ca45  1  0.42056295  0.35071229  0.87422071  1
  Ca  Ca46  1  0.42056295  0.68404563  0.37422071  1
  Ca  Ca47  1  0.42056295  0.68404563  0.87422071  1
  Ca  Ca48  1  0.75389629  0.01737896  0.37422071  1
  Ca  Ca49  1  0.75389629  0.01737896  0.87422071  1
  Ca  Ca50  1  0.75389629  0.35071229  0.37422071  1
  Ca  Ca51  1  0.75389629  0.35071229  0.87422071  1
  Ca  Ca52  1  0.75389629  0.68404563  0.37422071  1
  Ca  Ca53  1  0.75389629  0.68404563  0.87422071  1
  Ca  Ca54  1  0.24610371  0.31595437  0.12577929  1
  Ca  Ca55  1  0.24610371  0.31595437  0.62577929  1
  Ca  Ca56  1  0.24610371  0.64928771  0.12577929  1
  Ca  Ca57  1  0.24610371  0.64928771  0.62577929  1
  Ca  Ca58  1  0.24610371  0.98262104  0.12577929  1
  Ca  Ca59  1  0.24610371  0.98262104  0.62577929  1
  Ca  Ca60  1  0.57943705  0.31595437  0.12577929  1
  Ca  Ca61  1  0.57943705  0.31595437  0.62577929  1
  Ca  Ca62  1  0.57943705  0.64928771  0.12577929  1
  Ca  Ca63  1  0.57943705  0.64928771  0.62577929  1
  Ca  Ca64  1  0.57943705  0.98262104  0.12577929  1
  Ca  Ca65  1  0.57943705  0.98262104  0.62577929  1
  Ca  Ca66  1  0.91277038  0.31595437  0.12577929  1
  Ca  Ca67  1  0.91277038  0.31595437  0.62577929  1
  Ca  Ca68  1  0.91277038  0.64928771  0.12577929  1
  Ca  Ca69  1  0.91277038  0.64928771  0.62577929  1
  Ca  Ca70  1  0.91277038  0.98262104  0.12577929  1
  Ca  Ca71  1  0.91277038  0.98262104  0.62577929  1
  Sc  Sc72  1  0.00000000  0.00000000  0.00000000  1
  Sc  Sc73  1  -0.00000000  0.00000000  0.50000000  1
  Sc  Sc74  1  0.00000000  0.33333333  0.00000000  1
  Sc  Sc75  1  -0.00000000  0.33333333  0.50000000  1
  Sc  Sc76  1  0.00000000  0.66666667  0.00000000  1
  Sc  Sc77  1  -0.00000000  0.66666667  0.50000000  1
  Sc  Sc78  1  0.33333333  0.00000000  0.00000000  1
  Sc  Sc79  1  0.33333333  0.00000000  0.50000000  1
  Sc  Sc80  1  0.33333333  0.33333333  0.00000000  1
  Sc  Sc81  1  0.33333333  0.33333333  0.50000000  1
  Sc  Sc82  1  0.33333333  0.66666667  0.00000000  1
  Sc  Sc83  1  0.33333333  0.66666667  0.50000000  1
  Sc  Sc84  1  0.66666667  0.00000000  0.00000000  1
  Sc  Sc85  1  0.66666667  0.00000000  0.50000000  1
  Sc  Sc86  1  0.66666667  0.33333333  0.00000000  1
  Sc  Sc87  1  0.66666667  0.33333333  0.50000000  1
  Sc  Sc88  1  0.66666667  0.66666667  0.00000000  1
  Sc  Sc89  1  0.66666667  0.66666667  0.50000000  1
  Sc  Sc90  1  -0.00000000  0.16666667  0.25000000  1
  Sc  Sc91  1  0.00000000  0.16666667  0.75000000  1
  Sc  Sc92  1  -0.00000000  0.50000000  0.25000000  1
  Sc  Sc93  1  0.00000000  0.50000000  0.75000000  1
  Sc  Sc94  1  -0.00000000  0.83333333  0.25000000  1
  Sc  Sc95  1  0.00000000  0.83333333  0.75000000  1
  Sc  Sc96  1  0.33333333  0.16666667  0.25000000  1
  Sc  Sc97  1  0.33333333  0.16666667  0.75000000  1
  Sc  Sc98  1  0.33333333  0.50000000  0.25000000  1
  Sc  Sc99  1  0.33333333  0.50000000  0.75000000  1
  Sc  Sc100  1  0.33333333  0.83333333  0.25000000  1
  Sc  Sc101  1  0.33333333  0.83333333  0.75000000  1
  Sc  Sc102  1  0.66666667  0.16666667  0.25000000  1
  Sc  Sc103  1  0.66666667  0.16666667  0.75000000  1
  Sc  Sc104  1  0.66666667  0.50000000  0.25000000  1
  Sc  Sc105  1  0.66666667  0.50000000  0.75000000  1
  Sc  Sc106  1  0.66666667  0.83333333  0.25000000  1
  Sc  Sc107  1  0.66666667  0.83333333  0.75000000  1
  Ta  Ta108  1  0.16666667  0.00000000  0.25000000  1
  Ta  Ta109  1  0.16666667  0.00000000  0.75000000  1
  Ta  Ta110  1  0.16666667  0.33333333  0.25000000  1
  Ta  Ta111  1  0.16666667  0.33333333  0.75000000  1
  Ta  Ta112  1  0.16666667  0.66666667  0.25000000  1
  Ta  Ta113  1  0.16666667  0.66666667  0.75000000  1
  Ta  Ta114  1  0.50000000  0.00000000  0.25000000  1
  Ta  Ta115  1  0.50000000  0.00000000  0.75000000  1
  Ta  Ta116  1  0.50000000  0.33333333  0.25000000  1
  Ta  Ta117  1  0.50000000  0.33333333  0.75000000  1
  Ta  Ta118  1  0.50000000  0.66666667  0.25000000  1
  Ta  Ta119  1  0.50000000  0.66666667  0.75000000  1
  Ta  Ta120  1  0.83333333  0.00000000  0.25000000  1
  Ta  Ta121  1  0.83333333  0.00000000  0.75000000  1
  Ta  Ta122  1  0.83333333  0.33333333  0.25000000  1
  Ta  Ta123  1  0.83333333  0.33333333  0.75000000  1
  Ta  Ta124  1  0.83333333  0.66666667  0.25000000  1
  Ta  Ta125  1  0.83333333  0.66666667  0.75000000  1
  Ta  Ta126  1  0.16666667  0.16666667  0.00000000  1
  Ta  Ta127  1  0.16666667  0.16666667  0.50000000  1
  Ta  Ta128  1  0.16666667  0.50000000  0.00000000  1
  Ta  Ta129  1  0.16666667  0.50000000  0.50000000  1
  Ta  Ta130  1  0.16666667  0.83333333  0.00000000  1
  Ta  Ta131  1  0.16666667  0.83333333  0.50000000  1
  Ta  Ta132  1  0.50000000  0.16666667  0.00000000  1
  Ta  Ta133  1  0.50000000  0.16666667  0.50000000  1
  Ta  Ta134  1  0.50000000  0.50000000  0.00000000  1
  Ta  Ta135  1  0.50000000  0.50000000  0.50000000  1
  Ta  Ta136  1  0.50000000  0.83333333  0.00000000  1
  Ta  Ta137  1  0.50000000  0.83333333  0.50000000  1
  Ta  Ta138  1  0.83333333  0.16666667  0.00000000  1
  Ta  Ta139  1  0.83333333  0.16666667  0.50000000  1
  Ta  Ta140  1  0.83333333  0.50000000  0.00000000  1
  Ta  Ta141  1  0.83333333  0.50000000  0.50000000  1
  Ta  Ta142  1  0.83333333  0.83333333  0.00000000  1
  Ta  Ta143  1  0.83333333  0.83333333  0.50000000  1
  O  O144  1  0.28112060  0.32179651  0.37184905  1
  O  O145  1  0.28112060  0.32179651  0.87184905  1
  O  O146  1  0.28112060  0.65512984  0.37184905  1
  O  O147  1  0.28112060  0.65512984  0.87184905  1
  O  O148  1  0.28112060  0.98846317  0.37184905  1
  O  O149  1  0.28112060  0.98846317  0.87184905  1
  O  O150  1  0.61445394  0.32179651  0.37184905  1
  O  O151  1  0.61445394  0.32179651  0.87184905  1
  O  O152  1  0.61445394  0.65512984  0.37184905  1
  O  O153  1  0.61445394  0.65512984  0.87184905  1
  O  O154  1  0.61445394  0.98846317  0.37184905  1
  O  O155  1  0.61445394  0.98846317  0.87184905  1
  O  O156  1  0.94778727  0.32179651  0.37184905  1
  O  O157  1  0.94778727  0.32179651  0.87184905  1
  O  O158  1  0.94778727  0.65512984  0.37184905  1
  O  O159  1  0.94778727  0.65512984  0.87184905  1
  O  O160  1  0.94778727  0.98846317  0.37184905  1
  O  O161  1  0.94778727  0.98846317  0.87184905  1
  O  O162  1  0.05221273  0.01153683  0.12815095  1
  O  O163  1  0.05221273  0.01153683  0.62815095  1
  O  O164  1  0.05221273  0.34487016  0.12815095  1
  O  O165  1  0.05221273  0.34487016  0.62815095  1
  O  O166  1  0.05221273  0.67820349  0.12815095  1
  O  O167  1  0.05221273  0.67820349  0.62815095  1
  O  O168  1  0.38554606  0.01153683  0.12815095  1
  O  O169  1  0.38554606  0.01153683  0.62815095  1
  O  O170  1  0.38554606  0.34487016  0.12815095  1
  O  O171  1  0.38554606  0.34487016  0.62815095  1
  O  O172  1  0.38554606  0.67820349  0.12815095  1
  O  O173  1  0.38554606  0.67820349  0.62815095  1
  O  O174  1  0.71887940  0.01153683  0.12815095  1
  O  O175  1  0.71887940  0.01153683  0.62815095  1
  O  O176  1  0.71887940  0.34487016  0.12815095  1
  O  O177  1  0.71887940  0.34487016  0.62815095  1
  O  O178  1  0.71887940  0.67820349  0.12815095  1
  O  O179  1  0.71887940  0.67820349  0.62815095  1
  O  O180  1  0.05221273  0.15512984  0.37815095  1
  O  O181  1  0.05221273  0.15512984  0.87815095  1
  O  O182  1  0.05221273  0.48846317  0.37815095  1
  O  O183  1  0.05221273  0.48846317  0.87815095  1
  O  O184  1  0.05221273  0.82179651  0.37815095  1
  O  O185  1  0.05221273  0.82179651  0.87815095  1
  O  O186  1  0.38554606  0.15512984  0.37815095  1
  O  O187  1  0.38554606  0.15512984  0.87815095  1
  O  O188  1  0.38554606  0.48846317  0.37815095  1
  O  O189  1  0.38554606  0.48846317  0.87815095  1
  O  O190  1  0.38554606  0.82179651  0.37815095  1
  O  O191  1  0.38554606  0.82179651  0.87815095  1
  O  O192  1  0.71887940  0.15512984  0.37815095  1
  O  O193  1  0.71887940  0.15512984  0.87815095  1
  O  O194  1  0.71887940  0.48846317  0.37815095  1
  O  O195  1  0.71887940  0.48846317  0.87815095  1
  O  O196  1  0.71887940  0.82179651  0.37815095  1
  O  O197  1  0.71887940  0.82179651  0.87815095  1
  O  O198  1  0.28112060  0.17820349  0.12184905  1
  O  O199  1  0.28112060  0.17820349  0.62184905  1
  O  O200  1  0.28112060  0.51153683  0.12184905  1
  O  O201  1  0.28112060  0.51153683  0.62184905  1
  O  O202  1  0.28112060  0.84487016  0.12184905  1
  O  O203  1  0.28112060  0.84487016  0.62184905  1
  O  O204  1  0.61445394  0.17820349  0.12184905  1
  O  O205  1  0.61445394  0.17820349  0.62184905  1
  O  O206  1  0.61445394  0.51153683  0.12184905  1
  O  O207  1  0.61445394  0.51153683  0.62184905  1
  O  O208  1  0.61445394  0.84487016  0.12184905  1
  O  O209  1  0.61445394  0.84487016  0.62184905  1
  O  O210  1  0.94778727  0.17820349  0.12184905  1
  O  O211  1  0.94778727  0.17820349  0.62184905  1
  O  O212  1  0.94778727  0.51153683  0.12184905  1
  O  O213  1  0.94778727  0.51153683  0.62184905  1
  O  O214  1  0.94778727  0.84487016  0.12184905  1
  O  O215  1  0.94778727  0.84487016  0.62184905  1
  O  O216  1  0.24768567  0.10114207  0.47481295  1
  O  O217  1  0.24768567  0.10114207  0.97481295  1
  O  O218  1  0.24768567  0.43447541  0.47481295  1
  O  O219  1  0.24768567  0.43447541  0.97481295  1
  O  O220  1  0.24768567  0.76780874  0.47481295  1
  O  O221  1  0.24768567  0.76780874  0.97481295  1
  O  O222  1  0.58101900  0.10114207  0.47481295  1
  O  O223  1  0.58101900  0.10114207  0.97481295  1
  O  O224  1  0.58101900  0.43447541  0.47481295  1
  O  O225  1  0.58101900  0.43447541  0.97481295  1
  O  O226  1  0.58101900  0.76780874  0.47481295  1
  O  O227  1  0.58101900  0.76780874  0.97481295  1
  O  O228  1  0.91435233  0.10114207  0.47481295  1
  O  O229  1  0.91435233  0.10114207  0.97481295  1
  O  O230  1  0.91435233  0.43447541  0.47481295  1
  O  O231  1  0.91435233  0.43447541  0.97481295  1
  O  O232  1  0.91435233  0.76780874  0.47481295  1
  O  O233  1  0.91435233  0.76780874  0.97481295  1
  O  O234  1  0.08564767  0.23219126  0.02518705  1
  O  O235  1  0.08564767  0.23219126  0.52518705  1
  O  O236  1  0.08564767  0.56552459  0.02518705  1
  O  O237  1  0.08564767  0.56552459  0.52518705  1
  O  O238  1  0.08564767  0.89885793  0.02518705  1
  O  O239  1  0.08564767  0.89885793  0.52518705  1
  O  O240  1  0.41898100  0.23219126  0.02518705  1
  O  O241  1  0.41898100  0.23219126  0.52518705  1
  O  O242  1  0.41898100  0.56552459  0.02518705  1
  O  O243  1  0.41898100  0.56552459  0.52518705  1
  O  O244  1  0.41898100  0.89885793  0.02518705  1
  O  O245  1  0.41898100  0.89885793  0.52518705  1
  O  O246  1  0.75231433  0.23219126  0.02518705  1
  O  O247  1  0.75231433  0.23219126  0.52518705  1
  O  O248  1  0.75231433  0.56552459  0.02518705  1
  O  O249  1  0.75231433  0.56552459  0.52518705  1
  O  O250  1  0.75231433  0.89885793  0.02518705  1
  O  O251  1  0.75231433  0.89885793  0.52518705  1
  O  O252  1  0.08564767  0.26780874  0.27518705  1
  O  O253  1  0.08564767  0.26780874  0.77518705  1
  O  O254  1  0.08564767  0.60114207  0.27518705  1
  O  O255  1  0.08564767  0.60114207  0.77518705  1
  O  O256  1  0.08564767  0.93447541  0.27518705  1
  O  O257  1  0.08564767  0.93447541  0.77518705  1
  O  O258  1  0.41898100  0.26780874  0.27518705  1
  O  O259  1  0.41898100  0.26780874  0.77518705  1
  O  O260  1  0.41898100  0.60114207  0.27518705  1
  O  O261  1  0.41898100  0.60114207  0.77518705  1
  O  O262  1  0.41898100  0.93447541  0.27518705  1
  O  O263  1  0.41898100  0.93447541  0.77518705  1
  O  O264  1  0.75231433  0.26780874  0.27518705  1
  O  O265  1  0.75231433  0.26780874  0.77518705  1
  O  O266  1  0.75231433  0.60114207  0.27518705  1
  O  O267  1  0.75231433  0.60114207  0.77518705  1
  O  O268  1  0.75231433  0.93447541  0.27518705  1
  O  O269  1  0.75231433  0.93447541  0.77518705  1
  O  O270  1  0.24768567  0.06552459  0.22481295  1
  O  O271  1  0.24768567  0.06552459  0.72481295  1
  O  O272  1  0.24768567  0.39885793  0.22481295  1
  O  O273  1  0.24768567  0.39885793  0.72481295  1
  O  O274  1  0.24768567  0.73219126  0.22481295  1
  O  O275  1  0.24768567  0.73219126  0.72481295  1
  O  O276  1  0.58101900  0.06552459  0.22481295  1
  O  O277  1  0.58101900  0.06552459  0.72481295  1
  O  O278  1  0.58101900  0.39885793  0.22481295  1
  O  O279  1  0.58101900  0.39885793  0.72481295  1
  O  O280  1  0.58101900  0.73219126  0.22481295  1
  O  O281  1  0.58101900  0.73219126  0.72481295  1
  O  O282  1  0.91435233  0.06552459  0.22481295  1
  O  O283  1  0.91435233  0.06552459  0.72481295  1
  O  O284  1  0.91435233  0.39885793  0.22481295  1
  O  O285  1  0.91435233  0.39885793  0.72481295  1
  O  O286  1  0.91435233  0.73219126  0.22481295  1
  O  O287  1  0.91435233  0.73219126  0.72481295  1
  O  O288  1  0.21295555  0.26356338  0.47255507  1
  O  O289  1  0.21295555  0.26356338  0.97255507  1
  O  O290  1  0.21295555  0.59689671  0.47255507  1
  O  O291  1  0.21295555  0.59689671  0.97255507  1
  O  O292  1  0.21295555  0.93023005  0.47255507  1
  O  O293  1  0.21295555  0.93023005  0.97255507  1
  O  O294  1  0.54628888  0.26356338  0.47255507  1
  O  O295  1  0.54628888  0.26356338  0.97255507  1
  O  O296  1  0.54628888  0.59689671  0.47255507  1
  O  O297  1  0.54628888  0.59689671  0.97255507  1
  O  O298  1  0.54628888  0.93023005  0.47255507  1
  O  O299  1  0.54628888  0.93023005  0.97255507  1
  O  O300  1  0.87962221  0.26356338  0.47255507  1
  O  O301  1  0.87962221  0.26356338  0.97255507  1
  O  O302  1  0.87962221  0.59689671  0.47255507  1
  O  O303  1  0.87962221  0.59689671  0.97255507  1
  O  O304  1  0.87962221  0.93023005  0.47255507  1
  O  O305  1  0.87962221  0.93023005  0.97255507  1
  O  O306  1  0.12037779  0.06976995  0.02744493  1
  O  O307  1  0.12037779  0.06976995  0.52744493  1
  O  O308  1  0.12037779  0.40310329  0.02744493  1
  O  O309  1  0.12037779  0.40310329  0.52744493  1
  O  O310  1  0.12037779  0.73643662  0.02744493  1
  O  O311  1  0.12037779  0.73643662  0.52744493  1
  O  O312  1  0.45371112  0.06976995  0.02744493  1
  O  O313  1  0.45371112  0.06976995  0.52744493  1
  O  O314  1  0.45371112  0.40310329  0.02744493  1
  O  O315  1  0.45371112  0.40310329  0.52744493  1
  O  O316  1  0.45371112  0.73643662  0.02744493  1
  O  O317  1  0.45371112  0.73643662  0.52744493  1
  O  O318  1  0.78704445  0.06976995  0.02744493  1
  O  O319  1  0.78704445  0.06976995  0.52744493  1
  O  O320  1  0.78704445  0.40310329  0.02744493  1
  O  O321  1  0.78704445  0.40310329  0.52744493  1
  O  O322  1  0.78704445  0.73643662  0.02744493  1
  O  O323  1  0.78704445  0.73643662  0.52744493  1
  O  O324  1  0.12037779  0.09689671  0.27744493  1
  O  O325  1  0.12037779  0.09689671  0.77744493  1
  O  O326  1  0.12037779  0.43023005  0.27744493  1
  O  O327  1  0.12037779  0.43023005  0.77744493  1
  O  O328  1  0.12037779  0.76356338  0.27744493  1
  O  O329  1  0.12037779  0.76356338  0.77744493  1
  O  O330  1  0.45371112  0.09689671  0.27744493  1
  O  O331  1  0.45371112  0.09689671  0.77744493  1
  O  O332  1  0.45371112  0.43023005  0.27744493  1
  O  O333  1  0.45371112  0.43023005  0.77744493  1
  O  O334  1  0.45371112  0.76356338  0.27744493  1
  O  O335  1  0.45371112  0.76356338  0.77744493  1
  O  O336  1  0.78704445  0.09689671  0.27744493  1
  O  O337  1  0.78704445  0.09689671  0.77744493  1
  O  O338  1  0.78704445  0.43023005  0.27744493  1
  O  O339  1  0.78704445  0.43023005  0.77744493  1
  O  O340  1  0.78704445  0.76356338  0.27744493  1
  O  O341  1  0.78704445  0.76356338  0.77744493  1
  O  O342  1  0.21295555  0.23643662  0.22255507  1
  O  O343  1  0.21295555  0.23643662  0.72255507  1
  O  O344  1  0.21295555  0.56976995  0.22255507  1
  O  O345  1  0.21295555  0.56976995  0.72255507  1
  O  O346  1  0.21295555  0.90310329  0.22255507  1
  O  O347  1  0.21295555  0.90310329  0.72255507  1
  O  O348  1  0.54628888  0.23643662  0.22255507  1
  O  O349  1  0.54628888  0.23643662  0.72255507  1
  O  O350  1  0.54628888  0.56976995  0.22255507  1
  O  O351  1  0.54628888  0.56976995  0.72255507  1
  O  O352  1  0.54628888  0.90310329  0.22255507  1
  O  O353  1  0.54628888  0.90310329  0.72255507  1
  O  O354  1  0.87962221  0.23643662  0.22255507  1
  O  O355  1  0.87962221  0.23643662  0.72255507  1
  O  O356  1  0.87962221  0.56976995  0.22255507  1
  O  O357  1  0.87962221  0.56976995  0.72255507  1
  O  O358  1  0.87962221  0.90310329  0.22255507  1
  O  O359  1  0.87962221  0.90310329  0.72255507  1
