# generated using pymatgen
data_K3BiO3
_symmetry_space_group_name_H-M   'P 1'
_cell_length_a   21.51583237
_cell_length_b   21.51583237
_cell_length_c   21.51583237
_cell_angle_alpha   90.00000000
_cell_angle_beta   90.00000000
_cell_angle_gamma   90.00000000
_symmetry_Int_Tables_number   1
_chemical_formula_structural   K3BiO3
_chemical_formula_sum   'K192 Bi64 O192'
_cell_volume   9960.34671507
_cell_formula_units_Z   64
loop_
 _symmetry_equiv_pos_site_id
 _symmetry_equiv_pos_as_xyz
  1  'x, y, z'
loop_
 _atom_site_type_symbol
 _atom_site_label
 _atom_site_symmetry_multiplicity
 _atom_site_fract_x
 _atom_site_fract_y
 _atom_site_fract_z
 _atom_site_occupancy
  K  K0  1  0.06119640  0.30322633  0.06119640  1
  K  K1  1  0.06119640  0.30322633  0.56119640  1
  K  K2  1  0.06119640  0.80322633  0.06119640  1
  K  K3  1  0.06119640  0.80322633  0.56119640  1
  K  K4  1  0.56119640  0.30322633  0.06119640  1
  K  K5  1  0.56119640  0.30322633  0.56119640  1
  K  K6  1  0.56119640  0.80322633  0.06119640  1
  K  K7  1  0.56119640  0.80322633  0.56119640  1
  K  K8  1  0.31119640  0.55322633  0.31119640  1
  K  K9  1  0.31119640  0.55322633  0.81119640  1
  K  K10  1  0.31119640  1.05322633  0.31119640  1
  K  K11  1  0.31119640  1.05322633  0.81119640  1
  K  K12  1  0.81119640  0.55322633  0.31119640  1
  K  K13  1  0.81119640  0.55322633  0.81119640  1
  K  K14  1  0.81119640  1.05322633  0.31119640  1
  K  K15  1  0.81119640  1.05322633  0.81119640  1
  K  K16  1  0.06119640  0.19677367  -0.06119640  1
  K  K17  1  0.06119640  0.19677367  0.43880360  1
  K  K18  1  0.06119640  0.69677367  -0.06119640  1
  K  K19  1  0.06119640  0.69677367  0.43880360  1
  K  K20  1  0.56119640  0.19677367  -0.06119640  1
  K  K21  1  0.56119640  0.19677367  0.43880360  1
  K  K22  1  0.56119640  0.69677367  -0.06119640  1
  K  K23  1  0.56119640  0.69677367  0.43880360  1
  K  K24  1  0.31119640  0.44677367  0.18880360  1
  K  K25  1  0.31119640  0.44677367  0.68880360  1
  K  K26  1  0.31119640  0.94677367  0.18880360  1
  K  K27  1  0.31119640  0.94677367  0.68880360  1
  K  K28  1  0.81119640  0.44677367  0.18880360  1
  K  K29  1  0.81119640  0.44677367  0.68880360  1
  K  K30  1  0.81119640  0.94677367  0.18880360  1
  K  K31  1  0.81119640  0.94677367  0.68880360  1
  K  K32  1  0.19677367  0.06119640  -0.06119640  1
  K  K33  1  0.19677367  0.06119640  0.43880360  1
  K  K34  1  0.19677367  0.56119640  -0.06119640  1
  K  K35  1  0.19677367  0.56119640  0.43880360  1
  K  K36  1  0.69677367  0.06119640  -0.06119640  1
  K  K37  1  0.69677367  0.06119640  0.43880360  1
  K  K38  1  0.69677367  0.56119640  -0.06119640  1
  K  K39  1  0.69677367  0.56119640  0.43880360  1
  K  K40  1  0.44677367  0.31119640  0.18880360  1
  K  K41  1  0.44677367  0.31119640  0.68880360  1
  K  K42  1  0.44677367  0.81119640  0.18880360  1
  K  K43  1  0.44677367  0.81119640  0.68880360  1
  K  K44  1  0.94677367  0.31119640  0.18880360  1
  K  K45  1  0.94677367  0.31119640  0.68880360  1
  K  K46  1  0.94677367  0.81119640  0.18880360  1
  K  K47  1  0.94677367  0.81119640  0.68880360  1
  K  K48  1  0.18880360  0.18880360  0.05322633  1
  K  K49  1  0.18880360  0.18880360  0.55322633  1
  K  K50  1  0.18880360  0.68880360  0.05322633  1
  K  K51  1  0.18880360  0.68880360  0.55322633  1
  K  K52  1  0.68880360  0.18880360  0.05322633  1
  K  K53  1  0.68880360  0.18880360  0.55322633  1
  K  K54  1  0.68880360  0.68880360  0.05322633  1
  K  K55  1  0.68880360  0.68880360  0.55322633  1
  K  K56  1  0.43880360  0.43880360  0.30322633  1
  K  K57  1  0.43880360  0.43880360  0.80322633  1
  K  K58  1  0.43880360  0.93880360  0.30322633  1
  K  K59  1  0.43880360  0.93880360  0.80322633  1
  K  K60  1  0.93880360  0.43880360  0.30322633  1
  K  K61  1  0.93880360  0.43880360  0.80322633  1
  K  K62  1  0.93880360  0.93880360  0.30322633  1
  K  K63  1  0.93880360  0.93880360  0.80322633  1
  K  K64  1  0.19677367  -0.06119640  0.06119640  1
  K  K65  1  0.19677367  -0.06119640  0.56119640  1
  K  K66  1  0.19677367  0.43880360  0.06119640  1
  K  K67  1  0.19677367  0.43880360  0.56119640  1
  K  K68  1  0.69677367  -0.06119640  0.06119640  1
  K  K69  1  0.69677367  -0.06119640  0.56119640  1
  K  K70  1  0.69677367  0.43880360  0.06119640  1
  K  K71  1  0.69677367  0.43880360  0.56119640  1
  K  K72  1  0.44677367  0.18880360  0.31119640  1
  K  K73  1  0.44677367  0.18880360  0.81119640  1
  K  K74  1  0.44677367  0.68880360  0.31119640  1
  K  K75  1  0.44677367  0.68880360  0.81119640  1
  K  K76  1  0.94677367  0.18880360  0.31119640  1
  K  K77  1  0.94677367  0.18880360  0.81119640  1
  K  K78  1  0.94677367  0.68880360  0.31119640  1
  K  K79  1  0.94677367  0.68880360  0.81119640  1
  K  K80  1  -0.06119640  0.19677367  0.06119640  1
  K  K81  1  -0.06119640  0.19677367  0.56119640  1
  K  K82  1  -0.06119640  0.69677367  0.06119640  1
  K  K83  1  -0.06119640  0.69677367  0.56119640  1
  K  K84  1  0.43880360  0.19677367  0.06119640  1
  K  K85  1  0.43880360  0.19677367  0.56119640  1
  K  K86  1  0.43880360  0.69677367  0.06119640  1
  K  K87  1  0.43880360  0.69677367  0.56119640  1
  K  K88  1  0.18880360  0.44677367  0.31119640  1
  K  K89  1  0.18880360  0.44677367  0.81119640  1
  K  K90  1  0.18880360  0.94677367  0.31119640  1
  K  K91  1  0.18880360  0.94677367  0.81119640  1
  K  K92  1  0.68880360  0.44677367  0.31119640  1
  K  K93  1  0.68880360  0.44677367  0.81119640  1
  K  K94  1  0.68880360  0.94677367  0.31119640  1
  K  K95  1  0.68880360  0.94677367  0.81119640  1
  K  K96  1  0.18880360  0.05322633  0.18880360  1
  K  K97  1  0.18880360  0.05322633  0.68880360  1
  K  K98  1  0.18880360  0.55322633  0.18880360  1
  K  K99  1  0.18880360  0.55322633  0.68880360  1
  K  K100  1  0.68880360  0.05322633  0.18880360  1
  K  K101  1  0.68880360  0.05322633  0.68880360  1
  K  K102  1  0.68880360  0.55322633  0.18880360  1
  K  K103  1  0.68880360  0.55322633  0.68880360  1
  K  K104  1  0.43880360  0.30322633  0.43880360  1
  K  K105  1  0.43880360  0.30322633  0.93880360  1
  K  K106  1  0.43880360  0.80322633  0.43880360  1
  K  K107  1  0.43880360  0.80322633  0.93880360  1
  K  K108  1  0.93880360  0.30322633  0.43880360  1
  K  K109  1  0.93880360  0.30322633  0.93880360  1
  K  K110  1  0.93880360  0.80322633  0.43880360  1
  K  K111  1  0.93880360  0.80322633  0.93880360  1
  K  K112  1  0.06119640  -0.06119640  0.19677367  1
  K  K113  1  0.06119640  -0.06119640  0.69677367  1
  K  K114  1  0.06119640  0.43880360  0.19677367  1
  K  K115  1  0.06119640  0.43880360  0.69677367  1
  K  K116  1  0.56119640  -0.06119640  0.19677367  1
  K  K117  1  0.56119640  -0.06119640  0.69677367  1
  K  K118  1  0.56119640  0.43880360  0.19677367  1
  K  K119  1  0.56119640  0.43880360  0.69677367  1
  K  K120  1  0.31119640  0.18880360  0.44677367  1
  K  K121  1  0.31119640  0.18880360  0.94677367  1
  K  K122  1  0.31119640  0.68880360  0.44677367  1
  K  K123  1  0.31119640  0.68880360  0.94677367  1
  K  K124  1  0.81119640  0.18880360  0.44677367  1
  K  K125  1  0.81119640  0.18880360  0.94677367  1
  K  K126  1  0.81119640  0.68880360  0.44677367  1
  K  K127  1  0.81119640  0.68880360  0.94677367  1
  K  K128  1  -0.06119640  0.06119640  0.19677367  1
  K  K129  1  -0.06119640  0.06119640  0.69677367  1
  K  K130  1  -0.06119640  0.56119640  0.19677367  1
  K  K131  1  -0.06119640  0.56119640  0.69677367  1
  K  K132  1  0.43880360  0.06119640  0.19677367  1
  K  K133  1  0.43880360  0.06119640  0.69677367  1
  K  K134  1  0.43880360  0.56119640  0.19677367  1
  K  K135  1  0.43880360  0.56119640  0.69677367  1
  K  K136  1  0.18880360  0.31119640  0.44677367  1
  K  K137  1  0.18880360  0.31119640  0.94677367  1
  K  K138  1  0.18880360  0.81119640  0.44677367  1
  K  K139  1  0.18880360  0.81119640  0.94677367  1
  K  K140  1  0.68880360  0.31119640  0.44677367  1
  K  K141  1  0.68880360  0.31119640  0.94677367  1
  K  K142  1  0.68880360  0.81119640  0.44677367  1
  K  K143  1  0.68880360  0.81119640  0.94677367  1
  K  K144  1  0.06119640  0.06119640  0.30322633  1
  K  K145  1  0.06119640  0.06119640  0.80322633  1
  K  K146  1  0.06119640  0.56119640  0.30322633  1
  K  K147  1  0.06119640  0.56119640  0.80322633  1
  K  K148  1  0.56119640  0.06119640  0.30322633  1
  K  K149  1  0.56119640  0.06119640  0.80322633  1
  K  K150  1  0.56119640  0.56119640  0.30322633  1
  K  K151  1  0.56119640  0.56119640  0.80322633  1
  K  K152  1  0.31119640  0.31119640  0.55322633  1
  K  K153  1  0.31119640  0.31119640  1.05322633  1
  K  K154  1  0.31119640  0.81119640  0.55322633  1
  K  K155  1  0.31119640  0.81119640  1.05322633  1
  K  K156  1  0.81119640  0.31119640  0.55322633  1
  K  K157  1  0.81119640  0.31119640  1.05322633  1
  K  K158  1  0.81119640  0.81119640  0.55322633  1
  K  K159  1  0.81119640  0.81119640  1.05322633  1
  K  K160  1  0.30322633  0.06119640  0.06119640  1
  K  K161  1  0.30322633  0.06119640  0.56119640  1
  K  K162  1  0.30322633  0.56119640  0.06119640  1
  K  K163  1  0.30322633  0.56119640  0.56119640  1
  K  K164  1  0.80322633  0.06119640  0.06119640  1
  K  K165  1  0.80322633  0.06119640  0.56119640  1
  K  K166  1  0.80322633  0.56119640  0.06119640  1
  K  K167  1  0.80322633  0.56119640  0.56119640  1
  K  K168  1  0.55322633  0.31119640  0.31119640  1
  K  K169  1  0.55322633  0.31119640  0.81119640  1
  K  K170  1  0.55322633  0.81119640  0.31119640  1
  K  K171  1  0.55322633  0.81119640  0.81119640  1
  K  K172  1  1.05322633  0.31119640  0.31119640  1
  K  K173  1  1.05322633  0.31119640  0.81119640  1
  K  K174  1  1.05322633  0.81119640  0.31119640  1
  K  K175  1  1.05322633  0.81119640  0.81119640  1
  K  K176  1  0.05322633  0.18880360  0.18880360  1
  K  K177  1  0.05322633  0.18880360  0.68880360  1
  K  K178  1  0.05322633  0.68880360  0.18880360  1
  K  K179  1  0.05322633  0.68880360  0.68880360  1
  K  K180  1  0.55322633  0.18880360  0.18880360  1
  K  K181  1  0.55322633  0.18880360  0.68880360  1
  K  K182  1  0.55322633  0.68880360  0.18880360  1
  K  K183  1  0.55322633  0.68880360  0.68880360  1
  K  K184  1  0.30322633  0.43880360  0.43880360  1
  K  K185  1  0.30322633  0.43880360  0.93880360  1
  K  K186  1  0.30322633  0.93880360  0.43880360  1
  K  K187  1  0.30322633  0.93880360  0.93880360  1
  K  K188  1  0.80322633  0.43880360  0.43880360  1
  K  K189  1  0.80322633  0.43880360  0.93880360  1
  K  K190  1  0.80322633  0.93880360  0.43880360  1
  K  K191  1  0.80322633  0.93880360  0.93880360  1
  Bi  Bi192  1  0.07355482  0.07355482  0.07355482  1
  Bi  Bi193  1  0.07355482  0.07355482  0.57355482  1
  Bi  Bi194  1  0.07355482  0.57355482  0.07355482  1
  Bi  Bi195  1  0.07355482  0.57355482  0.57355482  1
  Bi  Bi196  1  0.57355482  0.07355482  0.07355482  1
  Bi  Bi197  1  0.57355482  0.07355482  0.57355482  1
  Bi  Bi198  1  0.57355482  0.57355482  0.07355482  1
  Bi  Bi199  1  0.57355482  0.57355482  0.57355482  1
  Bi  Bi200  1  0.32355482  0.32355482  0.32355482  1
  Bi  Bi201  1  0.32355482  0.32355482  0.82355482  1
  Bi  Bi202  1  0.32355482  0.82355482  0.32355482  1
  Bi  Bi203  1  0.32355482  0.82355482  0.82355482  1
  Bi  Bi204  1  0.82355482  0.32355482  0.32355482  1
  Bi  Bi205  1  0.82355482  0.32355482  0.82355482  1
  Bi  Bi206  1  0.82355482  0.82355482  0.32355482  1
  Bi  Bi207  1  0.82355482  0.82355482  0.82355482  1
  Bi  Bi208  1  0.17644518  -0.17644518  0.17644518  1
  Bi  Bi209  1  0.17644518  -0.17644518  0.67644518  1
  Bi  Bi210  1  0.17644518  0.32355482  0.17644518  1
  Bi  Bi211  1  0.17644518  0.32355482  0.67644518  1
  Bi  Bi212  1  0.67644518  -0.17644518  0.17644518  1
  Bi  Bi213  1  0.67644518  -0.17644518  0.67644518  1
  Bi  Bi214  1  0.67644518  0.32355482  0.17644518  1
  Bi  Bi215  1  0.67644518  0.32355482  0.67644518  1
  Bi  Bi216  1  0.42644518  0.07355482  0.42644518  1
  Bi  Bi217  1  0.42644518  0.07355482  0.92644518  1
  Bi  Bi218  1  0.42644518  0.57355482  0.42644518  1
  Bi  Bi219  1  0.42644518  0.57355482  0.92644518  1
  Bi  Bi220  1  0.92644518  0.07355482  0.42644518  1
  Bi  Bi221  1  0.92644518  0.07355482  0.92644518  1
  Bi  Bi222  1  0.92644518  0.57355482  0.42644518  1
  Bi  Bi223  1  0.92644518  0.57355482  0.92644518  1
  Bi  Bi224  1  -0.17644518  0.17644518  0.17644518  1
  Bi  Bi225  1  -0.17644518  0.17644518  0.67644518  1
  Bi  Bi226  1  -0.17644518  0.67644518  0.17644518  1
  Bi  Bi227  1  -0.17644518  0.67644518  0.67644518  1
  Bi  Bi228  1  0.32355482  0.17644518  0.17644518  1
  Bi  Bi229  1  0.32355482  0.17644518  0.67644518  1
  Bi  Bi230  1  0.32355482  0.67644518  0.17644518  1
  Bi  Bi231  1  0.32355482  0.67644518  0.67644518  1
  Bi  Bi232  1  0.07355482  0.42644518  0.42644518  1
  Bi  Bi233  1  0.07355482  0.42644518  0.92644518  1
  Bi  Bi234  1  0.07355482  0.92644518  0.42644518  1
  Bi  Bi235  1  0.07355482  0.92644518  0.92644518  1
  Bi  Bi236  1  0.57355482  0.42644518  0.42644518  1
  Bi  Bi237  1  0.57355482  0.42644518  0.92644518  1
  Bi  Bi238  1  0.57355482  0.92644518  0.42644518  1
  Bi  Bi239  1  0.57355482  0.92644518  0.92644518  1
  Bi  Bi240  1  0.17644518  0.17644518  -0.17644518  1
  Bi  Bi241  1  0.17644518  0.17644518  0.32355482  1
  Bi  Bi242  1  0.17644518  0.67644518  -0.17644518  1
  Bi  Bi243  1  0.17644518  0.67644518  0.32355482  1
  Bi  Bi244  1  0.67644518  0.17644518  -0.17644518  1
  Bi  Bi245  1  0.67644518  0.17644518  0.32355482  1
  Bi  Bi246  1  0.67644518  0.67644518  -0.17644518  1
  Bi  Bi247  1  0.67644518  0.67644518  0.32355482  1
  Bi  Bi248  1  0.42644518  0.42644518  0.07355482  1
  Bi  Bi249  1  0.42644518  0.42644518  0.57355482  1
  Bi  Bi250  1  0.42644518  0.92644518  0.07355482  1
  Bi  Bi251  1  0.42644518  0.92644518  0.57355482  1
  Bi  Bi252  1  0.92644518  0.42644518  0.07355482  1
  Bi  Bi253  1  0.92644518  0.42644518  0.57355482  1
  Bi  Bi254  1  0.92644518  0.92644518  0.07355482  1
  Bi  Bi255  1  0.92644518  0.92644518  0.57355482  1
  O  O256  1  0.06527706  0.06527706  0.17033486  1
  O  O257  1  0.06527706  0.06527706  0.67033486  1
  O  O258  1  0.06527706  0.56527706  0.17033486  1
  O  O259  1  0.06527706  0.56527706  0.67033486  1
  O  O260  1  0.56527706  0.06527706  0.17033486  1
  O  O261  1  0.56527706  0.06527706  0.67033486  1
  O  O262  1  0.56527706  0.56527706  0.17033486  1
  O  O263  1  0.56527706  0.56527706  0.67033486  1
  O  O264  1  0.31527706  0.31527706  0.42033486  1
  O  O265  1  0.31527706  0.31527706  0.92033486  1
  O  O266  1  0.31527706  0.81527706  0.42033486  1
  O  O267  1  0.31527706  0.81527706  0.92033486  1
  O  O268  1  0.81527706  0.31527706  0.42033486  1
  O  O269  1  0.81527706  0.31527706  0.92033486  1
  O  O270  1  0.81527706  0.81527706  0.42033486  1
  O  O271  1  0.81527706  0.81527706  0.92033486  1
  O  O272  1  0.32966514  -0.06527706  0.06527706  1
  O  O273  1  0.32966514  -0.06527706  0.56527706  1
  O  O274  1  0.32966514  0.43472294  0.06527706  1
  O  O275  1  0.32966514  0.43472294  0.56527706  1
  O  O276  1  0.82966514  -0.06527706  0.06527706  1
  O  O277  1  0.82966514  -0.06527706  0.56527706  1
  O  O278  1  0.82966514  0.43472294  0.06527706  1
  O  O279  1  0.82966514  0.43472294  0.56527706  1
  O  O280  1  0.57966514  0.18472294  0.31527706  1
  O  O281  1  0.57966514  0.18472294  0.81527706  1
  O  O282  1  0.57966514  0.68472294  0.31527706  1
  O  O283  1  0.57966514  0.68472294  0.81527706  1
  O  O284  1  1.07966514  0.18472294  0.31527706  1
  O  O285  1  1.07966514  0.18472294  0.81527706  1
  O  O286  1  1.07966514  0.68472294  0.31527706  1
  O  O287  1  1.07966514  0.68472294  0.81527706  1
  O  O288  1  -0.06527706  0.32966514  0.06527706  1
  O  O289  1  -0.06527706  0.32966514  0.56527706  1
  O  O290  1  -0.06527706  0.82966514  0.06527706  1
  O  O291  1  -0.06527706  0.82966514  0.56527706  1
  O  O292  1  0.43472294  0.32966514  0.06527706  1
  O  O293  1  0.43472294  0.32966514  0.56527706  1
  O  O294  1  0.43472294  0.82966514  0.06527706  1
  O  O295  1  0.43472294  0.82966514  0.56527706  1
  O  O296  1  0.18472294  0.57966514  0.31527706  1
  O  O297  1  0.18472294  0.57966514  0.81527706  1
  O  O298  1  0.18472294  1.07966514  0.31527706  1
  O  O299  1  0.18472294  1.07966514  0.81527706  1
  O  O300  1  0.68472294  0.57966514  0.31527706  1
  O  O301  1  0.68472294  0.57966514  0.81527706  1
  O  O302  1  0.68472294  1.07966514  0.31527706  1
  O  O303  1  0.68472294  1.07966514  0.81527706  1
  O  O304  1  0.18472294  -0.07966514  0.18472294  1
  O  O305  1  0.18472294  -0.07966514  0.68472294  1
  O  O306  1  0.18472294  0.42033486  0.18472294  1
  O  O307  1  0.18472294  0.42033486  0.68472294  1
  O  O308  1  0.68472294  -0.07966514  0.18472294  1
  O  O309  1  0.68472294  -0.07966514  0.68472294  1
  O  O310  1  0.68472294  0.42033486  0.18472294  1
  O  O311  1  0.68472294  0.42033486  0.68472294  1
  O  O312  1  0.43472294  0.17033486  0.43472294  1
  O  O313  1  0.43472294  0.17033486  0.93472294  1
  O  O314  1  0.43472294  0.67033486  0.43472294  1
  O  O315  1  0.43472294  0.67033486  0.93472294  1
  O  O316  1  0.93472294  0.17033486  0.43472294  1
  O  O317  1  0.93472294  0.17033486  0.93472294  1
  O  O318  1  0.93472294  0.67033486  0.43472294  1
  O  O319  1  0.93472294  0.67033486  0.93472294  1
  O  O320  1  0.32966514  0.06527706  -0.06527706  1
  O  O321  1  0.32966514  0.06527706  0.43472294  1
  O  O322  1  0.32966514  0.56527706  -0.06527706  1
  O  O323  1  0.32966514  0.56527706  0.43472294  1
  O  O324  1  0.82966514  0.06527706  -0.06527706  1
  O  O325  1  0.82966514  0.06527706  0.43472294  1
  O  O326  1  0.82966514  0.56527706  -0.06527706  1
  O  O327  1  0.82966514  0.56527706  0.43472294  1
  O  O328  1  0.57966514  0.31527706  0.18472294  1
  O  O329  1  0.57966514  0.31527706  0.68472294  1
  O  O330  1  0.57966514  0.81527706  0.18472294  1
  O  O331  1  0.57966514  0.81527706  0.68472294  1
  O  O332  1  1.07966514  0.31527706  0.18472294  1
  O  O333  1  1.07966514  0.31527706  0.68472294  1
  O  O334  1  1.07966514  0.81527706  0.18472294  1
  O  O335  1  1.07966514  0.81527706  0.68472294  1
  O  O336  1  0.06527706  0.32966514  -0.06527706  1
  O  O337  1  0.06527706  0.32966514  0.43472294  1
  O  O338  1  0.06527706  0.82966514  -0.06527706  1
  O  O339  1  0.06527706  0.82966514  0.43472294  1
  O  O340  1  0.56527706  0.32966514  -0.06527706  1
  O  O341  1  0.56527706  0.32966514  0.43472294  1
  O  O342  1  0.56527706  0.82966514  -0.06527706  1
  O  O343  1  0.56527706  0.82966514  0.43472294  1
  O  O344  1  0.31527706  0.57966514  0.18472294  1
  O  O345  1  0.31527706  0.57966514  0.68472294  1
  O  O346  1  0.31527706  1.07966514  0.18472294  1
  O  O347  1  0.31527706  1.07966514  0.68472294  1
  O  O348  1  0.81527706  0.57966514  0.18472294  1
  O  O349  1  0.81527706  0.57966514  0.68472294  1
  O  O350  1  0.81527706  1.07966514  0.18472294  1
  O  O351  1  0.81527706  1.07966514  0.68472294  1
  O  O352  1  0.06527706  0.17033486  0.06527706  1
  O  O353  1  0.06527706  0.17033486  0.56527706  1
  O  O354  1  0.06527706  0.67033486  0.06527706  1
  O  O355  1  0.06527706  0.67033486  0.56527706  1
  O  O356  1  0.56527706  0.17033486  0.06527706  1
  O  O357  1  0.56527706  0.17033486  0.56527706  1
  O  O358  1  0.56527706  0.67033486  0.06527706  1
  O  O359  1  0.56527706  0.67033486  0.56527706  1
  O  O360  1  0.31527706  0.42033486  0.31527706  1
  O  O361  1  0.31527706  0.42033486  0.81527706  1
  O  O362  1  0.31527706  0.92033486  0.31527706  1
  O  O363  1  0.31527706  0.92033486  0.81527706  1
  O  O364  1  0.81527706  0.42033486  0.31527706  1
  O  O365  1  0.81527706  0.42033486  0.81527706  1
  O  O366  1  0.81527706  0.92033486  0.31527706  1
  O  O367  1  0.81527706  0.92033486  0.81527706  1
  O  O368  1  -0.06527706  0.06527706  0.32966514  1
  O  O369  1  -0.06527706  0.06527706  0.82966514  1
  O  O370  1  -0.06527706  0.56527706  0.32966514  1
  O  O371  1  -0.06527706  0.56527706  0.82966514  1
  O  O372  1  0.43472294  0.06527706  0.32966514  1
  O  O373  1  0.43472294  0.06527706  0.82966514  1
  O  O374  1  0.43472294  0.56527706  0.32966514  1
  O  O375  1  0.43472294  0.56527706  0.82966514  1
  O  O376  1  0.18472294  0.31527706  0.57966514  1
  O  O377  1  0.18472294  0.31527706  1.07966514  1
  O  O378  1  0.18472294  0.81527706  0.57966514  1
  O  O379  1  0.18472294  0.81527706  1.07966514  1
  O  O380  1  0.68472294  0.31527706  0.57966514  1
  O  O381  1  0.68472294  0.31527706  1.07966514  1
  O  O382  1  0.68472294  0.81527706  0.57966514  1
  O  O383  1  0.68472294  0.81527706  1.07966514  1
  O  O384  1  0.06527706  -0.06527706  0.32966514  1
  O  O385  1  0.06527706  -0.06527706  0.82966514  1
  O  O386  1  0.06527706  0.43472294  0.32966514  1
  O  O387  1  0.06527706  0.43472294  0.82966514  1
  O  O388  1  0.56527706  -0.06527706  0.32966514  1
  O  O389  1  0.56527706  -0.06527706  0.82966514  1
  O  O390  1  0.56527706  0.43472294  0.32966514  1
  O  O391  1  0.56527706  0.43472294  0.82966514  1
  O  O392  1  0.31527706  0.18472294  0.57966514  1
  O  O393  1  0.31527706  0.18472294  1.07966514  1
  O  O394  1  0.31527706  0.68472294  0.57966514  1
  O  O395  1  0.31527706  0.68472294  1.07966514  1
  O  O396  1  0.81527706  0.18472294  0.57966514  1
  O  O397  1  0.81527706  0.18472294  1.07966514  1
  O  O398  1  0.81527706  0.68472294  0.57966514  1
  O  O399  1  0.81527706  0.68472294  1.07966514  1
  O  O400  1  0.18472294  0.18472294  -0.07966514  1
  O  O401  1  0.18472294  0.18472294  0.42033486  1
  O  O402  1  0.18472294  0.68472294  -0.07966514  1
  O  O403  1  0.18472294  0.68472294  0.42033486  1
  O  O404  1  0.68472294  0.18472294  -0.07966514  1
  O  O405  1  0.68472294  0.18472294  0.42033486  1
  O  O406  1  0.68472294  0.68472294  -0.07966514  1
  O  O407  1  0.68472294  0.68472294  0.42033486  1
  O  O408  1  0.43472294  0.43472294  0.17033486  1
  O  O409  1  0.43472294  0.43472294  0.67033486  1
  O  O410  1  0.43472294  0.93472294  0.17033486  1
  O  O411  1  0.43472294  0.93472294  0.67033486  1
  O  O412  1  0.93472294  0.43472294  0.17033486  1
  O  O413  1  0.93472294  0.43472294  0.67033486  1
  O  O414  1  0.93472294  0.93472294  0.17033486  1
  O  O415  1  0.93472294  0.93472294  0.67033486  1
  O  O416  1  -0.07966514  0.18472294  0.18472294  1
  O  O417  1  -0.07966514  0.18472294  0.68472294  1
  O  O418  1  -0.07966514  0.68472294  0.18472294  1
  O  O419  1  -0.07966514  0.68472294  0.68472294  1
  O  O420  1  0.42033486  0.18472294  0.18472294  1
  O  O421  1  0.42033486  0.18472294  0.68472294  1
  O  O422  1  0.42033486  0.68472294  0.18472294  1
  O  O423  1  0.42033486  0.68472294  0.68472294  1
  O  O424  1  0.17033486  0.43472294  0.43472294  1
  O  O425  1  0.17033486  0.43472294  0.93472294  1
  O  O426  1  0.17033486  0.93472294  0.43472294  1
  O  O427  1  0.17033486  0.93472294  0.93472294  1
  O  O428  1  0.67033486  0.43472294  0.43472294  1
  O  O429  1  0.67033486  0.43472294  0.93472294  1
  O  O430  1  0.67033486  0.93472294  0.43472294  1
  O  O431  1  0.67033486  0.93472294  0.93472294  1
  O  O432  1  0.17033486  0.06527706  0.06527706  1
  O  O433  1  0.17033486  0.06527706  0.56527706  1
  O  O434  1  0.17033486  0.56527706  0.06527706  1
  O  O435  1  0.17033486  0.56527706  0.56527706  1
  O  O436  1  0.67033486  0.06527706  0.06527706  1
  O  O437  1  0.67033486  0.06527706  0.56527706  1
  O  O438  1  0.67033486  0.56527706  0.06527706  1
  O  O439  1  0.67033486  0.56527706  0.56527706  1
  O  O440  1  0.42033486  0.31527706  0.31527706  1
  O  O441  1  0.42033486  0.31527706  0.81527706  1
  O  O442  1  0.42033486  0.81527706  0.31527706  1
  O  O443  1  0.42033486  0.81527706  0.81527706  1
  O  O444  1  0.92033486  0.31527706  0.31527706  1
  O  O445  1  0.92033486  0.31527706  0.81527706  1
  O  O446  1  0.92033486  0.81527706  0.31527706  1
  O  O447  1  0.92033486  0.81527706  0.81527706  1
