# generated using pymatgen
data_NaGaO2
_symmetry_space_group_name_H-M   'P 1'
_cell_length_a   16.58355338
_cell_length_b   14.25677127
_cell_length_c   15.85416957
_cell_angle_alpha   90.00000000
_cell_angle_beta   90.00000000
_cell_angle_gamma   90.00000000
_symmetry_Int_Tables_number   1
_chemical_formula_structural   NaGaO2
_chemical_formula_sum   'Na72 Ga72 O144'
_cell_volume   3748.36845090
_cell_formula_units_Z   72
loop_
 _symmetry_equiv_pos_site_id
 _symmetry_equiv_pos_as_xyz
  1  'x, y, z'
loop_
 _atom_site_type_symbol
 _atom_site_label
 _atom_site_symmetry_multiplicity
 _atom_site_fract_x
 _atom_site_fract_y
 _atom_site_fract_z
 _atom_site_occupancy
  Na  Na0  1  0.02356511  0.31119249  0.00465940  1
  Na  Na1  1  0.02356511  0.31119249  0.33799274  1
  Na  Na2  1  0.02356511  0.31119249  0.67132607  1
  Na  Na3  1  0.02356511  0.81119249  0.00465940  1
  Na  Na4  1  0.02356511  0.81119249  0.33799274  1
  Na  Na5  1  0.02356511  0.81119249  0.67132607  1
  Na  Na6  1  0.35689845  0.31119249  0.00465940  1
  Na  Na7  1  0.35689845  0.31119249  0.33799274  1
  Na  Na8  1  0.35689845  0.31119249  0.67132607  1
  Na  Na9  1  0.35689845  0.81119249  0.00465940  1
  Na  Na10  1  0.35689845  0.81119249  0.33799274  1
  Na  Na11  1  0.35689845  0.81119249  0.67132607  1
  Na  Na12  1  0.69023178  0.31119249  0.00465940  1
  Na  Na13  1  0.69023178  0.31119249  0.33799274  1
  Na  Na14  1  0.69023178  0.31119249  0.67132607  1
  Na  Na15  1  0.69023178  0.81119249  0.00465940  1
  Na  Na16  1  0.69023178  0.81119249  0.33799274  1
  Na  Na17  1  0.69023178  0.81119249  0.67132607  1
  Na  Na18  1  0.14310155  0.06119249  0.17132607  1
  Na  Na19  1  0.14310155  0.06119249  0.50465940  1
  Na  Na20  1  0.14310155  0.06119249  0.83799274  1
  Na  Na21  1  0.14310155  0.56119249  0.17132607  1
  Na  Na22  1  0.14310155  0.56119249  0.50465940  1
  Na  Na23  1  0.14310155  0.56119249  0.83799274  1
  Na  Na24  1  0.47643489  0.06119249  0.17132607  1
  Na  Na25  1  0.47643489  0.06119249  0.50465940  1
  Na  Na26  1  0.47643489  0.06119249  0.83799274  1
  Na  Na27  1  0.47643489  0.56119249  0.17132607  1
  Na  Na28  1  0.47643489  0.56119249  0.50465940  1
  Na  Na29  1  0.47643489  0.56119249  0.83799274  1
  Na  Na30  1  0.80976822  0.06119249  0.17132607  1
  Na  Na31  1  0.80976822  0.06119249  0.50465940  1
  Na  Na32  1  0.80976822  0.06119249  0.83799274  1
  Na  Na33  1  0.80976822  0.56119249  0.17132607  1
  Na  Na34  1  0.80976822  0.56119249  0.50465940  1
  Na  Na35  1  0.80976822  0.56119249  0.83799274  1
  Na  Na36  1  0.30976822  0.18880751  0.17132607  1
  Na  Na37  1  0.30976822  0.18880751  0.50465940  1
  Na  Na38  1  0.30976822  0.18880751  0.83799274  1
  Na  Na39  1  0.30976822  0.68880751  0.17132607  1
  Na  Na40  1  0.30976822  0.68880751  0.50465940  1
  Na  Na41  1  0.30976822  0.68880751  0.83799274  1
  Na  Na42  1  0.64310155  0.18880751  0.17132607  1
  Na  Na43  1  0.64310155  0.18880751  0.50465940  1
  Na  Na44  1  0.64310155  0.18880751  0.83799274  1
  Na  Na45  1  0.64310155  0.68880751  0.17132607  1
  Na  Na46  1  0.64310155  0.68880751  0.50465940  1
  Na  Na47  1  0.64310155  0.68880751  0.83799274  1
  Na  Na48  1  0.97643489  0.18880751  0.17132607  1
  Na  Na49  1  0.97643489  0.18880751  0.50465940  1
  Na  Na50  1  0.97643489  0.18880751  0.83799274  1
  Na  Na51  1  0.97643489  0.68880751  0.17132607  1
  Na  Na52  1  0.97643489  0.68880751  0.50465940  1
  Na  Na53  1  0.97643489  0.68880751  0.83799274  1
  Na  Na54  1  0.19023178  0.43880751  0.00465940  1
  Na  Na55  1  0.19023178  0.43880751  0.33799274  1
  Na  Na56  1  0.19023178  0.43880751  0.67132607  1
  Na  Na57  1  0.19023178  0.93880751  0.00465940  1
  Na  Na58  1  0.19023178  0.93880751  0.33799274  1
  Na  Na59  1  0.19023178  0.93880751  0.67132607  1
  Na  Na60  1  0.52356511  0.43880751  0.00465940  1
  Na  Na61  1  0.52356511  0.43880751  0.33799274  1
  Na  Na62  1  0.52356511  0.43880751  0.67132607  1
  Na  Na63  1  0.52356511  0.93880751  0.00465940  1
  Na  Na64  1  0.52356511  0.93880751  0.33799274  1
  Na  Na65  1  0.52356511  0.93880751  0.67132607  1
  Na  Na66  1  0.85689845  0.43880751  0.00465940  1
  Na  Na67  1  0.85689845  0.43880751  0.33799274  1
  Na  Na68  1  0.85689845  0.43880751  0.67132607  1
  Na  Na69  1  0.85689845  0.93880751  0.00465940  1
  Na  Na70  1  0.85689845  0.93880751  0.33799274  1
  Na  Na71  1  0.85689845  0.93880751  0.67132607  1
  Ga  Ga72  1  0.02155681  0.06311339  0.33332821  1
  Ga  Ga73  1  0.02155681  0.06311339  0.66666154  1
  Ga  Ga74  1  0.02155681  0.06311339  0.99999488  1
  Ga  Ga75  1  0.02155681  0.56311339  0.33332821  1
  Ga  Ga76  1  0.02155681  0.56311339  0.66666154  1
  Ga  Ga77  1  0.02155681  0.56311339  0.99999488  1
  Ga  Ga78  1  0.35489014  0.06311339  0.33332821  1
  Ga  Ga79  1  0.35489014  0.06311339  0.66666154  1
  Ga  Ga80  1  0.35489014  0.06311339  0.99999488  1
  Ga  Ga81  1  0.35489014  0.56311339  0.33332821  1
  Ga  Ga82  1  0.35489014  0.56311339  0.66666154  1
  Ga  Ga83  1  0.35489014  0.56311339  0.99999488  1
  Ga  Ga84  1  0.68822348  0.06311339  0.33332821  1
  Ga  Ga85  1  0.68822348  0.06311339  0.66666154  1
  Ga  Ga86  1  0.68822348  0.06311339  0.99999488  1
  Ga  Ga87  1  0.68822348  0.56311339  0.33332821  1
  Ga  Ga88  1  0.68822348  0.56311339  0.66666154  1
  Ga  Ga89  1  0.68822348  0.56311339  0.99999488  1
  Ga  Ga90  1  0.31177652  0.43688661  0.16666154  1
  Ga  Ga91  1  0.31177652  0.43688661  0.49999488  1
  Ga  Ga92  1  0.31177652  0.43688661  0.83332821  1
  Ga  Ga93  1  0.31177652  0.93688661  0.16666154  1
  Ga  Ga94  1  0.31177652  0.93688661  0.49999488  1
  Ga  Ga95  1  0.31177652  0.93688661  0.83332821  1
  Ga  Ga96  1  0.64510986  0.43688661  0.16666154  1
  Ga  Ga97  1  0.64510986  0.43688661  0.49999488  1
  Ga  Ga98  1  0.64510986  0.43688661  0.83332821  1
  Ga  Ga99  1  0.64510986  0.93688661  0.16666154  1
  Ga  Ga100  1  0.64510986  0.93688661  0.49999488  1
  Ga  Ga101  1  0.64510986  0.93688661  0.83332821  1
  Ga  Ga102  1  0.97844319  0.43688661  0.16666154  1
  Ga  Ga103  1  0.97844319  0.43688661  0.49999488  1
  Ga  Ga104  1  0.97844319  0.43688661  0.83332821  1
  Ga  Ga105  1  0.97844319  0.93688661  0.16666154  1
  Ga  Ga106  1  0.97844319  0.93688661  0.49999488  1
  Ga  Ga107  1  0.97844319  0.93688661  0.83332821  1
  Ga  Ga108  1  0.14510986  0.31311339  0.16666154  1
  Ga  Ga109  1  0.14510986  0.31311339  0.49999488  1
  Ga  Ga110  1  0.14510986  0.31311339  0.83332821  1
  Ga  Ga111  1  0.14510986  0.81311339  0.16666154  1
  Ga  Ga112  1  0.14510986  0.81311339  0.49999488  1
  Ga  Ga113  1  0.14510986  0.81311339  0.83332821  1
  Ga  Ga114  1  0.47844319  0.31311339  0.16666154  1
  Ga  Ga115  1  0.47844319  0.31311339  0.49999488  1
  Ga  Ga116  1  0.47844319  0.31311339  0.83332821  1
  Ga  Ga117  1  0.47844319  0.81311339  0.16666154  1
  Ga  Ga118  1  0.47844319  0.81311339  0.49999488  1
  Ga  Ga119  1  0.47844319  0.81311339  0.83332821  1
  Ga  Ga120  1  0.81177652  0.31311339  0.16666154  1
  Ga  Ga121  1  0.81177652  0.31311339  0.49999488  1
  Ga  Ga122  1  0.81177652  0.31311339  0.83332821  1
  Ga  Ga123  1  0.81177652  0.81311339  0.16666154  1
  Ga  Ga124  1  0.81177652  0.81311339  0.49999488  1
  Ga  Ga125  1  0.81177652  0.81311339  0.83332821  1
  Ga  Ga126  1  0.18822348  0.18688661  0.33332821  1
  Ga  Ga127  1  0.18822348  0.18688661  0.66666154  1
  Ga  Ga128  1  0.18822348  0.18688661  0.99999488  1
  Ga  Ga129  1  0.18822348  0.68688661  0.33332821  1
  Ga  Ga130  1  0.18822348  0.68688661  0.66666154  1
  Ga  Ga131  1  0.18822348  0.68688661  0.99999488  1
  Ga  Ga132  1  0.52155681  0.18688661  0.33332821  1
  Ga  Ga133  1  0.52155681  0.18688661  0.66666154  1
  Ga  Ga134  1  0.52155681  0.18688661  0.99999488  1
  Ga  Ga135  1  0.52155681  0.68688661  0.33332821  1
  Ga  Ga136  1  0.52155681  0.68688661  0.66666154  1
  Ga  Ga137  1  0.52155681  0.68688661  0.99999488  1
  Ga  Ga138  1  0.85489014  0.18688661  0.33332821  1
  Ga  Ga139  1  0.85489014  0.18688661  0.66666154  1
  Ga  Ga140  1  0.85489014  0.18688661  0.99999488  1
  Ga  Ga141  1  0.85489014  0.68688661  0.33332821  1
  Ga  Ga142  1  0.85489014  0.68688661  0.66666154  1
  Ga  Ga143  1  0.85489014  0.68688661  0.99999488  1
  O  O144  1  0.15268351  0.29566526  0.05082699  1
  O  O145  1  0.15268351  0.29566526  0.38416032  1
  O  O146  1  0.15268351  0.29566526  0.71749365  1
  O  O147  1  0.15268351  0.79566526  0.05082699  1
  O  O148  1  0.15268351  0.79566526  0.38416032  1
  O  O149  1  0.15268351  0.79566526  0.71749365  1
  O  O150  1  0.48601684  0.29566526  0.05082699  1
  O  O151  1  0.48601684  0.29566526  0.38416032  1
  O  O152  1  0.48601684  0.29566526  0.71749365  1
  O  O153  1  0.48601684  0.79566526  0.05082699  1
  O  O154  1  0.48601684  0.79566526  0.38416032  1
  O  O155  1  0.48601684  0.79566526  0.71749365  1
  O  O156  1  0.81935018  0.29566526  0.05082699  1
  O  O157  1  0.81935018  0.29566526  0.38416032  1
  O  O158  1  0.81935018  0.29566526  0.71749365  1
  O  O159  1  0.81935018  0.79566526  0.05082699  1
  O  O160  1  0.81935018  0.79566526  0.38416032  1
  O  O161  1  0.81935018  0.79566526  0.71749365  1
  O  O162  1  0.18064982  0.20433474  0.21749365  1
  O  O163  1  0.18064982  0.20433474  0.55082699  1
  O  O164  1  0.18064982  0.20433474  0.88416032  1
  O  O165  1  0.18064982  0.70433474  0.21749365  1
  O  O166  1  0.18064982  0.70433474  0.55082699  1
  O  O167  1  0.18064982  0.70433474  0.88416032  1
  O  O168  1  0.51398316  0.20433474  0.21749365  1
  O  O169  1  0.51398316  0.20433474  0.55082699  1
  O  O170  1  0.51398316  0.20433474  0.88416032  1
  O  O171  1  0.51398316  0.70433474  0.21749365  1
  O  O172  1  0.51398316  0.70433474  0.55082699  1
  O  O173  1  0.51398316  0.70433474  0.88416032  1
  O  O174  1  0.84731649  0.20433474  0.21749365  1
  O  O175  1  0.84731649  0.20433474  0.55082699  1
  O  O176  1  0.84731649  0.20433474  0.88416032  1
  O  O177  1  0.84731649  0.70433474  0.21749365  1
  O  O178  1  0.84731649  0.70433474  0.55082699  1
  O  O179  1  0.84731649  0.70433474  0.88416032  1
  O  O180  1  0.01398316  0.04566526  0.21749365  1
  O  O181  1  0.01398316  0.04566526  0.55082699  1
  O  O182  1  0.01398316  0.04566526  0.88416032  1
  O  O183  1  0.01398316  0.54566526  0.21749365  1
  O  O184  1  0.01398316  0.54566526  0.55082699  1
  O  O185  1  0.01398316  0.54566526  0.88416032  1
  O  O186  1  0.34731649  0.04566526  0.21749365  1
  O  O187  1  0.34731649  0.04566526  0.55082699  1
  O  O188  1  0.34731649  0.04566526  0.88416032  1
  O  O189  1  0.34731649  0.54566526  0.21749365  1
  O  O190  1  0.34731649  0.54566526  0.55082699  1
  O  O191  1  0.34731649  0.54566526  0.88416032  1
  O  O192  1  0.68064982  0.04566526  0.21749365  1
  O  O193  1  0.68064982  0.04566526  0.55082699  1
  O  O194  1  0.68064982  0.04566526  0.88416032  1
  O  O195  1  0.68064982  0.54566526  0.21749365  1
  O  O196  1  0.68064982  0.54566526  0.55082699  1
  O  O197  1  0.68064982  0.54566526  0.88416032  1
  O  O198  1  0.31935018  0.45433474  0.05082699  1
  O  O199  1  0.31935018  0.45433474  0.38416032  1
  O  O200  1  0.31935018  0.45433474  0.71749365  1
  O  O201  1  0.31935018  0.95433474  0.05082699  1
  O  O202  1  0.31935018  0.95433474  0.38416032  1
  O  O203  1  0.31935018  0.95433474  0.71749365  1
  O  O204  1  0.65268351  0.45433474  0.05082699  1
  O  O205  1  0.65268351  0.45433474  0.38416032  1
  O  O206  1  0.65268351  0.45433474  0.71749365  1
  O  O207  1  0.65268351  0.95433474  0.05082699  1
  O  O208  1  0.65268351  0.95433474  0.38416032  1
  O  O209  1  0.65268351  0.95433474  0.71749365  1
  O  O210  1  0.98601684  0.45433474  0.05082699  1
  O  O211  1  0.98601684  0.45433474  0.38416032  1
  O  O212  1  0.98601684  0.45433474  0.71749365  1
  O  O213  1  0.98601684  0.95433474  0.05082699  1
  O  O214  1  0.98601684  0.95433474  0.38416032  1
  O  O215  1  0.98601684  0.95433474  0.71749365  1
  O  O216  1  0.29627695  0.16968478  0.02768573  1
  O  O217  1  0.29627695  0.16968478  0.36101907  1
  O  O218  1  0.29627695  0.16968478  0.69435240  1
  O  O219  1  0.29627695  0.66968478  0.02768573  1
  O  O220  1  0.29627695  0.66968478  0.36101907  1
  O  O221  1  0.29627695  0.66968478  0.69435240  1
  O  O222  1  0.62961029  0.16968478  0.02768573  1
  O  O223  1  0.62961029  0.16968478  0.36101907  1
  O  O224  1  0.62961029  0.16968478  0.69435240  1
  O  O225  1  0.62961029  0.66968478  0.02768573  1
  O  O226  1  0.62961029  0.66968478  0.36101907  1
  O  O227  1  0.62961029  0.66968478  0.69435240  1
  O  O228  1  0.96294362  0.16968478  0.02768573  1
  O  O229  1  0.96294362  0.16968478  0.36101907  1
  O  O230  1  0.96294362  0.16968478  0.69435240  1
  O  O231  1  0.96294362  0.66968478  0.02768573  1
  O  O232  1  0.96294362  0.66968478  0.36101907  1
  O  O233  1  0.96294362  0.66968478  0.69435240  1
  O  O234  1  0.12961029  0.08031522  0.02768573  1
  O  O235  1  0.12961029  0.08031522  0.36101907  1
  O  O236  1  0.12961029  0.08031522  0.69435240  1
  O  O237  1  0.12961029  0.58031522  0.02768573  1
  O  O238  1  0.12961029  0.58031522  0.36101907  1
  O  O239  1  0.12961029  0.58031522  0.69435240  1
  O  O240  1  0.46294362  0.08031522  0.02768573  1
  O  O241  1  0.46294362  0.08031522  0.36101907  1
  O  O242  1  0.46294362  0.08031522  0.69435240  1
  O  O243  1  0.46294362  0.58031522  0.02768573  1
  O  O244  1  0.46294362  0.58031522  0.36101907  1
  O  O245  1  0.46294362  0.58031522  0.69435240  1
  O  O246  1  0.79627695  0.08031522  0.02768573  1
  O  O247  1  0.79627695  0.08031522  0.36101907  1
  O  O248  1  0.79627695  0.08031522  0.69435240  1
  O  O249  1  0.79627695  0.58031522  0.02768573  1
  O  O250  1  0.79627695  0.58031522  0.36101907  1
  O  O251  1  0.79627695  0.58031522  0.69435240  1
  O  O252  1  0.20372305  0.41968478  0.19435240  1
  O  O253  1  0.20372305  0.41968478  0.52768573  1
  O  O254  1  0.20372305  0.41968478  0.86101907  1
  O  O255  1  0.20372305  0.91968478  0.19435240  1
  O  O256  1  0.20372305  0.91968478  0.52768573  1
  O  O257  1  0.20372305  0.91968478  0.86101907  1
  O  O258  1  0.53705638  0.41968478  0.19435240  1
  O  O259  1  0.53705638  0.41968478  0.52768573  1
  O  O260  1  0.53705638  0.41968478  0.86101907  1
  O  O261  1  0.53705638  0.91968478  0.19435240  1
  O  O262  1  0.53705638  0.91968478  0.52768573  1
  O  O263  1  0.53705638  0.91968478  0.86101907  1
  O  O264  1  0.87038971  0.41968478  0.19435240  1
  O  O265  1  0.87038971  0.41968478  0.52768573  1
  O  O266  1  0.87038971  0.41968478  0.86101907  1
  O  O267  1  0.87038971  0.91968478  0.19435240  1
  O  O268  1  0.87038971  0.91968478  0.52768573  1
  O  O269  1  0.87038971  0.91968478  0.86101907  1
  O  O270  1  0.03705638  0.33031522  0.19435240  1
  O  O271  1  0.03705638  0.33031522  0.52768573  1
  O  O272  1  0.03705638  0.33031522  0.86101907  1
  O  O273  1  0.03705638  0.83031522  0.19435240  1
  O  O274  1  0.03705638  0.83031522  0.52768573  1
  O  O275  1  0.03705638  0.83031522  0.86101907  1
  O  O276  1  0.37038971  0.33031522  0.19435240  1
  O  O277  1  0.37038971  0.33031522  0.52768573  1
  O  O278  1  0.37038971  0.33031522  0.86101907  1
  O  O279  1  0.37038971  0.83031522  0.19435240  1
  O  O280  1  0.37038971  0.83031522  0.52768573  1
  O  O281  1  0.37038971  0.83031522  0.86101907  1
  O  O282  1  0.70372305  0.33031522  0.19435240  1
  O  O283  1  0.70372305  0.33031522  0.52768573  1
  O  O284  1  0.70372305  0.33031522  0.86101907  1
  O  O285  1  0.70372305  0.83031522  0.19435240  1
  O  O286  1  0.70372305  0.83031522  0.52768573  1
  O  O287  1  0.70372305  0.83031522  0.86101907  1
