# generated using pymatgen
data_NbAlO4
_symmetry_space_group_name_H-M   'P 1'
_cell_length_a   12.20751295
_cell_length_b   11.35832009
_cell_length_c   13.01481926
_cell_angle_alpha   90.00000000
_cell_angle_beta   107.84195040
_cell_angle_gamma   90.00000000
_symmetry_Int_Tables_number   1
_chemical_formula_structural   NbAlO4
_chemical_formula_sum   'Nb24 Al24 O96'
_cell_volume   1717.80234262
_cell_formula_units_Z   24
loop_
 _symmetry_equiv_pos_site_id
 _symmetry_equiv_pos_as_xyz
  1  'x, y, z'
loop_
 _atom_site_type_symbol
 _atom_site_label
 _atom_site_symmetry_multiplicity
 _atom_site_fract_x
 _atom_site_fract_y
 _atom_site_fract_z
 _atom_site_occupancy
  Nb  Nb0  1  0.10503185  0.00000000  0.11797192  1
  Nb  Nb1  1  0.10503185  0.00000000  0.61797192  1
  Nb  Nb2  1  0.10503185  0.33333333  0.11797192  1
  Nb  Nb3  1  0.10503185  0.33333333  0.61797192  1
  Nb  Nb4  1  0.10503185  0.66666667  0.11797192  1
  Nb  Nb5  1  0.10503185  0.66666667  0.61797192  1
  Nb  Nb6  1  0.60503185  0.16666667  0.11797192  1
  Nb  Nb7  1  0.60503185  0.16666667  0.61797192  1
  Nb  Nb8  1  0.60503185  0.50000000  0.11797192  1
  Nb  Nb9  1  0.60503185  0.50000000  0.61797192  1
  Nb  Nb10  1  0.60503185  0.83333333  0.11797192  1
  Nb  Nb11  1  0.60503185  0.83333333  0.61797192  1
  Nb  Nb12  1  0.89496815  0.00000000  0.38202808  1
  Nb  Nb13  1  0.89496815  0.00000000  0.88202808  1
  Nb  Nb14  1  0.89496815  0.33333333  0.38202808  1
  Nb  Nb15  1  0.89496815  0.33333333  0.88202808  1
  Nb  Nb16  1  0.89496815  0.66666667  0.38202808  1
  Nb  Nb17  1  0.89496815  0.66666667  0.88202808  1
  Nb  Nb18  1  1.39496815  0.16666667  0.38202808  1
  Nb  Nb19  1  1.39496815  0.16666667  0.88202808  1
  Nb  Nb20  1  1.39496815  0.50000000  0.38202808  1
  Nb  Nb21  1  1.39496815  0.50000000  0.88202808  1
  Nb  Nb22  1  1.39496815  0.83333333  0.38202808  1
  Nb  Nb23  1  1.39496815  0.83333333  0.88202808  1
  Al  Al24  1  0.79795821  -0.00000000  0.08781868  1
  Al  Al25  1  0.79795821  -0.00000000  0.58781868  1
  Al  Al26  1  0.79795821  0.33333333  0.08781868  1
  Al  Al27  1  0.79795821  0.33333333  0.58781868  1
  Al  Al28  1  0.79795821  0.66666667  0.08781868  1
  Al  Al29  1  0.79795821  0.66666667  0.58781868  1
  Al  Al30  1  1.29795821  0.16666667  0.08781868  1
  Al  Al31  1  1.29795821  0.16666667  0.58781868  1
  Al  Al32  1  1.29795821  0.50000000  0.08781868  1
  Al  Al33  1  1.29795821  0.50000000  0.58781868  1
  Al  Al34  1  1.29795821  0.83333333  0.08781868  1
  Al  Al35  1  1.29795821  0.83333333  0.58781868  1
  Al  Al36  1  0.20204179  0.00000000  0.41218132  1
  Al  Al37  1  0.20204179  0.00000000  0.91218132  1
  Al  Al38  1  0.20204179  0.33333333  0.41218132  1
  Al  Al39  1  0.20204179  0.33333333  0.91218132  1
  Al  Al40  1  0.20204179  0.66666667  0.41218132  1
  Al  Al41  1  0.20204179  0.66666667  0.91218132  1
  Al  Al42  1  0.70204179  0.16666667  0.41218132  1
  Al  Al43  1  0.70204179  0.16666667  0.91218132  1
  Al  Al44  1  0.70204179  0.50000000  0.41218132  1
  Al  Al45  1  0.70204179  0.50000000  0.91218132  1
  Al  Al46  1  0.70204179  0.83333333  0.41218132  1
  Al  Al47  1  0.70204179  0.83333333  0.91218132  1
  O  O48  1  0.35598423  0.00000000  0.39834793  1
  O  O49  1  0.35598423  0.00000000  0.89834793  1
  O  O50  1  0.35598423  0.33333333  0.39834793  1
  O  O51  1  0.35598423  0.33333333  0.89834793  1
  O  O52  1  0.35598423  0.66666667  0.39834793  1
  O  O53  1  0.35598423  0.66666667  0.89834793  1
  O  O54  1  0.85598423  0.16666667  0.39834793  1
  O  O55  1  0.85598423  0.16666667  0.89834793  1
  O  O56  1  0.85598423  0.50000000  0.39834793  1
  O  O57  1  0.85598423  0.50000000  0.89834793  1
  O  O58  1  0.85598423  0.83333333  0.39834793  1
  O  O59  1  0.85598423  0.83333333  0.89834793  1
  O  O60  1  0.64401577  0.00000000  0.10165207  1
  O  O61  1  0.64401577  0.00000000  0.60165207  1
  O  O62  1  0.64401577  0.33333333  0.10165207  1
  O  O63  1  0.64401577  0.33333333  0.60165207  1
  O  O64  1  0.64401577  0.66666667  0.10165207  1
  O  O65  1  0.64401577  0.66666667  0.60165207  1
  O  O66  1  1.14401577  0.16666667  0.10165207  1
  O  O67  1  1.14401577  0.16666667  0.60165207  1
  O  O68  1  1.14401577  0.50000000  0.10165207  1
  O  O69  1  1.14401577  0.50000000  0.60165207  1
  O  O70  1  1.14401577  0.83333333  0.10165207  1
  O  O71  1  1.14401577  0.83333333  0.60165207  1
  O  O72  1  0.73657840  0.00000000  0.42925729  1
  O  O73  1  0.73657840  0.00000000  0.92925729  1
  O  O74  1  0.73657840  0.33333333  0.42925729  1
  O  O75  1  0.73657840  0.33333333  0.92925729  1
  O  O76  1  0.73657840  0.66666667  0.42925729  1
  O  O77  1  0.73657840  0.66666667  0.92925729  1
  O  O78  1  1.23657840  0.16666667  0.42925729  1
  O  O79  1  1.23657840  0.16666667  0.92925729  1
  O  O80  1  1.23657840  0.50000000  0.42925729  1
  O  O81  1  1.23657840  0.50000000  0.92925729  1
  O  O82  1  1.23657840  0.83333333  0.42925729  1
  O  O83  1  1.23657840  0.83333333  0.92925729  1
  O  O84  1  0.26342160  -0.00000000  0.07074271  1
  O  O85  1  0.26342160  -0.00000000  0.57074271  1
  O  O86  1  0.26342160  0.33333333  0.07074271  1
  O  O87  1  0.26342160  0.33333333  0.57074271  1
  O  O88  1  0.26342160  0.66666667  0.07074271  1
  O  O89  1  0.26342160  0.66666667  0.57074271  1
  O  O90  1  0.76342160  0.16666667  0.07074271  1
  O  O91  1  0.76342160  0.16666667  0.57074271  1
  O  O92  1  0.76342160  0.50000000  0.07074271  1
  O  O93  1  0.76342160  0.50000000  0.57074271  1
  O  O94  1  0.76342160  0.83333333  0.07074271  1
  O  O95  1  0.76342160  0.83333333  0.57074271  1
  O  O96  1  0.85944589  0.00000000  0.23605050  1
  O  O97  1  0.85944589  0.00000000  0.73605050  1
  O  O98  1  0.85944589  0.33333333  0.23605050  1
  O  O99  1  0.85944589  0.33333333  0.73605050  1
  O  O100  1  0.85944589  0.66666667  0.23605050  1
  O  O101  1  0.85944589  0.66666667  0.73605050  1
  O  O102  1  1.35944589  0.16666667  0.23605050  1
  O  O103  1  1.35944589  0.16666667  0.73605050  1
  O  O104  1  1.35944589  0.50000000  0.23605050  1
  O  O105  1  1.35944589  0.50000000  0.73605050  1
  O  O106  1  1.35944589  0.83333333  0.23605050  1
  O  O107  1  1.35944589  0.83333333  0.73605050  1
  O  O108  1  0.14055411  0.00000000  0.26394950  1
  O  O109  1  0.14055411  0.00000000  0.76394950  1
  O  O110  1  0.14055411  0.33333333  0.26394950  1
  O  O111  1  0.14055411  0.33333333  0.76394950  1
  O  O112  1  0.14055411  0.66666667  0.26394950  1
  O  O113  1  0.14055411  0.66666667  0.76394950  1
  O  O114  1  0.64055411  0.16666667  0.26394950  1
  O  O115  1  0.64055411  0.16666667  0.76394950  1
  O  O116  1  0.64055411  0.50000000  0.26394950  1
  O  O117  1  0.64055411  0.50000000  0.76394950  1
  O  O118  1  0.64055411  0.83333333  0.26394950  1
  O  O119  1  0.64055411  0.83333333  0.76394950  1
  O  O120  1  0.94228546  -0.00000000  0.06826878  1
  O  O121  1  0.94228546  -0.00000000  0.56826878  1
  O  O122  1  0.94228546  0.33333333  0.06826878  1
  O  O123  1  0.94228546  0.33333333  0.56826878  1
  O  O124  1  0.94228546  0.66666667  0.06826878  1
  O  O125  1  0.94228546  0.66666667  0.56826878  1
  O  O126  1  1.44228546  0.16666667  0.06826878  1
  O  O127  1  1.44228546  0.16666667  0.56826878  1
  O  O128  1  1.44228546  0.50000000  0.06826878  1
  O  O129  1  1.44228546  0.50000000  0.56826878  1
  O  O130  1  1.44228546  0.83333333  0.06826878  1
  O  O131  1  1.44228546  0.83333333  0.56826878  1
  O  O132  1  0.05771454  -0.00000000  0.43173122  1
  O  O133  1  0.05771454  -0.00000000  0.93173122  1
  O  O134  1  0.05771454  0.33333333  0.43173122  1
  O  O135  1  0.05771454  0.33333333  0.93173122  1
  O  O136  1  0.05771454  0.66666667  0.43173122  1
  O  O137  1  0.05771454  0.66666667  0.93173122  1
  O  O138  1  0.55771454  0.16666667  0.43173122  1
  O  O139  1  0.55771454  0.16666667  0.93173122  1
  O  O140  1  0.55771454  0.50000000  0.43173122  1
  O  O141  1  0.55771454  0.50000000  0.93173122  1
  O  O142  1  0.55771454  0.83333333  0.43173122  1
  O  O143  1  0.55771454  0.83333333  0.93173122  1
