# generated using pymatgen
data_Sr4PtO6
_symmetry_space_group_name_H-M   'P 1'
_cell_length_a   9.69658062
_cell_length_b   9.69658062
_cell_length_c   11.86048357
_cell_angle_alpha   90.00000000
_cell_angle_beta   90.00000000
_cell_angle_gamma   120.00000000
_symmetry_Int_Tables_number   1
_chemical_formula_structural   Sr4PtO6
_chemical_formula_sum   'Sr24 Pt6 O36'
_cell_volume   965.76231165
_cell_formula_units_Z   6
loop_
 _symmetry_equiv_pos_site_id
 _symmetry_equiv_pos_as_xyz
  1  'x, y, z'
loop_
 _atom_site_type_symbol
 _atom_site_label
 _atom_site_symmetry_multiplicity
 _atom_site_fract_x
 _atom_site_fract_y
 _atom_site_fract_z
 _atom_site_occupancy
  Sr  Sr0  1  -0.29903912  -0.33333333  0.41666667  1
  Sr  Sr1  1  0.36762755  0.00000000  0.75000000  1
  Sr  Sr2  1  0.03429421  0.33333333  1.08333333  1
  Sr  Sr3  1  0.33333333  0.03429421  0.41666667  1
  Sr  Sr4  1  1.00000000  0.36762755  0.75000000  1
  Sr  Sr5  1  0.66666667  0.70096088  1.08333333  1
  Sr  Sr6  1  -0.03429421  0.29903912  0.41666667  1
  Sr  Sr7  1  0.63237245  0.63237245  0.75000000  1
  Sr  Sr8  1  0.29903912  0.96570579  1.08333333  1
  Sr  Sr9  1  0.29903912  0.33333333  0.58333333  1
  Sr  Sr10  1  0.96570579  0.66666667  0.91666667  1
  Sr  Sr11  1  0.63237245  1.00000000  1.25000000  1
  Sr  Sr12  1  -0.33333333  -0.03429421  0.58333333  1
  Sr  Sr13  1  0.33333333  0.29903912  0.91666667  1
  Sr  Sr14  1  -0.00000000  0.63237245  1.25000000  1
  Sr  Sr15  1  0.03429421  -0.29903912  0.58333333  1
  Sr  Sr16  1  0.70096088  0.03429421  0.91666667  1
  Sr  Sr17  1  0.36762755  0.36762755  1.25000000  1
  Sr  Sr18  1  0.00000000  0.00000000  0.75000000  1
  Sr  Sr19  1  0.66666667  0.33333333  1.08333333  1
  Sr  Sr20  1  0.33333333  0.66666667  1.41666667  1
  Sr  Sr21  1  -0.00000000  -0.00000000  0.25000000  1
  Sr  Sr22  1  0.66666667  0.33333333  0.58333333  1
  Sr  Sr23  1  0.33333333  0.66666667  0.91666667  1
  Pt  Pt24  1  -0.00000000  -0.00000000  0.50000000  1
  Pt  Pt25  1  0.66666667  0.33333333  0.83333333  1
  Pt  Pt26  1  0.33333333  0.66666667  1.16666667  1
  Pt  Pt27  1  -0.00000000  -0.00000000  -0.00000000  1
  Pt  Pt28  1  0.66666667  0.33333333  0.33333333  1
  Pt  Pt29  1  0.33333333  0.66666667  0.66666667  1
  O  O30  1  0.18559574  0.02687994  0.60003744  1
  O  O31  1  0.85226241  0.36021327  0.93337077  1
  O  O32  1  0.51892907  0.69354661  1.26670411  1
  O  O33  1  -0.02687994  0.15871580  0.60003744  1
  O  O34  1  0.63978673  0.49204913  0.93337077  1
  O  O35  1  0.30645339  0.82538247  1.26670411  1
  O  O36  1  -0.15871580  -0.18559574  0.60003744  1
  O  O37  1  0.50795087  0.14773759  0.93337077  1
  O  O38  1  0.17461753  0.48107093  1.26670411  1
  O  O39  1  -0.50795087  -0.36021327  0.56662923  1
  O  O40  1  0.15871580  -0.02687994  0.89996256  1
  O  O41  1  -0.17461753  0.30645339  1.23329589  1
  O  O42  1  0.36021327  -0.14773759  0.56662923  1
  O  O43  1  1.02687994  0.18559574  0.89996256  1
  O  O44  1  0.69354661  0.51892907  1.23329589  1
  O  O45  1  0.14773759  0.50795087  0.56662923  1
  O  O46  1  0.81440426  0.84128420  0.89996256  1
  O  O47  1  0.48107093  1.17461753  1.23329589  1
  O  O48  1  -0.18559574  -0.02687994  0.39996256  1
  O  O49  1  0.48107093  0.30645339  0.73329589  1
  O  O50  1  0.14773759  0.63978673  1.06662923  1
  O  O51  1  0.02687994  -0.15871580  0.39996256  1
  O  O52  1  0.69354661  0.17461753  0.73329589  1
  O  O53  1  0.36021327  0.50795087  1.06662923  1
  O  O54  1  0.15871580  0.18559574  0.39996256  1
  O  O55  1  0.82538247  0.51892907  0.73329589  1
  O  O56  1  0.49204913  0.85226241  1.06662923  1
  O  O57  1  0.50795087  0.36021327  0.43337077  1
  O  O58  1  1.17461753  0.69354661  0.76670411  1
  O  O59  1  0.84128420  1.02687994  1.10003744  1
  O  O60  1  -0.14773759  -0.50795087  0.43337077  1
  O  O61  1  0.51892907  -0.17461753  0.76670411  1
  O  O62  1  0.18559574  0.15871580  1.10003744  1
  O  O63  1  -0.36021327  0.14773759  0.43337077  1
  O  O64  1  0.30645339  0.48107093  0.76670411  1
  O  O65  1  -0.02687994  0.81440426  1.10003744  1
