# generated using pymatgen
data_LiTaO3
_symmetry_space_group_name_H-M   'P 1'
_cell_length_a   15.43920240
_cell_length_b   15.43920240
_cell_length_c   13.77467858
_cell_angle_alpha   90.00000000
_cell_angle_beta   90.00000000
_cell_angle_gamma   120.00000000
_symmetry_Int_Tables_number   1
_chemical_formula_structural   LiTaO3
_chemical_formula_sum   'Li54 Ta54 O162'
_cell_volume   2843.55626764
_cell_formula_units_Z   54
loop_
 _symmetry_equiv_pos_site_id
 _symmetry_equiv_pos_as_xyz
  1  'x, y, z'
loop_
 _atom_site_type_symbol
 _atom_site_label
 _atom_site_symmetry_multiplicity
 _atom_site_fract_x
 _atom_site_fract_y
 _atom_site_fract_z
 _atom_site_occupancy
  Li  Li0  1  -0.00000000  -0.00000000  0.71826664  1
  Li  Li1  1  -0.00000000  0.33333333  0.71826664  1
  Li  Li2  1  -0.00000000  0.66666667  0.71826664  1
  Li  Li3  1  0.33333333  -0.00000000  0.71826664  1
  Li  Li4  1  0.33333333  0.33333333  0.71826664  1
  Li  Li5  1  0.33333333  0.66666667  0.71826664  1
  Li  Li6  1  0.66666667  -0.00000000  0.71826664  1
  Li  Li7  1  0.66666667  0.33333333  0.71826664  1
  Li  Li8  1  0.66666667  0.66666667  0.71826664  1
  Li  Li9  1  0.22222222  0.11111111  1.05159998  1
  Li  Li10  1  0.22222222  0.44444444  1.05159998  1
  Li  Li11  1  0.22222222  0.77777778  1.05159998  1
  Li  Li12  1  0.55555556  0.11111111  1.05159998  1
  Li  Li13  1  0.55555556  0.44444444  1.05159998  1
  Li  Li14  1  0.55555556  0.77777778  1.05159998  1
  Li  Li15  1  0.88888889  0.11111111  1.05159998  1
  Li  Li16  1  0.88888889  0.44444444  1.05159998  1
  Li  Li17  1  0.88888889  0.77777778  1.05159998  1
  Li  Li18  1  0.11111111  0.22222222  1.38493331  1
  Li  Li19  1  0.11111111  0.55555556  1.38493331  1
  Li  Li20  1  0.11111111  0.88888889  1.38493331  1
  Li  Li21  1  0.44444444  0.22222222  1.38493331  1
  Li  Li22  1  0.44444444  0.55555556  1.38493331  1
  Li  Li23  1  0.44444444  0.88888889  1.38493331  1
  Li  Li24  1  0.77777778  0.22222222  1.38493331  1
  Li  Li25  1  0.77777778  0.55555556  1.38493331  1
  Li  Li26  1  0.77777778  0.88888889  1.38493331  1
  Li  Li27  1  -0.00000000  -0.00000000  0.21826664  1
  Li  Li28  1  0.00000000  0.33333333  0.21826664  1
  Li  Li29  1  0.00000000  0.66666667  0.21826664  1
  Li  Li30  1  0.33333333  -0.00000000  0.21826664  1
  Li  Li31  1  0.33333333  0.33333333  0.21826664  1
  Li  Li32  1  0.33333333  0.66666667  0.21826664  1
  Li  Li33  1  0.66666667  -0.00000000  0.21826664  1
  Li  Li34  1  0.66666667  0.33333333  0.21826664  1
  Li  Li35  1  0.66666667  0.66666667  0.21826664  1
  Li  Li36  1  0.22222222  0.11111111  0.55159998  1
  Li  Li37  1  0.22222222  0.44444444  0.55159998  1
  Li  Li38  1  0.22222222  0.77777778  0.55159998  1
  Li  Li39  1  0.55555556  0.11111111  0.55159998  1
  Li  Li40  1  0.55555556  0.44444444  0.55159998  1
  Li  Li41  1  0.55555556  0.77777778  0.55159998  1
  Li  Li42  1  0.88888889  0.11111111  0.55159998  1
  Li  Li43  1  0.88888889  0.44444444  0.55159998  1
  Li  Li44  1  0.88888889  0.77777778  0.55159998  1
  Li  Li45  1  0.11111111  0.22222222  0.88493331  1
  Li  Li46  1  0.11111111  0.55555556  0.88493331  1
  Li  Li47  1  0.11111111  0.88888889  0.88493331  1
  Li  Li48  1  0.44444444  0.22222222  0.88493331  1
  Li  Li49  1  0.44444444  0.55555556  0.88493331  1
  Li  Li50  1  0.44444444  0.88888889  0.88493331  1
  Li  Li51  1  0.77777778  0.22222222  0.88493331  1
  Li  Li52  1  0.77777778  0.55555556  0.88493331  1
  Li  Li53  1  0.77777778  0.88888889  0.88493331  1
  Ta  Ta54  1  -0.00000000  -0.00000000  0.00144489  1
  Ta  Ta55  1  0.00000000  0.33333333  0.00144489  1
  Ta  Ta56  1  0.00000000  0.66666667  0.00144489  1
  Ta  Ta57  1  0.33333333  -0.00000000  0.00144489  1
  Ta  Ta58  1  0.33333333  0.33333333  0.00144489  1
  Ta  Ta59  1  0.33333333  0.66666667  0.00144489  1
  Ta  Ta60  1  0.66666667  -0.00000000  0.00144489  1
  Ta  Ta61  1  0.66666667  0.33333333  0.00144489  1
  Ta  Ta62  1  0.66666667  0.66666667  0.00144489  1
  Ta  Ta63  1  0.22222222  0.11111111  0.33477822  1
  Ta  Ta64  1  0.22222222  0.44444444  0.33477822  1
  Ta  Ta65  1  0.22222222  0.77777778  0.33477822  1
  Ta  Ta66  1  0.55555556  0.11111111  0.33477822  1
  Ta  Ta67  1  0.55555556  0.44444444  0.33477822  1
  Ta  Ta68  1  0.55555556  0.77777778  0.33477822  1
  Ta  Ta69  1  0.88888889  0.11111111  0.33477822  1
  Ta  Ta70  1  0.88888889  0.44444444  0.33477822  1
  Ta  Ta71  1  0.88888889  0.77777778  0.33477822  1
  Ta  Ta72  1  0.11111111  0.22222222  0.66811156  1
  Ta  Ta73  1  0.11111111  0.55555556  0.66811156  1
  Ta  Ta74  1  0.11111111  0.88888889  0.66811156  1
  Ta  Ta75  1  0.44444444  0.22222222  0.66811156  1
  Ta  Ta76  1  0.44444444  0.55555556  0.66811156  1
  Ta  Ta77  1  0.44444444  0.88888889  0.66811156  1
  Ta  Ta78  1  0.77777778  0.22222222  0.66811156  1
  Ta  Ta79  1  0.77777778  0.55555556  0.66811156  1
  Ta  Ta80  1  0.77777778  0.88888889  0.66811156  1
  Ta  Ta81  1  -0.00000000  -0.00000000  0.50144489  1
  Ta  Ta82  1  -0.00000000  0.33333333  0.50144489  1
  Ta  Ta83  1  0.00000000  0.66666667  0.50144489  1
  Ta  Ta84  1  0.33333333  -0.00000000  0.50144489  1
  Ta  Ta85  1  0.33333333  0.33333333  0.50144489  1
  Ta  Ta86  1  0.33333333  0.66666667  0.50144489  1
  Ta  Ta87  1  0.66666667  -0.00000000  0.50144489  1
  Ta  Ta88  1  0.66666667  0.33333333  0.50144489  1
  Ta  Ta89  1  0.66666667  0.66666667  0.50144489  1
  Ta  Ta90  1  0.22222222  0.11111111  0.83477822  1
  Ta  Ta91  1  0.22222222  0.44444444  0.83477822  1
  Ta  Ta92  1  0.22222222  0.77777778  0.83477822  1
  Ta  Ta93  1  0.55555556  0.11111111  0.83477822  1
  Ta  Ta94  1  0.55555556  0.44444444  0.83477822  1
  Ta  Ta95  1  0.55555556  0.77777778  0.83477822  1
  Ta  Ta96  1  0.88888889  0.11111111  0.83477822  1
  Ta  Ta97  1  0.88888889  0.44444444  0.83477822  1
  Ta  Ta98  1  0.88888889  0.77777778  0.83477822  1
  Ta  Ta99  1  0.11111111  0.22222222  1.16811156  1
  Ta  Ta100  1  0.11111111  0.55555556  1.16811156  1
  Ta  Ta101  1  0.11111111  0.88888889  1.16811156  1
  Ta  Ta102  1  0.44444444  0.22222222  1.16811156  1
  Ta  Ta103  1  0.44444444  0.55555556  1.16811156  1
  Ta  Ta104  1  0.44444444  0.88888889  1.16811156  1
  Ta  Ta105  1  0.77777778  0.22222222  1.16811156  1
  Ta  Ta106  1  0.77777778  0.55555556  1.16811156  1
  Ta  Ta107  1  0.77777778  0.88888889  1.16811156  1
  O  O108  1  0.11462309  0.01604214  0.43069582  1
  O  O109  1  0.11462309  0.34937548  0.43069582  1
  O  O110  1  0.11462309  0.68270881  0.43069582  1
  O  O111  1  0.44795643  0.01604214  0.43069582  1
  O  O112  1  0.44795643  0.34937548  0.43069582  1
  O  O113  1  0.44795643  0.68270881  0.43069582  1
  O  O114  1  0.78128976  0.01604214  0.43069582  1
  O  O115  1  0.78128976  0.34937548  0.43069582  1
  O  O116  1  0.78128976  0.68270881  0.43069582  1
  O  O117  1  0.33684531  0.12715325  0.76402916  1
  O  O118  1  0.33684531  0.46048659  0.76402916  1
  O  O119  1  0.33684531  0.79381992  0.76402916  1
  O  O120  1  0.67017865  0.12715325  0.76402916  1
  O  O121  1  0.67017865  0.46048659  0.76402916  1
  O  O122  1  0.67017865  0.79381992  0.76402916  1
  O  O123  1  1.00351198  0.12715325  0.76402916  1
  O  O124  1  1.00351198  0.46048659  0.76402916  1
  O  O125  1  1.00351198  0.79381992  0.76402916  1
  O  O126  1  0.22573420  0.23826437  1.09736249  1
  O  O127  1  0.22573420  0.57159770  1.09736249  1
  O  O128  1  0.22573420  0.90493103  1.09736249  1
  O  O129  1  0.55906754  0.23826437  1.09736249  1
  O  O130  1  0.55906754  0.57159770  1.09736249  1
  O  O131  1  0.55906754  0.90493103  1.09736249  1
  O  O132  1  0.89240087  0.23826437  1.09736249  1
  O  O133  1  0.89240087  0.57159770  1.09736249  1
  O  O134  1  0.89240087  0.90493103  1.09736249  1
  O  O135  1  0.09506897  0.10759913  0.59736249  1
  O  O136  1  0.09506897  0.44093246  0.59736249  1
  O  O137  1  0.09506897  0.77426580  0.59736249  1
  O  O138  1  0.42840230  0.10759913  0.59736249  1
  O  O139  1  0.42840230  0.44093246  0.59736249  1
  O  O140  1  0.42840230  0.77426580  0.59736249  1
  O  O141  1  0.76173563  0.10759913  0.59736249  1
  O  O142  1  0.76173563  0.44093246  0.59736249  1
  O  O143  1  0.76173563  0.77426580  0.59736249  1
  O  O144  1  0.31729119  0.21871024  0.93069582  1
  O  O145  1  0.31729119  0.55204357  0.93069582  1
  O  O146  1  0.31729119  0.88537691  0.93069582  1
  O  O147  1  0.65062452  0.21871024  0.93069582  1
  O  O148  1  0.65062452  0.55204357  0.93069582  1
  O  O149  1  0.65062452  0.88537691  0.93069582  1
  O  O150  1  0.98395786  0.21871024  0.93069582  1
  O  O151  1  0.98395786  0.55204357  0.93069582  1
  O  O152  1  0.98395786  0.88537691  0.93069582  1
  O  O153  1  0.20618008  0.32982135  1.26402916  1
  O  O154  1  0.20618008  0.66315469  1.26402916  1
  O  O155  1  0.20618008  0.99648802  1.26402916  1
  O  O156  1  0.53951341  0.32982135  1.26402916  1
  O  O157  1  0.53951341  0.66315469  1.26402916  1
  O  O158  1  0.53951341  0.99648802  1.26402916  1
  O  O159  1  0.87284675  0.32982135  1.26402916  1
  O  O160  1  0.87284675  0.66315469  1.26402916  1
  O  O161  1  0.87284675  0.99648802  1.26402916  1
  O  O162  1  0.01253016  -0.09506897  0.59736249  1
  O  O163  1  0.01253016  0.23826437  0.59736249  1
  O  O164  1  0.01253016  0.57159770  0.59736249  1
  O  O165  1  0.34586350  -0.09506897  0.59736249  1
  O  O166  1  0.34586350  0.23826437  0.59736249  1
  O  O167  1  0.34586350  0.57159770  0.59736249  1
  O  O168  1  0.67919683  -0.09506897  0.59736249  1
  O  O169  1  0.67919683  0.23826437  0.59736249  1
  O  O170  1  0.67919683  0.57159770  0.59736249  1
  O  O171  1  0.23475238  0.01604214  0.93069582  1
  O  O172  1  0.23475238  0.34937548  0.93069582  1
  O  O173  1  0.23475238  0.68270881  0.93069582  1
  O  O174  1  0.56808572  0.01604214  0.93069582  1
  O  O175  1  0.56808572  0.34937548  0.93069582  1
  O  O176  1  0.56808572  0.68270881  0.93069582  1
  O  O177  1  0.90141905  0.01604214  0.93069582  1
  O  O178  1  0.90141905  0.34937548  0.93069582  1
  O  O179  1  0.90141905  0.68270881  0.93069582  1
  O  O180  1  0.12364127  0.12715325  1.26402916  1
  O  O181  1  0.12364127  0.46048659  1.26402916  1
  O  O182  1  0.12364127  0.79381992  1.26402916  1
  O  O183  1  0.45697461  0.12715325  1.26402916  1
  O  O184  1  0.45697461  0.46048659  1.26402916  1
  O  O185  1  0.45697461  0.79381992  1.26402916  1
  O  O186  1  0.79030794  0.12715325  1.26402916  1
  O  O187  1  0.79030794  0.46048659  1.26402916  1
  O  O188  1  0.79030794  0.79381992  1.26402916  1
  O  O189  1  -0.10759913  -0.01253016  0.59736249  1
  O  O190  1  -0.10759913  0.32080317  0.59736249  1
  O  O191  1  -0.10759913  0.65413650  0.59736249  1
  O  O192  1  0.22573420  -0.01253016  0.59736249  1
  O  O193  1  0.22573420  0.32080317  0.59736249  1
  O  O194  1  0.22573420  0.65413650  0.59736249  1
  O  O195  1  0.55906754  -0.01253016  0.59736249  1
  O  O196  1  0.55906754  0.32080317  0.59736249  1
  O  O197  1  0.55906754  0.65413650  0.59736249  1
  O  O198  1  0.11462309  0.09858095  0.93069582  1
  O  O199  1  0.11462309  0.43191428  0.93069582  1
  O  O200  1  0.11462309  0.76524762  0.93069582  1
  O  O201  1  0.44795643  0.09858095  0.93069582  1
  O  O202  1  0.44795643  0.43191428  0.93069582  1
  O  O203  1  0.44795643  0.76524762  0.93069582  1
  O  O204  1  0.78128976  0.09858095  0.93069582  1
  O  O205  1  0.78128976  0.43191428  0.93069582  1
  O  O206  1  0.78128976  0.76524762  0.93069582  1
  O  O207  1  0.00351198  0.20969206  1.26402916  1
  O  O208  1  0.00351198  0.54302539  1.26402916  1
  O  O209  1  0.00351198  0.87635873  1.26402916  1
  O  O210  1  0.33684531  0.20969206  1.26402916  1
  O  O211  1  0.33684531  0.54302539  1.26402916  1
  O  O212  1  0.33684531  0.87635873  1.26402916  1
  O  O213  1  0.67017865  0.20969206  1.26402916  1
  O  O214  1  0.67017865  0.54302539  1.26402916  1
  O  O215  1  0.67017865  0.87635873  1.26402916  1
  O  O216  1  -0.01604214  0.09858095  0.43069582  1
  O  O217  1  -0.01604214  0.43191428  0.43069582  1
  O  O218  1  -0.01604214  0.76524762  0.43069582  1
  O  O219  1  0.31729119  0.09858095  0.43069582  1
  O  O220  1  0.31729119  0.43191428  0.43069582  1
  O  O221  1  0.31729119  0.76524762  0.43069582  1
  O  O222  1  0.65062452  0.09858095  0.43069582  1
  O  O223  1  0.65062452  0.43191428  0.43069582  1
  O  O224  1  0.65062452  0.76524762  0.43069582  1
  O  O225  1  0.20618008  0.20969206  0.76402916  1
  O  O226  1  0.20618008  0.54302539  0.76402916  1
  O  O227  1  0.20618008  0.87635873  0.76402916  1
  O  O228  1  0.53951341  0.20969206  0.76402916  1
  O  O229  1  0.53951341  0.54302539  0.76402916  1
  O  O230  1  0.53951341  0.87635873  0.76402916  1
  O  O231  1  0.87284675  0.20969206  0.76402916  1
  O  O232  1  0.87284675  0.54302539  0.76402916  1
  O  O233  1  0.87284675  0.87635873  0.76402916  1
  O  O234  1  0.09506897  0.32080317  1.09736249  1
  O  O235  1  0.09506897  0.65413650  1.09736249  1
  O  O236  1  0.09506897  0.98746984  1.09736249  1
  O  O237  1  0.42840230  0.32080317  1.09736249  1
  O  O238  1  0.42840230  0.65413650  1.09736249  1
  O  O239  1  0.42840230  0.98746984  1.09736249  1
  O  O240  1  0.76173563  0.32080317  1.09736249  1
  O  O241  1  0.76173563  0.65413650  1.09736249  1
  O  O242  1  0.76173563  0.98746984  1.09736249  1
  O  O243  1  -0.09858095  -0.11462309  0.43069582  1
  O  O244  1  -0.09858095  0.21871024  0.43069582  1
  O  O245  1  -0.09858095  0.55204357  0.43069582  1
  O  O246  1  0.23475238  -0.11462309  0.43069582  1
  O  O247  1  0.23475238  0.21871024  0.43069582  1
  O  O248  1  0.23475238  0.55204357  0.43069582  1
  O  O249  1  0.56808572  -0.11462309  0.43069582  1
  O  O250  1  0.56808572  0.21871024  0.43069582  1
  O  O251  1  0.56808572  0.55204357  0.43069582  1
  O  O252  1  0.12364127  -0.00351198  0.76402916  1
  O  O253  1  0.12364127  0.32982135  0.76402916  1
  O  O254  1  0.12364127  0.66315469  0.76402916  1
  O  O255  1  0.45697461  -0.00351198  0.76402916  1
  O  O256  1  0.45697461  0.32982135  0.76402916  1
  O  O257  1  0.45697461  0.66315469  0.76402916  1
  O  O258  1  0.79030794  -0.00351198  0.76402916  1
  O  O259  1  0.79030794  0.32982135  0.76402916  1
  O  O260  1  0.79030794  0.66315469  0.76402916  1
  O  O261  1  0.01253016  0.10759913  1.09736249  1
  O  O262  1  0.01253016  0.44093246  1.09736249  1
  O  O263  1  0.01253016  0.77426580  1.09736249  1
  O  O264  1  0.34586350  0.10759913  1.09736249  1
  O  O265  1  0.34586350  0.44093246  1.09736249  1
  O  O266  1  0.34586350  0.77426580  1.09736249  1
  O  O267  1  0.67919683  0.10759913  1.09736249  1
  O  O268  1  0.67919683  0.44093246  1.09736249  1
  O  O269  1  0.67919683  0.77426580  1.09736249  1
