# generated using pymatgen
data_Sr2LaBiO6
_symmetry_space_group_name_H-M   'P 1'
_cell_length_a   17.90861526
_cell_length_b   18.51614250
_cell_length_c   20.82408356
_cell_angle_alpha   90.00000000
_cell_angle_beta   124.67336530
_cell_angle_gamma   90.00000000
_symmetry_Int_Tables_number   1
_chemical_formula_structural   Sr2LaBiO6
_chemical_formula_sum   'Sr72 La36 Bi36 O216'
_cell_volume   5678.92399511
_cell_formula_units_Z   36
loop_
 _symmetry_equiv_pos_site_id
 _symmetry_equiv_pos_as_xyz
  1  'x, y, z'
loop_
 _atom_site_type_symbol
 _atom_site_label
 _atom_site_symmetry_multiplicity
 _atom_site_fract_x
 _atom_site_fract_y
 _atom_site_fract_z
 _atom_site_occupancy
  Sr  Sr0  1  0.25456258  0.01668877  0.37425575  1
  Sr  Sr1  1  0.25456258  0.01668877  0.87425575  1
  Sr  Sr2  1  0.25456258  0.35002210  0.37425575  1
  Sr  Sr3  1  0.25456258  0.35002210  0.87425575  1
  Sr  Sr4  1  0.25456258  0.68335544  0.37425575  1
  Sr  Sr5  1  0.25456258  0.68335544  0.87425575  1
  Sr  Sr6  1  0.58789591  0.01668877  0.37425575  1
  Sr  Sr7  1  0.58789591  0.01668877  0.87425575  1
  Sr  Sr8  1  0.58789591  0.35002210  0.37425575  1
  Sr  Sr9  1  0.58789591  0.35002210  0.87425575  1
  Sr  Sr10  1  0.58789591  0.68335544  0.37425575  1
  Sr  Sr11  1  0.58789591  0.68335544  0.87425575  1
  Sr  Sr12  1  0.92122924  0.01668877  0.37425575  1
  Sr  Sr13  1  0.92122924  0.01668877  0.87425575  1
  Sr  Sr14  1  0.92122924  0.35002210  0.37425575  1
  Sr  Sr15  1  0.92122924  0.35002210  0.87425575  1
  Sr  Sr16  1  0.92122924  0.68335544  0.37425575  1
  Sr  Sr17  1  0.92122924  0.68335544  0.87425575  1
  Sr  Sr18  1  0.07877076  0.18335544  0.37574425  1
  Sr  Sr19  1  0.07877076  0.18335544  0.87574425  1
  Sr  Sr20  1  0.07877076  0.51668877  0.37574425  1
  Sr  Sr21  1  0.07877076  0.51668877  0.87574425  1
  Sr  Sr22  1  0.07877076  0.85002210  0.37574425  1
  Sr  Sr23  1  0.07877076  0.85002210  0.87574425  1
  Sr  Sr24  1  0.41210409  0.18335544  0.37574425  1
  Sr  Sr25  1  0.41210409  0.18335544  0.87574425  1
  Sr  Sr26  1  0.41210409  0.51668877  0.37574425  1
  Sr  Sr27  1  0.41210409  0.51668877  0.87574425  1
  Sr  Sr28  1  0.41210409  0.85002210  0.37574425  1
  Sr  Sr29  1  0.41210409  0.85002210  0.87574425  1
  Sr  Sr30  1  0.74543742  0.18335544  0.37574425  1
  Sr  Sr31  1  0.74543742  0.18335544  0.87574425  1
  Sr  Sr32  1  0.74543742  0.51668877  0.37574425  1
  Sr  Sr33  1  0.74543742  0.51668877  0.87574425  1
  Sr  Sr34  1  0.74543742  0.85002210  0.37574425  1
  Sr  Sr35  1  0.74543742  0.85002210  0.87574425  1
  Sr  Sr36  1  0.07877076  0.31664456  0.12574425  1
  Sr  Sr37  1  0.07877076  0.31664456  0.62574425  1
  Sr  Sr38  1  0.07877076  0.64997790  0.12574425  1
  Sr  Sr39  1  0.07877076  0.64997790  0.62574425  1
  Sr  Sr40  1  0.07877076  0.98331123  0.12574425  1
  Sr  Sr41  1  0.07877076  0.98331123  0.62574425  1
  Sr  Sr42  1  0.41210409  0.31664456  0.12574425  1
  Sr  Sr43  1  0.41210409  0.31664456  0.62574425  1
  Sr  Sr44  1  0.41210409  0.64997790  0.12574425  1
  Sr  Sr45  1  0.41210409  0.64997790  0.62574425  1
  Sr  Sr46  1  0.41210409  0.98331123  0.12574425  1
  Sr  Sr47  1  0.41210409  0.98331123  0.62574425  1
  Sr  Sr48  1  0.74543742  0.31664456  0.12574425  1
  Sr  Sr49  1  0.74543742  0.31664456  0.62574425  1
  Sr  Sr50  1  0.74543742  0.64997790  0.12574425  1
  Sr  Sr51  1  0.74543742  0.64997790  0.62574425  1
  Sr  Sr52  1  0.74543742  0.98331123  0.12574425  1
  Sr  Sr53  1  0.74543742  0.98331123  0.62574425  1
  Sr  Sr54  1  0.25456258  0.14997790  0.12425575  1
  Sr  Sr55  1  0.25456258  0.14997790  0.62425575  1
  Sr  Sr56  1  0.25456258  0.48331123  0.12425575  1
  Sr  Sr57  1  0.25456258  0.48331123  0.62425575  1
  Sr  Sr58  1  0.25456258  0.81664456  0.12425575  1
  Sr  Sr59  1  0.25456258  0.81664456  0.62425575  1
  Sr  Sr60  1  0.58789591  0.14997790  0.12425575  1
  Sr  Sr61  1  0.58789591  0.14997790  0.62425575  1
  Sr  Sr62  1  0.58789591  0.48331123  0.12425575  1
  Sr  Sr63  1  0.58789591  0.48331123  0.62425575  1
  Sr  Sr64  1  0.58789591  0.81664456  0.12425575  1
  Sr  Sr65  1  0.58789591  0.81664456  0.62425575  1
  Sr  Sr66  1  0.92122924  0.14997790  0.12425575  1
  Sr  Sr67  1  0.92122924  0.14997790  0.62425575  1
  Sr  Sr68  1  0.92122924  0.48331123  0.12425575  1
  Sr  Sr69  1  0.92122924  0.48331123  0.62425575  1
  Sr  Sr70  1  0.92122924  0.81664456  0.12425575  1
  Sr  Sr71  1  0.92122924  0.81664456  0.62425575  1
  La  La72  1  0.16666667  0.16666667  0.25000000  1
  La  La73  1  0.16666667  0.16666667  0.75000000  1
  La  La74  1  0.16666667  0.50000000  0.25000000  1
  La  La75  1  0.16666667  0.50000000  0.75000000  1
  La  La76  1  0.16666667  0.83333333  0.25000000  1
  La  La77  1  0.16666667  0.83333333  0.75000000  1
  La  La78  1  0.50000000  0.16666667  0.25000000  1
  La  La79  1  0.50000000  0.16666667  0.75000000  1
  La  La80  1  0.50000000  0.50000000  0.25000000  1
  La  La81  1  0.50000000  0.50000000  0.75000000  1
  La  La82  1  0.50000000  0.83333333  0.25000000  1
  La  La83  1  0.50000000  0.83333333  0.75000000  1
  La  La84  1  0.83333333  0.16666667  0.25000000  1
  La  La85  1  0.83333333  0.16666667  0.75000000  1
  La  La86  1  0.83333333  0.50000000  0.25000000  1
  La  La87  1  0.83333333  0.50000000  0.75000000  1
  La  La88  1  0.83333333  0.83333333  0.25000000  1
  La  La89  1  0.83333333  0.83333333  0.75000000  1
  La  La90  1  0.16666667  0.00000000  0.00000000  1
  La  La91  1  0.16666667  0.00000000  0.50000000  1
  La  La92  1  0.16666667  0.33333333  0.00000000  1
  La  La93  1  0.16666667  0.33333333  0.50000000  1
  La  La94  1  0.16666667  0.66666667  0.00000000  1
  La  La95  1  0.16666667  0.66666667  0.50000000  1
  La  La96  1  0.50000000  0.00000000  0.00000000  1
  La  La97  1  0.50000000  0.00000000  0.50000000  1
  La  La98  1  0.50000000  0.33333333  0.00000000  1
  La  La99  1  0.50000000  0.33333333  0.50000000  1
  La  La100  1  0.50000000  0.66666667  0.00000000  1
  La  La101  1  0.50000000  0.66666667  0.50000000  1
  La  La102  1  0.83333333  0.00000000  0.00000000  1
  La  La103  1  0.83333333  0.00000000  0.50000000  1
  La  La104  1  0.83333333  0.33333333  0.00000000  1
  La  La105  1  0.83333333  0.33333333  0.50000000  1
  La  La106  1  0.83333333  0.66666667  0.00000000  1
  La  La107  1  0.83333333  0.66666667  0.50000000  1
  Bi  Bi108  1  -0.00000000  0.00000000  0.25000000  1
  Bi  Bi109  1  -0.00000000  0.00000000  0.75000000  1
  Bi  Bi110  1  -0.00000000  0.33333333  0.25000000  1
  Bi  Bi111  1  -0.00000000  0.33333333  0.75000000  1
  Bi  Bi112  1  -0.00000000  0.66666667  0.25000000  1
  Bi  Bi113  1  -0.00000000  0.66666667  0.75000000  1
  Bi  Bi114  1  0.33333333  0.00000000  0.25000000  1
  Bi  Bi115  1  0.33333333  0.00000000  0.75000000  1
  Bi  Bi116  1  0.33333333  0.33333333  0.25000000  1
  Bi  Bi117  1  0.33333333  0.33333333  0.75000000  1
  Bi  Bi118  1  0.33333333  0.66666667  0.25000000  1
  Bi  Bi119  1  0.33333333  0.66666667  0.75000000  1
  Bi  Bi120  1  0.66666667  0.00000000  0.25000000  1
  Bi  Bi121  1  0.66666667  0.00000000  0.75000000  1
  Bi  Bi122  1  0.66666667  0.33333333  0.25000000  1
  Bi  Bi123  1  0.66666667  0.33333333  0.75000000  1
  Bi  Bi124  1  0.66666667  0.66666667  0.25000000  1
  Bi  Bi125  1  0.66666667  0.66666667  0.75000000  1
  Bi  Bi126  1  0.00000000  0.16666667  0.00000000  1
  Bi  Bi127  1  -0.00000000  0.16666667  0.50000000  1
  Bi  Bi128  1  0.00000000  0.50000000  0.00000000  1
  Bi  Bi129  1  -0.00000000  0.50000000  0.50000000  1
  Bi  Bi130  1  0.00000000  0.83333333  0.00000000  1
  Bi  Bi131  1  -0.00000000  0.83333333  0.50000000  1
  Bi  Bi132  1  0.33333333  0.16666667  0.00000000  1
  Bi  Bi133  1  0.33333333  0.16666667  0.50000000  1
  Bi  Bi134  1  0.33333333  0.50000000  0.00000000  1
  Bi  Bi135  1  0.33333333  0.50000000  0.50000000  1
  Bi  Bi136  1  0.33333333  0.83333333  0.00000000  1
  Bi  Bi137  1  0.33333333  0.83333333  0.50000000  1
  Bi  Bi138  1  0.66666667  0.16666667  0.00000000  1
  Bi  Bi139  1  0.66666667  0.16666667  0.50000000  1
  Bi  Bi140  1  0.66666667  0.50000000  0.00000000  1
  Bi  Bi141  1  0.66666667  0.50000000  0.50000000  1
  Bi  Bi142  1  0.66666667  0.83333333  0.00000000  1
  Bi  Bi143  1  0.66666667  0.83333333  0.50000000  1
  O  O144  1  0.04075358  0.23870366  0.21843857  1
  O  O145  1  0.04075358  0.23870366  0.71843857  1
  O  O146  1  0.04075358  0.57203700  0.21843857  1
  O  O147  1  0.04075358  0.57203700  0.71843857  1
  O  O148  1  0.04075358  0.90537033  0.21843857  1
  O  O149  1  0.04075358  0.90537033  0.71843857  1
  O  O150  1  0.37408691  0.23870366  0.21843857  1
  O  O151  1  0.37408691  0.23870366  0.71843857  1
  O  O152  1  0.37408691  0.57203700  0.21843857  1
  O  O153  1  0.37408691  0.57203700  0.71843857  1
  O  O154  1  0.37408691  0.90537033  0.21843857  1
  O  O155  1  0.37408691  0.90537033  0.71843857  1
  O  O156  1  0.70742024  0.23870366  0.21843857  1
  O  O157  1  0.70742024  0.23870366  0.71843857  1
  O  O158  1  0.70742024  0.57203700  0.21843857  1
  O  O159  1  0.70742024  0.57203700  0.71843857  1
  O  O160  1  0.70742024  0.90537033  0.21843857  1
  O  O161  1  0.70742024  0.90537033  0.71843857  1
  O  O162  1  0.29257976  0.07203700  0.03156143  1
  O  O163  1  0.29257976  0.07203700  0.53156143  1
  O  O164  1  0.29257976  0.40537033  0.03156143  1
  O  O165  1  0.29257976  0.40537033  0.53156143  1
  O  O166  1  0.29257976  0.73870366  0.03156143  1
  O  O167  1  0.29257976  0.73870366  0.53156143  1
  O  O168  1  0.62591309  0.07203700  0.03156143  1
  O  O169  1  0.62591309  0.07203700  0.53156143  1
  O  O170  1  0.62591309  0.40537033  0.03156143  1
  O  O171  1  0.62591309  0.40537033  0.53156143  1
  O  O172  1  0.62591309  0.73870366  0.03156143  1
  O  O173  1  0.62591309  0.73870366  0.53156143  1
  O  O174  1  0.95924642  0.07203700  0.03156143  1
  O  O175  1  0.95924642  0.07203700  0.53156143  1
  O  O176  1  0.95924642  0.40537033  0.03156143  1
  O  O177  1  0.95924642  0.40537033  0.53156143  1
  O  O178  1  0.95924642  0.73870366  0.03156143  1
  O  O179  1  0.95924642  0.73870366  0.53156143  1
  O  O180  1  0.29257976  0.09462967  0.28156143  1
  O  O181  1  0.29257976  0.09462967  0.78156143  1
  O  O182  1  0.29257976  0.42796300  0.28156143  1
  O  O183  1  0.29257976  0.42796300  0.78156143  1
  O  O184  1  0.29257976  0.76129634  0.28156143  1
  O  O185  1  0.29257976  0.76129634  0.78156143  1
  O  O186  1  0.62591309  0.09462967  0.28156143  1
  O  O187  1  0.62591309  0.09462967  0.78156143  1
  O  O188  1  0.62591309  0.42796300  0.28156143  1
  O  O189  1  0.62591309  0.42796300  0.78156143  1
  O  O190  1  0.62591309  0.76129634  0.28156143  1
  O  O191  1  0.62591309  0.76129634  0.78156143  1
  O  O192  1  0.95924642  0.09462967  0.28156143  1
  O  O193  1  0.95924642  0.09462967  0.78156143  1
  O  O194  1  0.95924642  0.42796300  0.28156143  1
  O  O195  1  0.95924642  0.42796300  0.78156143  1
  O  O196  1  0.95924642  0.76129634  0.28156143  1
  O  O197  1  0.95924642  0.76129634  0.78156143  1
  O  O198  1  0.04075358  0.26129634  0.46843857  1
  O  O199  1  0.04075358  0.26129634  0.96843857  1
  O  O200  1  0.04075358  0.59462967  0.46843857  1
  O  O201  1  0.04075358  0.59462967  0.96843857  1
  O  O202  1  0.04075358  0.92796300  0.46843857  1
  O  O203  1  0.04075358  0.92796300  0.96843857  1
  O  O204  1  0.37408691  0.26129634  0.46843857  1
  O  O205  1  0.37408691  0.26129634  0.96843857  1
  O  O206  1  0.37408691  0.59462967  0.46843857  1
  O  O207  1  0.37408691  0.59462967  0.96843857  1
  O  O208  1  0.37408691  0.92796300  0.46843857  1
  O  O209  1  0.37408691  0.92796300  0.96843857  1
  O  O210  1  0.70742024  0.26129634  0.46843857  1
  O  O211  1  0.70742024  0.26129634  0.96843857  1
  O  O212  1  0.70742024  0.59462967  0.46843857  1
  O  O213  1  0.70742024  0.59462967  0.96843857  1
  O  O214  1  0.70742024  0.92796300  0.46843857  1
  O  O215  1  0.70742024  0.92796300  0.96843857  1
  O  O216  1  0.07762292  0.06363993  0.22314986  1
  O  O217  1  0.07762292  0.06363993  0.72314986  1
  O  O218  1  0.07762292  0.39697326  0.22314986  1
  O  O219  1  0.07762292  0.39697326  0.72314986  1
  O  O220  1  0.07762292  0.73030660  0.22314986  1
  O  O221  1  0.07762292  0.73030660  0.72314986  1
  O  O222  1  0.41095626  0.06363993  0.22314986  1
  O  O223  1  0.41095626  0.06363993  0.72314986  1
  O  O224  1  0.41095626  0.39697326  0.22314986  1
  O  O225  1  0.41095626  0.39697326  0.72314986  1
  O  O226  1  0.41095626  0.73030660  0.22314986  1
  O  O227  1  0.41095626  0.73030660  0.72314986  1
  O  O228  1  0.74428959  0.06363993  0.22314986  1
  O  O229  1  0.74428959  0.06363993  0.72314986  1
  O  O230  1  0.74428959  0.39697326  0.22314986  1
  O  O231  1  0.74428959  0.39697326  0.72314986  1
  O  O232  1  0.74428959  0.73030660  0.22314986  1
  O  O233  1  0.74428959  0.73030660  0.72314986  1
  O  O234  1  0.25571041  0.23030660  0.02685014  1
  O  O235  1  0.25571041  0.23030660  0.52685014  1
  O  O236  1  0.25571041  0.56363993  0.02685014  1
  O  O237  1  0.25571041  0.56363993  0.52685014  1
  O  O238  1  0.25571041  0.89697326  0.02685014  1
  O  O239  1  0.25571041  0.89697326  0.52685014  1
  O  O240  1  0.58904374  0.23030660  0.02685014  1
  O  O241  1  0.58904374  0.23030660  0.52685014  1
  O  O242  1  0.58904374  0.56363993  0.02685014  1
  O  O243  1  0.58904374  0.56363993  0.52685014  1
  O  O244  1  0.58904374  0.89697326  0.02685014  1
  O  O245  1  0.58904374  0.89697326  0.52685014  1
  O  O246  1  0.92237708  0.23030660  0.02685014  1
  O  O247  1  0.92237708  0.23030660  0.52685014  1
  O  O248  1  0.92237708  0.56363993  0.02685014  1
  O  O249  1  0.92237708  0.56363993  0.52685014  1
  O  O250  1  0.92237708  0.89697326  0.02685014  1
  O  O251  1  0.92237708  0.89697326  0.52685014  1
  O  O252  1  0.25571041  0.26969340  0.27685014  1
  O  O253  1  0.25571041  0.26969340  0.77685014  1
  O  O254  1  0.25571041  0.60302674  0.27685014  1
  O  O255  1  0.25571041  0.60302674  0.77685014  1
  O  O256  1  0.25571041  0.93636007  0.27685014  1
  O  O257  1  0.25571041  0.93636007  0.77685014  1
  O  O258  1  0.58904374  0.26969340  0.27685014  1
  O  O259  1  0.58904374  0.26969340  0.77685014  1
  O  O260  1  0.58904374  0.60302674  0.27685014  1
  O  O261  1  0.58904374  0.60302674  0.77685014  1
  O  O262  1  0.58904374  0.93636007  0.27685014  1
  O  O263  1  0.58904374  0.93636007  0.77685014  1
  O  O264  1  0.92237708  0.26969340  0.27685014  1
  O  O265  1  0.92237708  0.26969340  0.77685014  1
  O  O266  1  0.92237708  0.60302674  0.27685014  1
  O  O267  1  0.92237708  0.60302674  0.77685014  1
  O  O268  1  0.92237708  0.93636007  0.27685014  1
  O  O269  1  0.92237708  0.93636007  0.77685014  1
  O  O270  1  0.07762292  0.10302674  0.47314986  1
  O  O271  1  0.07762292  0.10302674  0.97314986  1
  O  O272  1  0.07762292  0.43636007  0.47314986  1
  O  O273  1  0.07762292  0.43636007  0.97314986  1
  O  O274  1  0.07762292  0.76969340  0.47314986  1
  O  O275  1  0.07762292  0.76969340  0.97314986  1
  O  O276  1  0.41095626  0.10302674  0.47314986  1
  O  O277  1  0.41095626  0.10302674  0.97314986  1
  O  O278  1  0.41095626  0.43636007  0.47314986  1
  O  O279  1  0.41095626  0.43636007  0.97314986  1
  O  O280  1  0.41095626  0.76969340  0.47314986  1
  O  O281  1  0.41095626  0.76969340  0.97314986  1
  O  O282  1  0.74428959  0.10302674  0.47314986  1
  O  O283  1  0.74428959  0.10302674  0.97314986  1
  O  O284  1  0.74428959  0.43636007  0.47314986  1
  O  O285  1  0.74428959  0.43636007  0.97314986  1
  O  O286  1  0.74428959  0.76969340  0.47314986  1
  O  O287  1  0.74428959  0.76969340  0.97314986  1
  O  O288  1  0.21863274  0.15065811  0.38256257  1
  O  O289  1  0.21863274  0.15065811  0.88256257  1
  O  O290  1  0.21863274  0.48399144  0.38256257  1
  O  O291  1  0.21863274  0.48399144  0.88256257  1
  O  O292  1  0.21863274  0.81732477  0.38256257  1
  O  O293  1  0.21863274  0.81732477  0.88256257  1
  O  O294  1  0.55196607  0.15065811  0.38256257  1
  O  O295  1  0.55196607  0.15065811  0.88256257  1
  O  O296  1  0.55196607  0.48399144  0.38256257  1
  O  O297  1  0.55196607  0.48399144  0.88256257  1
  O  O298  1  0.55196607  0.81732477  0.38256257  1
  O  O299  1  0.55196607  0.81732477  0.88256257  1
  O  O300  1  0.88529941  0.15065811  0.38256257  1
  O  O301  1  0.88529941  0.15065811  0.88256257  1
  O  O302  1  0.88529941  0.48399144  0.38256257  1
  O  O303  1  0.88529941  0.48399144  0.88256257  1
  O  O304  1  0.88529941  0.81732477  0.38256257  1
  O  O305  1  0.88529941  0.81732477  0.88256257  1
  O  O306  1  0.11470059  0.31732477  0.36743743  1
  O  O307  1  0.11470059  0.31732477  0.86743743  1
  O  O308  1  0.11470059  0.65065811  0.36743743  1
  O  O309  1  0.11470059  0.65065811  0.86743743  1
  O  O310  1  0.11470059  0.98399144  0.36743743  1
  O  O311  1  0.11470059  0.98399144  0.86743743  1
  O  O312  1  0.44803393  0.31732477  0.36743743  1
  O  O313  1  0.44803393  0.31732477  0.86743743  1
  O  O314  1  0.44803393  0.65065811  0.36743743  1
  O  O315  1  0.44803393  0.65065811  0.86743743  1
  O  O316  1  0.44803393  0.98399144  0.36743743  1
  O  O317  1  0.44803393  0.98399144  0.86743743  1
  O  O318  1  0.78136726  0.31732477  0.36743743  1
  O  O319  1  0.78136726  0.31732477  0.86743743  1
  O  O320  1  0.78136726  0.65065811  0.36743743  1
  O  O321  1  0.78136726  0.65065811  0.86743743  1
  O  O322  1  0.78136726  0.98399144  0.36743743  1
  O  O323  1  0.78136726  0.98399144  0.86743743  1
  O  O324  1  0.11470059  0.18267523  0.11743743  1
  O  O325  1  0.11470059  0.18267523  0.61743743  1
  O  O326  1  0.11470059  0.51600856  0.11743743  1
  O  O327  1  0.11470059  0.51600856  0.61743743  1
  O  O328  1  0.11470059  0.84934189  0.11743743  1
  O  O329  1  0.11470059  0.84934189  0.61743743  1
  O  O330  1  0.44803393  0.18267523  0.11743743  1
  O  O331  1  0.44803393  0.18267523  0.61743743  1
  O  O332  1  0.44803393  0.51600856  0.11743743  1
  O  O333  1  0.44803393  0.51600856  0.61743743  1
  O  O334  1  0.44803393  0.84934189  0.11743743  1
  O  O335  1  0.44803393  0.84934189  0.61743743  1
  O  O336  1  0.78136726  0.18267523  0.11743743  1
  O  O337  1  0.78136726  0.18267523  0.61743743  1
  O  O338  1  0.78136726  0.51600856  0.11743743  1
  O  O339  1  0.78136726  0.51600856  0.61743743  1
  O  O340  1  0.78136726  0.84934189  0.11743743  1
  O  O341  1  0.78136726  0.84934189  0.61743743  1
  O  O342  1  0.21863274  0.01600856  0.13256257  1
  O  O343  1  0.21863274  0.01600856  0.63256257  1
  O  O344  1  0.21863274  0.34934189  0.13256257  1
  O  O345  1  0.21863274  0.34934189  0.63256257  1
  O  O346  1  0.21863274  0.68267523  0.13256257  1
  O  O347  1  0.21863274  0.68267523  0.63256257  1
  O  O348  1  0.55196607  0.01600856  0.13256257  1
  O  O349  1  0.55196607  0.01600856  0.63256257  1
  O  O350  1  0.55196607  0.34934189  0.13256257  1
  O  O351  1  0.55196607  0.34934189  0.63256257  1
  O  O352  1  0.55196607  0.68267523  0.13256257  1
  O  O353  1  0.55196607  0.68267523  0.63256257  1
  O  O354  1  0.88529941  0.01600856  0.13256257  1
  O  O355  1  0.88529941  0.01600856  0.63256257  1
  O  O356  1  0.88529941  0.34934189  0.13256257  1
  O  O357  1  0.88529941  0.34934189  0.63256257  1
  O  O358  1  0.88529941  0.68267523  0.13256257  1
  O  O359  1  0.88529941  0.68267523  0.63256257  1
