# generated using pymatgen
data_SrZrO3
_symmetry_space_group_name_H-M   'P 1'
_cell_length_a   17.46169439
_cell_length_b   16.34498135
_cell_length_c   17.29830846
_cell_angle_alpha   90.00000000
_cell_angle_beta   90.00000000
_cell_angle_gamma   90.00000000
_symmetry_Int_Tables_number   1
_chemical_formula_structural   SrZrO3
_chemical_formula_sum   'Sr72 Zr72 O216'
_cell_volume   4937.12871316
_cell_formula_units_Z   72
loop_
 _symmetry_equiv_pos_site_id
 _symmetry_equiv_pos_as_xyz
  1  'x, y, z'
loop_
 _atom_site_type_symbol
 _atom_site_label
 _atom_site_symmetry_multiplicity
 _atom_site_fract_x
 _atom_site_fract_y
 _atom_site_fract_z
 _atom_site_occupancy
  Sr  Sr0  1  0.17751067  0.12500000  0.00251693  1
  Sr  Sr1  1  0.17751067  0.12500000  0.33585026  1
  Sr  Sr2  1  0.17751067  0.12500000  0.66918359  1
  Sr  Sr3  1  0.17751067  0.62500000  0.00251693  1
  Sr  Sr4  1  0.17751067  0.62500000  0.33585026  1
  Sr  Sr5  1  0.17751067  0.62500000  0.66918359  1
  Sr  Sr6  1  0.51084401  0.12500000  0.00251693  1
  Sr  Sr7  1  0.51084401  0.12500000  0.33585026  1
  Sr  Sr8  1  0.51084401  0.12500000  0.66918359  1
  Sr  Sr9  1  0.51084401  0.62500000  0.00251693  1
  Sr  Sr10  1  0.51084401  0.62500000  0.33585026  1
  Sr  Sr11  1  0.51084401  0.62500000  0.66918359  1
  Sr  Sr12  1  0.84417734  0.12500000  0.00251693  1
  Sr  Sr13  1  0.84417734  0.12500000  0.33585026  1
  Sr  Sr14  1  0.84417734  0.12500000  0.66918359  1
  Sr  Sr15  1  0.84417734  0.62500000  0.00251693  1
  Sr  Sr16  1  0.84417734  0.62500000  0.33585026  1
  Sr  Sr17  1  0.84417734  0.62500000  0.66918359  1
  Sr  Sr18  1  0.32248933  0.37500000  0.16918359  1
  Sr  Sr19  1  0.32248933  0.37500000  0.50251693  1
  Sr  Sr20  1  0.32248933  0.37500000  0.83585026  1
  Sr  Sr21  1  0.32248933  0.87500000  0.16918359  1
  Sr  Sr22  1  0.32248933  0.87500000  0.50251693  1
  Sr  Sr23  1  0.32248933  0.87500000  0.83585026  1
  Sr  Sr24  1  0.65582266  0.37500000  0.16918359  1
  Sr  Sr25  1  0.65582266  0.37500000  0.50251693  1
  Sr  Sr26  1  0.65582266  0.37500000  0.83585026  1
  Sr  Sr27  1  0.65582266  0.87500000  0.16918359  1
  Sr  Sr28  1  0.65582266  0.87500000  0.50251693  1
  Sr  Sr29  1  0.65582266  0.87500000  0.83585026  1
  Sr  Sr30  1  0.98915599  0.37500000  0.16918359  1
  Sr  Sr31  1  0.98915599  0.37500000  0.50251693  1
  Sr  Sr32  1  0.98915599  0.37500000  0.83585026  1
  Sr  Sr33  1  0.98915599  0.87500000  0.16918359  1
  Sr  Sr34  1  0.98915599  0.87500000  0.50251693  1
  Sr  Sr35  1  0.98915599  0.87500000  0.83585026  1
  Sr  Sr36  1  0.01084401  0.12500000  0.16414974  1
  Sr  Sr37  1  0.01084401  0.12500000  0.49748307  1
  Sr  Sr38  1  0.01084401  0.12500000  0.83081641  1
  Sr  Sr39  1  0.01084401  0.62500000  0.16414974  1
  Sr  Sr40  1  0.01084401  0.62500000  0.49748307  1
  Sr  Sr41  1  0.01084401  0.62500000  0.83081641  1
  Sr  Sr42  1  0.34417734  0.12500000  0.16414974  1
  Sr  Sr43  1  0.34417734  0.12500000  0.49748307  1
  Sr  Sr44  1  0.34417734  0.12500000  0.83081641  1
  Sr  Sr45  1  0.34417734  0.62500000  0.16414974  1
  Sr  Sr46  1  0.34417734  0.62500000  0.49748307  1
  Sr  Sr47  1  0.34417734  0.62500000  0.83081641  1
  Sr  Sr48  1  0.67751067  0.12500000  0.16414974  1
  Sr  Sr49  1  0.67751067  0.12500000  0.49748307  1
  Sr  Sr50  1  0.67751067  0.12500000  0.83081641  1
  Sr  Sr51  1  0.67751067  0.62500000  0.16414974  1
  Sr  Sr52  1  0.67751067  0.62500000  0.49748307  1
  Sr  Sr53  1  0.67751067  0.62500000  0.83081641  1
  Sr  Sr54  1  0.15582266  0.37500000  0.33081641  1
  Sr  Sr55  1  0.15582266  0.37500000  0.66414974  1
  Sr  Sr56  1  0.15582266  0.37500000  0.99748307  1
  Sr  Sr57  1  0.15582266  0.87500000  0.33081641  1
  Sr  Sr58  1  0.15582266  0.87500000  0.66414974  1
  Sr  Sr59  1  0.15582266  0.87500000  0.99748307  1
  Sr  Sr60  1  0.48915599  0.37500000  0.33081641  1
  Sr  Sr61  1  0.48915599  0.37500000  0.66414974  1
  Sr  Sr62  1  0.48915599  0.37500000  0.99748307  1
  Sr  Sr63  1  0.48915599  0.87500000  0.33081641  1
  Sr  Sr64  1  0.48915599  0.87500000  0.66414974  1
  Sr  Sr65  1  0.48915599  0.87500000  0.99748307  1
  Sr  Sr66  1  0.82248933  0.37500000  0.33081641  1
  Sr  Sr67  1  0.82248933  0.37500000  0.66414974  1
  Sr  Sr68  1  0.82248933  0.37500000  0.99748307  1
  Sr  Sr69  1  0.82248933  0.87500000  0.33081641  1
  Sr  Sr70  1  0.82248933  0.87500000  0.66414974  1
  Sr  Sr71  1  0.82248933  0.87500000  0.99748307  1
  Zr  Zr72  1  0.00000000  0.00000000  0.00000000  1
  Zr  Zr73  1  0.00000000  0.00000000  0.33333333  1
  Zr  Zr74  1  0.00000000  0.00000000  0.66666667  1
  Zr  Zr75  1  0.00000000  0.50000000  0.00000000  1
  Zr  Zr76  1  0.00000000  0.50000000  0.33333333  1
  Zr  Zr77  1  0.00000000  0.50000000  0.66666667  1
  Zr  Zr78  1  0.33333333  0.00000000  0.00000000  1
  Zr  Zr79  1  0.33333333  0.00000000  0.33333333  1
  Zr  Zr80  1  0.33333333  0.00000000  0.66666667  1
  Zr  Zr81  1  0.33333333  0.50000000  0.00000000  1
  Zr  Zr82  1  0.33333333  0.50000000  0.33333333  1
  Zr  Zr83  1  0.33333333  0.50000000  0.66666667  1
  Zr  Zr84  1  0.66666667  0.00000000  0.00000000  1
  Zr  Zr85  1  0.66666667  0.00000000  0.33333333  1
  Zr  Zr86  1  0.66666667  0.00000000  0.66666667  1
  Zr  Zr87  1  0.66666667  0.50000000  0.00000000  1
  Zr  Zr88  1  0.66666667  0.50000000  0.33333333  1
  Zr  Zr89  1  0.66666667  0.50000000  0.66666667  1
  Zr  Zr90  1  0.16666667  0.00000000  0.16666667  1
  Zr  Zr91  1  0.16666667  0.00000000  0.50000000  1
  Zr  Zr92  1  0.16666667  0.00000000  0.83333333  1
  Zr  Zr93  1  0.16666667  0.50000000  0.16666667  1
  Zr  Zr94  1  0.16666667  0.50000000  0.50000000  1
  Zr  Zr95  1  0.16666667  0.50000000  0.83333333  1
  Zr  Zr96  1  0.50000000  0.00000000  0.16666667  1
  Zr  Zr97  1  0.50000000  0.00000000  0.50000000  1
  Zr  Zr98  1  0.50000000  0.00000000  0.83333333  1
  Zr  Zr99  1  0.50000000  0.50000000  0.16666667  1
  Zr  Zr100  1  0.50000000  0.50000000  0.50000000  1
  Zr  Zr101  1  0.50000000  0.50000000  0.83333333  1
  Zr  Zr102  1  0.83333333  0.00000000  0.16666667  1
  Zr  Zr103  1  0.83333333  0.00000000  0.50000000  1
  Zr  Zr104  1  0.83333333  0.00000000  0.83333333  1
  Zr  Zr105  1  0.83333333  0.50000000  0.16666667  1
  Zr  Zr106  1  0.83333333  0.50000000  0.50000000  1
  Zr  Zr107  1  0.83333333  0.50000000  0.83333333  1
  Zr  Zr108  1  0.16666667  0.25000000  0.16666667  1
  Zr  Zr109  1  0.16666667  0.25000000  0.50000000  1
  Zr  Zr110  1  0.16666667  0.25000000  0.83333333  1
  Zr  Zr111  1  0.16666667  0.75000000  0.16666667  1
  Zr  Zr112  1  0.16666667  0.75000000  0.50000000  1
  Zr  Zr113  1  0.16666667  0.75000000  0.83333333  1
  Zr  Zr114  1  0.50000000  0.25000000  0.16666667  1
  Zr  Zr115  1  0.50000000  0.25000000  0.50000000  1
  Zr  Zr116  1  0.50000000  0.25000000  0.83333333  1
  Zr  Zr117  1  0.50000000  0.75000000  0.16666667  1
  Zr  Zr118  1  0.50000000  0.75000000  0.50000000  1
  Zr  Zr119  1  0.50000000  0.75000000  0.83333333  1
  Zr  Zr120  1  0.83333333  0.25000000  0.16666667  1
  Zr  Zr121  1  0.83333333  0.25000000  0.50000000  1
  Zr  Zr122  1  0.83333333  0.25000000  0.83333333  1
  Zr  Zr123  1  0.83333333  0.75000000  0.16666667  1
  Zr  Zr124  1  0.83333333  0.75000000  0.50000000  1
  Zr  Zr125  1  0.83333333  0.75000000  0.83333333  1
  Zr  Zr126  1  0.00000000  0.25000000  0.00000000  1
  Zr  Zr127  1  0.00000000  0.25000000  0.33333333  1
  Zr  Zr128  1  0.00000000  0.25000000  0.66666667  1
  Zr  Zr129  1  0.00000000  0.75000000  0.00000000  1
  Zr  Zr130  1  0.00000000  0.75000000  0.33333333  1
  Zr  Zr131  1  0.00000000  0.75000000  0.66666667  1
  Zr  Zr132  1  0.33333333  0.25000000  0.00000000  1
  Zr  Zr133  1  0.33333333  0.25000000  0.33333333  1
  Zr  Zr134  1  0.33333333  0.25000000  0.66666667  1
  Zr  Zr135  1  0.33333333  0.75000000  0.00000000  1
  Zr  Zr136  1  0.33333333  0.75000000  0.33333333  1
  Zr  Zr137  1  0.33333333  0.75000000  0.66666667  1
  Zr  Zr138  1  0.66666667  0.25000000  0.00000000  1
  Zr  Zr139  1  0.66666667  0.25000000  0.33333333  1
  Zr  Zr140  1  0.66666667  0.25000000  0.66666667  1
  Zr  Zr141  1  0.66666667  0.75000000  0.00000000  1
  Zr  Zr142  1  0.66666667  0.75000000  0.33333333  1
  Zr  Zr143  1  0.66666667  0.75000000  0.66666667  1
  O  O144  1  0.09526405  0.22962862  0.07133588  1
  O  O145  1  0.09526405  0.22962862  0.40466921  1
  O  O146  1  0.09526405  0.22962862  0.73800254  1
  O  O147  1  0.09526405  0.72962862  0.07133588  1
  O  O148  1  0.09526405  0.72962862  0.40466921  1
  O  O149  1  0.09526405  0.72962862  0.73800254  1
  O  O150  1  0.42859738  0.22962862  0.07133588  1
  O  O151  1  0.42859738  0.22962862  0.40466921  1
  O  O152  1  0.42859738  0.22962862  0.73800254  1
  O  O153  1  0.42859738  0.72962862  0.07133588  1
  O  O154  1  0.42859738  0.72962862  0.40466921  1
  O  O155  1  0.42859738  0.72962862  0.73800254  1
  O  O156  1  0.76193072  0.22962862  0.07133588  1
  O  O157  1  0.76193072  0.22962862  0.40466921  1
  O  O158  1  0.76193072  0.22962862  0.73800254  1
  O  O159  1  0.76193072  0.72962862  0.07133588  1
  O  O160  1  0.76193072  0.72962862  0.40466921  1
  O  O161  1  0.76193072  0.72962862  0.73800254  1
  O  O162  1  0.07140262  0.27037138  0.23800254  1
  O  O163  1  0.07140262  0.27037138  0.57133588  1
  O  O164  1  0.07140262  0.27037138  0.90466921  1
  O  O165  1  0.07140262  0.77037138  0.23800254  1
  O  O166  1  0.07140262  0.77037138  0.57133588  1
  O  O167  1  0.07140262  0.77037138  0.90466921  1
  O  O168  1  0.40473595  0.27037138  0.23800254  1
  O  O169  1  0.40473595  0.27037138  0.57133588  1
  O  O170  1  0.40473595  0.27037138  0.90466921  1
  O  O171  1  0.40473595  0.77037138  0.23800254  1
  O  O172  1  0.40473595  0.77037138  0.57133588  1
  O  O173  1  0.40473595  0.77037138  0.90466921  1
  O  O174  1  0.73806928  0.27037138  0.23800254  1
  O  O175  1  0.73806928  0.27037138  0.57133588  1
  O  O176  1  0.73806928  0.27037138  0.90466921  1
  O  O177  1  0.73806928  0.77037138  0.23800254  1
  O  O178  1  0.73806928  0.77037138  0.57133588  1
  O  O179  1  0.73806928  0.77037138  0.90466921  1
  O  O180  1  0.26193072  0.02037138  0.09533079  1
  O  O181  1  0.26193072  0.02037138  0.42866412  1
  O  O182  1  0.26193072  0.02037138  0.76199746  1
  O  O183  1  0.26193072  0.52037138  0.09533079  1
  O  O184  1  0.26193072  0.52037138  0.42866412  1
  O  O185  1  0.26193072  0.52037138  0.76199746  1
  O  O186  1  0.59526405  0.02037138  0.09533079  1
  O  O187  1  0.59526405  0.02037138  0.42866412  1
  O  O188  1  0.59526405  0.02037138  0.76199746  1
  O  O189  1  0.59526405  0.52037138  0.09533079  1
  O  O190  1  0.59526405  0.52037138  0.42866412  1
  O  O191  1  0.59526405  0.52037138  0.76199746  1
  O  O192  1  0.92859738  0.02037138  0.09533079  1
  O  O193  1  0.92859738  0.02037138  0.42866412  1
  O  O194  1  0.92859738  0.02037138  0.76199746  1
  O  O195  1  0.92859738  0.52037138  0.09533079  1
  O  O196  1  0.92859738  0.52037138  0.42866412  1
  O  O197  1  0.92859738  0.52037138  0.76199746  1
  O  O198  1  0.23806928  0.47962862  0.26199746  1
  O  O199  1  0.23806928  0.47962862  0.59533079  1
  O  O200  1  0.23806928  0.47962862  0.92866412  1
  O  O201  1  0.23806928  0.97962862  0.26199746  1
  O  O202  1  0.23806928  0.97962862  0.59533079  1
  O  O203  1  0.23806928  0.97962862  0.92866412  1
  O  O204  1  0.57140262  0.47962862  0.26199746  1
  O  O205  1  0.57140262  0.47962862  0.59533079  1
  O  O206  1  0.57140262  0.47962862  0.92866412  1
  O  O207  1  0.57140262  0.97962862  0.26199746  1
  O  O208  1  0.57140262  0.97962862  0.59533079  1
  O  O209  1  0.57140262  0.97962862  0.92866412  1
  O  O210  1  0.90473595  0.47962862  0.26199746  1
  O  O211  1  0.90473595  0.47962862  0.59533079  1
  O  O212  1  0.90473595  0.47962862  0.92866412  1
  O  O213  1  0.90473595  0.97962862  0.26199746  1
  O  O214  1  0.90473595  0.97962862  0.59533079  1
  O  O215  1  0.90473595  0.97962862  0.92866412  1
  O  O216  1  0.23806928  0.27037138  0.26199746  1
  O  O217  1  0.23806928  0.27037138  0.59533079  1
  O  O218  1  0.23806928  0.27037138  0.92866412  1
  O  O219  1  0.23806928  0.77037138  0.26199746  1
  O  O220  1  0.23806928  0.77037138  0.59533079  1
  O  O221  1  0.23806928  0.77037138  0.92866412  1
  O  O222  1  0.57140262  0.27037138  0.26199746  1
  O  O223  1  0.57140262  0.27037138  0.59533079  1
  O  O224  1  0.57140262  0.27037138  0.92866412  1
  O  O225  1  0.57140262  0.77037138  0.26199746  1
  O  O226  1  0.57140262  0.77037138  0.59533079  1
  O  O227  1  0.57140262  0.77037138  0.92866412  1
  O  O228  1  0.90473595  0.27037138  0.26199746  1
  O  O229  1  0.90473595  0.27037138  0.59533079  1
  O  O230  1  0.90473595  0.27037138  0.92866412  1
  O  O231  1  0.90473595  0.77037138  0.26199746  1
  O  O232  1  0.90473595  0.77037138  0.59533079  1
  O  O233  1  0.90473595  0.77037138  0.92866412  1
  O  O234  1  0.26193072  0.22962862  0.09533079  1
  O  O235  1  0.26193072  0.22962862  0.42866412  1
  O  O236  1  0.26193072  0.22962862  0.76199746  1
  O  O237  1  0.26193072  0.72962862  0.09533079  1
  O  O238  1  0.26193072  0.72962862  0.42866412  1
  O  O239  1  0.26193072  0.72962862  0.76199746  1
  O  O240  1  0.59526405  0.22962862  0.09533079  1
  O  O241  1  0.59526405  0.22962862  0.42866412  1
  O  O242  1  0.59526405  0.22962862  0.76199746  1
  O  O243  1  0.59526405  0.72962862  0.09533079  1
  O  O244  1  0.59526405  0.72962862  0.42866412  1
  O  O245  1  0.59526405  0.72962862  0.76199746  1
  O  O246  1  0.92859738  0.22962862  0.09533079  1
  O  O247  1  0.92859738  0.22962862  0.42866412  1
  O  O248  1  0.92859738  0.22962862  0.76199746  1
  O  O249  1  0.92859738  0.72962862  0.09533079  1
  O  O250  1  0.92859738  0.72962862  0.42866412  1
  O  O251  1  0.92859738  0.72962862  0.76199746  1
  O  O252  1  0.07140262  0.47962862  0.23800254  1
  O  O253  1  0.07140262  0.47962862  0.57133588  1
  O  O254  1  0.07140262  0.47962862  0.90466921  1
  O  O255  1  0.07140262  0.97962862  0.23800254  1
  O  O256  1  0.07140262  0.97962862  0.57133588  1
  O  O257  1  0.07140262  0.97962862  0.90466921  1
  O  O258  1  0.40473595  0.47962862  0.23800254  1
  O  O259  1  0.40473595  0.47962862  0.57133588  1
  O  O260  1  0.40473595  0.47962862  0.90466921  1
  O  O261  1  0.40473595  0.97962862  0.23800254  1
  O  O262  1  0.40473595  0.97962862  0.57133588  1
  O  O263  1  0.40473595  0.97962862  0.90466921  1
  O  O264  1  0.73806928  0.47962862  0.23800254  1
  O  O265  1  0.73806928  0.47962862  0.57133588  1
  O  O266  1  0.73806928  0.47962862  0.90466921  1
  O  O267  1  0.73806928  0.97962862  0.23800254  1
  O  O268  1  0.73806928  0.97962862  0.57133588  1
  O  O269  1  0.73806928  0.97962862  0.90466921  1
  O  O270  1  0.09526405  0.02037138  0.07133588  1
  O  O271  1  0.09526405  0.02037138  0.40466921  1
  O  O272  1  0.09526405  0.02037138  0.73800254  1
  O  O273  1  0.09526405  0.52037138  0.07133588  1
  O  O274  1  0.09526405  0.52037138  0.40466921  1
  O  O275  1  0.09526405  0.52037138  0.73800254  1
  O  O276  1  0.42859738  0.02037138  0.07133588  1
  O  O277  1  0.42859738  0.02037138  0.40466921  1
  O  O278  1  0.42859738  0.02037138  0.73800254  1
  O  O279  1  0.42859738  0.52037138  0.07133588  1
  O  O280  1  0.42859738  0.52037138  0.40466921  1
  O  O281  1  0.42859738  0.52037138  0.73800254  1
  O  O282  1  0.76193072  0.02037138  0.07133588  1
  O  O283  1  0.76193072  0.02037138  0.40466921  1
  O  O284  1  0.76193072  0.02037138  0.73800254  1
  O  O285  1  0.76193072  0.52037138  0.07133588  1
  O  O286  1  0.76193072  0.52037138  0.40466921  1
  O  O287  1  0.76193072  0.52037138  0.73800254  1
  O  O288  1  0.32664893  0.12500000  0.30769822  1
  O  O289  1  0.32664893  0.12500000  0.64103155  1
  O  O290  1  0.32664893  0.12500000  0.97436489  1
  O  O291  1  0.32664893  0.62500000  0.30769822  1
  O  O292  1  0.32664893  0.62500000  0.64103155  1
  O  O293  1  0.32664893  0.62500000  0.97436489  1
  O  O294  1  0.65998227  0.12500000  0.30769822  1
  O  O295  1  0.65998227  0.12500000  0.64103155  1
  O  O296  1  0.65998227  0.12500000  0.97436489  1
  O  O297  1  0.65998227  0.62500000  0.30769822  1
  O  O298  1  0.65998227  0.62500000  0.64103155  1
  O  O299  1  0.65998227  0.62500000  0.97436489  1
  O  O300  1  0.99331560  0.12500000  0.30769822  1
  O  O301  1  0.99331560  0.12500000  0.64103155  1
  O  O302  1  0.99331560  0.12500000  0.97436489  1
  O  O303  1  0.99331560  0.62500000  0.30769822  1
  O  O304  1  0.99331560  0.62500000  0.64103155  1
  O  O305  1  0.99331560  0.62500000  0.97436489  1
  O  O306  1  0.17335107  0.37500000  0.14103155  1
  O  O307  1  0.17335107  0.37500000  0.47436489  1
  O  O308  1  0.17335107  0.37500000  0.80769822  1
  O  O309  1  0.17335107  0.87500000  0.14103155  1
  O  O310  1  0.17335107  0.87500000  0.47436489  1
  O  O311  1  0.17335107  0.87500000  0.80769822  1
  O  O312  1  0.50668440  0.37500000  0.14103155  1
  O  O313  1  0.50668440  0.37500000  0.47436489  1
  O  O314  1  0.50668440  0.37500000  0.80769822  1
  O  O315  1  0.50668440  0.87500000  0.14103155  1
  O  O316  1  0.50668440  0.87500000  0.47436489  1
  O  O317  1  0.50668440  0.87500000  0.80769822  1
  O  O318  1  0.84001773  0.37500000  0.14103155  1
  O  O319  1  0.84001773  0.37500000  0.47436489  1
  O  O320  1  0.84001773  0.37500000  0.80769822  1
  O  O321  1  0.84001773  0.87500000  0.14103155  1
  O  O322  1  0.84001773  0.87500000  0.47436489  1
  O  O323  1  0.84001773  0.87500000  0.80769822  1
  O  O324  1  0.15998227  0.12500000  0.19230178  1
  O  O325  1  0.15998227  0.12500000  0.52563511  1
  O  O326  1  0.15998227  0.12500000  0.85896845  1
  O  O327  1  0.15998227  0.62500000  0.19230178  1
  O  O328  1  0.15998227  0.62500000  0.52563511  1
  O  O329  1  0.15998227  0.62500000  0.85896845  1
  O  O330  1  0.49331560  0.12500000  0.19230178  1
  O  O331  1  0.49331560  0.12500000  0.52563511  1
  O  O332  1  0.49331560  0.12500000  0.85896845  1
  O  O333  1  0.49331560  0.62500000  0.19230178  1
  O  O334  1  0.49331560  0.62500000  0.52563511  1
  O  O335  1  0.49331560  0.62500000  0.85896845  1
  O  O336  1  0.82664893  0.12500000  0.19230178  1
  O  O337  1  0.82664893  0.12500000  0.52563511  1
  O  O338  1  0.82664893  0.12500000  0.85896845  1
  O  O339  1  0.82664893  0.62500000  0.19230178  1
  O  O340  1  0.82664893  0.62500000  0.52563511  1
  O  O341  1  0.82664893  0.62500000  0.85896845  1
  O  O342  1  0.00668440  0.37500000  0.02563511  1
  O  O343  1  0.00668440  0.37500000  0.35896845  1
  O  O344  1  0.00668440  0.37500000  0.69230178  1
  O  O345  1  0.00668440  0.87500000  0.02563511  1
  O  O346  1  0.00668440  0.87500000  0.35896845  1
  O  O347  1  0.00668440  0.87500000  0.69230178  1
  O  O348  1  0.34001773  0.37500000  0.02563511  1
  O  O349  1  0.34001773  0.37500000  0.35896845  1
  O  O350  1  0.34001773  0.37500000  0.69230178  1
  O  O351  1  0.34001773  0.87500000  0.02563511  1
  O  O352  1  0.34001773  0.87500000  0.35896845  1
  O  O353  1  0.34001773  0.87500000  0.69230178  1
  O  O354  1  0.67335107  0.37500000  0.02563511  1
  O  O355  1  0.67335107  0.37500000  0.35896845  1
  O  O356  1  0.67335107  0.37500000  0.69230178  1
  O  O357  1  0.67335107  0.87500000  0.02563511  1
  O  O358  1  0.67335107  0.87500000  0.35896845  1
  O  O359  1  0.67335107  0.87500000  0.69230178  1
