# generated using pymatgen
data_Tl2O
_symmetry_space_group_name_H-M   'P 1'
_cell_length_a   17.54495861
_cell_length_b   17.54495861
_cell_length_c   37.54814983
_cell_angle_alpha   90.00000000
_cell_angle_beta   90.00000000
_cell_angle_gamma   120.00000000
_symmetry_Int_Tables_number   1
_chemical_formula_structural   Tl2O
_chemical_formula_sum   'Tl300 O150'
_cell_volume   10009.76473225
_cell_formula_units_Z   150
loop_
 _symmetry_equiv_pos_site_id
 _symmetry_equiv_pos_as_xyz
  1  'x, y, z'
loop_
 _atom_site_type_symbol
 _atom_site_label
 _atom_site_symmetry_multiplicity
 _atom_site_fract_x
 _atom_site_fract_y
 _atom_site_fract_z
 _atom_site_occupancy
  Tl  Tl0  1  -0.00000000  -0.00000000  0.70964282  1
  Tl  Tl1  1  -0.00000000  0.20000000  0.70964282  1
  Tl  Tl2  1  -0.00000000  0.40000000  0.70964282  1
  Tl  Tl3  1  -0.00000000  0.60000000  0.70964282  1
  Tl  Tl4  1  -0.00000000  0.80000000  0.70964282  1
  Tl  Tl5  1  0.20000000  -0.00000000  0.70964282  1
  Tl  Tl6  1  0.20000000  0.20000000  0.70964282  1
  Tl  Tl7  1  0.20000000  0.40000000  0.70964282  1
  Tl  Tl8  1  0.20000000  0.60000000  0.70964282  1
  Tl  Tl9  1  0.20000000  0.80000000  0.70964282  1
  Tl  Tl10  1  0.40000000  -0.00000000  0.70964282  1
  Tl  Tl11  1  0.40000000  0.20000000  0.70964282  1
  Tl  Tl12  1  0.40000000  0.40000000  0.70964282  1
  Tl  Tl13  1  0.40000000  0.60000000  0.70964282  1
  Tl  Tl14  1  0.40000000  0.80000000  0.70964282  1
  Tl  Tl15  1  0.60000000  -0.00000000  0.70964282  1
  Tl  Tl16  1  0.60000000  0.20000000  0.70964282  1
  Tl  Tl17  1  0.60000000  0.40000000  0.70964282  1
  Tl  Tl18  1  0.60000000  0.60000000  0.70964282  1
  Tl  Tl19  1  0.60000000  0.80000000  0.70964282  1
  Tl  Tl20  1  0.80000000  -0.00000000  0.70964282  1
  Tl  Tl21  1  0.80000000  0.20000000  0.70964282  1
  Tl  Tl22  1  0.80000000  0.40000000  0.70964282  1
  Tl  Tl23  1  0.80000000  0.60000000  0.70964282  1
  Tl  Tl24  1  0.80000000  0.80000000  0.70964282  1
  Tl  Tl25  1  0.13333333  0.06666667  1.04297616  1
  Tl  Tl26  1  0.13333333  0.26666667  1.04297616  1
  Tl  Tl27  1  0.13333333  0.46666667  1.04297616  1
  Tl  Tl28  1  0.13333333  0.66666667  1.04297616  1
  Tl  Tl29  1  0.13333333  0.86666667  1.04297616  1
  Tl  Tl30  1  0.33333333  0.06666667  1.04297616  1
  Tl  Tl31  1  0.33333333  0.26666667  1.04297616  1
  Tl  Tl32  1  0.33333333  0.46666667  1.04297616  1
  Tl  Tl33  1  0.33333333  0.66666667  1.04297616  1
  Tl  Tl34  1  0.33333333  0.86666667  1.04297616  1
  Tl  Tl35  1  0.53333333  0.06666667  1.04297616  1
  Tl  Tl36  1  0.53333333  0.26666667  1.04297616  1
  Tl  Tl37  1  0.53333333  0.46666667  1.04297616  1
  Tl  Tl38  1  0.53333333  0.66666667  1.04297616  1
  Tl  Tl39  1  0.53333333  0.86666667  1.04297616  1
  Tl  Tl40  1  0.73333333  0.06666667  1.04297616  1
  Tl  Tl41  1  0.73333333  0.26666667  1.04297616  1
  Tl  Tl42  1  0.73333333  0.46666667  1.04297616  1
  Tl  Tl43  1  0.73333333  0.66666667  1.04297616  1
  Tl  Tl44  1  0.73333333  0.86666667  1.04297616  1
  Tl  Tl45  1  0.93333333  0.06666667  1.04297616  1
  Tl  Tl46  1  0.93333333  0.26666667  1.04297616  1
  Tl  Tl47  1  0.93333333  0.46666667  1.04297616  1
  Tl  Tl48  1  0.93333333  0.66666667  1.04297616  1
  Tl  Tl49  1  0.93333333  0.86666667  1.04297616  1
  Tl  Tl50  1  0.06666667  0.13333333  1.37630949  1
  Tl  Tl51  1  0.06666667  0.33333333  1.37630949  1
  Tl  Tl52  1  0.06666667  0.53333333  1.37630949  1
  Tl  Tl53  1  0.06666667  0.73333333  1.37630949  1
  Tl  Tl54  1  0.06666667  0.93333333  1.37630949  1
  Tl  Tl55  1  0.26666667  0.13333333  1.37630949  1
  Tl  Tl56  1  0.26666667  0.33333333  1.37630949  1
  Tl  Tl57  1  0.26666667  0.53333333  1.37630949  1
  Tl  Tl58  1  0.26666667  0.73333333  1.37630949  1
  Tl  Tl59  1  0.26666667  0.93333333  1.37630949  1
  Tl  Tl60  1  0.46666667  0.13333333  1.37630949  1
  Tl  Tl61  1  0.46666667  0.33333333  1.37630949  1
  Tl  Tl62  1  0.46666667  0.53333333  1.37630949  1
  Tl  Tl63  1  0.46666667  0.73333333  1.37630949  1
  Tl  Tl64  1  0.46666667  0.93333333  1.37630949  1
  Tl  Tl65  1  0.66666667  0.13333333  1.37630949  1
  Tl  Tl66  1  0.66666667  0.33333333  1.37630949  1
  Tl  Tl67  1  0.66666667  0.53333333  1.37630949  1
  Tl  Tl68  1  0.66666667  0.73333333  1.37630949  1
  Tl  Tl69  1  0.66666667  0.93333333  1.37630949  1
  Tl  Tl70  1  0.86666667  0.13333333  1.37630949  1
  Tl  Tl71  1  0.86666667  0.33333333  1.37630949  1
  Tl  Tl72  1  0.86666667  0.53333333  1.37630949  1
  Tl  Tl73  1  0.86666667  0.73333333  1.37630949  1
  Tl  Tl74  1  0.86666667  0.93333333  1.37630949  1
  Tl  Tl75  1  -0.00000000  -0.00000000  0.29035718  1
  Tl  Tl76  1  -0.00000000  0.20000000  0.29035718  1
  Tl  Tl77  1  -0.00000000  0.40000000  0.29035718  1
  Tl  Tl78  1  -0.00000000  0.60000000  0.29035718  1
  Tl  Tl79  1  -0.00000000  0.80000000  0.29035718  1
  Tl  Tl80  1  0.20000000  -0.00000000  0.29035718  1
  Tl  Tl81  1  0.20000000  0.20000000  0.29035718  1
  Tl  Tl82  1  0.20000000  0.40000000  0.29035718  1
  Tl  Tl83  1  0.20000000  0.60000000  0.29035718  1
  Tl  Tl84  1  0.20000000  0.80000000  0.29035718  1
  Tl  Tl85  1  0.40000000  -0.00000000  0.29035718  1
  Tl  Tl86  1  0.40000000  0.20000000  0.29035718  1
  Tl  Tl87  1  0.40000000  0.40000000  0.29035718  1
  Tl  Tl88  1  0.40000000  0.60000000  0.29035718  1
  Tl  Tl89  1  0.40000000  0.80000000  0.29035718  1
  Tl  Tl90  1  0.60000000  -0.00000000  0.29035718  1
  Tl  Tl91  1  0.60000000  0.20000000  0.29035718  1
  Tl  Tl92  1  0.60000000  0.40000000  0.29035718  1
  Tl  Tl93  1  0.60000000  0.60000000  0.29035718  1
  Tl  Tl94  1  0.60000000  0.80000000  0.29035718  1
  Tl  Tl95  1  0.80000000  -0.00000000  0.29035718  1
  Tl  Tl96  1  0.80000000  0.20000000  0.29035718  1
  Tl  Tl97  1  0.80000000  0.40000000  0.29035718  1
  Tl  Tl98  1  0.80000000  0.60000000  0.29035718  1
  Tl  Tl99  1  0.80000000  0.80000000  0.29035718  1
  Tl  Tl100  1  0.13333333  0.06666667  0.62369051  1
  Tl  Tl101  1  0.13333333  0.26666667  0.62369051  1
  Tl  Tl102  1  0.13333333  0.46666667  0.62369051  1
  Tl  Tl103  1  0.13333333  0.66666667  0.62369051  1
  Tl  Tl104  1  0.13333333  0.86666667  0.62369051  1
  Tl  Tl105  1  0.33333333  0.06666667  0.62369051  1
  Tl  Tl106  1  0.33333333  0.26666667  0.62369051  1
  Tl  Tl107  1  0.33333333  0.46666667  0.62369051  1
  Tl  Tl108  1  0.33333333  0.66666667  0.62369051  1
  Tl  Tl109  1  0.33333333  0.86666667  0.62369051  1
  Tl  Tl110  1  0.53333333  0.06666667  0.62369051  1
  Tl  Tl111  1  0.53333333  0.26666667  0.62369051  1
  Tl  Tl112  1  0.53333333  0.46666667  0.62369051  1
  Tl  Tl113  1  0.53333333  0.66666667  0.62369051  1
  Tl  Tl114  1  0.53333333  0.86666667  0.62369051  1
  Tl  Tl115  1  0.73333333  0.06666667  0.62369051  1
  Tl  Tl116  1  0.73333333  0.26666667  0.62369051  1
  Tl  Tl117  1  0.73333333  0.46666667  0.62369051  1
  Tl  Tl118  1  0.73333333  0.66666667  0.62369051  1
  Tl  Tl119  1  0.73333333  0.86666667  0.62369051  1
  Tl  Tl120  1  0.93333333  0.06666667  0.62369051  1
  Tl  Tl121  1  0.93333333  0.26666667  0.62369051  1
  Tl  Tl122  1  0.93333333  0.46666667  0.62369051  1
  Tl  Tl123  1  0.93333333  0.66666667  0.62369051  1
  Tl  Tl124  1  0.93333333  0.86666667  0.62369051  1
  Tl  Tl125  1  0.06666667  0.13333333  0.95702384  1
  Tl  Tl126  1  0.06666667  0.33333333  0.95702384  1
  Tl  Tl127  1  0.06666667  0.53333333  0.95702384  1
  Tl  Tl128  1  0.06666667  0.73333333  0.95702384  1
  Tl  Tl129  1  0.06666667  0.93333333  0.95702384  1
  Tl  Tl130  1  0.26666667  0.13333333  0.95702384  1
  Tl  Tl131  1  0.26666667  0.33333333  0.95702384  1
  Tl  Tl132  1  0.26666667  0.53333333  0.95702384  1
  Tl  Tl133  1  0.26666667  0.73333333  0.95702384  1
  Tl  Tl134  1  0.26666667  0.93333333  0.95702384  1
  Tl  Tl135  1  0.46666667  0.13333333  0.95702384  1
  Tl  Tl136  1  0.46666667  0.33333333  0.95702384  1
  Tl  Tl137  1  0.46666667  0.53333333  0.95702384  1
  Tl  Tl138  1  0.46666667  0.73333333  0.95702384  1
  Tl  Tl139  1  0.46666667  0.93333333  0.95702384  1
  Tl  Tl140  1  0.66666667  0.13333333  0.95702384  1
  Tl  Tl141  1  0.66666667  0.33333333  0.95702384  1
  Tl  Tl142  1  0.66666667  0.53333333  0.95702384  1
  Tl  Tl143  1  0.66666667  0.73333333  0.95702384  1
  Tl  Tl144  1  0.66666667  0.93333333  0.95702384  1
  Tl  Tl145  1  0.86666667  0.13333333  0.95702384  1
  Tl  Tl146  1  0.86666667  0.33333333  0.95702384  1
  Tl  Tl147  1  0.86666667  0.53333333  0.95702384  1
  Tl  Tl148  1  0.86666667  0.73333333  0.95702384  1
  Tl  Tl149  1  0.86666667  0.93333333  0.95702384  1
  Tl  Tl150  1  -0.00000000  -0.00000000  0.12304560  1
  Tl  Tl151  1  -0.00000000  0.20000000  0.12304560  1
  Tl  Tl152  1  -0.00000000  0.40000000  0.12304560  1
  Tl  Tl153  1  -0.00000000  0.60000000  0.12304560  1
  Tl  Tl154  1  -0.00000000  0.80000000  0.12304560  1
  Tl  Tl155  1  0.20000000  -0.00000000  0.12304560  1
  Tl  Tl156  1  0.20000000  0.20000000  0.12304560  1
  Tl  Tl157  1  0.20000000  0.40000000  0.12304560  1
  Tl  Tl158  1  0.20000000  0.60000000  0.12304560  1
  Tl  Tl159  1  0.20000000  0.80000000  0.12304560  1
  Tl  Tl160  1  0.40000000  -0.00000000  0.12304560  1
  Tl  Tl161  1  0.40000000  0.20000000  0.12304560  1
  Tl  Tl162  1  0.40000000  0.40000000  0.12304560  1
  Tl  Tl163  1  0.40000000  0.60000000  0.12304560  1
  Tl  Tl164  1  0.40000000  0.80000000  0.12304560  1
  Tl  Tl165  1  0.60000000  -0.00000000  0.12304560  1
  Tl  Tl166  1  0.60000000  0.20000000  0.12304560  1
  Tl  Tl167  1  0.60000000  0.40000000  0.12304560  1
  Tl  Tl168  1  0.60000000  0.60000000  0.12304560  1
  Tl  Tl169  1  0.60000000  0.80000000  0.12304560  1
  Tl  Tl170  1  0.80000000  -0.00000000  0.12304560  1
  Tl  Tl171  1  0.80000000  0.20000000  0.12304560  1
  Tl  Tl172  1  0.80000000  0.40000000  0.12304560  1
  Tl  Tl173  1  0.80000000  0.60000000  0.12304560  1
  Tl  Tl174  1  0.80000000  0.80000000  0.12304560  1
  Tl  Tl175  1  0.13333333  0.06666667  0.45637894  1
  Tl  Tl176  1  0.13333333  0.26666667  0.45637894  1
  Tl  Tl177  1  0.13333333  0.46666667  0.45637894  1
  Tl  Tl178  1  0.13333333  0.66666667  0.45637894  1
  Tl  Tl179  1  0.13333333  0.86666667  0.45637894  1
  Tl  Tl180  1  0.33333333  0.06666667  0.45637894  1
  Tl  Tl181  1  0.33333333  0.26666667  0.45637894  1
  Tl  Tl182  1  0.33333333  0.46666667  0.45637894  1
  Tl  Tl183  1  0.33333333  0.66666667  0.45637894  1
  Tl  Tl184  1  0.33333333  0.86666667  0.45637894  1
  Tl  Tl185  1  0.53333333  0.06666667  0.45637894  1
  Tl  Tl186  1  0.53333333  0.26666667  0.45637894  1
  Tl  Tl187  1  0.53333333  0.46666667  0.45637894  1
  Tl  Tl188  1  0.53333333  0.66666667  0.45637894  1
  Tl  Tl189  1  0.53333333  0.86666667  0.45637894  1
  Tl  Tl190  1  0.73333333  0.06666667  0.45637894  1
  Tl  Tl191  1  0.73333333  0.26666667  0.45637894  1
  Tl  Tl192  1  0.73333333  0.46666667  0.45637894  1
  Tl  Tl193  1  0.73333333  0.66666667  0.45637894  1
  Tl  Tl194  1  0.73333333  0.86666667  0.45637894  1
  Tl  Tl195  1  0.93333333  0.06666667  0.45637894  1
  Tl  Tl196  1  0.93333333  0.26666667  0.45637894  1
  Tl  Tl197  1  0.93333333  0.46666667  0.45637894  1
  Tl  Tl198  1  0.93333333  0.66666667  0.45637894  1
  Tl  Tl199  1  0.93333333  0.86666667  0.45637894  1
  Tl  Tl200  1  0.06666667  0.13333333  0.78971227  1
  Tl  Tl201  1  0.06666667  0.33333333  0.78971227  1
  Tl  Tl202  1  0.06666667  0.53333333  0.78971227  1
  Tl  Tl203  1  0.06666667  0.73333333  0.78971227  1
  Tl  Tl204  1  0.06666667  0.93333333  0.78971227  1
  Tl  Tl205  1  0.26666667  0.13333333  0.78971227  1
  Tl  Tl206  1  0.26666667  0.33333333  0.78971227  1
  Tl  Tl207  1  0.26666667  0.53333333  0.78971227  1
  Tl  Tl208  1  0.26666667  0.73333333  0.78971227  1
  Tl  Tl209  1  0.26666667  0.93333333  0.78971227  1
  Tl  Tl210  1  0.46666667  0.13333333  0.78971227  1
  Tl  Tl211  1  0.46666667  0.33333333  0.78971227  1
  Tl  Tl212  1  0.46666667  0.53333333  0.78971227  1
  Tl  Tl213  1  0.46666667  0.73333333  0.78971227  1
  Tl  Tl214  1  0.46666667  0.93333333  0.78971227  1
  Tl  Tl215  1  0.66666667  0.13333333  0.78971227  1
  Tl  Tl216  1  0.66666667  0.33333333  0.78971227  1
  Tl  Tl217  1  0.66666667  0.53333333  0.78971227  1
  Tl  Tl218  1  0.66666667  0.73333333  0.78971227  1
  Tl  Tl219  1  0.66666667  0.93333333  0.78971227  1
  Tl  Tl220  1  0.86666667  0.13333333  0.78971227  1
  Tl  Tl221  1  0.86666667  0.33333333  0.78971227  1
  Tl  Tl222  1  0.86666667  0.53333333  0.78971227  1
  Tl  Tl223  1  0.86666667  0.73333333  0.78971227  1
  Tl  Tl224  1  0.86666667  0.93333333  0.78971227  1
  Tl  Tl225  1  -0.00000000  -0.00000000  0.87695440  1
  Tl  Tl226  1  -0.00000000  0.20000000  0.87695440  1
  Tl  Tl227  1  -0.00000000  0.40000000  0.87695440  1
  Tl  Tl228  1  -0.00000000  0.60000000  0.87695440  1
  Tl  Tl229  1  -0.00000000  0.80000000  0.87695440  1
  Tl  Tl230  1  0.20000000  -0.00000000  0.87695440  1
  Tl  Tl231  1  0.20000000  0.20000000  0.87695440  1
  Tl  Tl232  1  0.20000000  0.40000000  0.87695440  1
  Tl  Tl233  1  0.20000000  0.60000000  0.87695440  1
  Tl  Tl234  1  0.20000000  0.80000000  0.87695440  1
  Tl  Tl235  1  0.40000000  -0.00000000  0.87695440  1
  Tl  Tl236  1  0.40000000  0.20000000  0.87695440  1
  Tl  Tl237  1  0.40000000  0.40000000  0.87695440  1
  Tl  Tl238  1  0.40000000  0.60000000  0.87695440  1
  Tl  Tl239  1  0.40000000  0.80000000  0.87695440  1
  Tl  Tl240  1  0.60000000  -0.00000000  0.87695440  1
  Tl  Tl241  1  0.60000000  0.20000000  0.87695440  1
  Tl  Tl242  1  0.60000000  0.40000000  0.87695440  1
  Tl  Tl243  1  0.60000000  0.60000000  0.87695440  1
  Tl  Tl244  1  0.60000000  0.80000000  0.87695440  1
  Tl  Tl245  1  0.80000000  -0.00000000  0.87695440  1
  Tl  Tl246  1  0.80000000  0.20000000  0.87695440  1
  Tl  Tl247  1  0.80000000  0.40000000  0.87695440  1
  Tl  Tl248  1  0.80000000  0.60000000  0.87695440  1
  Tl  Tl249  1  0.80000000  0.80000000  0.87695440  1
  Tl  Tl250  1  0.13333333  0.06666667  1.21028773  1
  Tl  Tl251  1  0.13333333  0.26666667  1.21028773  1
  Tl  Tl252  1  0.13333333  0.46666667  1.21028773  1
  Tl  Tl253  1  0.13333333  0.66666667  1.21028773  1
  Tl  Tl254  1  0.13333333  0.86666667  1.21028773  1
  Tl  Tl255  1  0.33333333  0.06666667  1.21028773  1
  Tl  Tl256  1  0.33333333  0.26666667  1.21028773  1
  Tl  Tl257  1  0.33333333  0.46666667  1.21028773  1
  Tl  Tl258  1  0.33333333  0.66666667  1.21028773  1
  Tl  Tl259  1  0.33333333  0.86666667  1.21028773  1
  Tl  Tl260  1  0.53333333  0.06666667  1.21028773  1
  Tl  Tl261  1  0.53333333  0.26666667  1.21028773  1
  Tl  Tl262  1  0.53333333  0.46666667  1.21028773  1
  Tl  Tl263  1  0.53333333  0.66666667  1.21028773  1
  Tl  Tl264  1  0.53333333  0.86666667  1.21028773  1
  Tl  Tl265  1  0.73333333  0.06666667  1.21028773  1
  Tl  Tl266  1  0.73333333  0.26666667  1.21028773  1
  Tl  Tl267  1  0.73333333  0.46666667  1.21028773  1
  Tl  Tl268  1  0.73333333  0.66666667  1.21028773  1
  Tl  Tl269  1  0.73333333  0.86666667  1.21028773  1
  Tl  Tl270  1  0.93333333  0.06666667  1.21028773  1
  Tl  Tl271  1  0.93333333  0.26666667  1.21028773  1
  Tl  Tl272  1  0.93333333  0.46666667  1.21028773  1
  Tl  Tl273  1  0.93333333  0.66666667  1.21028773  1
  Tl  Tl274  1  0.93333333  0.86666667  1.21028773  1
  Tl  Tl275  1  0.06666667  0.13333333  1.54362106  1
  Tl  Tl276  1  0.06666667  0.33333333  1.54362106  1
  Tl  Tl277  1  0.06666667  0.53333333  1.54362106  1
  Tl  Tl278  1  0.06666667  0.73333333  1.54362106  1
  Tl  Tl279  1  0.06666667  0.93333333  1.54362106  1
  Tl  Tl280  1  0.26666667  0.13333333  1.54362106  1
  Tl  Tl281  1  0.26666667  0.33333333  1.54362106  1
  Tl  Tl282  1  0.26666667  0.53333333  1.54362106  1
  Tl  Tl283  1  0.26666667  0.73333333  1.54362106  1
  Tl  Tl284  1  0.26666667  0.93333333  1.54362106  1
  Tl  Tl285  1  0.46666667  0.13333333  1.54362106  1
  Tl  Tl286  1  0.46666667  0.33333333  1.54362106  1
  Tl  Tl287  1  0.46666667  0.53333333  1.54362106  1
  Tl  Tl288  1  0.46666667  0.73333333  1.54362106  1
  Tl  Tl289  1  0.46666667  0.93333333  1.54362106  1
  Tl  Tl290  1  0.66666667  0.13333333  1.54362106  1
  Tl  Tl291  1  0.66666667  0.33333333  1.54362106  1
  Tl  Tl292  1  0.66666667  0.53333333  1.54362106  1
  Tl  Tl293  1  0.66666667  0.73333333  1.54362106  1
  Tl  Tl294  1  0.66666667  0.93333333  1.54362106  1
  Tl  Tl295  1  0.86666667  0.13333333  1.54362106  1
  Tl  Tl296  1  0.86666667  0.33333333  1.54362106  1
  Tl  Tl297  1  0.86666667  0.53333333  1.54362106  1
  Tl  Tl298  1  0.86666667  0.73333333  1.54362106  1
  Tl  Tl299  1  0.86666667  0.93333333  1.54362106  1
  O  O300  1  -0.00000000  -0.00000000  0.41649120  1
  O  O301  1  -0.00000000  0.20000000  0.41649120  1
  O  O302  1  -0.00000000  0.40000000  0.41649120  1
  O  O303  1  -0.00000000  0.60000000  0.41649120  1
  O  O304  1  -0.00000000  0.80000000  0.41649120  1
  O  O305  1  0.20000000  -0.00000000  0.41649120  1
  O  O306  1  0.20000000  0.20000000  0.41649120  1
  O  O307  1  0.20000000  0.40000000  0.41649120  1
  O  O308  1  0.20000000  0.60000000  0.41649120  1
  O  O309  1  0.20000000  0.80000000  0.41649120  1
  O  O310  1  0.40000000  -0.00000000  0.41649120  1
  O  O311  1  0.40000000  0.20000000  0.41649120  1
  O  O312  1  0.40000000  0.40000000  0.41649120  1
  O  O313  1  0.40000000  0.60000000  0.41649120  1
  O  O314  1  0.40000000  0.80000000  0.41649120  1
  O  O315  1  0.60000000  -0.00000000  0.41649120  1
  O  O316  1  0.60000000  0.20000000  0.41649120  1
  O  O317  1  0.60000000  0.40000000  0.41649120  1
  O  O318  1  0.60000000  0.60000000  0.41649120  1
  O  O319  1  0.60000000  0.80000000  0.41649120  1
  O  O320  1  0.80000000  -0.00000000  0.41649120  1
  O  O321  1  0.80000000  0.20000000  0.41649120  1
  O  O322  1  0.80000000  0.40000000  0.41649120  1
  O  O323  1  0.80000000  0.60000000  0.41649120  1
  O  O324  1  0.80000000  0.80000000  0.41649120  1
  O  O325  1  0.13333333  0.06666667  0.74982453  1
  O  O326  1  0.13333333  0.26666667  0.74982453  1
  O  O327  1  0.13333333  0.46666667  0.74982453  1
  O  O328  1  0.13333333  0.66666667  0.74982453  1
  O  O329  1  0.13333333  0.86666667  0.74982453  1
  O  O330  1  0.33333333  0.06666667  0.74982453  1
  O  O331  1  0.33333333  0.26666667  0.74982453  1
  O  O332  1  0.33333333  0.46666667  0.74982453  1
  O  O333  1  0.33333333  0.66666667  0.74982453  1
  O  O334  1  0.33333333  0.86666667  0.74982453  1
  O  O335  1  0.53333333  0.06666667  0.74982453  1
  O  O336  1  0.53333333  0.26666667  0.74982453  1
  O  O337  1  0.53333333  0.46666667  0.74982453  1
  O  O338  1  0.53333333  0.66666667  0.74982453  1
  O  O339  1  0.53333333  0.86666667  0.74982453  1
  O  O340  1  0.73333333  0.06666667  0.74982453  1
  O  O341  1  0.73333333  0.26666667  0.74982453  1
  O  O342  1  0.73333333  0.46666667  0.74982453  1
  O  O343  1  0.73333333  0.66666667  0.74982453  1
  O  O344  1  0.73333333  0.86666667  0.74982453  1
  O  O345  1  0.93333333  0.06666667  0.74982453  1
  O  O346  1  0.93333333  0.26666667  0.74982453  1
  O  O347  1  0.93333333  0.46666667  0.74982453  1
  O  O348  1  0.93333333  0.66666667  0.74982453  1
  O  O349  1  0.93333333  0.86666667  0.74982453  1
  O  O350  1  0.06666667  0.13333333  1.08315786  1
  O  O351  1  0.06666667  0.33333333  1.08315786  1
  O  O352  1  0.06666667  0.53333333  1.08315786  1
  O  O353  1  0.06666667  0.73333333  1.08315786  1
  O  O354  1  0.06666667  0.93333333  1.08315786  1
  O  O355  1  0.26666667  0.13333333  1.08315786  1
  O  O356  1  0.26666667  0.33333333  1.08315786  1
  O  O357  1  0.26666667  0.53333333  1.08315786  1
  O  O358  1  0.26666667  0.73333333  1.08315786  1
  O  O359  1  0.26666667  0.93333333  1.08315786  1
  O  O360  1  0.46666667  0.13333333  1.08315786  1
  O  O361  1  0.46666667  0.33333333  1.08315786  1
  O  O362  1  0.46666667  0.53333333  1.08315786  1
  O  O363  1  0.46666667  0.73333333  1.08315786  1
  O  O364  1  0.46666667  0.93333333  1.08315786  1
  O  O365  1  0.66666667  0.13333333  1.08315786  1
  O  O366  1  0.66666667  0.33333333  1.08315786  1
  O  O367  1  0.66666667  0.53333333  1.08315786  1
  O  O368  1  0.66666667  0.73333333  1.08315786  1
  O  O369  1  0.66666667  0.93333333  1.08315786  1
  O  O370  1  0.86666667  0.13333333  1.08315786  1
  O  O371  1  0.86666667  0.33333333  1.08315786  1
  O  O372  1  0.86666667  0.53333333  1.08315786  1
  O  O373  1  0.86666667  0.73333333  1.08315786  1
  O  O374  1  0.86666667  0.93333333  1.08315786  1
  O  O375  1  0.00000000  0.00000000  0.58350880  1
  O  O376  1  0.00000000  0.20000000  0.58350880  1
  O  O377  1  0.00000000  0.40000000  0.58350880  1
  O  O378  1  -0.00000000  0.60000000  0.58350880  1
  O  O379  1  -0.00000000  0.80000000  0.58350880  1
  O  O380  1  0.20000000  0.00000000  0.58350880  1
  O  O381  1  0.20000000  0.20000000  0.58350880  1
  O  O382  1  0.20000000  0.40000000  0.58350880  1
  O  O383  1  0.20000000  0.60000000  0.58350880  1
  O  O384  1  0.20000000  0.80000000  0.58350880  1
  O  O385  1  0.40000000  0.00000000  0.58350880  1
  O  O386  1  0.40000000  0.20000000  0.58350880  1
  O  O387  1  0.40000000  0.40000000  0.58350880  1
  O  O388  1  0.40000000  0.60000000  0.58350880  1
  O  O389  1  0.40000000  0.80000000  0.58350880  1
  O  O390  1  0.60000000  0.00000000  0.58350880  1
  O  O391  1  0.60000000  0.20000000  0.58350880  1
  O  O392  1  0.60000000  0.40000000  0.58350880  1
  O  O393  1  0.60000000  0.60000000  0.58350880  1
  O  O394  1  0.60000000  0.80000000  0.58350880  1
  O  O395  1  0.80000000  0.00000000  0.58350880  1
  O  O396  1  0.80000000  0.20000000  0.58350880  1
  O  O397  1  0.80000000  0.40000000  0.58350880  1
  O  O398  1  0.80000000  0.60000000  0.58350880  1
  O  O399  1  0.80000000  0.80000000  0.58350880  1
  O  O400  1  0.13333333  0.06666667  0.91684214  1
  O  O401  1  0.13333333  0.26666667  0.91684214  1
  O  O402  1  0.13333333  0.46666667  0.91684214  1
  O  O403  1  0.13333333  0.66666667  0.91684214  1
  O  O404  1  0.13333333  0.86666667  0.91684214  1
  O  O405  1  0.33333333  0.06666667  0.91684214  1
  O  O406  1  0.33333333  0.26666667  0.91684214  1
  O  O407  1  0.33333333  0.46666667  0.91684214  1
  O  O408  1  0.33333333  0.66666667  0.91684214  1
  O  O409  1  0.33333333  0.86666667  0.91684214  1
  O  O410  1  0.53333333  0.06666667  0.91684214  1
  O  O411  1  0.53333333  0.26666667  0.91684214  1
  O  O412  1  0.53333333  0.46666667  0.91684214  1
  O  O413  1  0.53333333  0.66666667  0.91684214  1
  O  O414  1  0.53333333  0.86666667  0.91684214  1
  O  O415  1  0.73333333  0.06666667  0.91684214  1
  O  O416  1  0.73333333  0.26666667  0.91684214  1
  O  O417  1  0.73333333  0.46666667  0.91684214  1
  O  O418  1  0.73333333  0.66666667  0.91684214  1
  O  O419  1  0.73333333  0.86666667  0.91684214  1
  O  O420  1  0.93333333  0.06666667  0.91684214  1
  O  O421  1  0.93333333  0.26666667  0.91684214  1
  O  O422  1  0.93333333  0.46666667  0.91684214  1
  O  O423  1  0.93333333  0.66666667  0.91684214  1
  O  O424  1  0.93333333  0.86666667  0.91684214  1
  O  O425  1  0.06666667  0.13333333  1.25017547  1
  O  O426  1  0.06666667  0.33333333  1.25017547  1
  O  O427  1  0.06666667  0.53333333  1.25017547  1
  O  O428  1  0.06666667  0.73333333  1.25017547  1
  O  O429  1  0.06666667  0.93333333  1.25017547  1
  O  O430  1  0.26666667  0.13333333  1.25017547  1
  O  O431  1  0.26666667  0.33333333  1.25017547  1
  O  O432  1  0.26666667  0.53333333  1.25017547  1
  O  O433  1  0.26666667  0.73333333  1.25017547  1
  O  O434  1  0.26666667  0.93333333  1.25017547  1
  O  O435  1  0.46666667  0.13333333  1.25017547  1
  O  O436  1  0.46666667  0.33333333  1.25017547  1
  O  O437  1  0.46666667  0.53333333  1.25017547  1
  O  O438  1  0.46666667  0.73333333  1.25017547  1
  O  O439  1  0.46666667  0.93333333  1.25017547  1
  O  O440  1  0.66666667  0.13333333  1.25017547  1
  O  O441  1  0.66666667  0.33333333  1.25017547  1
  O  O442  1  0.66666667  0.53333333  1.25017547  1
  O  O443  1  0.66666667  0.73333333  1.25017547  1
  O  O444  1  0.66666667  0.93333333  1.25017547  1
  O  O445  1  0.86666667  0.13333333  1.25017547  1
  O  O446  1  0.86666667  0.33333333  1.25017547  1
  O  O447  1  0.86666667  0.53333333  1.25017547  1
  O  O448  1  0.86666667  0.73333333  1.25017547  1
  O  O449  1  0.86666667  0.93333333  1.25017547  1
