# generated using pymatgen
data_Mg2TiO4
_symmetry_space_group_name_H-M   'P 1'
_cell_length_a   16.92903939
_cell_length_b   16.92903939
_cell_length_c   16.79674742
_cell_angle_alpha   90.00000000
_cell_angle_beta   90.00000000
_cell_angle_gamma   90.00000000
_symmetry_Int_Tables_number   1
_chemical_formula_structural   Mg2TiO4
_chemical_formula_sum   'Mg128 Ti64 O256'
_cell_volume   4813.81972875
_cell_formula_units_Z   64
loop_
 _symmetry_equiv_pos_site_id
 _symmetry_equiv_pos_as_xyz
  1  'x, y, z'
loop_
 _atom_site_type_symbol
 _atom_site_label
 _atom_site_symmetry_multiplicity
 _atom_site_fract_x
 _atom_site_fract_y
 _atom_site_fract_z
 _atom_site_occupancy
  Mg  Mg0  1  0.81225658  0.68774342  0.00000000  1
  Mg  Mg1  1  0.81225658  0.68774342  0.50000000  1
  Mg  Mg2  1  0.31225658  0.68774342  0.00000000  1
  Mg  Mg3  1  0.31225658  0.68774342  0.50000000  1
  Mg  Mg4  1  0.56225658  0.43774342  0.00000000  1
  Mg  Mg5  1  0.56225658  0.43774342  0.50000000  1
  Mg  Mg6  1  0.81225658  0.18774342  0.00000000  1
  Mg  Mg7  1  0.81225658  0.18774342  0.50000000  1
  Mg  Mg8  1  0.06225658  0.43774342  0.00000000  1
  Mg  Mg9  1  0.06225658  0.43774342  0.50000000  1
  Mg  Mg10  1  0.31225658  0.18774342  0.00000000  1
  Mg  Mg11  1  0.31225658  0.18774342  0.50000000  1
  Mg  Mg12  1  0.56225658  -0.06225658  0.00000000  1
  Mg  Mg13  1  0.56225658  -0.06225658  0.50000000  1
  Mg  Mg14  1  0.06225658  -0.06225658  0.00000000  1
  Mg  Mg15  1  0.06225658  -0.06225658  0.50000000  1
  Mg  Mg16  1  0.93774342  0.56225658  0.25000000  1
  Mg  Mg17  1  0.93774342  0.56225658  0.75000000  1
  Mg  Mg18  1  0.43774342  0.56225658  0.25000000  1
  Mg  Mg19  1  0.43774342  0.56225658  0.75000000  1
  Mg  Mg20  1  0.68774342  0.31225658  0.25000000  1
  Mg  Mg21  1  0.68774342  0.31225658  0.75000000  1
  Mg  Mg22  1  0.93774342  0.06225658  0.25000000  1
  Mg  Mg23  1  0.93774342  0.06225658  0.75000000  1
  Mg  Mg24  1  0.18774342  0.31225658  0.25000000  1
  Mg  Mg25  1  0.18774342  0.31225658  0.75000000  1
  Mg  Mg26  1  0.43774342  0.06225658  0.25000000  1
  Mg  Mg27  1  0.43774342  0.06225658  0.75000000  1
  Mg  Mg28  1  0.68774342  -0.18774342  0.25000000  1
  Mg  Mg29  1  0.68774342  -0.18774342  0.75000000  1
  Mg  Mg30  1  0.18774342  -0.18774342  0.25000000  1
  Mg  Mg31  1  0.18774342  -0.18774342  0.75000000  1
  Mg  Mg32  1  0.68774342  0.68774342  0.37500000  1
  Mg  Mg33  1  0.68774342  0.68774342  0.87500000  1
  Mg  Mg34  1  0.18774342  0.68774342  0.37500000  1
  Mg  Mg35  1  0.18774342  0.68774342  0.87500000  1
  Mg  Mg36  1  0.43774342  0.43774342  0.37500000  1
  Mg  Mg37  1  0.43774342  0.43774342  0.87500000  1
  Mg  Mg38  1  0.68774342  0.18774342  0.37500000  1
  Mg  Mg39  1  0.68774342  0.18774342  0.87500000  1
  Mg  Mg40  1  -0.06225658  0.43774342  0.37500000  1
  Mg  Mg41  1  -0.06225658  0.43774342  0.87500000  1
  Mg  Mg42  1  0.18774342  0.18774342  0.37500000  1
  Mg  Mg43  1  0.18774342  0.18774342  0.87500000  1
  Mg  Mg44  1  0.43774342  -0.06225658  0.37500000  1
  Mg  Mg45  1  0.43774342  -0.06225658  0.87500000  1
  Mg  Mg46  1  -0.06225658  -0.06225658  0.37500000  1
  Mg  Mg47  1  -0.06225658  -0.06225658  0.87500000  1
  Mg  Mg48  1  0.75000000  0.62430976  0.18750000  1
  Mg  Mg49  1  0.75000000  0.62430976  0.68750000  1
  Mg  Mg50  1  0.25000000  0.62430976  0.18750000  1
  Mg  Mg51  1  0.25000000  0.62430976  0.68750000  1
  Mg  Mg52  1  0.50000000  0.37430976  0.18750000  1
  Mg  Mg53  1  0.50000000  0.37430976  0.68750000  1
  Mg  Mg54  1  0.75000000  0.12430976  0.18750000  1
  Mg  Mg55  1  0.75000000  0.12430976  0.68750000  1
  Mg  Mg56  1  -0.00000000  0.37430976  0.18750000  1
  Mg  Mg57  1  -0.00000000  0.37430976  0.68750000  1
  Mg  Mg58  1  0.25000000  0.12430976  0.18750000  1
  Mg  Mg59  1  0.25000000  0.12430976  0.68750000  1
  Mg  Mg60  1  0.50000000  -0.12569024  0.18750000  1
  Mg  Mg61  1  0.50000000  -0.12569024  0.68750000  1
  Mg  Mg62  1  0.00000000  -0.12569024  0.18750000  1
  Mg  Mg63  1  0.00000000  -0.12569024  0.68750000  1
  Mg  Mg64  1  0.87430976  0.50000000  0.06250000  1
  Mg  Mg65  1  0.87430976  0.50000000  0.56250000  1
  Mg  Mg66  1  0.37430976  0.50000000  0.06250000  1
  Mg  Mg67  1  0.37430976  0.50000000  0.56250000  1
  Mg  Mg68  1  0.62430976  0.25000000  0.06250000  1
  Mg  Mg69  1  0.62430976  0.25000000  0.56250000  1
  Mg  Mg70  1  0.87430976  0.00000000  0.06250000  1
  Mg  Mg71  1  0.87430976  0.00000000  0.56250000  1
  Mg  Mg72  1  0.12430976  0.25000000  0.06250000  1
  Mg  Mg73  1  0.12430976  0.25000000  0.56250000  1
  Mg  Mg74  1  0.37430976  -0.00000000  0.06250000  1
  Mg  Mg75  1  0.37430976  -0.00000000  0.56250000  1
  Mg  Mg76  1  0.62430976  -0.25000000  0.06250000  1
  Mg  Mg77  1  0.62430976  -0.25000000  0.56250000  1
  Mg  Mg78  1  0.12430976  -0.25000000  0.06250000  1
  Mg  Mg79  1  0.12430976  -0.25000000  0.56250000  1
  Mg  Mg80  1  0.62569024  0.50000000  0.31250000  1
  Mg  Mg81  1  0.62569024  0.50000000  0.81250000  1
  Mg  Mg82  1  0.12569024  0.50000000  0.31250000  1
  Mg  Mg83  1  0.12569024  0.50000000  0.81250000  1
  Mg  Mg84  1  0.37569024  0.25000000  0.31250000  1
  Mg  Mg85  1  0.37569024  0.25000000  0.81250000  1
  Mg  Mg86  1  0.62569024  0.00000000  0.31250000  1
  Mg  Mg87  1  0.62569024  0.00000000  0.81250000  1
  Mg  Mg88  1  -0.12430976  0.25000000  0.31250000  1
  Mg  Mg89  1  -0.12430976  0.25000000  0.81250000  1
  Mg  Mg90  1  0.12569024  -0.00000000  0.31250000  1
  Mg  Mg91  1  0.12569024  -0.00000000  0.81250000  1
  Mg  Mg92  1  0.37569024  -0.25000000  0.31250000  1
  Mg  Mg93  1  0.37569024  -0.25000000  0.81250000  1
  Mg  Mg94  1  -0.12430976  -0.25000000  0.31250000  1
  Mg  Mg95  1  -0.12430976  -0.25000000  0.81250000  1
  Mg  Mg96  1  0.75000000  0.37569024  0.43750000  1
  Mg  Mg97  1  0.75000000  0.37569024  0.93750000  1
  Mg  Mg98  1  0.25000000  0.37569024  0.43750000  1
  Mg  Mg99  1  0.25000000  0.37569024  0.93750000  1
  Mg  Mg100  1  0.50000000  0.12569024  0.43750000  1
  Mg  Mg101  1  0.50000000  0.12569024  0.93750000  1
  Mg  Mg102  1  0.75000000  -0.12430976  0.43750000  1
  Mg  Mg103  1  0.75000000  -0.12430976  0.93750000  1
  Mg  Mg104  1  -0.00000000  0.12569024  0.43750000  1
  Mg  Mg105  1  -0.00000000  0.12569024  0.93750000  1
  Mg  Mg106  1  0.25000000  -0.12430976  0.43750000  1
  Mg  Mg107  1  0.25000000  -0.12430976  0.93750000  1
  Mg  Mg108  1  0.50000000  -0.37430976  0.43750000  1
  Mg  Mg109  1  0.50000000  -0.37430976  0.93750000  1
  Mg  Mg110  1  0.00000000  -0.37430976  0.43750000  1
  Mg  Mg111  1  0.00000000  -0.37430976  0.93750000  1
  Mg  Mg112  1  0.56225658  0.56225658  0.12500000  1
  Mg  Mg113  1  0.56225658  0.56225658  0.62500000  1
  Mg  Mg114  1  0.06225658  0.56225658  0.12500000  1
  Mg  Mg115  1  0.06225658  0.56225658  0.62500000  1
  Mg  Mg116  1  0.31225658  0.31225658  0.12500000  1
  Mg  Mg117  1  0.31225658  0.31225658  0.62500000  1
  Mg  Mg118  1  0.56225658  0.06225658  0.12500000  1
  Mg  Mg119  1  0.56225658  0.06225658  0.62500000  1
  Mg  Mg120  1  -0.18774342  0.31225658  0.12500000  1
  Mg  Mg121  1  -0.18774342  0.31225658  0.62500000  1
  Mg  Mg122  1  0.06225658  0.06225658  0.12500000  1
  Mg  Mg123  1  0.06225658  0.06225658  0.62500000  1
  Mg  Mg124  1  0.31225658  -0.18774342  0.12500000  1
  Mg  Mg125  1  0.31225658  -0.18774342  0.62500000  1
  Mg  Mg126  1  -0.18774342  -0.18774342  0.12500000  1
  Mg  Mg127  1  -0.18774342  -0.18774342  0.62500000  1
  Ti  Ti128  1  0.81530493  0.56530493  0.37500000  1
  Ti  Ti129  1  0.81530493  0.56530493  0.87500000  1
  Ti  Ti130  1  0.31530493  0.56530493  0.37500000  1
  Ti  Ti131  1  0.31530493  0.56530493  0.87500000  1
  Ti  Ti132  1  0.56530493  0.31530493  0.37500000  1
  Ti  Ti133  1  0.56530493  0.31530493  0.87500000  1
  Ti  Ti134  1  0.81530493  0.06530493  0.37500000  1
  Ti  Ti135  1  0.81530493  0.06530493  0.87500000  1
  Ti  Ti136  1  0.06530493  0.31530493  0.37500000  1
  Ti  Ti137  1  0.06530493  0.31530493  0.87500000  1
  Ti  Ti138  1  0.31530493  0.06530493  0.37500000  1
  Ti  Ti139  1  0.31530493  0.06530493  0.87500000  1
  Ti  Ti140  1  0.56530493  -0.18469507  0.37500000  1
  Ti  Ti141  1  0.56530493  -0.18469507  0.87500000  1
  Ti  Ti142  1  0.06530493  -0.18469507  0.37500000  1
  Ti  Ti143  1  0.06530493  -0.18469507  0.87500000  1
  Ti  Ti144  1  0.68469507  0.56530493  0.00000000  1
  Ti  Ti145  1  0.68469507  0.56530493  0.50000000  1
  Ti  Ti146  1  0.18469507  0.56530493  0.00000000  1
  Ti  Ti147  1  0.18469507  0.56530493  0.50000000  1
  Ti  Ti148  1  0.43469507  0.31530493  0.00000000  1
  Ti  Ti149  1  0.43469507  0.31530493  0.50000000  1
  Ti  Ti150  1  0.68469507  0.06530493  0.00000000  1
  Ti  Ti151  1  0.68469507  0.06530493  0.50000000  1
  Ti  Ti152  1  -0.06530493  0.31530493  0.00000000  1
  Ti  Ti153  1  -0.06530493  0.31530493  0.50000000  1
  Ti  Ti154  1  0.18469507  0.06530493  0.00000000  1
  Ti  Ti155  1  0.18469507  0.06530493  0.50000000  1
  Ti  Ti156  1  0.43469507  -0.18469507  0.00000000  1
  Ti  Ti157  1  0.43469507  -0.18469507  0.50000000  1
  Ti  Ti158  1  -0.06530493  -0.18469507  0.00000000  1
  Ti  Ti159  1  -0.06530493  -0.18469507  0.50000000  1
  Ti  Ti160  1  0.81530493  0.43469507  0.25000000  1
  Ti  Ti161  1  0.81530493  0.43469507  0.75000000  1
  Ti  Ti162  1  0.31530493  0.43469507  0.25000000  1
  Ti  Ti163  1  0.31530493  0.43469507  0.75000000  1
  Ti  Ti164  1  0.56530493  0.18469507  0.25000000  1
  Ti  Ti165  1  0.56530493  0.18469507  0.75000000  1
  Ti  Ti166  1  0.81530493  -0.06530493  0.25000000  1
  Ti  Ti167  1  0.81530493  -0.06530493  0.75000000  1
  Ti  Ti168  1  0.06530493  0.18469507  0.25000000  1
  Ti  Ti169  1  0.06530493  0.18469507  0.75000000  1
  Ti  Ti170  1  0.31530493  -0.06530493  0.25000000  1
  Ti  Ti171  1  0.31530493  -0.06530493  0.75000000  1
  Ti  Ti172  1  0.56530493  -0.31530493  0.25000000  1
  Ti  Ti173  1  0.56530493  -0.31530493  0.75000000  1
  Ti  Ti174  1  0.06530493  -0.31530493  0.25000000  1
  Ti  Ti175  1  0.06530493  -0.31530493  0.75000000  1
  Ti  Ti176  1  0.68469507  0.43469507  0.12500000  1
  Ti  Ti177  1  0.68469507  0.43469507  0.62500000  1
  Ti  Ti178  1  0.18469507  0.43469507  0.12500000  1
  Ti  Ti179  1  0.18469507  0.43469507  0.62500000  1
  Ti  Ti180  1  0.43469507  0.18469507  0.12500000  1
  Ti  Ti181  1  0.43469507  0.18469507  0.62500000  1
  Ti  Ti182  1  0.68469507  -0.06530493  0.12500000  1
  Ti  Ti183  1  0.68469507  -0.06530493  0.62500000  1
  Ti  Ti184  1  -0.06530493  0.18469507  0.12500000  1
  Ti  Ti185  1  -0.06530493  0.18469507  0.62500000  1
  Ti  Ti186  1  0.18469507  -0.06530493  0.12500000  1
  Ti  Ti187  1  0.18469507  -0.06530493  0.62500000  1
  Ti  Ti188  1  0.43469507  -0.31530493  0.12500000  1
  Ti  Ti189  1  0.43469507  -0.31530493  0.62500000  1
  Ti  Ti190  1  -0.06530493  -0.31530493  0.12500000  1
  Ti  Ti191  1  -0.06530493  -0.31530493  0.62500000  1
  O  O192  1  0.80884080  0.67796046  0.37615975  1
  O  O193  1  0.80884080  0.67796046  0.87615975  1
  O  O194  1  0.30884080  0.67796046  0.37615975  1
  O  O195  1  0.30884080  0.67796046  0.87615975  1
  O  O196  1  0.55884080  0.42796046  0.37615975  1
  O  O197  1  0.55884080  0.42796046  0.87615975  1
  O  O198  1  0.80884080  0.17796046  0.37615975  1
  O  O199  1  0.80884080  0.17796046  0.87615975  1
  O  O200  1  0.05884080  0.42796046  0.37615975  1
  O  O201  1  0.05884080  0.42796046  0.87615975  1
  O  O202  1  0.30884080  0.17796046  0.37615975  1
  O  O203  1  0.30884080  0.17796046  0.87615975  1
  O  O204  1  0.55884080  -0.07203954  0.37615975  1
  O  O205  1  0.55884080  -0.07203954  0.87615975  1
  O  O206  1  0.05884080  -0.07203954  0.37615975  1
  O  O207  1  0.05884080  -0.07203954  0.87615975  1
  O  O208  1  0.92796046  0.55884080  0.37384025  1
  O  O209  1  0.92796046  0.55884080  0.87384025  1
  O  O210  1  0.42796046  0.55884080  0.37384025  1
  O  O211  1  0.42796046  0.55884080  0.87384025  1
  O  O212  1  0.67796046  0.30884080  0.37384025  1
  O  O213  1  0.67796046  0.30884080  0.87384025  1
  O  O214  1  0.92796046  0.05884080  0.37384025  1
  O  O215  1  0.92796046  0.05884080  0.87384025  1
  O  O216  1  0.17796046  0.30884080  0.37384025  1
  O  O217  1  0.17796046  0.30884080  0.87384025  1
  O  O218  1  0.42796046  0.05884080  0.37384025  1
  O  O219  1  0.42796046  0.05884080  0.87384025  1
  O  O220  1  0.67796046  -0.19115920  0.37384025  1
  O  O221  1  0.67796046  -0.19115920  0.87384025  1
  O  O222  1  0.17796046  -0.19115920  0.37384025  1
  O  O223  1  0.17796046  -0.19115920  0.87384025  1
  O  O224  1  0.80551745  0.56392050  0.49213274  1
  O  O225  1  0.80551745  0.56392050  0.99213274  1
  O  O226  1  0.30551745  0.56392050  0.49213274  1
  O  O227  1  0.30551745  0.56392050  0.99213274  1
  O  O228  1  0.55551745  0.31392050  0.49213274  1
  O  O229  1  0.55551745  0.31392050  0.99213274  1
  O  O230  1  0.80551745  0.06392050  0.49213274  1
  O  O231  1  0.80551745  0.06392050  0.99213274  1
  O  O232  1  0.05551745  0.31392050  0.49213274  1
  O  O233  1  0.05551745  0.31392050  0.99213274  1
  O  O234  1  0.30551745  0.06392050  0.49213274  1
  O  O235  1  0.30551745  0.06392050  0.99213274  1
  O  O236  1  0.55551745  -0.18607950  0.49213274  1
  O  O237  1  0.55551745  -0.18607950  0.99213274  1
  O  O238  1  0.05551745  -0.18607950  0.49213274  1
  O  O239  1  0.05551745  -0.18607950  0.99213274  1
  O  O240  1  0.81392050  0.55551745  0.25786726  1
  O  O241  1  0.81392050  0.55551745  0.75786726  1
  O  O242  1  0.31392050  0.55551745  0.25786726  1
  O  O243  1  0.31392050  0.55551745  0.75786726  1
  O  O244  1  0.56392050  0.30551745  0.25786726  1
  O  O245  1  0.56392050  0.30551745  0.75786726  1
  O  O246  1  0.81392050  0.05551745  0.25786726  1
  O  O247  1  0.81392050  0.05551745  0.75786726  1
  O  O248  1  0.06392050  0.30551745  0.25786726  1
  O  O249  1  0.06392050  0.30551745  0.75786726  1
  O  O250  1  0.31392050  0.05551745  0.25786726  1
  O  O251  1  0.31392050  0.05551745  0.75786726  1
  O  O252  1  0.56392050  -0.19448255  0.25786726  1
  O  O253  1  0.56392050  -0.19448255  0.75786726  1
  O  O254  1  0.06392050  -0.19448255  0.25786726  1
  O  O255  1  0.06392050  -0.19448255  0.75786726  1
  O  O256  1  0.69115920  0.67796046  0.49884025  1
  O  O257  1  0.69115920  0.67796046  0.99884025  1
  O  O258  1  0.19115920  0.67796046  0.49884025  1
  O  O259  1  0.19115920  0.67796046  0.99884025  1
  O  O260  1  0.44115920  0.42796046  0.49884025  1
  O  O261  1  0.44115920  0.42796046  0.99884025  1
  O  O262  1  0.69115920  0.17796046  0.49884025  1
  O  O263  1  0.69115920  0.17796046  0.99884025  1
  O  O264  1  -0.05884080  0.42796046  0.49884025  1
  O  O265  1  -0.05884080  0.42796046  0.99884025  1
  O  O266  1  0.19115920  0.17796046  0.49884025  1
  O  O267  1  0.19115920  0.17796046  0.99884025  1
  O  O268  1  0.44115920  -0.07203954  0.49884025  1
  O  O269  1  0.44115920  -0.07203954  0.99884025  1
  O  O270  1  -0.05884080  -0.07203954  0.49884025  1
  O  O271  1  -0.05884080  -0.07203954  0.99884025  1
  O  O272  1  0.92796046  0.44115920  0.25115975  1
  O  O273  1  0.92796046  0.44115920  0.75115975  1
  O  O274  1  0.42796046  0.44115920  0.25115975  1
  O  O275  1  0.42796046  0.44115920  0.75115975  1
  O  O276  1  0.67796046  0.19115920  0.25115975  1
  O  O277  1  0.67796046  0.19115920  0.75115975  1
  O  O278  1  0.92796046  -0.05884080  0.25115975  1
  O  O279  1  0.92796046  -0.05884080  0.75115975  1
  O  O280  1  0.17796046  0.19115920  0.25115975  1
  O  O281  1  0.17796046  0.19115920  0.75115975  1
  O  O282  1  0.42796046  -0.05884080  0.25115975  1
  O  O283  1  0.42796046  -0.05884080  0.75115975  1
  O  O284  1  0.67796046  -0.30884080  0.25115975  1
  O  O285  1  0.67796046  -0.30884080  0.75115975  1
  O  O286  1  0.17796046  -0.30884080  0.25115975  1
  O  O287  1  0.17796046  -0.30884080  0.75115975  1
  O  O288  1  0.69448255  0.56392050  0.38286726  1
  O  O289  1  0.69448255  0.56392050  0.88286726  1
  O  O290  1  0.19448255  0.56392050  0.38286726  1
  O  O291  1  0.19448255  0.56392050  0.88286726  1
  O  O292  1  0.44448255  0.31392050  0.38286726  1
  O  O293  1  0.44448255  0.31392050  0.88286726  1
  O  O294  1  0.69448255  0.06392050  0.38286726  1
  O  O295  1  0.69448255  0.06392050  0.88286726  1
  O  O296  1  -0.05551745  0.31392050  0.38286726  1
  O  O297  1  -0.05551745  0.31392050  0.88286726  1
  O  O298  1  0.19448255  0.06392050  0.38286726  1
  O  O299  1  0.19448255  0.06392050  0.88286726  1
  O  O300  1  0.44448255  -0.18607950  0.38286726  1
  O  O301  1  0.44448255  -0.18607950  0.88286726  1
  O  O302  1  -0.05551745  -0.18607950  0.38286726  1
  O  O303  1  -0.05551745  -0.18607950  0.88286726  1
  O  O304  1  0.81392050  0.44448255  0.36713274  1
  O  O305  1  0.81392050  0.44448255  0.86713274  1
  O  O306  1  0.31392050  0.44448255  0.36713274  1
  O  O307  1  0.31392050  0.44448255  0.86713274  1
  O  O308  1  0.56392050  0.19448255  0.36713274  1
  O  O309  1  0.56392050  0.19448255  0.86713274  1
  O  O310  1  0.81392050  -0.05551745  0.36713274  1
  O  O311  1  0.81392050  -0.05551745  0.86713274  1
  O  O312  1  0.06392050  0.19448255  0.36713274  1
  O  O313  1  0.06392050  0.19448255  0.86713274  1
  O  O314  1  0.31392050  -0.05551745  0.36713274  1
  O  O315  1  0.31392050  -0.05551745  0.86713274  1
  O  O316  1  0.56392050  -0.30551745  0.36713274  1
  O  O317  1  0.56392050  -0.30551745  0.86713274  1
  O  O318  1  0.06392050  -0.30551745  0.36713274  1
  O  O319  1  0.06392050  -0.30551745  0.86713274  1
  O  O320  1  0.68607950  0.55551745  0.11713274  1
  O  O321  1  0.68607950  0.55551745  0.61713274  1
  O  O322  1  0.18607950  0.55551745  0.11713274  1
  O  O323  1  0.18607950  0.55551745  0.61713274  1
  O  O324  1  0.43607950  0.30551745  0.11713274  1
  O  O325  1  0.43607950  0.30551745  0.61713274  1
  O  O326  1  0.68607950  0.05551745  0.11713274  1
  O  O327  1  0.68607950  0.05551745  0.61713274  1
  O  O328  1  -0.06392050  0.30551745  0.11713274  1
  O  O329  1  -0.06392050  0.30551745  0.61713274  1
  O  O330  1  0.18607950  0.05551745  0.11713274  1
  O  O331  1  0.18607950  0.05551745  0.61713274  1
  O  O332  1  0.43607950  -0.19448255  0.11713274  1
  O  O333  1  0.43607950  -0.19448255  0.61713274  1
  O  O334  1  -0.06392050  -0.19448255  0.11713274  1
  O  O335  1  -0.06392050  -0.19448255  0.61713274  1
  O  O336  1  0.80551745  0.43607950  0.13286726  1
  O  O337  1  0.80551745  0.43607950  0.63286726  1
  O  O338  1  0.30551745  0.43607950  0.13286726  1
  O  O339  1  0.30551745  0.43607950  0.63286726  1
  O  O340  1  0.55551745  0.18607950  0.13286726  1
  O  O341  1  0.55551745  0.18607950  0.63286726  1
  O  O342  1  0.80551745  -0.06392050  0.13286726  1
  O  O343  1  0.80551745  -0.06392050  0.63286726  1
  O  O344  1  0.05551745  0.18607950  0.13286726  1
  O  O345  1  0.05551745  0.18607950  0.63286726  1
  O  O346  1  0.30551745  -0.06392050  0.13286726  1
  O  O347  1  0.30551745  -0.06392050  0.63286726  1
  O  O348  1  0.55551745  -0.31392050  0.13286726  1
  O  O349  1  0.55551745  -0.31392050  0.63286726  1
  O  O350  1  0.05551745  -0.31392050  0.13286726  1
  O  O351  1  0.05551745  -0.31392050  0.63286726  1
  O  O352  1  0.80884080  0.32203954  0.24884025  1
  O  O353  1  0.80884080  0.32203954  0.74884025  1
  O  O354  1  0.30884080  0.32203954  0.24884025  1
  O  O355  1  0.30884080  0.32203954  0.74884025  1
  O  O356  1  0.55884080  0.07203954  0.24884025  1
  O  O357  1  0.55884080  0.07203954  0.74884025  1
  O  O358  1  0.80884080  -0.17796046  0.24884025  1
  O  O359  1  0.80884080  -0.17796046  0.74884025  1
  O  O360  1  0.05884080  0.07203954  0.24884025  1
  O  O361  1  0.05884080  0.07203954  0.74884025  1
  O  O362  1  0.30884080  -0.17796046  0.24884025  1
  O  O363  1  0.30884080  -0.17796046  0.74884025  1
  O  O364  1  0.55884080  -0.42796046  0.24884025  1
  O  O365  1  0.55884080  -0.42796046  0.74884025  1
  O  O366  1  0.05884080  -0.42796046  0.24884025  1
  O  O367  1  0.05884080  -0.42796046  0.74884025  1
  O  O368  1  0.57203954  0.55884080  0.00115975  1
  O  O369  1  0.57203954  0.55884080  0.50115975  1
  O  O370  1  0.07203954  0.55884080  0.00115975  1
  O  O371  1  0.07203954  0.55884080  0.50115975  1
  O  O372  1  0.32203954  0.30884080  0.00115975  1
  O  O373  1  0.32203954  0.30884080  0.50115975  1
  O  O374  1  0.57203954  0.05884080  0.00115975  1
  O  O375  1  0.57203954  0.05884080  0.50115975  1
  O  O376  1  -0.17796046  0.30884080  0.00115975  1
  O  O377  1  -0.17796046  0.30884080  0.50115975  1
  O  O378  1  0.07203954  0.05884080  0.00115975  1
  O  O379  1  0.07203954  0.05884080  0.50115975  1
  O  O380  1  0.32203954  -0.19115920  0.00115975  1
  O  O381  1  0.32203954  -0.19115920  0.50115975  1
  O  O382  1  -0.17796046  -0.19115920  0.00115975  1
  O  O383  1  -0.17796046  -0.19115920  0.50115975  1
  O  O384  1  0.68607950  0.44448255  0.00786726  1
  O  O385  1  0.68607950  0.44448255  0.50786726  1
  O  O386  1  0.18607950  0.44448255  0.00786726  1
  O  O387  1  0.18607950  0.44448255  0.50786726  1
  O  O388  1  0.43607950  0.19448255  0.00786726  1
  O  O389  1  0.43607950  0.19448255  0.50786726  1
  O  O390  1  0.68607950  -0.05551745  0.00786726  1
  O  O391  1  0.68607950  -0.05551745  0.50786726  1
  O  O392  1  -0.06392050  0.19448255  0.00786726  1
  O  O393  1  -0.06392050  0.19448255  0.50786726  1
  O  O394  1  0.18607950  -0.05551745  0.00786726  1
  O  O395  1  0.18607950  -0.05551745  0.50786726  1
  O  O396  1  0.43607950  -0.30551745  0.00786726  1
  O  O397  1  0.43607950  -0.30551745  0.50786726  1
  O  O398  1  -0.06392050  -0.30551745  0.00786726  1
  O  O399  1  -0.06392050  -0.30551745  0.50786726  1
  O  O400  1  0.69448255  0.43607950  0.24213274  1
  O  O401  1  0.69448255  0.43607950  0.74213274  1
  O  O402  1  0.19448255  0.43607950  0.24213274  1
  O  O403  1  0.19448255  0.43607950  0.74213274  1
  O  O404  1  0.44448255  0.18607950  0.24213274  1
  O  O405  1  0.44448255  0.18607950  0.74213274  1
  O  O406  1  0.69448255  -0.06392050  0.24213274  1
  O  O407  1  0.69448255  -0.06392050  0.74213274  1
  O  O408  1  -0.05551745  0.18607950  0.24213274  1
  O  O409  1  -0.05551745  0.18607950  0.74213274  1
  O  O410  1  0.19448255  -0.06392050  0.24213274  1
  O  O411  1  0.19448255  -0.06392050  0.74213274  1
  O  O412  1  0.44448255  -0.31392050  0.24213274  1
  O  O413  1  0.44448255  -0.31392050  0.74213274  1
  O  O414  1  -0.05551745  -0.31392050  0.24213274  1
  O  O415  1  -0.05551745  -0.31392050  0.74213274  1
  O  O416  1  0.57203954  0.44115920  0.12384025  1
  O  O417  1  0.57203954  0.44115920  0.62384025  1
  O  O418  1  0.07203954  0.44115920  0.12384025  1
  O  O419  1  0.07203954  0.44115920  0.62384025  1
  O  O420  1  0.32203954  0.19115920  0.12384025  1
  O  O421  1  0.32203954  0.19115920  0.62384025  1
  O  O422  1  0.57203954  -0.05884080  0.12384025  1
  O  O423  1  0.57203954  -0.05884080  0.62384025  1
  O  O424  1  -0.17796046  0.19115920  0.12384025  1
  O  O425  1  -0.17796046  0.19115920  0.62384025  1
  O  O426  1  0.07203954  -0.05884080  0.12384025  1
  O  O427  1  0.07203954  -0.05884080  0.62384025  1
  O  O428  1  0.32203954  -0.30884080  0.12384025  1
  O  O429  1  0.32203954  -0.30884080  0.62384025  1
  O  O430  1  -0.17796046  -0.30884080  0.12384025  1
  O  O431  1  -0.17796046  -0.30884080  0.62384025  1
  O  O432  1  0.69115920  0.32203954  0.12615975  1
  O  O433  1  0.69115920  0.32203954  0.62615975  1
  O  O434  1  0.19115920  0.32203954  0.12615975  1
  O  O435  1  0.19115920  0.32203954  0.62615975  1
  O  O436  1  0.44115920  0.07203954  0.12615975  1
  O  O437  1  0.44115920  0.07203954  0.62615975  1
  O  O438  1  0.69115920  -0.17796046  0.12615975  1
  O  O439  1  0.69115920  -0.17796046  0.62615975  1
  O  O440  1  -0.05884080  0.07203954  0.12615975  1
  O  O441  1  -0.05884080  0.07203954  0.62615975  1
  O  O442  1  0.19115920  -0.17796046  0.12615975  1
  O  O443  1  0.19115920  -0.17796046  0.62615975  1
  O  O444  1  0.44115920  -0.42796046  0.12615975  1
  O  O445  1  0.44115920  -0.42796046  0.62615975  1
  O  O446  1  -0.05884080  -0.42796046  0.12615975  1
  O  O447  1  -0.05884080  -0.42796046  0.62615975  1
