# generated using pymatgen
data_Sr3ZnPtO6
_symmetry_space_group_name_H-M   'P 1'
_cell_length_a   9.54002240
_cell_length_b   9.54002240
_cell_length_c   11.17035222
_cell_angle_alpha   90.00000000
_cell_angle_beta   90.00000000
_cell_angle_gamma   120.00000000
_symmetry_Int_Tables_number   1
_chemical_formula_structural   Sr3ZnPtO6
_chemical_formula_sum   'Sr18 Zn6 Pt6 O36'
_cell_volume   880.43295069
_cell_formula_units_Z   6
loop_
 _symmetry_equiv_pos_site_id
 _symmetry_equiv_pos_as_xyz
  1  'x, y, z'
loop_
 _atom_site_type_symbol
 _atom_site_label
 _atom_site_symmetry_multiplicity
 _atom_site_fract_x
 _atom_site_fract_y
 _atom_site_fract_z
 _atom_site_occupancy
  Sr  Sr0  1  0.33333333  0.30217019  0.41666667  1
  Sr  Sr1  1  1.00000000  0.63550352  0.75000000  1
  Sr  Sr2  1  0.66666667  0.96883686  1.08333333  1
  Sr  Sr3  1  -0.30217019  0.03116314  0.41666667  1
  Sr  Sr4  1  0.36449648  0.36449648  0.75000000  1
  Sr  Sr5  1  0.03116314  0.69782981  1.08333333  1
  Sr  Sr6  1  0.03116314  0.33333333  0.58333333  1
  Sr  Sr7  1  0.69782981  0.66666667  0.91666667  1
  Sr  Sr8  1  0.36449648  1.00000000  1.25000000  1
  Sr  Sr9  1  -0.33333333  -0.30217019  0.58333333  1
  Sr  Sr10  1  0.33333333  0.03116314  0.91666667  1
  Sr  Sr11  1  -0.00000000  0.36449648  1.25000000  1
  Sr  Sr12  1  0.30217019  -0.03116314  0.58333333  1
  Sr  Sr13  1  0.96883686  0.30217019  0.91666667  1
  Sr  Sr14  1  0.63550352  0.63550352  1.25000000  1
  Sr  Sr15  1  -0.03116314  -0.33333333  0.41666667  1
  Sr  Sr16  1  0.63550352  0.00000000  0.75000000  1
  Sr  Sr17  1  0.30217019  0.33333333  1.08333333  1
  Zn  Zn18  1  -0.00000000  -0.00000000  0.75000000  1
  Zn  Zn19  1  0.66666667  0.33333333  1.08333333  1
  Zn  Zn20  1  0.33333333  0.66666667  1.41666667  1
  Zn  Zn21  1  -0.00000000  0.00000000  0.25000000  1
  Zn  Zn22  1  0.66666667  0.33333333  0.58333333  1
  Zn  Zn23  1  0.33333333  0.66666667  0.91666667  1
  Pt  Pt24  1  -0.00000000  0.00000000  0.50000000  1
  Pt  Pt25  1  0.66666667  0.33333333  0.83333333  1
  Pt  Pt26  1  0.33333333  0.66666667  1.16666667  1
  Pt  Pt27  1  0.00000000  -0.00000000  -0.00000000  1
  Pt  Pt28  1  0.66666667  0.33333333  0.33333333  1
  Pt  Pt29  1  0.33333333  0.66666667  0.66666667  1
  O  O30  1  -0.35311588  -0.51435743  0.44869101  1
  O  O31  1  0.31355078  -0.18102410  0.78202435  1
  O  O32  1  -0.01978255  0.15230924  1.11535768  1
  O  O33  1  0.51435743  0.16124155  0.44869101  1
  O  O34  1  1.18102410  0.49457488  0.78202435  1
  O  O35  1  0.84769076  0.82790821  1.11535768  1
  O  O36  1  -0.16124155  0.35311588  0.44869101  1
  O  O37  1  0.50542512  0.68644922  0.78202435  1
  O  O38  1  0.17209179  1.01978255  1.11535768  1
  O  O39  1  -0.17209179  -0.15230924  0.38464232  1
  O  O40  1  0.49457488  0.18102410  0.71797565  1
  O  O41  1  0.16124155  0.51435743  1.05130899  1
  O  O42  1  0.15230924  -0.01978255  0.38464232  1
  O  O43  1  0.81897590  0.31355078  0.71797565  1
  O  O44  1  0.48564257  0.64688412  1.05130899  1
  O  O45  1  0.01978255  0.17209179  0.38464232  1
  O  O46  1  0.68644922  0.50542512  0.71797565  1
  O  O47  1  0.35311588  0.83875845  1.05130899  1
  O  O48  1  0.35311588  0.51435743  0.55130899  1
  O  O49  1  1.01978255  0.84769076  0.88464232  1
  O  O50  1  0.68644922  1.18102410  1.21797565  1
  O  O51  1  -0.51435743  -0.16124155  0.55130899  1
  O  O52  1  0.15230924  0.17209179  0.88464232  1
  O  O53  1  -0.18102410  0.50542512  1.21797565  1
  O  O54  1  0.16124155  -0.35311588  0.55130899  1
  O  O55  1  0.82790821  -0.01978255  0.88464232  1
  O  O56  1  0.49457488  0.31355078  1.21797565  1
  O  O57  1  0.17209179  0.15230924  0.61535768  1
  O  O58  1  0.83875845  0.48564257  0.94869101  1
  O  O59  1  0.50542512  0.81897590  1.28202435  1
  O  O60  1  -0.01978255  -0.17209179  0.61535768  1
  O  O61  1  0.64688412  0.16124155  0.94869101  1
  O  O62  1  0.31355078  0.49457488  1.28202435  1
  O  O63  1  -0.15230924  0.01978255  0.61535768  1
  O  O64  1  0.51435743  0.35311588  0.94869101  1
  O  O65  1  0.18102410  0.68644922  1.28202435  1
