# generated using pymatgen
data_K4HfO4
_symmetry_space_group_name_H-M   'P 1'
_cell_length_a   19.62865590
_cell_length_b   19.67513804
_cell_length_c   19.68646217
_cell_angle_alpha   80.44755574
_cell_angle_beta   71.76452764
_cell_angle_gamma   67.26263893
_symmetry_Int_Tables_number   1
_chemical_formula_structural   K4HfO4
_chemical_formula_sum   'K144 Hf36 O144'
_cell_volume   6651.04969441
_cell_formula_units_Z   36
loop_
 _symmetry_equiv_pos_site_id
 _symmetry_equiv_pos_as_xyz
  1  'x, y, z'
loop_
 _atom_site_type_symbol
 _atom_site_label
 _atom_site_symmetry_multiplicity
 _atom_site_fract_x
 _atom_site_fract_y
 _atom_site_fract_z
 _atom_site_occupancy
  K  K0  1  0.31874685  0.07600853  0.30574772  1
  K  K1  1  0.31874685  0.07600853  0.80574772  1
  K  K2  1  0.31874685  0.40934186  0.30574772  1
  K  K3  1  0.31874685  0.40934186  0.80574772  1
  K  K4  1  0.31874685  0.74267520  0.30574772  1
  K  K5  1  0.31874685  0.74267520  0.80574772  1
  K  K6  1  0.65208019  0.07600853  0.30574772  1
  K  K7  1  0.65208019  0.07600853  0.80574772  1
  K  K8  1  0.65208019  0.40934186  0.30574772  1
  K  K9  1  0.65208019  0.40934186  0.80574772  1
  K  K10  1  0.65208019  0.74267520  0.30574772  1
  K  K11  1  0.65208019  0.74267520  0.80574772  1
  K  K12  1  0.98541352  0.07600853  0.30574772  1
  K  K13  1  0.98541352  0.07600853  0.80574772  1
  K  K14  1  0.98541352  0.40934186  0.30574772  1
  K  K15  1  0.98541352  0.40934186  0.80574772  1
  K  K16  1  0.98541352  0.74267520  0.30574772  1
  K  K17  1  0.98541352  0.74267520  0.80574772  1
  K  K18  1  0.01458648  0.25732480  0.19425228  1
  K  K19  1  0.01458648  0.25732480  0.69425228  1
  K  K20  1  0.01458648  0.59065814  0.19425228  1
  K  K21  1  0.01458648  0.59065814  0.69425228  1
  K  K22  1  0.01458648  0.92399147  0.19425228  1
  K  K23  1  0.01458648  0.92399147  0.69425228  1
  K  K24  1  0.34791981  0.25732480  0.19425228  1
  K  K25  1  0.34791981  0.25732480  0.69425228  1
  K  K26  1  0.34791981  0.59065814  0.19425228  1
  K  K27  1  0.34791981  0.59065814  0.69425228  1
  K  K28  1  0.34791981  0.92399147  0.19425228  1
  K  K29  1  0.34791981  0.92399147  0.69425228  1
  K  K30  1  0.68125315  0.25732480  0.19425228  1
  K  K31  1  0.68125315  0.25732480  0.69425228  1
  K  K32  1  0.68125315  0.59065814  0.19425228  1
  K  K33  1  0.68125315  0.59065814  0.69425228  1
  K  K34  1  0.68125315  0.92399147  0.19425228  1
  K  K35  1  0.68125315  0.92399147  0.69425228  1
  K  K36  1  0.13339435  0.08926969  0.41374260  1
  K  K37  1  0.13339435  0.08926969  0.91374260  1
  K  K38  1  0.13339435  0.42260303  0.41374260  1
  K  K39  1  0.13339435  0.42260303  0.91374260  1
  K  K40  1  0.13339435  0.75593636  0.41374260  1
  K  K41  1  0.13339435  0.75593636  0.91374260  1
  K  K42  1  0.46672768  0.08926969  0.41374260  1
  K  K43  1  0.46672768  0.08926969  0.91374260  1
  K  K44  1  0.46672768  0.42260303  0.41374260  1
  K  K45  1  0.46672768  0.42260303  0.91374260  1
  K  K46  1  0.46672768  0.75593636  0.41374260  1
  K  K47  1  0.46672768  0.75593636  0.91374260  1
  K  K48  1  0.80006101  0.08926969  0.41374260  1
  K  K49  1  0.80006101  0.08926969  0.91374260  1
  K  K50  1  0.80006101  0.42260303  0.41374260  1
  K  K51  1  0.80006101  0.42260303  0.91374260  1
  K  K52  1  0.80006101  0.75593636  0.41374260  1
  K  K53  1  0.80006101  0.75593636  0.91374260  1
  K  K54  1  0.19993899  0.24406364  0.08625740  1
  K  K55  1  0.19993899  0.24406364  0.58625740  1
  K  K56  1  0.19993899  0.57739697  0.08625740  1
  K  K57  1  0.19993899  0.57739697  0.58625740  1
  K  K58  1  0.19993899  0.91073031  0.08625740  1
  K  K59  1  0.19993899  0.91073031  0.58625740  1
  K  K60  1  0.53327232  0.24406364  0.08625740  1
  K  K61  1  0.53327232  0.24406364  0.58625740  1
  K  K62  1  0.53327232  0.57739697  0.08625740  1
  K  K63  1  0.53327232  0.57739697  0.58625740  1
  K  K64  1  0.53327232  0.91073031  0.08625740  1
  K  K65  1  0.53327232  0.91073031  0.58625740  1
  K  K66  1  0.86660565  0.24406364  0.08625740  1
  K  K67  1  0.86660565  0.24406364  0.58625740  1
  K  K68  1  0.86660565  0.57739697  0.08625740  1
  K  K69  1  0.86660565  0.57739697  0.58625740  1
  K  K70  1  0.86660565  0.91073031  0.08625740  1
  K  K71  1  0.86660565  0.91073031  0.58625740  1
  K  K72  1  0.07985524  0.25352319  0.49004846  1
  K  K73  1  0.07985524  0.25352319  0.99004846  1
  K  K74  1  0.07985524  0.58685652  0.49004846  1
  K  K75  1  0.07985524  0.58685652  0.99004846  1
  K  K76  1  0.07985524  0.92018985  0.49004846  1
  K  K77  1  0.07985524  0.92018985  0.99004846  1
  K  K78  1  0.41318857  0.25352319  0.49004846  1
  K  K79  1  0.41318857  0.25352319  0.99004846  1
  K  K80  1  0.41318857  0.58685652  0.49004846  1
  K  K81  1  0.41318857  0.58685652  0.99004846  1
  K  K82  1  0.41318857  0.92018985  0.49004846  1
  K  K83  1  0.41318857  0.92018985  0.99004846  1
  K  K84  1  0.74652191  0.25352319  0.49004846  1
  K  K85  1  0.74652191  0.25352319  0.99004846  1
  K  K86  1  0.74652191  0.58685652  0.49004846  1
  K  K87  1  0.74652191  0.58685652  0.99004846  1
  K  K88  1  0.74652191  0.92018985  0.49004846  1
  K  K89  1  0.74652191  0.92018985  0.99004846  1
  K  K90  1  0.25347809  0.07981015  0.00995154  1
  K  K91  1  0.25347809  0.07981015  0.50995154  1
  K  K92  1  0.25347809  0.41314348  0.00995154  1
  K  K93  1  0.25347809  0.41314348  0.50995154  1
  K  K94  1  0.25347809  0.74647681  0.00995154  1
  K  K95  1  0.25347809  0.74647681  0.50995154  1
  K  K96  1  0.58681143  0.07981015  0.00995154  1
  K  K97  1  0.58681143  0.07981015  0.50995154  1
  K  K98  1  0.58681143  0.41314348  0.00995154  1
  K  K99  1  0.58681143  0.41314348  0.50995154  1
  K  K100  1  0.58681143  0.74647681  0.00995154  1
  K  K101  1  0.58681143  0.74647681  0.50995154  1
  K  K102  1  0.92014476  0.07981015  0.00995154  1
  K  K103  1  0.92014476  0.07981015  0.50995154  1
  K  K104  1  0.92014476  0.41314348  0.00995154  1
  K  K105  1  0.92014476  0.41314348  0.50995154  1
  K  K106  1  0.92014476  0.74647681  0.00995154  1
  K  K107  1  0.92014476  0.74647681  0.50995154  1
  K  K108  1  0.16113259  0.24324286  0.28042442  1
  K  K109  1  0.16113259  0.24324286  0.78042442  1
  K  K110  1  0.16113259  0.57657619  0.28042442  1
  K  K111  1  0.16113259  0.57657619  0.78042442  1
  K  K112  1  0.16113259  0.90990953  0.28042442  1
  K  K113  1  0.16113259  0.90990953  0.78042442  1
  K  K114  1  0.49446592  0.24324286  0.28042442  1
  K  K115  1  0.49446592  0.24324286  0.78042442  1
  K  K116  1  0.49446592  0.57657619  0.28042442  1
  K  K117  1  0.49446592  0.57657619  0.78042442  1
  K  K118  1  0.49446592  0.90990953  0.28042442  1
  K  K119  1  0.49446592  0.90990953  0.78042442  1
  K  K120  1  0.82779925  0.24324286  0.28042442  1
  K  K121  1  0.82779925  0.24324286  0.78042442  1
  K  K122  1  0.82779925  0.57657619  0.28042442  1
  K  K123  1  0.82779925  0.57657619  0.78042442  1
  K  K124  1  0.82779925  0.90990953  0.28042442  1
  K  K125  1  0.82779925  0.90990953  0.78042442  1
  K  K126  1  0.17220075  0.09009047  0.21957558  1
  K  K127  1  0.17220075  0.09009047  0.71957558  1
  K  K128  1  0.17220075  0.42342381  0.21957558  1
  K  K129  1  0.17220075  0.42342381  0.71957558  1
  K  K130  1  0.17220075  0.75675714  0.21957558  1
  K  K131  1  0.17220075  0.75675714  0.71957558  1
  K  K132  1  0.50553408  0.09009047  0.21957558  1
  K  K133  1  0.50553408  0.09009047  0.71957558  1
  K  K134  1  0.50553408  0.42342381  0.21957558  1
  K  K135  1  0.50553408  0.42342381  0.71957558  1
  K  K136  1  0.50553408  0.75675714  0.21957558  1
  K  K137  1  0.50553408  0.75675714  0.71957558  1
  K  K138  1  0.83886741  0.09009047  0.21957558  1
  K  K139  1  0.83886741  0.09009047  0.71957558  1
  K  K140  1  0.83886741  0.42342381  0.21957558  1
  K  K141  1  0.83886741  0.42342381  0.71957558  1
  K  K142  1  0.83886741  0.75675714  0.21957558  1
  K  K143  1  0.83886741  0.75675714  0.71957558  1
  Hf  Hf144  1  0.28142258  0.24048031  0.37755955  1
  Hf  Hf145  1  0.28142258  0.24048031  0.87755955  1
  Hf  Hf146  1  0.28142258  0.57381364  0.37755955  1
  Hf  Hf147  1  0.28142258  0.57381364  0.87755955  1
  Hf  Hf148  1  0.28142258  0.90714697  0.37755955  1
  Hf  Hf149  1  0.28142258  0.90714697  0.87755955  1
  Hf  Hf150  1  0.61475591  0.24048031  0.37755955  1
  Hf  Hf151  1  0.61475591  0.24048031  0.87755955  1
  Hf  Hf152  1  0.61475591  0.57381364  0.37755955  1
  Hf  Hf153  1  0.61475591  0.57381364  0.87755955  1
  Hf  Hf154  1  0.61475591  0.90714697  0.37755955  1
  Hf  Hf155  1  0.61475591  0.90714697  0.87755955  1
  Hf  Hf156  1  0.94808924  0.24048031  0.37755955  1
  Hf  Hf157  1  0.94808924  0.24048031  0.87755955  1
  Hf  Hf158  1  0.94808924  0.57381364  0.37755955  1
  Hf  Hf159  1  0.94808924  0.57381364  0.87755955  1
  Hf  Hf160  1  0.94808924  0.90714697  0.37755955  1
  Hf  Hf161  1  0.94808924  0.90714697  0.87755955  1
  Hf  Hf162  1  0.05191076  0.09285303  0.12244045  1
  Hf  Hf163  1  0.05191076  0.09285303  0.62244045  1
  Hf  Hf164  1  0.05191076  0.42618636  0.12244045  1
  Hf  Hf165  1  0.05191076  0.42618636  0.62244045  1
  Hf  Hf166  1  0.05191076  0.75951969  0.12244045  1
  Hf  Hf167  1  0.05191076  0.75951969  0.62244045  1
  Hf  Hf168  1  0.38524409  0.09285303  0.12244045  1
  Hf  Hf169  1  0.38524409  0.09285303  0.62244045  1
  Hf  Hf170  1  0.38524409  0.42618636  0.12244045  1
  Hf  Hf171  1  0.38524409  0.42618636  0.62244045  1
  Hf  Hf172  1  0.38524409  0.75951969  0.12244045  1
  Hf  Hf173  1  0.38524409  0.75951969  0.62244045  1
  Hf  Hf174  1  0.71857742  0.09285303  0.12244045  1
  Hf  Hf175  1  0.71857742  0.09285303  0.62244045  1
  Hf  Hf176  1  0.71857742  0.42618636  0.12244045  1
  Hf  Hf177  1  0.71857742  0.42618636  0.62244045  1
  Hf  Hf178  1  0.71857742  0.75951969  0.12244045  1
  Hf  Hf179  1  0.71857742  0.75951969  0.62244045  1
  O  O180  1  0.23564376  0.32116647  0.31354926  1
  O  O181  1  0.23564376  0.32116647  0.81354926  1
  O  O182  1  0.23564376  0.65449981  0.31354926  1
  O  O183  1  0.23564376  0.65449981  0.81354926  1
  O  O184  1  0.23564376  0.98783314  0.31354926  1
  O  O185  1  0.23564376  0.98783314  0.81354926  1
  O  O186  1  0.56897709  0.32116647  0.31354926  1
  O  O187  1  0.56897709  0.32116647  0.81354926  1
  O  O188  1  0.56897709  0.65449981  0.31354926  1
  O  O189  1  0.56897709  0.65449981  0.81354926  1
  O  O190  1  0.56897709  0.98783314  0.31354926  1
  O  O191  1  0.56897709  0.98783314  0.81354926  1
  O  O192  1  0.90231042  0.32116647  0.31354926  1
  O  O193  1  0.90231042  0.32116647  0.81354926  1
  O  O194  1  0.90231042  0.65449981  0.31354926  1
  O  O195  1  0.90231042  0.65449981  0.81354926  1
  O  O196  1  0.90231042  0.98783314  0.31354926  1
  O  O197  1  0.90231042  0.98783314  0.81354926  1
  O  O198  1  0.09768958  0.01216686  0.18645074  1
  O  O199  1  0.09768958  0.01216686  0.68645074  1
  O  O200  1  0.09768958  0.34550019  0.18645074  1
  O  O201  1  0.09768958  0.34550019  0.68645074  1
  O  O202  1  0.09768958  0.67883353  0.18645074  1
  O  O203  1  0.09768958  0.67883353  0.68645074  1
  O  O204  1  0.43102291  0.01216686  0.18645074  1
  O  O205  1  0.43102291  0.01216686  0.68645074  1
  O  O206  1  0.43102291  0.34550019  0.18645074  1
  O  O207  1  0.43102291  0.34550019  0.68645074  1
  O  O208  1  0.43102291  0.67883353  0.18645074  1
  O  O209  1  0.43102291  0.67883353  0.68645074  1
  O  O210  1  0.76435624  0.01216686  0.18645074  1
  O  O211  1  0.76435624  0.01216686  0.68645074  1
  O  O212  1  0.76435624  0.34550019  0.18645074  1
  O  O213  1  0.76435624  0.34550019  0.68645074  1
  O  O214  1  0.76435624  0.67883353  0.18645074  1
  O  O215  1  0.76435624  0.67883353  0.68645074  1
  O  O216  1  0.28204209  0.15267943  0.17840859  1
  O  O217  1  0.28204209  0.15267943  0.67840859  1
  O  O218  1  0.28204209  0.48601276  0.17840859  1
  O  O219  1  0.28204209  0.48601276  0.67840859  1
  O  O220  1  0.28204209  0.81934609  0.17840859  1
  O  O221  1  0.28204209  0.81934609  0.67840859  1
  O  O222  1  0.61537543  0.15267943  0.17840859  1
  O  O223  1  0.61537543  0.15267943  0.67840859  1
  O  O224  1  0.61537543  0.48601276  0.17840859  1
  O  O225  1  0.61537543  0.48601276  0.67840859  1
  O  O226  1  0.61537543  0.81934609  0.17840859  1
  O  O227  1  0.61537543  0.81934609  0.67840859  1
  O  O228  1  0.94870876  0.15267943  0.17840859  1
  O  O229  1  0.94870876  0.15267943  0.67840859  1
  O  O230  1  0.94870876  0.48601276  0.17840859  1
  O  O231  1  0.94870876  0.48601276  0.67840859  1
  O  O232  1  0.94870876  0.81934609  0.17840859  1
  O  O233  1  0.94870876  0.81934609  0.67840859  1
  O  O234  1  0.05129124  0.18065391  0.32159141  1
  O  O235  1  0.05129124  0.18065391  0.82159141  1
  O  O236  1  0.05129124  0.51398724  0.32159141  1
  O  O237  1  0.05129124  0.51398724  0.82159141  1
  O  O238  1  0.05129124  0.84732057  0.32159141  1
  O  O239  1  0.05129124  0.84732057  0.82159141  1
  O  O240  1  0.38462457  0.18065391  0.32159141  1
  O  O241  1  0.38462457  0.18065391  0.82159141  1
  O  O242  1  0.38462457  0.51398724  0.32159141  1
  O  O243  1  0.38462457  0.51398724  0.82159141  1
  O  O244  1  0.38462457  0.84732057  0.32159141  1
  O  O245  1  0.38462457  0.84732057  0.82159141  1
  O  O246  1  0.71795791  0.18065391  0.32159141  1
  O  O247  1  0.71795791  0.18065391  0.82159141  1
  O  O248  1  0.71795791  0.51398724  0.32159141  1
  O  O249  1  0.71795791  0.51398724  0.82159141  1
  O  O250  1  0.71795791  0.84732057  0.32159141  1
  O  O251  1  0.71795791  0.84732057  0.82159141  1
  O  O252  1  0.21799838  0.17853497  0.40286377  1
  O  O253  1  0.21799838  0.17853497  0.90286377  1
  O  O254  1  0.21799838  0.51186830  0.40286377  1
  O  O255  1  0.21799838  0.51186830  0.90286377  1
  O  O256  1  0.21799838  0.84520164  0.40286377  1
  O  O257  1  0.21799838  0.84520164  0.90286377  1
  O  O258  1  0.55133172  0.17853497  0.40286377  1
  O  O259  1  0.55133172  0.17853497  0.90286377  1
  O  O260  1  0.55133172  0.51186830  0.40286377  1
  O  O261  1  0.55133172  0.51186830  0.90286377  1
  O  O262  1  0.55133172  0.84520164  0.40286377  1
  O  O263  1  0.55133172  0.84520164  0.90286377  1
  O  O264  1  0.88466505  0.17853497  0.40286377  1
  O  O265  1  0.88466505  0.17853497  0.90286377  1
  O  O266  1  0.88466505  0.51186830  0.40286377  1
  O  O267  1  0.88466505  0.51186830  0.90286377  1
  O  O268  1  0.88466505  0.84520164  0.40286377  1
  O  O269  1  0.88466505  0.84520164  0.90286377  1
  O  O270  1  0.11533495  0.15479836  0.09713623  1
  O  O271  1  0.11533495  0.15479836  0.59713623  1
  O  O272  1  0.11533495  0.48813170  0.09713623  1
  O  O273  1  0.11533495  0.48813170  0.59713623  1
  O  O274  1  0.11533495  0.82146503  0.09713623  1
  O  O275  1  0.11533495  0.82146503  0.59713623  1
  O  O276  1  0.44866828  0.15479836  0.09713623  1
  O  O277  1  0.44866828  0.15479836  0.59713623  1
  O  O278  1  0.44866828  0.48813170  0.09713623  1
  O  O279  1  0.44866828  0.48813170  0.59713623  1
  O  O280  1  0.44866828  0.82146503  0.09713623  1
  O  O281  1  0.44866828  0.82146503  0.59713623  1
  O  O282  1  0.78200162  0.15479836  0.09713623  1
  O  O283  1  0.78200162  0.15479836  0.59713623  1
  O  O284  1  0.78200162  0.48813170  0.09713623  1
  O  O285  1  0.78200162  0.48813170  0.59713623  1
  O  O286  1  0.78200162  0.82146503  0.09713623  1
  O  O287  1  0.78200162  0.82146503  0.59713623  1
  O  O288  1  0.28194792  0.28370083  0.46011230  1
  O  O289  1  0.28194792  0.28370083  0.96011230  1
  O  O290  1  0.28194792  0.61703417  0.46011230  1
  O  O291  1  0.28194792  0.61703417  0.96011230  1
  O  O292  1  0.28194792  0.95036750  0.46011230  1
  O  O293  1  0.28194792  0.95036750  0.96011230  1
  O  O294  1  0.61528125  0.28370083  0.46011230  1
  O  O295  1  0.61528125  0.28370083  0.96011230  1
  O  O296  1  0.61528125  0.61703417  0.46011230  1
  O  O297  1  0.61528125  0.61703417  0.96011230  1
  O  O298  1  0.61528125  0.95036750  0.46011230  1
  O  O299  1  0.61528125  0.95036750  0.96011230  1
  O  O300  1  0.94861458  0.28370083  0.46011230  1
  O  O301  1  0.94861458  0.28370083  0.96011230  1
  O  O302  1  0.94861458  0.61703417  0.46011230  1
  O  O303  1  0.94861458  0.61703417  0.96011230  1
  O  O304  1  0.94861458  0.95036750  0.46011230  1
  O  O305  1  0.94861458  0.95036750  0.96011230  1
  O  O306  1  0.05138542  0.04963250  0.03988770  1
  O  O307  1  0.05138542  0.04963250  0.53988770  1
  O  O308  1  0.05138542  0.38296583  0.03988770  1
  O  O309  1  0.05138542  0.38296583  0.53988770  1
  O  O310  1  0.05138542  0.71629917  0.03988770  1
  O  O311  1  0.05138542  0.71629917  0.53988770  1
  O  O312  1  0.38471875  0.04963250  0.03988770  1
  O  O313  1  0.38471875  0.04963250  0.53988770  1
  O  O314  1  0.38471875  0.38296583  0.03988770  1
  O  O315  1  0.38471875  0.38296583  0.53988770  1
  O  O316  1  0.38471875  0.71629917  0.03988770  1
  O  O317  1  0.38471875  0.71629917  0.53988770  1
  O  O318  1  0.71805208  0.04963250  0.03988770  1
  O  O319  1  0.71805208  0.04963250  0.53988770  1
  O  O320  1  0.71805208  0.38296583  0.03988770  1
  O  O321  1  0.71805208  0.38296583  0.53988770  1
  O  O322  1  0.71805208  0.71629917  0.03988770  1
  O  O323  1  0.71805208  0.71629917  0.53988770  1
