# generated using pymatgen
data_Sr2Sb2O7
_symmetry_space_group_name_H-M   'P 1'
_cell_length_a   14.99040109
_cell_length_b   20.81212629
_cell_length_c   15.43091484
_cell_angle_alpha   90.00000000
_cell_angle_beta   90.00000000
_cell_angle_gamma   90.00000000
_symmetry_Int_Tables_number   1
_chemical_formula_structural   Sr2Sb2O7
_chemical_formula_sum   'Sr64 Sb64 O224'
_cell_volume   4814.16953753
_cell_formula_units_Z   32
loop_
 _symmetry_equiv_pos_site_id
 _symmetry_equiv_pos_as_xyz
  1  'x, y, z'
loop_
 _atom_site_type_symbol
 _atom_site_label
 _atom_site_symmetry_multiplicity
 _atom_site_fract_x
 _atom_site_fract_y
 _atom_site_fract_z
 _atom_site_occupancy
  Sr  Sr0  1  0.12500000  0.12500000  -0.12500000  1
  Sr  Sr1  1  0.12500000  0.12500000  0.37500000  1
  Sr  Sr2  1  0.12500000  0.62500000  -0.12500000  1
  Sr  Sr3  1  0.12500000  0.62500000  0.37500000  1
  Sr  Sr4  1  0.62500000  0.12500000  -0.12500000  1
  Sr  Sr5  1  0.62500000  0.12500000  0.37500000  1
  Sr  Sr6  1  0.62500000  0.62500000  -0.12500000  1
  Sr  Sr7  1  0.62500000  0.62500000  0.37500000  1
  Sr  Sr8  1  0.37500000  0.37500000  0.12500000  1
  Sr  Sr9  1  0.37500000  0.37500000  0.62500000  1
  Sr  Sr10  1  0.37500000  0.87500000  0.12500000  1
  Sr  Sr11  1  0.37500000  0.87500000  0.62500000  1
  Sr  Sr12  1  0.87500000  0.37500000  0.12500000  1
  Sr  Sr13  1  0.87500000  0.37500000  0.62500000  1
  Sr  Sr14  1  0.87500000  0.87500000  0.12500000  1
  Sr  Sr15  1  0.87500000  0.87500000  0.62500000  1
  Sr  Sr16  1  0.12500000  -0.12500000  0.12500000  1
  Sr  Sr17  1  0.12500000  -0.12500000  0.62500000  1
  Sr  Sr18  1  0.12500000  0.37500000  0.12500000  1
  Sr  Sr19  1  0.12500000  0.37500000  0.62500000  1
  Sr  Sr20  1  0.62500000  -0.12500000  0.12500000  1
  Sr  Sr21  1  0.62500000  -0.12500000  0.62500000  1
  Sr  Sr22  1  0.62500000  0.37500000  0.12500000  1
  Sr  Sr23  1  0.62500000  0.37500000  0.62500000  1
  Sr  Sr24  1  0.37500000  0.12500000  0.37500000  1
  Sr  Sr25  1  0.37500000  0.12500000  0.87500000  1
  Sr  Sr26  1  0.37500000  0.62500000  0.37500000  1
  Sr  Sr27  1  0.37500000  0.62500000  0.87500000  1
  Sr  Sr28  1  0.87500000  0.12500000  0.37500000  1
  Sr  Sr29  1  0.87500000  0.12500000  0.87500000  1
  Sr  Sr30  1  0.87500000  0.62500000  0.37500000  1
  Sr  Sr31  1  0.87500000  0.62500000  0.87500000  1
  Sr  Sr32  1  0.00000000  0.25000000  0.00000000  1
  Sr  Sr33  1  0.00000000  0.25000000  0.50000000  1
  Sr  Sr34  1  0.00000000  0.75000000  0.00000000  1
  Sr  Sr35  1  0.00000000  0.75000000  0.50000000  1
  Sr  Sr36  1  0.50000000  0.25000000  0.00000000  1
  Sr  Sr37  1  0.50000000  0.25000000  0.50000000  1
  Sr  Sr38  1  0.50000000  0.75000000  0.00000000  1
  Sr  Sr39  1  0.50000000  0.75000000  0.50000000  1
  Sr  Sr40  1  0.25000000  0.50000000  0.25000000  1
  Sr  Sr41  1  0.25000000  0.50000000  0.75000000  1
  Sr  Sr42  1  0.25000000  1.00000000  0.25000000  1
  Sr  Sr43  1  0.25000000  1.00000000  0.75000000  1
  Sr  Sr44  1  0.75000000  0.50000000  0.25000000  1
  Sr  Sr45  1  0.75000000  0.50000000  0.75000000  1
  Sr  Sr46  1  0.75000000  1.00000000  0.25000000  1
  Sr  Sr47  1  0.75000000  1.00000000  0.75000000  1
  Sr  Sr48  1  0.00000000  0.00000000  0.00000000  1
  Sr  Sr49  1  0.00000000  0.00000000  0.50000000  1
  Sr  Sr50  1  0.00000000  0.50000000  0.00000000  1
  Sr  Sr51  1  0.00000000  0.50000000  0.50000000  1
  Sr  Sr52  1  0.50000000  0.00000000  0.00000000  1
  Sr  Sr53  1  0.50000000  0.00000000  0.50000000  1
  Sr  Sr54  1  0.50000000  0.50000000  0.00000000  1
  Sr  Sr55  1  0.50000000  0.50000000  0.50000000  1
  Sr  Sr56  1  0.25000000  0.25000000  0.25000000  1
  Sr  Sr57  1  0.25000000  0.25000000  0.75000000  1
  Sr  Sr58  1  0.25000000  0.75000000  0.25000000  1
  Sr  Sr59  1  0.25000000  0.75000000  0.75000000  1
  Sr  Sr60  1  0.75000000  0.25000000  0.25000000  1
  Sr  Sr61  1  0.75000000  0.25000000  0.75000000  1
  Sr  Sr62  1  0.75000000  0.75000000  0.25000000  1
  Sr  Sr63  1  0.75000000  0.75000000  0.75000000  1
  Sb  Sb64  1  0.12500000  0.12500000  0.12500000  1
  Sb  Sb65  1  0.12500000  0.12500000  0.62500000  1
  Sb  Sb66  1  0.12500000  0.62500000  0.12500000  1
  Sb  Sb67  1  0.12500000  0.62500000  0.62500000  1
  Sb  Sb68  1  0.62500000  0.12500000  0.12500000  1
  Sb  Sb69  1  0.62500000  0.12500000  0.62500000  1
  Sb  Sb70  1  0.62500000  0.62500000  0.12500000  1
  Sb  Sb71  1  0.62500000  0.62500000  0.62500000  1
  Sb  Sb72  1  0.37500000  0.37500000  0.37500000  1
  Sb  Sb73  1  0.37500000  0.37500000  0.87500000  1
  Sb  Sb74  1  0.37500000  0.87500000  0.37500000  1
  Sb  Sb75  1  0.37500000  0.87500000  0.87500000  1
  Sb  Sb76  1  0.87500000  0.37500000  0.37500000  1
  Sb  Sb77  1  0.87500000  0.37500000  0.87500000  1
  Sb  Sb78  1  0.87500000  0.87500000  0.37500000  1
  Sb  Sb79  1  0.87500000  0.87500000  0.87500000  1
  Sb  Sb80  1  -0.12500000  0.12500000  0.12500000  1
  Sb  Sb81  1  -0.12500000  0.12500000  0.62500000  1
  Sb  Sb82  1  -0.12500000  0.62500000  0.12500000  1
  Sb  Sb83  1  -0.12500000  0.62500000  0.62500000  1
  Sb  Sb84  1  0.37500000  0.12500000  0.12500000  1
  Sb  Sb85  1  0.37500000  0.12500000  0.62500000  1
  Sb  Sb86  1  0.37500000  0.62500000  0.12500000  1
  Sb  Sb87  1  0.37500000  0.62500000  0.62500000  1
  Sb  Sb88  1  0.12500000  0.37500000  0.37500000  1
  Sb  Sb89  1  0.12500000  0.37500000  0.87500000  1
  Sb  Sb90  1  0.12500000  0.87500000  0.37500000  1
  Sb  Sb91  1  0.12500000  0.87500000  0.87500000  1
  Sb  Sb92  1  0.62500000  0.37500000  0.37500000  1
  Sb  Sb93  1  0.62500000  0.37500000  0.87500000  1
  Sb  Sb94  1  0.62500000  0.87500000  0.37500000  1
  Sb  Sb95  1  0.62500000  0.87500000  0.87500000  1
  Sb  Sb96  1  0.25000000  0.00000000  0.00000000  1
  Sb  Sb97  1  0.25000000  0.00000000  0.50000000  1
  Sb  Sb98  1  0.25000000  0.50000000  0.00000000  1
  Sb  Sb99  1  0.25000000  0.50000000  0.50000000  1
  Sb  Sb100  1  0.75000000  0.00000000  0.00000000  1
  Sb  Sb101  1  0.75000000  0.00000000  0.50000000  1
  Sb  Sb102  1  0.75000000  0.50000000  0.00000000  1
  Sb  Sb103  1  0.75000000  0.50000000  0.50000000  1
  Sb  Sb104  1  0.50000000  0.25000000  0.25000000  1
  Sb  Sb105  1  0.50000000  0.25000000  0.75000000  1
  Sb  Sb106  1  0.50000000  0.75000000  0.25000000  1
  Sb  Sb107  1  0.50000000  0.75000000  0.75000000  1
  Sb  Sb108  1  1.00000000  0.25000000  0.25000000  1
  Sb  Sb109  1  1.00000000  0.25000000  0.75000000  1
  Sb  Sb110  1  1.00000000  0.75000000  0.25000000  1
  Sb  Sb111  1  1.00000000  0.75000000  0.75000000  1
  Sb  Sb112  1  0.00000000  0.00000000  0.25000000  1
  Sb  Sb113  1  0.00000000  0.00000000  0.75000000  1
  Sb  Sb114  1  0.00000000  0.50000000  0.25000000  1
  Sb  Sb115  1  0.00000000  0.50000000  0.75000000  1
  Sb  Sb116  1  0.50000000  0.00000000  0.25000000  1
  Sb  Sb117  1  0.50000000  0.00000000  0.75000000  1
  Sb  Sb118  1  0.50000000  0.50000000  0.25000000  1
  Sb  Sb119  1  0.50000000  0.50000000  0.75000000  1
  Sb  Sb120  1  0.25000000  0.25000000  0.50000000  1
  Sb  Sb121  1  0.25000000  0.25000000  1.00000000  1
  Sb  Sb122  1  0.25000000  0.75000000  0.50000000  1
  Sb  Sb123  1  0.25000000  0.75000000  1.00000000  1
  Sb  Sb124  1  0.75000000  0.25000000  0.50000000  1
  Sb  Sb125  1  0.75000000  0.25000000  1.00000000  1
  Sb  Sb126  1  0.75000000  0.75000000  0.50000000  1
  Sb  Sb127  1  0.75000000  0.75000000  1.00000000  1
  O  O128  1  0.10256457  0.19064279  0.21638435  1
  O  O129  1  0.10256457  0.19064279  0.71638435  1
  O  O130  1  0.10256457  0.69064279  0.21638435  1
  O  O131  1  0.10256457  0.69064279  0.71638435  1
  O  O132  1  0.60256457  0.19064279  0.21638435  1
  O  O133  1  0.60256457  0.19064279  0.71638435  1
  O  O134  1  0.60256457  0.69064279  0.21638435  1
  O  O135  1  0.60256457  0.69064279  0.71638435  1
  O  O136  1  0.35256457  0.44064279  0.46638435  1
  O  O137  1  0.35256457  0.44064279  0.96638435  1
  O  O138  1  0.35256457  0.94064279  0.46638435  1
  O  O139  1  0.35256457  0.94064279  0.96638435  1
  O  O140  1  0.85256457  0.44064279  0.46638435  1
  O  O141  1  0.85256457  0.44064279  0.96638435  1
  O  O142  1  0.85256457  0.94064279  0.46638435  1
  O  O143  1  0.85256457  0.94064279  0.96638435  1
  O  O144  1  0.35256457  0.05935721  0.03361565  1
  O  O145  1  0.35256457  0.05935721  0.53361565  1
  O  O146  1  0.35256457  0.55935721  0.03361565  1
  O  O147  1  0.35256457  0.55935721  0.53361565  1
  O  O148  1  0.85256457  0.05935721  0.03361565  1
  O  O149  1  0.85256457  0.05935721  0.53361565  1
  O  O150  1  0.85256457  0.55935721  0.03361565  1
  O  O151  1  0.85256457  0.55935721  0.53361565  1
  O  O152  1  0.60256457  0.30935721  0.28361565  1
  O  O153  1  0.60256457  0.30935721  0.78361565  1
  O  O154  1  0.60256457  0.80935721  0.28361565  1
  O  O155  1  0.60256457  0.80935721  0.78361565  1
  O  O156  1  1.10256457  0.30935721  0.28361565  1
  O  O157  1  1.10256457  0.30935721  0.78361565  1
  O  O158  1  1.10256457  0.80935721  0.28361565  1
  O  O159  1  1.10256457  0.80935721  0.78361565  1
  O  O160  1  0.14743543  0.30935721  -0.03361565  1
  O  O161  1  0.14743543  0.30935721  0.46638435  1
  O  O162  1  0.14743543  0.80935721  -0.03361565  1
  O  O163  1  0.14743543  0.80935721  0.46638435  1
  O  O164  1  0.64743543  0.30935721  -0.03361565  1
  O  O165  1  0.64743543  0.30935721  0.46638435  1
  O  O166  1  0.64743543  0.80935721  -0.03361565  1
  O  O167  1  0.64743543  0.80935721  0.46638435  1
  O  O168  1  0.39743543  0.55935721  0.21638435  1
  O  O169  1  0.39743543  0.55935721  0.71638435  1
  O  O170  1  0.39743543  1.05935721  0.21638435  1
  O  O171  1  0.39743543  1.05935721  0.71638435  1
  O  O172  1  0.89743543  0.55935721  0.21638435  1
  O  O173  1  0.89743543  0.55935721  0.71638435  1
  O  O174  1  0.89743543  1.05935721  0.21638435  1
  O  O175  1  0.89743543  1.05935721  0.71638435  1
  O  O176  1  0.14743543  0.19064279  0.03361565  1
  O  O177  1  0.14743543  0.19064279  0.53361565  1
  O  O178  1  0.14743543  0.69064279  0.03361565  1
  O  O179  1  0.14743543  0.69064279  0.53361565  1
  O  O180  1  0.64743543  0.19064279  0.03361565  1
  O  O181  1  0.64743543  0.19064279  0.53361565  1
  O  O182  1  0.64743543  0.69064279  0.03361565  1
  O  O183  1  0.64743543  0.69064279  0.53361565  1
  O  O184  1  0.39743543  0.44064279  0.28361565  1
  O  O185  1  0.39743543  0.44064279  0.78361565  1
  O  O186  1  0.39743543  0.94064279  0.28361565  1
  O  O187  1  0.39743543  0.94064279  0.78361565  1
  O  O188  1  0.89743543  0.44064279  0.28361565  1
  O  O189  1  0.89743543  0.44064279  0.78361565  1
  O  O190  1  0.89743543  0.94064279  0.28361565  1
  O  O191  1  0.89743543  0.94064279  0.78361565  1
  O  O192  1  0.14743543  0.05935721  0.03361565  1
  O  O193  1  0.14743543  0.05935721  0.53361565  1
  O  O194  1  0.14743543  0.55935721  0.03361565  1
  O  O195  1  0.14743543  0.55935721  0.53361565  1
  O  O196  1  0.64743543  0.05935721  0.03361565  1
  O  O197  1  0.64743543  0.05935721  0.53361565  1
  O  O198  1  0.64743543  0.55935721  0.03361565  1
  O  O199  1  0.64743543  0.55935721  0.53361565  1
  O  O200  1  0.39743543  0.30935721  0.28361565  1
  O  O201  1  0.39743543  0.30935721  0.78361565  1
  O  O202  1  0.39743543  0.80935721  0.28361565  1
  O  O203  1  0.39743543  0.80935721  0.78361565  1
  O  O204  1  0.89743543  0.30935721  0.28361565  1
  O  O205  1  0.89743543  0.30935721  0.78361565  1
  O  O206  1  0.89743543  0.80935721  0.28361565  1
  O  O207  1  0.89743543  0.80935721  0.78361565  1
  O  O208  1  -0.10256457  0.19064279  0.21638435  1
  O  O209  1  -0.10256457  0.19064279  0.71638435  1
  O  O210  1  -0.10256457  0.69064279  0.21638435  1
  O  O211  1  -0.10256457  0.69064279  0.71638435  1
  O  O212  1  0.39743543  0.19064279  0.21638435  1
  O  O213  1  0.39743543  0.19064279  0.71638435  1
  O  O214  1  0.39743543  0.69064279  0.21638435  1
  O  O215  1  0.39743543  0.69064279  0.71638435  1
  O  O216  1  0.14743543  0.44064279  0.46638435  1
  O  O217  1  0.14743543  0.44064279  0.96638435  1
  O  O218  1  0.14743543  0.94064279  0.46638435  1
  O  O219  1  0.14743543  0.94064279  0.96638435  1
  O  O220  1  0.64743543  0.44064279  0.46638435  1
  O  O221  1  0.64743543  0.44064279  0.96638435  1
  O  O222  1  0.64743543  0.94064279  0.46638435  1
  O  O223  1  0.64743543  0.94064279  0.96638435  1
  O  O224  1  0.10256457  -0.05935721  0.28361565  1
  O  O225  1  0.10256457  -0.05935721  0.78361565  1
  O  O226  1  0.10256457  0.44064279  0.28361565  1
  O  O227  1  0.10256457  0.44064279  0.78361565  1
  O  O228  1  0.60256457  -0.05935721  0.28361565  1
  O  O229  1  0.60256457  -0.05935721  0.78361565  1
  O  O230  1  0.60256457  0.44064279  0.28361565  1
  O  O231  1  0.60256457  0.44064279  0.78361565  1
  O  O232  1  0.35256457  0.19064279  0.53361565  1
  O  O233  1  0.35256457  0.19064279  1.03361565  1
  O  O234  1  0.35256457  0.69064279  0.53361565  1
  O  O235  1  0.35256457  0.69064279  1.03361565  1
  O  O236  1  0.85256457  0.19064279  0.53361565  1
  O  O237  1  0.85256457  0.19064279  1.03361565  1
  O  O238  1  0.85256457  0.69064279  0.53361565  1
  O  O239  1  0.85256457  0.69064279  1.03361565  1
  O  O240  1  0.10256457  0.05935721  0.21638435  1
  O  O241  1  0.10256457  0.05935721  0.71638435  1
  O  O242  1  0.10256457  0.55935721  0.21638435  1
  O  O243  1  0.10256457  0.55935721  0.71638435  1
  O  O244  1  0.60256457  0.05935721  0.21638435  1
  O  O245  1  0.60256457  0.05935721  0.71638435  1
  O  O246  1  0.60256457  0.55935721  0.21638435  1
  O  O247  1  0.60256457  0.55935721  0.71638435  1
  O  O248  1  0.35256457  0.30935721  0.46638435  1
  O  O249  1  0.35256457  0.30935721  0.96638435  1
  O  O250  1  0.35256457  0.80935721  0.46638435  1
  O  O251  1  0.35256457  0.80935721  0.96638435  1
  O  O252  1  0.85256457  0.30935721  0.46638435  1
  O  O253  1  0.85256457  0.30935721  0.96638435  1
  O  O254  1  0.85256457  0.80935721  0.46638435  1
  O  O255  1  0.85256457  0.80935721  0.96638435  1
  O  O256  1  0.00000000  0.12500000  0.07561785  1
  O  O257  1  0.00000000  0.12500000  0.57561785  1
  O  O258  1  0.00000000  0.62500000  0.07561785  1
  O  O259  1  0.00000000  0.62500000  0.57561785  1
  O  O260  1  0.50000000  0.12500000  0.07561785  1
  O  O261  1  0.50000000  0.12500000  0.57561785  1
  O  O262  1  0.50000000  0.62500000  0.07561785  1
  O  O263  1  0.50000000  0.62500000  0.57561785  1
  O  O264  1  0.25000000  0.37500000  0.32561785  1
  O  O265  1  0.25000000  0.37500000  0.82561785  1
  O  O266  1  0.25000000  0.87500000  0.32561785  1
  O  O267  1  0.25000000  0.87500000  0.82561785  1
  O  O268  1  0.75000000  0.37500000  0.32561785  1
  O  O269  1  0.75000000  0.37500000  0.82561785  1
  O  O270  1  0.75000000  0.87500000  0.32561785  1
  O  O271  1  0.75000000  0.87500000  0.82561785  1
  O  O272  1  0.25000000  0.12500000  0.17438215  1
  O  O273  1  0.25000000  0.12500000  0.67438215  1
  O  O274  1  0.25000000  0.62500000  0.17438215  1
  O  O275  1  0.25000000  0.62500000  0.67438215  1
  O  O276  1  0.75000000  0.12500000  0.17438215  1
  O  O277  1  0.75000000  0.12500000  0.67438215  1
  O  O278  1  0.75000000  0.62500000  0.17438215  1
  O  O279  1  0.75000000  0.62500000  0.67438215  1
  O  O280  1  0.50000000  0.37500000  0.42438215  1
  O  O281  1  0.50000000  0.37500000  0.92438215  1
  O  O282  1  0.50000000  0.87500000  0.42438215  1
  O  O283  1  0.50000000  0.87500000  0.92438215  1
  O  O284  1  1.00000000  0.37500000  0.42438215  1
  O  O285  1  1.00000000  0.37500000  0.92438215  1
  O  O286  1  1.00000000  0.87500000  0.42438215  1
  O  O287  1  1.00000000  0.87500000  0.92438215  1
  O  O288  1  0.25000000  -0.04604038  0.10975122  1
  O  O289  1  0.25000000  -0.04604038  0.60975122  1
  O  O290  1  0.25000000  0.45395962  0.10975122  1
  O  O291  1  0.25000000  0.45395962  0.60975122  1
  O  O292  1  0.75000000  -0.04604038  0.10975122  1
  O  O293  1  0.75000000  -0.04604038  0.60975122  1
  O  O294  1  0.75000000  0.45395962  0.10975122  1
  O  O295  1  0.75000000  0.45395962  0.60975122  1
  O  O296  1  0.50000000  0.20395962  0.35975122  1
  O  O297  1  0.50000000  0.20395962  0.85975122  1
  O  O298  1  0.50000000  0.70395962  0.35975122  1
  O  O299  1  0.50000000  0.70395962  0.85975122  1
  O  O300  1  1.00000000  0.20395962  0.35975122  1
  O  O301  1  1.00000000  0.20395962  0.85975122  1
  O  O302  1  1.00000000  0.70395962  0.35975122  1
  O  O303  1  1.00000000  0.70395962  0.85975122  1
  O  O304  1  0.00000000  0.29604038  0.14024878  1
  O  O305  1  0.00000000  0.29604038  0.64024878  1
  O  O306  1  0.00000000  0.79604038  0.14024878  1
  O  O307  1  0.00000000  0.79604038  0.64024878  1
  O  O308  1  0.50000000  0.29604038  0.14024878  1
  O  O309  1  0.50000000  0.29604038  0.64024878  1
  O  O310  1  0.50000000  0.79604038  0.14024878  1
  O  O311  1  0.50000000  0.79604038  0.64024878  1
  O  O312  1  0.25000000  0.54604038  0.39024878  1
  O  O313  1  0.25000000  0.54604038  0.89024878  1
  O  O314  1  0.25000000  1.04604038  0.39024878  1
  O  O315  1  0.25000000  1.04604038  0.89024878  1
  O  O316  1  0.75000000  0.54604038  0.39024878  1
  O  O317  1  0.75000000  0.54604038  0.89024878  1
  O  O318  1  0.75000000  1.04604038  0.39024878  1
  O  O319  1  0.75000000  1.04604038  0.89024878  1
  O  O320  1  0.00000000  0.04604038  0.35975122  1
  O  O321  1  0.00000000  0.04604038  0.85975122  1
  O  O322  1  0.00000000  0.54604038  0.35975122  1
  O  O323  1  0.00000000  0.54604038  0.85975122  1
  O  O324  1  0.50000000  0.04604038  0.35975122  1
  O  O325  1  0.50000000  0.04604038  0.85975122  1
  O  O326  1  0.50000000  0.54604038  0.35975122  1
  O  O327  1  0.50000000  0.54604038  0.85975122  1
  O  O328  1  0.25000000  0.29604038  0.60975122  1
  O  O329  1  0.25000000  0.29604038  1.10975122  1
  O  O330  1  0.25000000  0.79604038  0.60975122  1
  O  O331  1  0.25000000  0.79604038  1.10975122  1
  O  O332  1  0.75000000  0.29604038  0.60975122  1
  O  O333  1  0.75000000  0.29604038  1.10975122  1
  O  O334  1  0.75000000  0.79604038  0.60975122  1
  O  O335  1  0.75000000  0.79604038  1.10975122  1
  O  O336  1  0.25000000  0.20395962  -0.10975122  1
  O  O337  1  0.25000000  0.20395962  0.39024878  1
  O  O338  1  0.25000000  0.70395962  -0.10975122  1
  O  O339  1  0.25000000  0.70395962  0.39024878  1
  O  O340  1  0.75000000  0.20395962  -0.10975122  1
  O  O341  1  0.75000000  0.20395962  0.39024878  1
  O  O342  1  0.75000000  0.70395962  -0.10975122  1
  O  O343  1  0.75000000  0.70395962  0.39024878  1
  O  O344  1  0.50000000  0.45395962  0.14024878  1
  O  O345  1  0.50000000  0.45395962  0.64024878  1
  O  O346  1  0.50000000  0.95395962  0.14024878  1
  O  O347  1  0.50000000  0.95395962  0.64024878  1
  O  O348  1  1.00000000  0.45395962  0.14024878  1
  O  O349  1  1.00000000  0.45395962  0.64024878  1
  O  O350  1  1.00000000  0.95395962  0.14024878  1
  O  O351  1  1.00000000  0.95395962  0.64024878  1
