# generated using pymatgen
data_RbNaTiO3
_symmetry_space_group_name_H-M   'P 1'
_cell_length_a   11.67880528
_cell_length_b   10.96378832
_cell_length_c   11.05087886
_cell_angle_alpha   90.00000000
_cell_angle_beta   92.32345531
_cell_angle_gamma   90.00000000
_symmetry_Int_Tables_number   1
_chemical_formula_structural   RbNaTiO3
_chemical_formula_sum   'Rb16 Na16 Ti16 O48'
_cell_volume   1413.83487417
_cell_formula_units_Z   16
loop_
 _symmetry_equiv_pos_site_id
 _symmetry_equiv_pos_as_xyz
  1  'x, y, z'
loop_
 _atom_site_type_symbol
 _atom_site_label
 _atom_site_symmetry_multiplicity
 _atom_site_fract_x
 _atom_site_fract_y
 _atom_site_fract_z
 _atom_site_occupancy
  Rb  Rb0  1  0.25000000  0.23427322  0.37500000  1
  Rb  Rb1  1  0.25000000  0.23427322  0.87500000  1
  Rb  Rb2  1  0.75000000  0.23427322  0.37500000  1
  Rb  Rb3  1  0.75000000  0.23427322  0.87500000  1
  Rb  Rb4  1  0.50000000  0.73427322  0.37500000  1
  Rb  Rb5  1  0.50000000  0.73427322  0.87500000  1
  Rb  Rb6  1  1.00000000  0.73427322  0.37500000  1
  Rb  Rb7  1  1.00000000  0.73427322  0.87500000  1
  Rb  Rb8  1  0.25000000  -0.23427322  0.12500000  1
  Rb  Rb9  1  0.25000000  -0.23427322  0.62500000  1
  Rb  Rb10  1  0.75000000  -0.23427322  0.12500000  1
  Rb  Rb11  1  0.75000000  -0.23427322  0.62500000  1
  Rb  Rb12  1  0.50000000  0.26572678  0.12500000  1
  Rb  Rb13  1  0.50000000  0.26572678  0.62500000  1
  Rb  Rb14  1  1.00000000  0.26572678  0.12500000  1
  Rb  Rb15  1  1.00000000  0.26572678  0.62500000  1
  Na  Na16  1  0.25000000  -0.07502730  0.37500000  1
  Na  Na17  1  0.25000000  -0.07502730  0.87500000  1
  Na  Na18  1  0.75000000  -0.07502730  0.37500000  1
  Na  Na19  1  0.75000000  -0.07502730  0.87500000  1
  Na  Na20  1  0.50000000  0.42497270  0.37500000  1
  Na  Na21  1  0.50000000  0.42497270  0.87500000  1
  Na  Na22  1  1.00000000  0.42497270  0.37500000  1
  Na  Na23  1  1.00000000  0.42497270  0.87500000  1
  Na  Na24  1  0.25000000  0.07502730  0.12500000  1
  Na  Na25  1  0.25000000  0.07502730  0.62500000  1
  Na  Na26  1  0.75000000  0.07502730  0.12500000  1
  Na  Na27  1  0.75000000  0.07502730  0.62500000  1
  Na  Na28  1  0.50000000  0.57502730  0.12500000  1
  Na  Na29  1  0.50000000  0.57502730  0.62500000  1
  Na  Na30  1  1.00000000  0.57502730  0.12500000  1
  Na  Na31  1  1.00000000  0.57502730  0.62500000  1
  Ti  Ti32  1  0.25000000  0.44804262  0.12500000  1
  Ti  Ti33  1  0.25000000  0.44804262  0.62500000  1
  Ti  Ti34  1  0.75000000  0.44804262  0.12500000  1
  Ti  Ti35  1  0.75000000  0.44804262  0.62500000  1
  Ti  Ti36  1  0.50000000  0.94804262  0.12500000  1
  Ti  Ti37  1  0.50000000  0.94804262  0.62500000  1
  Ti  Ti38  1  1.00000000  0.94804262  0.12500000  1
  Ti  Ti39  1  1.00000000  0.94804262  0.62500000  1
  Ti  Ti40  1  0.25000000  -0.44804262  0.37500000  1
  Ti  Ti41  1  0.25000000  -0.44804262  0.87500000  1
  Ti  Ti42  1  0.75000000  -0.44804262  0.37500000  1
  Ti  Ti43  1  0.75000000  -0.44804262  0.87500000  1
  Ti  Ti44  1  0.50000000  0.05195738  0.37500000  1
  Ti  Ti45  1  0.50000000  0.05195738  0.87500000  1
  Ti  Ti46  1  1.00000000  0.05195738  0.37500000  1
  Ti  Ti47  1  1.00000000  0.05195738  0.87500000  1
  O  O48  1  0.10878547  -0.00795621  0.49951617  1
  O  O49  1  0.10878547  -0.00795621  0.99951617  1
  O  O50  1  0.60878547  -0.00795621  0.49951617  1
  O  O51  1  0.60878547  -0.00795621  0.99951617  1
  O  O52  1  0.35878547  0.49204379  0.49951617  1
  O  O53  1  0.35878547  0.49204379  0.99951617  1
  O  O54  1  0.85878547  0.49204379  0.49951617  1
  O  O55  1  0.85878547  0.49204379  0.99951617  1
  O  O56  1  0.39121453  -0.00795621  0.25048383  1
  O  O57  1  0.39121453  -0.00795621  0.75048383  1
  O  O58  1  0.89121453  -0.00795621  0.25048383  1
  O  O59  1  0.89121453  -0.00795621  0.75048383  1
  O  O60  1  0.64121453  0.49204379  0.25048383  1
  O  O61  1  0.64121453  0.49204379  0.75048383  1
  O  O62  1  1.14121453  0.49204379  0.25048383  1
  O  O63  1  1.14121453  0.49204379  0.75048383  1
  O  O64  1  0.25000000  0.28504680  0.12500000  1
  O  O65  1  0.25000000  0.28504680  0.62500000  1
  O  O66  1  0.75000000  0.28504680  0.12500000  1
  O  O67  1  0.75000000  0.28504680  0.62500000  1
  O  O68  1  0.50000000  0.78504680  0.12500000  1
  O  O69  1  0.50000000  0.78504680  0.62500000  1
  O  O70  1  1.00000000  0.78504680  0.12500000  1
  O  O71  1  1.00000000  0.78504680  0.62500000  1
  O  O72  1  0.39121453  0.00795621  0.00048383  1
  O  O73  1  0.39121453  0.00795621  0.50048383  1
  O  O74  1  0.89121453  0.00795621  0.00048383  1
  O  O75  1  0.89121453  0.00795621  0.50048383  1
  O  O76  1  0.64121453  0.50795621  0.00048383  1
  O  O77  1  0.64121453  0.50795621  0.50048383  1
  O  O78  1  1.14121453  0.50795621  0.00048383  1
  O  O79  1  1.14121453  0.50795621  0.50048383  1
  O  O80  1  0.10878547  0.00795621  0.24951617  1
  O  O81  1  0.10878547  0.00795621  0.74951617  1
  O  O82  1  0.60878547  0.00795621  0.24951617  1
  O  O83  1  0.60878547  0.00795621  0.74951617  1
  O  O84  1  0.35878547  0.50795621  0.24951617  1
  O  O85  1  0.35878547  0.50795621  0.74951617  1
  O  O86  1  0.85878547  0.50795621  0.24951617  1
  O  O87  1  0.85878547  0.50795621  0.74951617  1
  O  O88  1  0.25000000  -0.28504680  0.37500000  1
  O  O89  1  0.25000000  -0.28504680  0.87500000  1
  O  O90  1  0.75000000  -0.28504680  0.37500000  1
  O  O91  1  0.75000000  -0.28504680  0.87500000  1
  O  O92  1  0.50000000  0.21495320  0.37500000  1
  O  O93  1  0.50000000  0.21495320  0.87500000  1
  O  O94  1  1.00000000  0.21495320  0.37500000  1
  O  O95  1  1.00000000  0.21495320  0.87500000  1
