# generated using pymatgen
data_Ba2Mg(BO3)2
_symmetry_space_group_name_H-M   'P 1'
_cell_length_a   16.06043171
_cell_length_b   16.06043171
_cell_length_c   16.41671147
_cell_angle_alpha   90.00000000
_cell_angle_beta   90.00000000
_cell_angle_gamma   120.00000000
_symmetry_Int_Tables_number   1
_chemical_formula_structural   Ba2Mg(BO3)2
_chemical_formula_sum   'Ba54 Mg27 B54 O162'
_cell_volume   3667.17155549
_cell_formula_units_Z   27
loop_
 _symmetry_equiv_pos_site_id
 _symmetry_equiv_pos_as_xyz
  1  'x, y, z'
loop_
 _atom_site_type_symbol
 _atom_site_label
 _atom_site_symmetry_multiplicity
 _atom_site_fract_x
 _atom_site_fract_y
 _atom_site_fract_z
 _atom_site_occupancy
  Ba  Ba0  1  0.00000000  -0.00000000  0.22339678  1
  Ba  Ba1  1  -0.00000000  0.33333333  0.22339678  1
  Ba  Ba2  1  -0.00000000  0.66666667  0.22339678  1
  Ba  Ba3  1  0.33333333  -0.00000000  0.22339678  1
  Ba  Ba4  1  0.33333333  0.33333333  0.22339678  1
  Ba  Ba5  1  0.33333333  0.66666667  0.22339678  1
  Ba  Ba6  1  0.66666667  -0.00000000  0.22339678  1
  Ba  Ba7  1  0.66666667  0.33333333  0.22339678  1
  Ba  Ba8  1  0.66666667  0.66666667  0.22339678  1
  Ba  Ba9  1  0.22222222  0.11111111  0.55673011  1
  Ba  Ba10  1  0.22222222  0.44444444  0.55673011  1
  Ba  Ba11  1  0.22222222  0.77777778  0.55673011  1
  Ba  Ba12  1  0.55555556  0.11111111  0.55673011  1
  Ba  Ba13  1  0.55555556  0.44444444  0.55673011  1
  Ba  Ba14  1  0.55555556  0.77777778  0.55673011  1
  Ba  Ba15  1  0.88888889  0.11111111  0.55673011  1
  Ba  Ba16  1  0.88888889  0.44444444  0.55673011  1
  Ba  Ba17  1  0.88888889  0.77777778  0.55673011  1
  Ba  Ba18  1  0.11111111  0.22222222  0.89006344  1
  Ba  Ba19  1  0.11111111  0.55555556  0.89006344  1
  Ba  Ba20  1  0.11111111  0.88888889  0.89006344  1
  Ba  Ba21  1  0.44444444  0.22222222  0.89006344  1
  Ba  Ba22  1  0.44444444  0.55555556  0.89006344  1
  Ba  Ba23  1  0.44444444  0.88888889  0.89006344  1
  Ba  Ba24  1  0.77777778  0.22222222  0.89006344  1
  Ba  Ba25  1  0.77777778  0.55555556  0.89006344  1
  Ba  Ba26  1  0.77777778  0.88888889  0.89006344  1
  Ba  Ba27  1  -0.00000000  -0.00000000  0.77660322  1
  Ba  Ba28  1  -0.00000000  0.33333333  0.77660322  1
  Ba  Ba29  1  -0.00000000  0.66666667  0.77660322  1
  Ba  Ba30  1  0.33333333  -0.00000000  0.77660322  1
  Ba  Ba31  1  0.33333333  0.33333333  0.77660322  1
  Ba  Ba32  1  0.33333333  0.66666667  0.77660322  1
  Ba  Ba33  1  0.66666667  -0.00000000  0.77660322  1
  Ba  Ba34  1  0.66666667  0.33333333  0.77660322  1
  Ba  Ba35  1  0.66666667  0.66666667  0.77660322  1
  Ba  Ba36  1  0.22222222  0.11111111  1.10993656  1
  Ba  Ba37  1  0.22222222  0.44444444  1.10993656  1
  Ba  Ba38  1  0.22222222  0.77777778  1.10993656  1
  Ba  Ba39  1  0.55555556  0.11111111  1.10993656  1
  Ba  Ba40  1  0.55555556  0.44444444  1.10993656  1
  Ba  Ba41  1  0.55555556  0.77777778  1.10993656  1
  Ba  Ba42  1  0.88888889  0.11111111  1.10993656  1
  Ba  Ba43  1  0.88888889  0.44444444  1.10993656  1
  Ba  Ba44  1  0.88888889  0.77777778  1.10993656  1
  Ba  Ba45  1  0.11111111  0.22222222  1.44326989  1
  Ba  Ba46  1  0.11111111  0.55555556  1.44326989  1
  Ba  Ba47  1  0.11111111  0.88888889  1.44326989  1
  Ba  Ba48  1  0.44444444  0.22222222  1.44326989  1
  Ba  Ba49  1  0.44444444  0.55555556  1.44326989  1
  Ba  Ba50  1  0.44444444  0.88888889  1.44326989  1
  Ba  Ba51  1  0.77777778  0.22222222  1.44326989  1
  Ba  Ba52  1  0.77777778  0.55555556  1.44326989  1
  Ba  Ba53  1  0.77777778  0.88888889  1.44326989  1
  Mg  Mg54  1  -0.00000000  -0.00000000  -0.00000000  1
  Mg  Mg55  1  -0.00000000  0.33333333  -0.00000000  1
  Mg  Mg56  1  -0.00000000  0.66666667  -0.00000000  1
  Mg  Mg57  1  0.33333333  -0.00000000  -0.00000000  1
  Mg  Mg58  1  0.33333333  0.33333333  -0.00000000  1
  Mg  Mg59  1  0.33333333  0.66666667  -0.00000000  1
  Mg  Mg60  1  0.66666667  -0.00000000  -0.00000000  1
  Mg  Mg61  1  0.66666667  0.33333333  -0.00000000  1
  Mg  Mg62  1  0.66666667  0.66666667  -0.00000000  1
  Mg  Mg63  1  0.22222222  0.11111111  0.33333333  1
  Mg  Mg64  1  0.22222222  0.44444444  0.33333333  1
  Mg  Mg65  1  0.22222222  0.77777778  0.33333333  1
  Mg  Mg66  1  0.55555556  0.11111111  0.33333333  1
  Mg  Mg67  1  0.55555556  0.44444444  0.33333333  1
  Mg  Mg68  1  0.55555556  0.77777778  0.33333333  1
  Mg  Mg69  1  0.88888889  0.11111111  0.33333333  1
  Mg  Mg70  1  0.88888889  0.44444444  0.33333333  1
  Mg  Mg71  1  0.88888889  0.77777778  0.33333333  1
  Mg  Mg72  1  0.11111111  0.22222222  0.66666667  1
  Mg  Mg73  1  0.11111111  0.55555556  0.66666667  1
  Mg  Mg74  1  0.11111111  0.88888889  0.66666667  1
  Mg  Mg75  1  0.44444444  0.22222222  0.66666667  1
  Mg  Mg76  1  0.44444444  0.55555556  0.66666667  1
  Mg  Mg77  1  0.44444444  0.88888889  0.66666667  1
  Mg  Mg78  1  0.77777778  0.22222222  0.66666667  1
  Mg  Mg79  1  0.77777778  0.55555556  0.66666667  1
  Mg  Mg80  1  0.77777778  0.88888889  0.66666667  1
  B  B81  1  -0.00000000  0.00000000  0.58928806  1
  B  B82  1  -0.00000000  0.33333333  0.58928806  1
  B  B83  1  -0.00000000  0.66666667  0.58928806  1
  B  B84  1  0.33333333  0.00000000  0.58928806  1
  B  B85  1  0.33333333  0.33333333  0.58928806  1
  B  B86  1  0.33333333  0.66666667  0.58928806  1
  B  B87  1  0.66666667  0.00000000  0.58928806  1
  B  B88  1  0.66666667  0.33333333  0.58928806  1
  B  B89  1  0.66666667  0.66666667  0.58928806  1
  B  B90  1  0.22222222  0.11111111  0.92262139  1
  B  B91  1  0.22222222  0.44444444  0.92262139  1
  B  B92  1  0.22222222  0.77777778  0.92262139  1
  B  B93  1  0.55555556  0.11111111  0.92262139  1
  B  B94  1  0.55555556  0.44444444  0.92262139  1
  B  B95  1  0.55555556  0.77777778  0.92262139  1
  B  B96  1  0.88888889  0.11111111  0.92262139  1
  B  B97  1  0.88888889  0.44444444  0.92262139  1
  B  B98  1  0.88888889  0.77777778  0.92262139  1
  B  B99  1  0.11111111  0.22222222  1.25595473  1
  B  B100  1  0.11111111  0.55555556  1.25595473  1
  B  B101  1  0.11111111  0.88888889  1.25595473  1
  B  B102  1  0.44444444  0.22222222  1.25595473  1
  B  B103  1  0.44444444  0.55555556  1.25595473  1
  B  B104  1  0.44444444  0.88888889  1.25595473  1
  B  B105  1  0.77777778  0.22222222  1.25595473  1
  B  B106  1  0.77777778  0.55555556  1.25595473  1
  B  B107  1  0.77777778  0.88888889  1.25595473  1
  B  B108  1  0.00000000  -0.00000000  0.41071194  1
  B  B109  1  0.00000000  0.33333333  0.41071194  1
  B  B110  1  0.00000000  0.66666667  0.41071194  1
  B  B111  1  0.33333333  -0.00000000  0.41071194  1
  B  B112  1  0.33333333  0.33333333  0.41071194  1
  B  B113  1  0.33333333  0.66666667  0.41071194  1
  B  B114  1  0.66666667  -0.00000000  0.41071194  1
  B  B115  1  0.66666667  0.33333333  0.41071194  1
  B  B116  1  0.66666667  0.66666667  0.41071194  1
  B  B117  1  0.22222222  0.11111111  0.74404527  1
  B  B118  1  0.22222222  0.44444444  0.74404527  1
  B  B119  1  0.22222222  0.77777778  0.74404527  1
  B  B120  1  0.55555556  0.11111111  0.74404527  1
  B  B121  1  0.55555556  0.44444444  0.74404527  1
  B  B122  1  0.55555556  0.77777778  0.74404527  1
  B  B123  1  0.88888889  0.11111111  0.74404527  1
  B  B124  1  0.88888889  0.44444444  0.74404527  1
  B  B125  1  0.88888889  0.77777778  0.74404527  1
  B  B126  1  0.11111111  0.22222222  1.07737861  1
  B  B127  1  0.11111111  0.55555556  1.07737861  1
  B  B128  1  0.11111111  0.88888889  1.07737861  1
  B  B129  1  0.44444444  0.22222222  1.07737861  1
  B  B130  1  0.44444444  0.55555556  1.07737861  1
  B  B131  1  0.44444444  0.88888889  1.07737861  1
  B  B132  1  0.77777778  0.22222222  1.07737861  1
  B  B133  1  0.77777778  0.55555556  1.07737861  1
  B  B134  1  0.77777778  0.88888889  1.07737861  1
  O  O135  1  -0.05006120  0.05006120  0.40974697  1
  O  O136  1  -0.05006120  0.38339453  0.40974697  1
  O  O137  1  -0.05006120  0.71672786  0.40974697  1
  O  O138  1  0.28327214  0.05006120  0.40974697  1
  O  O139  1  0.28327214  0.38339453  0.40974697  1
  O  O140  1  0.28327214  0.71672786  0.40974697  1
  O  O141  1  0.61660547  0.05006120  0.40974697  1
  O  O142  1  0.61660547  0.38339453  0.40974697  1
  O  O143  1  0.61660547  0.71672786  0.40974697  1
  O  O144  1  0.17216103  0.16117231  0.74308030  1
  O  O145  1  0.17216103  0.49450564  0.74308030  1
  O  O146  1  0.17216103  0.82783897  0.74308030  1
  O  O147  1  0.50549436  0.16117231  0.74308030  1
  O  O148  1  0.50549436  0.49450564  0.74308030  1
  O  O149  1  0.50549436  0.82783897  0.74308030  1
  O  O150  1  0.83882769  0.16117231  0.74308030  1
  O  O151  1  0.83882769  0.49450564  0.74308030  1
  O  O152  1  0.83882769  0.82783897  0.74308030  1
  O  O153  1  0.06104992  0.27228342  1.07641363  1
  O  O154  1  0.06104992  0.60561675  1.07641363  1
  O  O155  1  0.06104992  0.93895008  1.07641363  1
  O  O156  1  0.39438325  0.27228342  1.07641363  1
  O  O157  1  0.39438325  0.60561675  1.07641363  1
  O  O158  1  0.39438325  0.93895008  1.07641363  1
  O  O159  1  0.72771658  0.27228342  1.07641363  1
  O  O160  1  0.72771658  0.60561675  1.07641363  1
  O  O161  1  0.72771658  0.93895008  1.07641363  1
  O  O162  1  0.10012239  0.05006120  0.40974697  1
  O  O163  1  0.10012239  0.38339453  0.40974697  1
  O  O164  1  0.10012239  0.71672786  0.40974697  1
  O  O165  1  0.43345573  0.05006120  0.40974697  1
  O  O166  1  0.43345573  0.38339453  0.40974697  1
  O  O167  1  0.43345573  0.71672786  0.40974697  1
  O  O168  1  0.76678906  0.05006120  0.40974697  1
  O  O169  1  0.76678906  0.38339453  0.40974697  1
  O  O170  1  0.76678906  0.71672786  0.40974697  1
  O  O171  1  0.32234461  0.16117231  0.74308030  1
  O  O172  1  0.32234461  0.49450564  0.74308030  1
  O  O173  1  0.32234461  0.82783897  0.74308030  1
  O  O174  1  0.65567795  0.16117231  0.74308030  1
  O  O175  1  0.65567795  0.49450564  0.74308030  1
  O  O176  1  0.65567795  0.82783897  0.74308030  1
  O  O177  1  0.98901128  0.16117231  0.74308030  1
  O  O178  1  0.98901128  0.49450564  0.74308030  1
  O  O179  1  0.98901128  0.82783897  0.74308030  1
  O  O180  1  0.21123350  0.27228342  1.07641363  1
  O  O181  1  0.21123350  0.60561675  1.07641363  1
  O  O182  1  0.21123350  0.93895008  1.07641363  1
  O  O183  1  0.54456684  0.27228342  1.07641363  1
  O  O184  1  0.54456684  0.60561675  1.07641363  1
  O  O185  1  0.54456684  0.93895008  1.07641363  1
  O  O186  1  0.87790017  0.27228342  1.07641363  1
  O  O187  1  0.87790017  0.60561675  1.07641363  1
  O  O188  1  0.87790017  0.93895008  1.07641363  1
  O  O189  1  -0.05006120  -0.10012239  0.40974697  1
  O  O190  1  -0.05006120  0.23321094  0.40974697  1
  O  O191  1  -0.05006120  0.56654427  0.40974697  1
  O  O192  1  0.28327214  -0.10012239  0.40974697  1
  O  O193  1  0.28327214  0.23321094  0.40974697  1
  O  O194  1  0.28327214  0.56654427  0.40974697  1
  O  O195  1  0.61660547  -0.10012239  0.40974697  1
  O  O196  1  0.61660547  0.23321094  0.40974697  1
  O  O197  1  0.61660547  0.56654427  0.40974697  1
  O  O198  1  0.17216103  0.01098872  0.74308030  1
  O  O199  1  0.17216103  0.34432205  0.74308030  1
  O  O200  1  0.17216103  0.67765539  0.74308030  1
  O  O201  1  0.50549436  0.01098872  0.74308030  1
  O  O202  1  0.50549436  0.34432205  0.74308030  1
  O  O203  1  0.50549436  0.67765539  0.74308030  1
  O  O204  1  0.83882769  0.01098872  0.74308030  1
  O  O205  1  0.83882769  0.34432205  0.74308030  1
  O  O206  1  0.83882769  0.67765539  0.74308030  1
  O  O207  1  0.06104992  0.12209983  1.07641363  1
  O  O208  1  0.06104992  0.45543316  1.07641363  1
  O  O209  1  0.06104992  0.78876650  1.07641363  1
  O  O210  1  0.39438325  0.12209983  1.07641363  1
  O  O211  1  0.39438325  0.45543316  1.07641363  1
  O  O212  1  0.39438325  0.78876650  1.07641363  1
  O  O213  1  0.72771658  0.12209983  1.07641363  1
  O  O214  1  0.72771658  0.45543316  1.07641363  1
  O  O215  1  0.72771658  0.78876650  1.07641363  1
  O  O216  1  0.05006120  0.10012239  0.59025303  1
  O  O217  1  0.05006120  0.43345573  0.59025303  1
  O  O218  1  0.05006120  0.76678906  0.59025303  1
  O  O219  1  0.38339453  0.10012239  0.59025303  1
  O  O220  1  0.38339453  0.43345573  0.59025303  1
  O  O221  1  0.38339453  0.76678906  0.59025303  1
  O  O222  1  0.71672786  0.10012239  0.59025303  1
  O  O223  1  0.71672786  0.43345573  0.59025303  1
  O  O224  1  0.71672786  0.76678906  0.59025303  1
  O  O225  1  0.27228342  0.21123350  0.92358637  1
  O  O226  1  0.27228342  0.54456684  0.92358637  1
  O  O227  1  0.27228342  0.87790017  0.92358637  1
  O  O228  1  0.60561675  0.21123350  0.92358637  1
  O  O229  1  0.60561675  0.54456684  0.92358637  1
  O  O230  1  0.60561675  0.87790017  0.92358637  1
  O  O231  1  0.93895008  0.21123350  0.92358637  1
  O  O232  1  0.93895008  0.54456684  0.92358637  1
  O  O233  1  0.93895008  0.87790017  0.92358637  1
  O  O234  1  0.16117231  0.32234461  1.25691970  1
  O  O235  1  0.16117231  0.65567795  1.25691970  1
  O  O236  1  0.16117231  0.98901128  1.25691970  1
  O  O237  1  0.49450564  0.32234461  1.25691970  1
  O  O238  1  0.49450564  0.65567795  1.25691970  1
  O  O239  1  0.49450564  0.98901128  1.25691970  1
  O  O240  1  0.82783897  0.32234461  1.25691970  1
  O  O241  1  0.82783897  0.65567795  1.25691970  1
  O  O242  1  0.82783897  0.98901128  1.25691970  1
  O  O243  1  -0.10012239  -0.05006120  0.59025303  1
  O  O244  1  -0.10012239  0.28327214  0.59025303  1
  O  O245  1  -0.10012239  0.61660547  0.59025303  1
  O  O246  1  0.23321094  -0.05006120  0.59025303  1
  O  O247  1  0.23321094  0.28327214  0.59025303  1
  O  O248  1  0.23321094  0.61660547  0.59025303  1
  O  O249  1  0.56654427  -0.05006120  0.59025303  1
  O  O250  1  0.56654427  0.28327214  0.59025303  1
  O  O251  1  0.56654427  0.61660547  0.59025303  1
  O  O252  1  0.12209983  0.06104992  0.92358637  1
  O  O253  1  0.12209983  0.39438325  0.92358637  1
  O  O254  1  0.12209983  0.72771658  0.92358637  1
  O  O255  1  0.45543316  0.06104992  0.92358637  1
  O  O256  1  0.45543316  0.39438325  0.92358637  1
  O  O257  1  0.45543316  0.72771658  0.92358637  1
  O  O258  1  0.78876650  0.06104992  0.92358637  1
  O  O259  1  0.78876650  0.39438325  0.92358637  1
  O  O260  1  0.78876650  0.72771658  0.92358637  1
  O  O261  1  0.01098872  0.17216103  1.25691970  1
  O  O262  1  0.01098872  0.50549436  1.25691970  1
  O  O263  1  0.01098872  0.83882769  1.25691970  1
  O  O264  1  0.34432205  0.17216103  1.25691970  1
  O  O265  1  0.34432205  0.50549436  1.25691970  1
  O  O266  1  0.34432205  0.83882769  1.25691970  1
  O  O267  1  0.67765539  0.17216103  1.25691970  1
  O  O268  1  0.67765539  0.50549436  1.25691970  1
  O  O269  1  0.67765539  0.83882769  1.25691970  1
  O  O270  1  0.05006120  -0.05006120  0.59025303  1
  O  O271  1  0.05006120  0.28327214  0.59025303  1
  O  O272  1  0.05006120  0.61660547  0.59025303  1
  O  O273  1  0.38339453  -0.05006120  0.59025303  1
  O  O274  1  0.38339453  0.28327214  0.59025303  1
  O  O275  1  0.38339453  0.61660547  0.59025303  1
  O  O276  1  0.71672786  -0.05006120  0.59025303  1
  O  O277  1  0.71672786  0.28327214  0.59025303  1
  O  O278  1  0.71672786  0.61660547  0.59025303  1
  O  O279  1  0.27228342  0.06104992  0.92358637  1
  O  O280  1  0.27228342  0.39438325  0.92358637  1
  O  O281  1  0.27228342  0.72771658  0.92358637  1
  O  O282  1  0.60561675  0.06104992  0.92358637  1
  O  O283  1  0.60561675  0.39438325  0.92358637  1
  O  O284  1  0.60561675  0.72771658  0.92358637  1
  O  O285  1  0.93895008  0.06104992  0.92358637  1
  O  O286  1  0.93895008  0.39438325  0.92358637  1
  O  O287  1  0.93895008  0.72771658  0.92358637  1
  O  O288  1  0.16117231  0.17216103  1.25691970  1
  O  O289  1  0.16117231  0.50549436  1.25691970  1
  O  O290  1  0.16117231  0.83882769  1.25691970  1
  O  O291  1  0.49450564  0.17216103  1.25691970  1
  O  O292  1  0.49450564  0.50549436  1.25691970  1
  O  O293  1  0.49450564  0.83882769  1.25691970  1
  O  O294  1  0.82783897  0.17216103  1.25691970  1
  O  O295  1  0.82783897  0.50549436  1.25691970  1
  O  O296  1  0.82783897  0.83882769  1.25691970  1
