# generated using pymatgen
data_Y6WO12
_symmetry_space_group_name_H-M   'P 1'
_cell_length_a   19.40636359
_cell_length_b   19.40636359
_cell_length_c   18.55597578
_cell_angle_alpha   90.00000000
_cell_angle_beta   90.00000000
_cell_angle_gamma   120.00000000
_symmetry_Int_Tables_number   1
_chemical_formula_structural   Y6WO12
_chemical_formula_sum   'Y144 W24 O288'
_cell_volume   6052.05347263
_cell_formula_units_Z   24
loop_
 _symmetry_equiv_pos_site_id
 _symmetry_equiv_pos_as_xyz
  1  'x, y, z'
loop_
 _atom_site_type_symbol
 _atom_site_label
 _atom_site_symmetry_multiplicity
 _atom_site_fract_x
 _atom_site_fract_y
 _atom_site_fract_z
 _atom_site_occupancy
  Y  Y0  1  -0.10657478  0.02100252  0.17838438  1
  Y  Y1  1  -0.10657478  0.02100252  0.67838438  1
  Y  Y2  1  -0.10657478  0.52100252  0.17838438  1
  Y  Y3  1  -0.10657478  0.52100252  0.67838438  1
  Y  Y4  1  0.39342522  0.02100252  0.17838438  1
  Y  Y5  1  0.39342522  0.02100252  0.67838438  1
  Y  Y6  1  0.39342522  0.52100252  0.17838438  1
  Y  Y7  1  0.39342522  0.52100252  0.67838438  1
  Y  Y8  1  0.22675855  0.18766918  0.34505105  1
  Y  Y9  1  0.22675855  0.18766918  0.84505105  1
  Y  Y10  1  0.22675855  0.68766918  0.34505105  1
  Y  Y11  1  0.22675855  0.68766918  0.84505105  1
  Y  Y12  1  0.72675855  0.18766918  0.34505105  1
  Y  Y13  1  0.72675855  0.18766918  0.84505105  1
  Y  Y14  1  0.72675855  0.68766918  0.34505105  1
  Y  Y15  1  0.72675855  0.68766918  0.84505105  1
  Y  Y16  1  0.06009189  0.35433585  0.51171772  1
  Y  Y17  1  0.06009189  0.35433585  1.01171772  1
  Y  Y18  1  0.06009189  0.85433585  0.51171772  1
  Y  Y19  1  0.06009189  0.85433585  1.01171772  1
  Y  Y20  1  0.56009189  0.35433585  0.51171772  1
  Y  Y21  1  0.56009189  0.35433585  1.01171772  1
  Y  Y22  1  0.56009189  0.85433585  0.51171772  1
  Y  Y23  1  0.56009189  0.85433585  1.01171772  1
  Y  Y24  1  0.02100252  0.12757730  0.32161562  1
  Y  Y25  1  0.02100252  0.12757730  0.82161562  1
  Y  Y26  1  0.02100252  0.62757730  0.32161562  1
  Y  Y27  1  0.02100252  0.62757730  0.82161562  1
  Y  Y28  1  0.52100252  0.12757730  0.32161562  1
  Y  Y29  1  0.52100252  0.12757730  0.82161562  1
  Y  Y30  1  0.52100252  0.62757730  0.32161562  1
  Y  Y31  1  0.52100252  0.62757730  0.82161562  1
  Y  Y32  1  0.35433585  0.29424397  0.48828228  1
  Y  Y33  1  0.35433585  0.29424397  0.98828228  1
  Y  Y34  1  0.35433585  0.79424397  0.48828228  1
  Y  Y35  1  0.35433585  0.79424397  0.98828228  1
  Y  Y36  1  0.85433585  0.29424397  0.48828228  1
  Y  Y37  1  0.85433585  0.29424397  0.98828228  1
  Y  Y38  1  0.85433585  0.79424397  0.48828228  1
  Y  Y39  1  0.85433585  0.79424397  0.98828228  1
  Y  Y40  1  0.18766918  0.46091063  0.65494895  1
  Y  Y41  1  0.18766918  0.46091063  1.15494895  1
  Y  Y42  1  0.18766918  0.96091063  0.65494895  1
  Y  Y43  1  0.18766918  0.96091063  1.15494895  1
  Y  Y44  1  0.68766918  0.46091063  0.65494895  1
  Y  Y45  1  0.68766918  0.46091063  1.15494895  1
  Y  Y46  1  0.68766918  0.96091063  0.65494895  1
  Y  Y47  1  0.68766918  0.96091063  1.15494895  1
  Y  Y48  1  -0.12757730  -0.10657478  0.32161562  1
  Y  Y49  1  -0.12757730  -0.10657478  0.82161562  1
  Y  Y50  1  -0.12757730  0.39342522  0.32161562  1
  Y  Y51  1  -0.12757730  0.39342522  0.82161562  1
  Y  Y52  1  0.37242270  -0.10657478  0.32161562  1
  Y  Y53  1  0.37242270  -0.10657478  0.82161562  1
  Y  Y54  1  0.37242270  0.39342522  0.32161562  1
  Y  Y55  1  0.37242270  0.39342522  0.82161562  1
  Y  Y56  1  0.20575603  0.06009189  0.48828228  1
  Y  Y57  1  0.20575603  0.06009189  0.98828228  1
  Y  Y58  1  0.20575603  0.56009189  0.48828228  1
  Y  Y59  1  0.20575603  0.56009189  0.98828228  1
  Y  Y60  1  0.70575603  0.06009189  0.48828228  1
  Y  Y61  1  0.70575603  0.06009189  0.98828228  1
  Y  Y62  1  0.70575603  0.56009189  0.48828228  1
  Y  Y63  1  0.70575603  0.56009189  0.98828228  1
  Y  Y64  1  0.03908937  0.22675855  0.65494895  1
  Y  Y65  1  0.03908937  0.22675855  1.15494895  1
  Y  Y66  1  0.03908937  0.72675855  0.65494895  1
  Y  Y67  1  0.03908937  0.72675855  1.15494895  1
  Y  Y68  1  0.53908937  0.22675855  0.65494895  1
  Y  Y69  1  0.53908937  0.22675855  1.15494895  1
  Y  Y70  1  0.53908937  0.72675855  0.65494895  1
  Y  Y71  1  0.53908937  0.72675855  1.15494895  1
  Y  Y72  1  0.10657478  -0.02100252  0.32161562  1
  Y  Y73  1  0.10657478  -0.02100252  0.82161562  1
  Y  Y74  1  0.10657478  0.47899748  0.32161562  1
  Y  Y75  1  0.10657478  0.47899748  0.82161562  1
  Y  Y76  1  0.60657478  -0.02100252  0.32161562  1
  Y  Y77  1  0.60657478  -0.02100252  0.82161562  1
  Y  Y78  1  0.60657478  0.47899748  0.32161562  1
  Y  Y79  1  0.60657478  0.47899748  0.82161562  1
  Y  Y80  1  0.43990811  0.14566415  0.48828228  1
  Y  Y81  1  0.43990811  0.14566415  0.98828228  1
  Y  Y82  1  0.43990811  0.64566415  0.48828228  1
  Y  Y83  1  0.43990811  0.64566415  0.98828228  1
  Y  Y84  1  0.93990811  0.14566415  0.48828228  1
  Y  Y85  1  0.93990811  0.14566415  0.98828228  1
  Y  Y86  1  0.93990811  0.64566415  0.48828228  1
  Y  Y87  1  0.93990811  0.64566415  0.98828228  1
  Y  Y88  1  0.27324145  0.31233082  0.65494895  1
  Y  Y89  1  0.27324145  0.31233082  1.15494895  1
  Y  Y90  1  0.27324145  0.81233082  0.65494895  1
  Y  Y91  1  0.27324145  0.81233082  1.15494895  1
  Y  Y92  1  0.77324145  0.31233082  0.65494895  1
  Y  Y93  1  0.77324145  0.31233082  1.15494895  1
  Y  Y94  1  0.77324145  0.81233082  0.65494895  1
  Y  Y95  1  0.77324145  0.81233082  1.15494895  1
  Y  Y96  1  -0.02100252  -0.12757730  0.17838438  1
  Y  Y97  1  -0.02100252  -0.12757730  0.67838438  1
  Y  Y98  1  -0.02100252  0.37242270  0.17838438  1
  Y  Y99  1  -0.02100252  0.37242270  0.67838438  1
  Y  Y100  1  0.47899748  -0.12757730  0.17838438  1
  Y  Y101  1  0.47899748  -0.12757730  0.67838438  1
  Y  Y102  1  0.47899748  0.37242270  0.17838438  1
  Y  Y103  1  0.47899748  0.37242270  0.67838438  1
  Y  Y104  1  0.31233082  0.03908937  0.34505105  1
  Y  Y105  1  0.31233082  0.03908937  0.84505105  1
  Y  Y106  1  0.31233082  0.53908937  0.34505105  1
  Y  Y107  1  0.31233082  0.53908937  0.84505105  1
  Y  Y108  1  0.81233082  0.03908937  0.34505105  1
  Y  Y109  1  0.81233082  0.03908937  0.84505105  1
  Y  Y110  1  0.81233082  0.53908937  0.34505105  1
  Y  Y111  1  0.81233082  0.53908937  0.84505105  1
  Y  Y112  1  0.14566415  0.20575603  0.51171772  1
  Y  Y113  1  0.14566415  0.20575603  1.01171772  1
  Y  Y114  1  0.14566415  0.70575603  0.51171772  1
  Y  Y115  1  0.14566415  0.70575603  1.01171772  1
  Y  Y116  1  0.64566415  0.20575603  0.51171772  1
  Y  Y117  1  0.64566415  0.20575603  1.01171772  1
  Y  Y118  1  0.64566415  0.70575603  0.51171772  1
  Y  Y119  1  0.64566415  0.70575603  1.01171772  1
  Y  Y120  1  0.12757730  0.10657478  0.17838438  1
  Y  Y121  1  0.12757730  0.10657478  0.67838438  1
  Y  Y122  1  0.12757730  0.60657478  0.17838438  1
  Y  Y123  1  0.12757730  0.60657478  0.67838438  1
  Y  Y124  1  0.62757730  0.10657478  0.17838438  1
  Y  Y125  1  0.62757730  0.10657478  0.67838438  1
  Y  Y126  1  0.62757730  0.60657478  0.17838438  1
  Y  Y127  1  0.62757730  0.60657478  0.67838438  1
  Y  Y128  1  0.46091063  0.27324145  0.34505105  1
  Y  Y129  1  0.46091063  0.27324145  0.84505105  1
  Y  Y130  1  0.46091063  0.77324145  0.34505105  1
  Y  Y131  1  0.46091063  0.77324145  0.84505105  1
  Y  Y132  1  0.96091063  0.27324145  0.34505105  1
  Y  Y133  1  0.96091063  0.27324145  0.84505105  1
  Y  Y134  1  0.96091063  0.77324145  0.34505105  1
  Y  Y135  1  0.96091063  0.77324145  0.84505105  1
  Y  Y136  1  0.29424397  0.43990811  0.51171772  1
  Y  Y137  1  0.29424397  0.43990811  1.01171772  1
  Y  Y138  1  0.29424397  0.93990811  0.51171772  1
  Y  Y139  1  0.29424397  0.93990811  1.01171772  1
  Y  Y140  1  0.79424397  0.43990811  0.51171772  1
  Y  Y141  1  0.79424397  0.43990811  1.01171772  1
  Y  Y142  1  0.79424397  0.93990811  0.51171772  1
  Y  Y143  1  0.79424397  0.93990811  1.01171772  1
  W  W144  1  0.00000000  -0.00000000  -0.00000000  1
  W  W145  1  0.00000000  -0.00000000  0.50000000  1
  W  W146  1  0.00000000  0.50000000  -0.00000000  1
  W  W147  1  0.00000000  0.50000000  0.50000000  1
  W  W148  1  0.50000000  -0.00000000  -0.00000000  1
  W  W149  1  0.50000000  -0.00000000  0.50000000  1
  W  W150  1  0.50000000  0.50000000  -0.00000000  1
  W  W151  1  0.50000000  0.50000000  0.50000000  1
  W  W152  1  0.33333333  0.16666667  0.16666667  1
  W  W153  1  0.33333333  0.16666667  0.66666667  1
  W  W154  1  0.33333333  0.66666667  0.16666667  1
  W  W155  1  0.33333333  0.66666667  0.66666667  1
  W  W156  1  0.83333333  0.16666667  0.16666667  1
  W  W157  1  0.83333333  0.16666667  0.66666667  1
  W  W158  1  0.83333333  0.66666667  0.16666667  1
  W  W159  1  0.83333333  0.66666667  0.66666667  1
  W  W160  1  0.16666667  0.33333333  0.33333333  1
  W  W161  1  0.16666667  0.33333333  0.83333333  1
  W  W162  1  0.16666667  0.83333333  0.33333333  1
  W  W163  1  0.16666667  0.83333333  0.83333333  1
  W  W164  1  0.66666667  0.33333333  0.33333333  1
  W  W165  1  0.66666667  0.33333333  0.83333333  1
  W  W166  1  0.66666667  0.83333333  0.33333333  1
  W  W167  1  0.66666667  0.83333333  0.83333333  1
  O  O168  1  0.01613598  0.11162026  0.20013288  1
  O  O169  1  0.01613598  0.11162026  0.70013288  1
  O  O170  1  0.01613598  0.61162026  0.20013288  1
  O  O171  1  0.01613598  0.61162026  0.70013288  1
  O  O172  1  0.51613598  0.11162026  0.20013288  1
  O  O173  1  0.51613598  0.11162026  0.70013288  1
  O  O174  1  0.51613598  0.61162026  0.20013288  1
  O  O175  1  0.51613598  0.61162026  0.70013288  1
  O  O176  1  0.34946931  0.27828692  0.36679955  1
  O  O177  1  0.34946931  0.27828692  0.86679955  1
  O  O178  1  0.34946931  0.77828692  0.36679955  1
  O  O179  1  0.34946931  0.77828692  0.86679955  1
  O  O180  1  0.84946931  0.27828692  0.36679955  1
  O  O181  1  0.84946931  0.27828692  0.86679955  1
  O  O182  1  0.84946931  0.77828692  0.36679955  1
  O  O183  1  0.84946931  0.77828692  0.86679955  1
  O  O184  1  0.18280265  0.44495359  0.53346621  1
  O  O185  1  0.18280265  0.44495359  1.03346621  1
  O  O186  1  0.18280265  0.94495359  0.53346621  1
  O  O187  1  0.18280265  0.94495359  1.03346621  1
  O  O188  1  0.68280265  0.44495359  0.53346621  1
  O  O189  1  0.68280265  0.44495359  1.03346621  1
  O  O190  1  0.68280265  0.94495359  0.53346621  1
  O  O191  1  0.68280265  0.94495359  1.03346621  1
  O  O192  1  -0.11162026  -0.09548428  0.20013288  1
  O  O193  1  -0.11162026  -0.09548428  0.70013288  1
  O  O194  1  -0.11162026  0.40451572  0.20013288  1
  O  O195  1  -0.11162026  0.40451572  0.70013288  1
  O  O196  1  0.38837974  -0.09548428  0.20013288  1
  O  O197  1  0.38837974  -0.09548428  0.70013288  1
  O  O198  1  0.38837974  0.40451572  0.20013288  1
  O  O199  1  0.38837974  0.40451572  0.70013288  1
  O  O200  1  0.22171308  0.07118239  0.36679955  1
  O  O201  1  0.22171308  0.07118239  0.86679955  1
  O  O202  1  0.22171308  0.57118239  0.36679955  1
  O  O203  1  0.22171308  0.57118239  0.86679955  1
  O  O204  1  0.72171308  0.07118239  0.36679955  1
  O  O205  1  0.72171308  0.07118239  0.86679955  1
  O  O206  1  0.72171308  0.57118239  0.36679955  1
  O  O207  1  0.72171308  0.57118239  0.86679955  1
  O  O208  1  0.05504641  0.23784906  0.53346621  1
  O  O209  1  0.05504641  0.23784906  1.03346621  1
  O  O210  1  0.05504641  0.73784906  0.53346621  1
  O  O211  1  0.05504641  0.73784906  1.03346621  1
  O  O212  1  0.55504641  0.23784906  0.53346621  1
  O  O213  1  0.55504641  0.23784906  1.03346621  1
  O  O214  1  0.55504641  0.73784906  0.53346621  1
  O  O215  1  0.55504641  0.73784906  1.03346621  1
  O  O216  1  0.09548428  -0.01613598  0.20013288  1
  O  O217  1  0.09548428  -0.01613598  0.70013288  1
  O  O218  1  0.09548428  0.48386402  0.20013288  1
  O  O219  1  0.09548428  0.48386402  0.70013288  1
  O  O220  1  0.59548428  -0.01613598  0.20013288  1
  O  O221  1  0.59548428  -0.01613598  0.70013288  1
  O  O222  1  0.59548428  0.48386402  0.20013288  1
  O  O223  1  0.59548428  0.48386402  0.70013288  1
  O  O224  1  0.42881761  0.15053069  0.36679955  1
  O  O225  1  0.42881761  0.15053069  0.86679955  1
  O  O226  1  0.42881761  0.65053069  0.36679955  1
  O  O227  1  0.42881761  0.65053069  0.86679955  1
  O  O228  1  0.92881761  0.15053069  0.36679955  1
  O  O229  1  0.92881761  0.15053069  0.86679955  1
  O  O230  1  0.92881761  0.65053069  0.36679955  1
  O  O231  1  0.92881761  0.65053069  0.86679955  1
  O  O232  1  0.26215094  0.31719735  0.53346621  1
  O  O233  1  0.26215094  0.31719735  1.03346621  1
  O  O234  1  0.26215094  0.81719735  0.53346621  1
  O  O235  1  0.26215094  0.81719735  1.03346621  1
  O  O236  1  0.76215094  0.31719735  0.53346621  1
  O  O237  1  0.76215094  0.31719735  1.03346621  1
  O  O238  1  0.76215094  0.81719735  0.53346621  1
  O  O239  1  0.76215094  0.81719735  1.03346621  1
  O  O240  1  -0.01613598  -0.11162026  0.29986712  1
  O  O241  1  -0.01613598  -0.11162026  0.79986712  1
  O  O242  1  -0.01613598  0.38837974  0.29986712  1
  O  O243  1  -0.01613598  0.38837974  0.79986712  1
  O  O244  1  0.48386402  -0.11162026  0.29986712  1
  O  O245  1  0.48386402  -0.11162026  0.79986712  1
  O  O246  1  0.48386402  0.38837974  0.29986712  1
  O  O247  1  0.48386402  0.38837974  0.79986712  1
  O  O248  1  0.31719735  0.05504641  0.46653379  1
  O  O249  1  0.31719735  0.05504641  0.96653379  1
  O  O250  1  0.31719735  0.55504641  0.46653379  1
  O  O251  1  0.31719735  0.55504641  0.96653379  1
  O  O252  1  0.81719735  0.05504641  0.46653379  1
  O  O253  1  0.81719735  0.05504641  0.96653379  1
  O  O254  1  0.81719735  0.55504641  0.46653379  1
  O  O255  1  0.81719735  0.55504641  0.96653379  1
  O  O256  1  0.15053069  0.22171308  0.63320045  1
  O  O257  1  0.15053069  0.22171308  1.13320045  1
  O  O258  1  0.15053069  0.72171308  0.63320045  1
  O  O259  1  0.15053069  0.72171308  1.13320045  1
  O  O260  1  0.65053069  0.22171308  0.63320045  1
  O  O261  1  0.65053069  0.22171308  1.13320045  1
  O  O262  1  0.65053069  0.72171308  0.63320045  1
  O  O263  1  0.65053069  0.72171308  1.13320045  1
  O  O264  1  0.11162026  0.09548428  0.29986712  1
  O  O265  1  0.11162026  0.09548428  0.79986712  1
  O  O266  1  0.11162026  0.59548428  0.29986712  1
  O  O267  1  0.11162026  0.59548428  0.79986712  1
  O  O268  1  0.61162026  0.09548428  0.29986712  1
  O  O269  1  0.61162026  0.09548428  0.79986712  1
  O  O270  1  0.61162026  0.59548428  0.29986712  1
  O  O271  1  0.61162026  0.59548428  0.79986712  1
  O  O272  1  0.44495359  0.26215094  0.46653379  1
  O  O273  1  0.44495359  0.26215094  0.96653379  1
  O  O274  1  0.44495359  0.76215094  0.46653379  1
  O  O275  1  0.44495359  0.76215094  0.96653379  1
  O  O276  1  0.94495359  0.26215094  0.46653379  1
  O  O277  1  0.94495359  0.26215094  0.96653379  1
  O  O278  1  0.94495359  0.76215094  0.46653379  1
  O  O279  1  0.94495359  0.76215094  0.96653379  1
  O  O280  1  0.27828692  0.42881761  0.63320045  1
  O  O281  1  0.27828692  0.42881761  1.13320045  1
  O  O282  1  0.27828692  0.92881761  0.63320045  1
  O  O283  1  0.27828692  0.92881761  1.13320045  1
  O  O284  1  0.77828692  0.42881761  0.63320045  1
  O  O285  1  0.77828692  0.42881761  1.13320045  1
  O  O286  1  0.77828692  0.92881761  0.63320045  1
  O  O287  1  0.77828692  0.92881761  1.13320045  1
  O  O288  1  -0.09548428  0.01613598  0.29986712  1
  O  O289  1  -0.09548428  0.01613598  0.79986712  1
  O  O290  1  -0.09548428  0.51613598  0.29986712  1
  O  O291  1  -0.09548428  0.51613598  0.79986712  1
  O  O292  1  0.40451572  0.01613598  0.29986712  1
  O  O293  1  0.40451572  0.01613598  0.79986712  1
  O  O294  1  0.40451572  0.51613598  0.29986712  1
  O  O295  1  0.40451572  0.51613598  0.79986712  1
  O  O296  1  0.23784906  0.18280265  0.46653379  1
  O  O297  1  0.23784906  0.18280265  0.96653379  1
  O  O298  1  0.23784906  0.68280265  0.46653379  1
  O  O299  1  0.23784906  0.68280265  0.96653379  1
  O  O300  1  0.73784906  0.18280265  0.46653379  1
  O  O301  1  0.73784906  0.18280265  0.96653379  1
  O  O302  1  0.73784906  0.68280265  0.46653379  1
  O  O303  1  0.73784906  0.68280265  0.96653379  1
  O  O304  1  0.07118239  0.34946931  0.63320045  1
  O  O305  1  0.07118239  0.34946931  1.13320045  1
  O  O306  1  0.07118239  0.84946931  0.63320045  1
  O  O307  1  0.07118239  0.84946931  1.13320045  1
  O  O308  1  0.57118239  0.34946931  0.63320045  1
  O  O309  1  0.57118239  0.34946931  1.13320045  1
  O  O310  1  0.57118239  0.84946931  0.63320045  1
  O  O311  1  0.57118239  0.84946931  1.13320045  1
  O  O312  1  -0.26018622  -0.18558170  0.27684397  1
  O  O313  1  -0.26018622  -0.18558170  0.77684397  1
  O  O314  1  -0.26018622  0.31441830  0.27684397  1
  O  O315  1  -0.26018622  0.31441830  0.77684397  1
  O  O316  1  0.23981378  -0.18558170  0.27684397  1
  O  O317  1  0.23981378  -0.18558170  0.77684397  1
  O  O318  1  0.23981378  0.31441830  0.27684397  1
  O  O319  1  0.23981378  0.31441830  0.77684397  1
  O  O320  1  0.07314711  -0.01891504  0.44351064  1
  O  O321  1  0.07314711  -0.01891504  0.94351064  1
  O  O322  1  0.07314711  0.48108496  0.44351064  1
  O  O323  1  0.07314711  0.48108496  0.94351064  1
  O  O324  1  0.57314711  -0.01891504  0.44351064  1
  O  O325  1  0.57314711  -0.01891504  0.94351064  1
  O  O326  1  0.57314711  0.48108496  0.44351064  1
  O  O327  1  0.57314711  0.48108496  0.94351064  1
  O  O328  1  -0.09351956  0.14775163  0.61017730  1
  O  O329  1  -0.09351956  0.14775163  1.11017730  1
  O  O330  1  -0.09351956  0.64775163  0.61017730  1
  O  O331  1  -0.09351956  0.64775163  1.11017730  1
  O  O332  1  0.40648044  0.14775163  0.61017730  1
  O  O333  1  0.40648044  0.14775163  1.11017730  1
  O  O334  1  0.40648044  0.64775163  0.61017730  1
  O  O335  1  0.40648044  0.64775163  1.11017730  1
  O  O336  1  -0.07460452  -0.26018622  0.22315603  1
  O  O337  1  -0.07460452  -0.26018622  0.72315603  1
  O  O338  1  -0.07460452  0.23981378  0.22315603  1
  O  O339  1  -0.07460452  0.23981378  0.72315603  1
  O  O340  1  0.42539548  -0.26018622  0.22315603  1
  O  O341  1  0.42539548  -0.26018622  0.72315603  1
  O  O342  1  0.42539548  0.23981378  0.22315603  1
  O  O343  1  0.42539548  0.23981378  0.72315603  1
  O  O344  1  0.25872881  -0.09351956  0.38982270  1
  O  O345  1  0.25872881  -0.09351956  0.88982270  1
  O  O346  1  0.25872881  0.40648044  0.38982270  1
  O  O347  1  0.25872881  0.40648044  0.88982270  1
  O  O348  1  0.75872881  -0.09351956  0.38982270  1
  O  O349  1  0.75872881  -0.09351956  0.88982270  1
  O  O350  1  0.75872881  0.40648044  0.38982270  1
  O  O351  1  0.75872881  0.40648044  0.88982270  1
  O  O352  1  0.09206215  0.07314711  0.55648936  1
  O  O353  1  0.09206215  0.07314711  1.05648936  1
  O  O354  1  0.09206215  0.57314711  0.55648936  1
  O  O355  1  0.09206215  0.57314711  1.05648936  1
  O  O356  1  0.59206215  0.07314711  0.55648936  1
  O  O357  1  0.59206215  0.07314711  1.05648936  1
  O  O358  1  0.59206215  0.57314711  0.55648936  1
  O  O359  1  0.59206215  0.57314711  1.05648936  1
  O  O360  1  -0.18558170  0.07460452  0.22315603  1
  O  O361  1  -0.18558170  0.07460452  0.72315603  1
  O  O362  1  -0.18558170  0.57460452  0.22315603  1
  O  O363  1  -0.18558170  0.57460452  0.72315603  1
  O  O364  1  0.31441830  0.07460452  0.22315603  1
  O  O365  1  0.31441830  0.07460452  0.72315603  1
  O  O366  1  0.31441830  0.57460452  0.22315603  1
  O  O367  1  0.31441830  0.57460452  0.72315603  1
  O  O368  1  0.14775163  0.24127119  0.38982270  1
  O  O369  1  0.14775163  0.24127119  0.88982270  1
  O  O370  1  0.14775163  0.74127119  0.38982270  1
  O  O371  1  0.14775163  0.74127119  0.88982270  1
  O  O372  1  0.64775163  0.24127119  0.38982270  1
  O  O373  1  0.64775163  0.24127119  0.88982270  1
  O  O374  1  0.64775163  0.74127119  0.38982270  1
  O  O375  1  0.64775163  0.74127119  0.88982270  1
  O  O376  1  -0.01891504  0.40793785  0.55648936  1
  O  O377  1  -0.01891504  0.40793785  1.05648936  1
  O  O378  1  -0.01891504  0.90793785  0.55648936  1
  O  O379  1  -0.01891504  0.90793785  1.05648936  1
  O  O380  1  0.48108496  0.40793785  0.55648936  1
  O  O381  1  0.48108496  0.40793785  1.05648936  1
  O  O382  1  0.48108496  0.90793785  0.55648936  1
  O  O383  1  0.48108496  0.90793785  1.05648936  1
  O  O384  1  0.26018622  0.18558170  0.22315603  1
  O  O385  1  0.26018622  0.18558170  0.72315603  1
  O  O386  1  0.26018622  0.68558170  0.22315603  1
  O  O387  1  0.26018622  0.68558170  0.72315603  1
  O  O388  1  0.76018622  0.18558170  0.22315603  1
  O  O389  1  0.76018622  0.18558170  0.72315603  1
  O  O390  1  0.76018622  0.68558170  0.22315603  1
  O  O391  1  0.76018622  0.68558170  0.72315603  1
  O  O392  1  0.59351956  0.35224837  0.38982270  1
  O  O393  1  0.59351956  0.35224837  0.88982270  1
  O  O394  1  0.59351956  0.85224837  0.38982270  1
  O  O395  1  0.59351956  0.85224837  0.88982270  1
  O  O396  1  1.09351956  0.35224837  0.38982270  1
  O  O397  1  1.09351956  0.35224837  0.88982270  1
  O  O398  1  1.09351956  0.85224837  0.38982270  1
  O  O399  1  1.09351956  0.85224837  0.88982270  1
  O  O400  1  0.42685289  0.51891504  0.55648936  1
  O  O401  1  0.42685289  0.51891504  1.05648936  1
  O  O402  1  0.42685289  1.01891504  0.55648936  1
  O  O403  1  0.42685289  1.01891504  1.05648936  1
  O  O404  1  0.92685289  0.51891504  0.55648936  1
  O  O405  1  0.92685289  0.51891504  1.05648936  1
  O  O406  1  0.92685289  1.01891504  0.55648936  1
  O  O407  1  0.92685289  1.01891504  1.05648936  1
  O  O408  1  0.07460452  0.26018622  0.27684397  1
  O  O409  1  0.07460452  0.26018622  0.77684397  1
  O  O410  1  0.07460452  0.76018622  0.27684397  1
  O  O411  1  0.07460452  0.76018622  0.77684397  1
  O  O412  1  0.57460452  0.26018622  0.27684397  1
  O  O413  1  0.57460452  0.26018622  0.77684397  1
  O  O414  1  0.57460452  0.76018622  0.27684397  1
  O  O415  1  0.57460452  0.76018622  0.77684397  1
  O  O416  1  0.40793785  0.42685289  0.44351064  1
  O  O417  1  0.40793785  0.42685289  0.94351064  1
  O  O418  1  0.40793785  0.92685289  0.44351064  1
  O  O419  1  0.40793785  0.92685289  0.94351064  1
  O  O420  1  0.90793785  0.42685289  0.44351064  1
  O  O421  1  0.90793785  0.42685289  0.94351064  1
  O  O422  1  0.90793785  0.92685289  0.44351064  1
  O  O423  1  0.90793785  0.92685289  0.94351064  1
  O  O424  1  0.24127119  0.59351956  0.61017730  1
  O  O425  1  0.24127119  0.59351956  1.11017730  1
  O  O426  1  0.24127119  1.09351956  0.61017730  1
  O  O427  1  0.24127119  1.09351956  1.11017730  1
  O  O428  1  0.74127119  0.59351956  0.61017730  1
  O  O429  1  0.74127119  0.59351956  1.11017730  1
  O  O430  1  0.74127119  1.09351956  0.61017730  1
  O  O431  1  0.74127119  1.09351956  1.11017730  1
  O  O432  1  0.18558170  -0.07460452  0.27684397  1
  O  O433  1  0.18558170  -0.07460452  0.77684397  1
  O  O434  1  0.18558170  0.42539548  0.27684397  1
  O  O435  1  0.18558170  0.42539548  0.77684397  1
  O  O436  1  0.68558170  -0.07460452  0.27684397  1
  O  O437  1  0.68558170  -0.07460452  0.77684397  1
  O  O438  1  0.68558170  0.42539548  0.27684397  1
  O  O439  1  0.68558170  0.42539548  0.77684397  1
  O  O440  1  0.51891504  0.09206215  0.44351064  1
  O  O441  1  0.51891504  0.09206215  0.94351064  1
  O  O442  1  0.51891504  0.59206215  0.44351064  1
  O  O443  1  0.51891504  0.59206215  0.94351064  1
  O  O444  1  1.01891504  0.09206215  0.44351064  1
  O  O445  1  1.01891504  0.09206215  0.94351064  1
  O  O446  1  1.01891504  0.59206215  0.44351064  1
  O  O447  1  1.01891504  0.59206215  0.94351064  1
  O  O448  1  0.35224837  0.25872881  0.61017730  1
  O  O449  1  0.35224837  0.25872881  1.11017730  1
  O  O450  1  0.35224837  0.75872881  0.61017730  1
  O  O451  1  0.35224837  0.75872881  1.11017730  1
  O  O452  1  0.85224837  0.25872881  0.61017730  1
  O  O453  1  0.85224837  0.25872881  1.11017730  1
  O  O454  1  0.85224837  0.75872881  0.61017730  1
  O  O455  1  0.85224837  0.75872881  1.11017730  1
