# generated using pymatgen
data_LiAuO2
_symmetry_space_group_name_H-M   'P 1'
_cell_length_a   11.92365684
_cell_length_b   11.92365684
_cell_length_c   10.55749019
_cell_angle_alpha   90.00000000
_cell_angle_beta   90.00000000
_cell_angle_gamma   90.00000000
_symmetry_Int_Tables_number   1
_chemical_formula_structural   LiAuO2
_chemical_formula_sum   'Li32 Au32 O64'
_cell_volume   1500.99630748
_cell_formula_units_Z   32
loop_
 _symmetry_equiv_pos_site_id
 _symmetry_equiv_pos_as_xyz
  1  'x, y, z'
loop_
 _atom_site_type_symbol
 _atom_site_label
 _atom_site_symmetry_multiplicity
 _atom_site_fract_x
 _atom_site_fract_y
 _atom_site_fract_z
 _atom_site_occupancy
  Li  Li0  1  0.87500000  0.62500000  0.25000000  1
  Li  Li1  1  0.37500000  0.62500000  0.25000000  1
  Li  Li2  1  0.62500000  0.37500000  0.25000000  1
  Li  Li3  1  0.87500000  0.12500000  0.25000000  1
  Li  Li4  1  0.12500000  0.37500000  0.25000000  1
  Li  Li5  1  0.37500000  0.12500000  0.25000000  1
  Li  Li6  1  0.62500000  -0.12500000  0.25000000  1
  Li  Li7  1  0.12500000  -0.12500000  0.25000000  1
  Li  Li8  1  0.87500000  0.37500000  0.75000000  1
  Li  Li9  1  0.37500000  0.37500000  0.75000000  1
  Li  Li10  1  0.62500000  0.12500000  0.75000000  1
  Li  Li11  1  0.87500000  -0.12500000  0.75000000  1
  Li  Li12  1  0.12500000  0.12500000  0.75000000  1
  Li  Li13  1  0.37500000  -0.12500000  0.75000000  1
  Li  Li14  1  0.62500000  -0.37500000  0.75000000  1
  Li  Li15  1  0.12500000  -0.37500000  0.75000000  1
  Li  Li16  1  0.75000000  0.75000000  0.00000000  1
  Li  Li17  1  0.25000000  0.75000000  0.00000000  1
  Li  Li18  1  0.50000000  0.50000000  0.00000000  1
  Li  Li19  1  0.75000000  0.25000000  0.00000000  1
  Li  Li20  1  0.00000000  0.50000000  0.00000000  1
  Li  Li21  1  0.25000000  0.25000000  0.00000000  1
  Li  Li22  1  0.50000000  0.00000000  0.00000000  1
  Li  Li23  1  0.00000000  0.00000000  0.00000000  1
  Li  Li24  1  0.75000000  0.50000000  0.50000000  1
  Li  Li25  1  0.25000000  0.50000000  0.50000000  1
  Li  Li26  1  0.50000000  0.25000000  0.50000000  1
  Li  Li27  1  0.75000000  0.00000000  0.50000000  1
  Li  Li28  1  0.00000000  0.25000000  0.50000000  1
  Li  Li29  1  0.25000000  0.00000000  0.50000000  1
  Li  Li30  1  0.50000000  -0.25000000  0.50000000  1
  Li  Li31  1  -0.00000000  -0.25000000  0.50000000  1
  Au  Au32  1  0.75000000  0.75000000  0.50000000  1
  Au  Au33  1  0.25000000  0.75000000  0.50000000  1
  Au  Au34  1  0.50000000  0.50000000  0.50000000  1
  Au  Au35  1  0.75000000  0.25000000  0.50000000  1
  Au  Au36  1  0.00000000  0.50000000  0.50000000  1
  Au  Au37  1  0.25000000  0.25000000  0.50000000  1
  Au  Au38  1  0.50000000  0.00000000  0.50000000  1
  Au  Au39  1  0.00000000  0.00000000  0.50000000  1
  Au  Au40  1  0.75000000  0.50000000  1.00000000  1
  Au  Au41  1  0.25000000  0.50000000  1.00000000  1
  Au  Au42  1  0.50000000  0.25000000  1.00000000  1
  Au  Au43  1  0.75000000  0.00000000  1.00000000  1
  Au  Au44  1  0.00000000  0.25000000  1.00000000  1
  Au  Au45  1  0.25000000  0.00000000  1.00000000  1
  Au  Au46  1  0.50000000  -0.25000000  1.00000000  1
  Au  Au47  1  -0.00000000  -0.25000000  1.00000000  1
  Au  Au48  1  0.62500000  0.62500000  0.25000000  1
  Au  Au49  1  0.12500000  0.62500000  0.25000000  1
  Au  Au50  1  0.37500000  0.37500000  0.25000000  1
  Au  Au51  1  0.62500000  0.12500000  0.25000000  1
  Au  Au52  1  -0.12500000  0.37500000  0.25000000  1
  Au  Au53  1  0.12500000  0.12500000  0.25000000  1
  Au  Au54  1  0.37500000  -0.12500000  0.25000000  1
  Au  Au55  1  -0.12500000  -0.12500000  0.25000000  1
  Au  Au56  1  0.62500000  0.37500000  0.75000000  1
  Au  Au57  1  0.12500000  0.37500000  0.75000000  1
  Au  Au58  1  0.37500000  0.12500000  0.75000000  1
  Au  Au59  1  0.62500000  -0.12500000  0.75000000  1
  Au  Au60  1  -0.12500000  0.12500000  0.75000000  1
  Au  Au61  1  0.12500000  -0.12500000  0.75000000  1
  Au  Au62  1  0.37500000  -0.37500000  0.75000000  1
  Au  Au63  1  -0.12500000  -0.37500000  0.75000000  1
  O  O64  1  0.62413997  0.50086003  -0.12500000  1
  O  O65  1  0.12413997  0.50086003  -0.12500000  1
  O  O66  1  0.37413997  0.25086003  -0.12500000  1
  O  O67  1  0.62413997  0.00086003  -0.12500000  1
  O  O68  1  -0.12586003  0.25086003  -0.12500000  1
  O  O69  1  0.12413997  0.00086003  -0.12500000  1
  O  O70  1  0.37413997  -0.24913997  -0.12500000  1
  O  O71  1  -0.12586003  -0.24913997  -0.12500000  1
  O  O72  1  0.62413997  0.25086003  0.37500000  1
  O  O73  1  0.12413997  0.25086003  0.37500000  1
  O  O74  1  0.37413997  0.00086003  0.37500000  1
  O  O75  1  0.62413997  -0.24913997  0.37500000  1
  O  O76  1  -0.12586003  0.00086003  0.37500000  1
  O  O77  1  0.12413997  -0.24913997  0.37500000  1
  O  O78  1  0.37413997  -0.49913997  0.37500000  1
  O  O79  1  -0.12586003  -0.49913997  0.37500000  1
  O  O80  1  0.87586003  0.74913997  0.37500000  1
  O  O81  1  0.37586003  0.74913997  0.37500000  1
  O  O82  1  0.62586003  0.49913997  0.37500000  1
  O  O83  1  0.87586003  0.24913997  0.37500000  1
  O  O84  1  0.12586003  0.49913997  0.37500000  1
  O  O85  1  0.37586003  0.24913997  0.37500000  1
  O  O86  1  0.62586003  -0.00086003  0.37500000  1
  O  O87  1  0.12586003  -0.00086003  0.37500000  1
  O  O88  1  0.87586003  0.49913997  0.87500000  1
  O  O89  1  0.37586003  0.49913997  0.87500000  1
  O  O90  1  0.62586003  0.24913997  0.87500000  1
  O  O91  1  0.87586003  -0.00086003  0.87500000  1
  O  O92  1  0.12586003  0.24913997  0.87500000  1
  O  O93  1  0.37586003  -0.00086003  0.87500000  1
  O  O94  1  0.62586003  -0.25086003  0.87500000  1
  O  O95  1  0.12586003  -0.25086003  0.87500000  1
  O  O96  1  0.62413997  0.74913997  0.62500000  1
  O  O97  1  0.12413997  0.74913997  0.62500000  1
  O  O98  1  0.37413997  0.49913997  0.62500000  1
  O  O99  1  0.62413997  0.24913997  0.62500000  1
  O  O100  1  -0.12586003  0.49913997  0.62500000  1
  O  O101  1  0.12413997  0.24913997  0.62500000  1
  O  O102  1  0.37413997  -0.00086003  0.62500000  1
  O  O103  1  -0.12586003  -0.00086003  0.62500000  1
  O  O104  1  0.62413997  0.49913997  1.12500000  1
  O  O105  1  0.12413997  0.49913997  1.12500000  1
  O  O106  1  0.37413997  0.24913997  1.12500000  1
  O  O107  1  0.62413997  -0.00086003  1.12500000  1
  O  O108  1  -0.12586003  0.24913997  1.12500000  1
  O  O109  1  0.12413997  -0.00086003  1.12500000  1
  O  O110  1  0.37413997  -0.25086003  1.12500000  1
  O  O111  1  -0.12586003  -0.25086003  1.12500000  1
  O  O112  1  0.87586003  0.50086003  0.12500000  1
  O  O113  1  0.37586003  0.50086003  0.12500000  1
  O  O114  1  0.62586003  0.25086003  0.12500000  1
  O  O115  1  0.87586003  0.00086003  0.12500000  1
  O  O116  1  0.12586003  0.25086003  0.12500000  1
  O  O117  1  0.37586003  0.00086003  0.12500000  1
  O  O118  1  0.62586003  -0.24913997  0.12500000  1
  O  O119  1  0.12586003  -0.24913997  0.12500000  1
  O  O120  1  0.87586003  0.25086003  0.62500000  1
  O  O121  1  0.37586003  0.25086003  0.62500000  1
  O  O122  1  0.62586003  0.00086003  0.62500000  1
  O  O123  1  0.87586003  -0.24913997  0.62500000  1
  O  O124  1  0.12586003  0.00086003  0.62500000  1
  O  O125  1  0.37586003  -0.24913997  0.62500000  1
  O  O126  1  0.62586003  -0.49913997  0.62500000  1
  O  O127  1  0.12586003  -0.49913997  0.62500000  1
