# generated using pymatgen
data_Ba2MgSi2O7
_symmetry_space_group_name_H-M   'P 1'
_cell_length_a   16.44277754
_cell_length_b   16.44277754
_cell_length_c   16.22529400
_cell_angle_alpha   90.00000000
_cell_angle_beta   90.00000000
_cell_angle_gamma   90.00000000
_symmetry_Int_Tables_number   1
_chemical_formula_structural   Ba2MgSi2O7
_chemical_formula_sum   'Ba48 Mg24 Si48 O168'
_cell_volume   4386.75053003
_cell_formula_units_Z   24
loop_
 _symmetry_equiv_pos_site_id
 _symmetry_equiv_pos_as_xyz
  1  'x, y, z'
loop_
 _atom_site_type_symbol
 _atom_site_label
 _atom_site_symmetry_multiplicity
 _atom_site_fract_x
 _atom_site_fract_y
 _atom_site_fract_z
 _atom_site_occupancy
  Ba  Ba0  1  0.08219194  0.16780806  0.17003718  1
  Ba  Ba1  1  0.08219194  0.16780806  0.50337051  1
  Ba  Ba2  1  0.08219194  0.16780806  0.83670385  1
  Ba  Ba3  1  0.58219194  0.16780806  0.17003718  1
  Ba  Ba4  1  0.58219194  0.16780806  0.50337051  1
  Ba  Ba5  1  0.58219194  0.16780806  0.83670385  1
  Ba  Ba6  1  0.08219194  -0.33219194  0.17003718  1
  Ba  Ba7  1  0.08219194  -0.33219194  0.50337051  1
  Ba  Ba8  1  0.08219194  -0.33219194  0.83670385  1
  Ba  Ba9  1  0.58219194  -0.33219194  0.17003718  1
  Ba  Ba10  1  0.58219194  -0.33219194  0.50337051  1
  Ba  Ba11  1  0.58219194  -0.33219194  0.83670385  1
  Ba  Ba12  1  0.33219194  0.08219194  0.16329615  1
  Ba  Ba13  1  0.33219194  0.08219194  0.49662949  1
  Ba  Ba14  1  0.33219194  0.08219194  0.82996282  1
  Ba  Ba15  1  0.83219194  0.08219194  0.16329615  1
  Ba  Ba16  1  0.83219194  0.08219194  0.49662949  1
  Ba  Ba17  1  0.83219194  0.08219194  0.82996282  1
  Ba  Ba18  1  0.33219194  -0.41780806  0.16329615  1
  Ba  Ba19  1  0.33219194  -0.41780806  0.49662949  1
  Ba  Ba20  1  0.33219194  -0.41780806  0.82996282  1
  Ba  Ba21  1  0.83219194  -0.41780806  0.16329615  1
  Ba  Ba22  1  0.83219194  -0.41780806  0.49662949  1
  Ba  Ba23  1  0.83219194  -0.41780806  0.82996282  1
  Ba  Ba24  1  0.16780806  0.41780806  0.16329615  1
  Ba  Ba25  1  0.16780806  0.41780806  0.49662949  1
  Ba  Ba26  1  0.16780806  0.41780806  0.82996282  1
  Ba  Ba27  1  0.66780806  0.41780806  0.16329615  1
  Ba  Ba28  1  0.66780806  0.41780806  0.49662949  1
  Ba  Ba29  1  0.66780806  0.41780806  0.82996282  1
  Ba  Ba30  1  0.16780806  -0.08219194  0.16329615  1
  Ba  Ba31  1  0.16780806  -0.08219194  0.49662949  1
  Ba  Ba32  1  0.16780806  -0.08219194  0.82996282  1
  Ba  Ba33  1  0.66780806  -0.08219194  0.16329615  1
  Ba  Ba34  1  0.66780806  -0.08219194  0.49662949  1
  Ba  Ba35  1  0.66780806  -0.08219194  0.82996282  1
  Ba  Ba36  1  0.41780806  0.33219194  0.17003718  1
  Ba  Ba37  1  0.41780806  0.33219194  0.50337051  1
  Ba  Ba38  1  0.41780806  0.33219194  0.83670385  1
  Ba  Ba39  1  0.91780806  0.33219194  0.17003718  1
  Ba  Ba40  1  0.91780806  0.33219194  0.50337051  1
  Ba  Ba41  1  0.91780806  0.33219194  0.83670385  1
  Ba  Ba42  1  0.41780806  -0.16780806  0.17003718  1
  Ba  Ba43  1  0.41780806  -0.16780806  0.50337051  1
  Ba  Ba44  1  0.41780806  -0.16780806  0.83670385  1
  Ba  Ba45  1  0.91780806  -0.16780806  0.17003718  1
  Ba  Ba46  1  0.91780806  -0.16780806  0.50337051  1
  Ba  Ba47  1  0.91780806  -0.16780806  0.83670385  1
  Mg  Mg48  1  0.00000000  0.50000000  0.00000000  1
  Mg  Mg49  1  0.00000000  0.50000000  0.33333333  1
  Mg  Mg50  1  0.00000000  0.50000000  0.66666667  1
  Mg  Mg51  1  0.50000000  0.50000000  0.00000000  1
  Mg  Mg52  1  0.50000000  0.50000000  0.33333333  1
  Mg  Mg53  1  0.50000000  0.50000000  0.66666667  1
  Mg  Mg54  1  0.00000000  0.00000000  0.00000000  1
  Mg  Mg55  1  0.00000000  0.00000000  0.33333333  1
  Mg  Mg56  1  0.00000000  0.00000000  0.66666667  1
  Mg  Mg57  1  0.50000000  0.00000000  0.00000000  1
  Mg  Mg58  1  0.50000000  0.00000000  0.33333333  1
  Mg  Mg59  1  0.50000000  0.00000000  0.66666667  1
  Mg  Mg60  1  0.25000000  0.25000000  0.00000000  1
  Mg  Mg61  1  0.25000000  0.25000000  0.33333333  1
  Mg  Mg62  1  0.25000000  0.25000000  0.66666667  1
  Mg  Mg63  1  0.75000000  0.25000000  0.00000000  1
  Mg  Mg64  1  0.75000000  0.25000000  0.33333333  1
  Mg  Mg65  1  0.75000000  0.25000000  0.66666667  1
  Mg  Mg66  1  0.25000000  -0.25000000  0.00000000  1
  Mg  Mg67  1  0.25000000  -0.25000000  0.33333333  1
  Mg  Mg68  1  0.25000000  -0.25000000  0.66666667  1
  Mg  Mg69  1  0.75000000  -0.25000000  0.00000000  1
  Mg  Mg70  1  0.75000000  -0.25000000  0.33333333  1
  Mg  Mg71  1  0.75000000  -0.25000000  0.66666667  1
  Si  Si72  1  0.18131206  0.06868794  0.31824061  1
  Si  Si73  1  0.18131206  0.06868794  0.65157395  1
  Si  Si74  1  0.18131206  0.06868794  0.98490728  1
  Si  Si75  1  0.68131206  0.06868794  0.31824061  1
  Si  Si76  1  0.68131206  0.06868794  0.65157395  1
  Si  Si77  1  0.68131206  0.06868794  0.98490728  1
  Si  Si78  1  0.18131206  -0.43131206  0.31824061  1
  Si  Si79  1  0.18131206  -0.43131206  0.65157395  1
  Si  Si80  1  0.18131206  -0.43131206  0.98490728  1
  Si  Si81  1  0.68131206  -0.43131206  0.31824061  1
  Si  Si82  1  0.68131206  -0.43131206  0.65157395  1
  Si  Si83  1  0.68131206  -0.43131206  0.98490728  1
  Si  Si84  1  0.31868794  0.43131206  0.31824061  1
  Si  Si85  1  0.31868794  0.43131206  0.65157395  1
  Si  Si86  1  0.31868794  0.43131206  0.98490728  1
  Si  Si87  1  0.81868794  0.43131206  0.31824061  1
  Si  Si88  1  0.81868794  0.43131206  0.65157395  1
  Si  Si89  1  0.81868794  0.43131206  0.98490728  1
  Si  Si90  1  0.31868794  -0.06868794  0.31824061  1
  Si  Si91  1  0.31868794  -0.06868794  0.65157395  1
  Si  Si92  1  0.31868794  -0.06868794  0.98490728  1
  Si  Si93  1  0.81868794  -0.06868794  0.31824061  1
  Si  Si94  1  0.81868794  -0.06868794  0.65157395  1
  Si  Si95  1  0.81868794  -0.06868794  0.98490728  1
  Si  Si96  1  0.43131206  0.18131206  0.01509272  1
  Si  Si97  1  0.43131206  0.18131206  0.34842605  1
  Si  Si98  1  0.43131206  0.18131206  0.68175939  1
  Si  Si99  1  0.93131206  0.18131206  0.01509272  1
  Si  Si100  1  0.93131206  0.18131206  0.34842605  1
  Si  Si101  1  0.93131206  0.18131206  0.68175939  1
  Si  Si102  1  0.43131206  -0.31868794  0.01509272  1
  Si  Si103  1  0.43131206  -0.31868794  0.34842605  1
  Si  Si104  1  0.43131206  -0.31868794  0.68175939  1
  Si  Si105  1  0.93131206  -0.31868794  0.01509272  1
  Si  Si106  1  0.93131206  -0.31868794  0.34842605  1
  Si  Si107  1  0.93131206  -0.31868794  0.68175939  1
  Si  Si108  1  0.06868794  0.31868794  0.01509272  1
  Si  Si109  1  0.06868794  0.31868794  0.34842605  1
  Si  Si110  1  0.06868794  0.31868794  0.68175939  1
  Si  Si111  1  0.56868794  0.31868794  0.01509272  1
  Si  Si112  1  0.56868794  0.31868794  0.34842605  1
  Si  Si113  1  0.56868794  0.31868794  0.68175939  1
  Si  Si114  1  0.06868794  -0.18131206  0.01509272  1
  Si  Si115  1  0.06868794  -0.18131206  0.34842605  1
  Si  Si116  1  0.06868794  -0.18131206  0.68175939  1
  Si  Si117  1  0.56868794  -0.18131206  0.01509272  1
  Si  Si118  1  0.56868794  -0.18131206  0.34842605  1
  Si  Si119  1  0.56868794  -0.18131206  0.68175939  1
  O  O120  1  0.21124208  0.15322759  0.27339542  1
  O  O121  1  0.21124208  0.15322759  0.60672875  1
  O  O122  1  0.21124208  0.15322759  0.94006208  1
  O  O123  1  0.71124208  0.15322759  0.27339542  1
  O  O124  1  0.71124208  0.15322759  0.60672875  1
  O  O125  1  0.71124208  0.15322759  0.94006208  1
  O  O126  1  0.21124208  -0.34677241  0.27339542  1
  O  O127  1  0.21124208  -0.34677241  0.60672875  1
  O  O128  1  0.21124208  -0.34677241  0.94006208  1
  O  O129  1  0.71124208  -0.34677241  0.27339542  1
  O  O130  1  0.71124208  -0.34677241  0.60672875  1
  O  O131  1  0.71124208  -0.34677241  0.94006208  1
  O  O132  1  0.28875792  0.34677241  0.27339542  1
  O  O133  1  0.28875792  0.34677241  0.60672875  1
  O  O134  1  0.28875792  0.34677241  0.94006208  1
  O  O135  1  0.78875792  0.34677241  0.27339542  1
  O  O136  1  0.78875792  0.34677241  0.60672875  1
  O  O137  1  0.78875792  0.34677241  0.94006208  1
  O  O138  1  0.28875792  -0.15322759  0.27339542  1
  O  O139  1  0.28875792  -0.15322759  0.60672875  1
  O  O140  1  0.28875792  -0.15322759  0.94006208  1
  O  O141  1  0.78875792  -0.15322759  0.27339542  1
  O  O142  1  0.78875792  -0.15322759  0.60672875  1
  O  O143  1  0.78875792  -0.15322759  0.94006208  1
  O  O144  1  0.15322759  0.28875792  0.05993792  1
  O  O145  1  0.15322759  0.28875792  0.39327125  1
  O  O146  1  0.15322759  0.28875792  0.72660458  1
  O  O147  1  0.65322759  0.28875792  0.05993792  1
  O  O148  1  0.65322759  0.28875792  0.39327125  1
  O  O149  1  0.65322759  0.28875792  0.72660458  1
  O  O150  1  0.15322759  -0.21124208  0.05993792  1
  O  O151  1  0.15322759  -0.21124208  0.39327125  1
  O  O152  1  0.15322759  -0.21124208  0.72660458  1
  O  O153  1  0.65322759  -0.21124208  0.05993792  1
  O  O154  1  0.65322759  -0.21124208  0.39327125  1
  O  O155  1  0.65322759  -0.21124208  0.72660458  1
  O  O156  1  0.34677241  0.21124208  0.05993792  1
  O  O157  1  0.34677241  0.21124208  0.39327125  1
  O  O158  1  0.34677241  0.21124208  0.72660458  1
  O  O159  1  0.84677241  0.21124208  0.05993792  1
  O  O160  1  0.84677241  0.21124208  0.39327125  1
  O  O161  1  0.84677241  0.21124208  0.72660458  1
  O  O162  1  0.34677241  -0.28875792  0.05993792  1
  O  O163  1  0.34677241  -0.28875792  0.39327125  1
  O  O164  1  0.34677241  -0.28875792  0.72660458  1
  O  O165  1  0.84677241  -0.28875792  0.05993792  1
  O  O166  1  0.84677241  -0.28875792  0.39327125  1
  O  O167  1  0.84677241  -0.28875792  0.72660458  1
  O  O168  1  0.09677241  0.03875792  0.27339542  1
  O  O169  1  0.09677241  0.03875792  0.60672875  1
  O  O170  1  0.09677241  0.03875792  0.94006208  1
  O  O171  1  0.59677241  0.03875792  0.27339542  1
  O  O172  1  0.59677241  0.03875792  0.60672875  1
  O  O173  1  0.59677241  0.03875792  0.94006208  1
  O  O174  1  0.09677241  -0.46124208  0.27339542  1
  O  O175  1  0.09677241  -0.46124208  0.60672875  1
  O  O176  1  0.09677241  -0.46124208  0.94006208  1
  O  O177  1  0.59677241  -0.46124208  0.27339542  1
  O  O178  1  0.59677241  -0.46124208  0.60672875  1
  O  O179  1  0.59677241  -0.46124208  0.94006208  1
  O  O180  1  0.46124208  0.09677241  0.05993792  1
  O  O181  1  0.46124208  0.09677241  0.39327125  1
  O  O182  1  0.46124208  0.09677241  0.72660458  1
  O  O183  1  0.96124208  0.09677241  0.05993792  1
  O  O184  1  0.96124208  0.09677241  0.39327125  1
  O  O185  1  0.96124208  0.09677241  0.72660458  1
  O  O186  1  0.46124208  -0.40322759  0.05993792  1
  O  O187  1  0.46124208  -0.40322759  0.39327125  1
  O  O188  1  0.46124208  -0.40322759  0.72660458  1
  O  O189  1  0.96124208  -0.40322759  0.05993792  1
  O  O190  1  0.96124208  -0.40322759  0.39327125  1
  O  O191  1  0.96124208  -0.40322759  0.72660458  1
  O  O192  1  0.03875792  0.40322759  0.05993792  1
  O  O193  1  0.03875792  0.40322759  0.39327125  1
  O  O194  1  0.03875792  0.40322759  0.72660458  1
  O  O195  1  0.53875792  0.40322759  0.05993792  1
  O  O196  1  0.53875792  0.40322759  0.39327125  1
  O  O197  1  0.53875792  0.40322759  0.72660458  1
  O  O198  1  0.03875792  -0.09677241  0.05993792  1
  O  O199  1  0.03875792  -0.09677241  0.39327125  1
  O  O200  1  0.03875792  -0.09677241  0.72660458  1
  O  O201  1  0.53875792  -0.09677241  0.05993792  1
  O  O202  1  0.53875792  -0.09677241  0.39327125  1
  O  O203  1  0.53875792  -0.09677241  0.72660458  1
  O  O204  1  0.40322759  0.46124208  0.27339542  1
  O  O205  1  0.40322759  0.46124208  0.60672875  1
  O  O206  1  0.40322759  0.46124208  0.94006208  1
  O  O207  1  0.90322759  0.46124208  0.27339542  1
  O  O208  1  0.90322759  0.46124208  0.60672875  1
  O  O209  1  0.90322759  0.46124208  0.94006208  1
  O  O210  1  0.40322759  -0.03875792  0.27339542  1
  O  O211  1  0.40322759  -0.03875792  0.60672875  1
  O  O212  1  0.40322759  -0.03875792  0.94006208  1
  O  O213  1  0.90322759  -0.03875792  0.27339542  1
  O  O214  1  0.90322759  -0.03875792  0.60672875  1
  O  O215  1  0.90322759  -0.03875792  0.94006208  1
  O  O216  1  0.17989539  0.07010461  0.08461042  1
  O  O217  1  0.17989539  0.07010461  0.41794375  1
  O  O218  1  0.17989539  0.07010461  0.75127708  1
  O  O219  1  0.67989539  0.07010461  0.08461042  1
  O  O220  1  0.67989539  0.07010461  0.41794375  1
  O  O221  1  0.67989539  0.07010461  0.75127708  1
  O  O222  1  0.17989539  -0.42989539  0.08461042  1
  O  O223  1  0.17989539  -0.42989539  0.41794375  1
  O  O224  1  0.17989539  -0.42989539  0.75127708  1
  O  O225  1  0.67989539  -0.42989539  0.08461042  1
  O  O226  1  0.67989539  -0.42989539  0.41794375  1
  O  O227  1  0.67989539  -0.42989539  0.75127708  1
  O  O228  1  0.42989539  0.17989539  0.24872292  1
  O  O229  1  0.42989539  0.17989539  0.58205625  1
  O  O230  1  0.42989539  0.17989539  0.91538958  1
  O  O231  1  0.92989539  0.17989539  0.24872292  1
  O  O232  1  0.92989539  0.17989539  0.58205625  1
  O  O233  1  0.92989539  0.17989539  0.91538958  1
  O  O234  1  0.42989539  -0.32010461  0.24872292  1
  O  O235  1  0.42989539  -0.32010461  0.58205625  1
  O  O236  1  0.42989539  -0.32010461  0.91538958  1
  O  O237  1  0.92989539  -0.32010461  0.24872292  1
  O  O238  1  0.92989539  -0.32010461  0.58205625  1
  O  O239  1  0.92989539  -0.32010461  0.91538958  1
  O  O240  1  0.00000000  0.25000000  0.04717459  1
  O  O241  1  0.00000000  0.25000000  0.38050792  1
  O  O242  1  0.00000000  0.25000000  0.71384125  1
  O  O243  1  0.50000000  0.25000000  0.04717459  1
  O  O244  1  0.50000000  0.25000000  0.38050792  1
  O  O245  1  0.50000000  0.25000000  0.71384125  1
  O  O246  1  0.00000000  -0.25000000  0.04717459  1
  O  O247  1  0.00000000  -0.25000000  0.38050792  1
  O  O248  1  0.00000000  -0.25000000  0.71384125  1
  O  O249  1  0.50000000  -0.25000000  0.04717459  1
  O  O250  1  0.50000000  -0.25000000  0.38050792  1
  O  O251  1  0.50000000  -0.25000000  0.71384125  1
  O  O252  1  0.25000000  0.50000000  0.28615875  1
  O  O253  1  0.25000000  0.50000000  0.61949208  1
  O  O254  1  0.25000000  0.50000000  0.95282541  1
  O  O255  1  0.75000000  0.50000000  0.28615875  1
  O  O256  1  0.75000000  0.50000000  0.61949208  1
  O  O257  1  0.75000000  0.50000000  0.95282541  1
  O  O258  1  0.25000000  0.00000000  0.28615875  1
  O  O259  1  0.25000000  0.00000000  0.61949208  1
  O  O260  1  0.25000000  0.00000000  0.95282541  1
  O  O261  1  0.75000000  0.00000000  0.28615875  1
  O  O262  1  0.75000000  0.00000000  0.61949208  1
  O  O263  1  0.75000000  0.00000000  0.95282541  1
  O  O264  1  0.32010461  0.42989539  0.08461042  1
  O  O265  1  0.32010461  0.42989539  0.41794375  1
  O  O266  1  0.32010461  0.42989539  0.75127708  1
  O  O267  1  0.82010461  0.42989539  0.08461042  1
  O  O268  1  0.82010461  0.42989539  0.41794375  1
  O  O269  1  0.82010461  0.42989539  0.75127708  1
  O  O270  1  0.32010461  -0.07010461  0.08461042  1
  O  O271  1  0.32010461  -0.07010461  0.41794375  1
  O  O272  1  0.32010461  -0.07010461  0.75127708  1
  O  O273  1  0.82010461  -0.07010461  0.08461042  1
  O  O274  1  0.82010461  -0.07010461  0.41794375  1
  O  O275  1  0.82010461  -0.07010461  0.75127708  1
  O  O276  1  0.07010461  0.32010461  0.24872292  1
  O  O277  1  0.07010461  0.32010461  0.58205625  1
  O  O278  1  0.07010461  0.32010461  0.91538958  1
  O  O279  1  0.57010461  0.32010461  0.24872292  1
  O  O280  1  0.57010461  0.32010461  0.58205625  1
  O  O281  1  0.57010461  0.32010461  0.91538958  1
  O  O282  1  0.07010461  -0.17989539  0.24872292  1
  O  O283  1  0.07010461  -0.17989539  0.58205625  1
  O  O284  1  0.07010461  -0.17989539  0.91538958  1
  O  O285  1  0.57010461  -0.17989539  0.24872292  1
  O  O286  1  0.57010461  -0.17989539  0.58205625  1
  O  O287  1  0.57010461  -0.17989539  0.91538958  1
