# generated using pymatgen
data_CuAsPbO4
_symmetry_space_group_name_H-M   'P 1'
_cell_length_a   14.60983191
_cell_length_b   17.21708702
_cell_length_c   15.76381115
_cell_angle_alpha   80.01086308
_cell_angle_beta   74.88332371
_cell_angle_gamma   85.05697263
_symmetry_Int_Tables_number   1
_chemical_formula_structural   CuAsPbO4
_chemical_formula_sum   'Cu36 As36 Pb36 O144'
_cell_volume   3766.47546406
_cell_formula_units_Z   36
loop_
 _symmetry_equiv_pos_site_id
 _symmetry_equiv_pos_as_xyz
  1  'x, y, z'
loop_
 _atom_site_type_symbol
 _atom_site_label
 _atom_site_symmetry_multiplicity
 _atom_site_fract_x
 _atom_site_fract_y
 _atom_site_fract_z
 _atom_site_occupancy
  Cu  Cu0  1  0.12463865  0.26833080  0.49568519  1
  Cu  Cu1  1  0.12463865  0.26833080  0.99568519  1
  Cu  Cu2  1  0.12463865  0.60166413  0.49568519  1
  Cu  Cu3  1  0.12463865  0.60166413  0.99568519  1
  Cu  Cu4  1  0.12463865  0.93499747  0.49568519  1
  Cu  Cu5  1  0.12463865  0.93499747  0.99568519  1
  Cu  Cu6  1  0.45797198  0.26833080  0.49568519  1
  Cu  Cu7  1  0.45797198  0.26833080  0.99568519  1
  Cu  Cu8  1  0.45797198  0.60166413  0.49568519  1
  Cu  Cu9  1  0.45797198  0.60166413  0.99568519  1
  Cu  Cu10  1  0.45797198  0.93499747  0.49568519  1
  Cu  Cu11  1  0.45797198  0.93499747  0.99568519  1
  Cu  Cu12  1  0.79130531  0.26833080  0.49568519  1
  Cu  Cu13  1  0.79130531  0.26833080  0.99568519  1
  Cu  Cu14  1  0.79130531  0.60166413  0.49568519  1
  Cu  Cu15  1  0.79130531  0.60166413  0.99568519  1
  Cu  Cu16  1  0.79130531  0.93499747  0.49568519  1
  Cu  Cu17  1  0.79130531  0.93499747  0.99568519  1
  Cu  Cu18  1  0.20869469  0.06500253  0.00431481  1
  Cu  Cu19  1  0.20869469  0.06500253  0.50431481  1
  Cu  Cu20  1  0.20869469  0.39833587  0.00431481  1
  Cu  Cu21  1  0.20869469  0.39833587  0.50431481  1
  Cu  Cu22  1  0.20869469  0.73166920  0.00431481  1
  Cu  Cu23  1  0.20869469  0.73166920  0.50431481  1
  Cu  Cu24  1  0.54202802  0.06500253  0.00431481  1
  Cu  Cu25  1  0.54202802  0.06500253  0.50431481  1
  Cu  Cu26  1  0.54202802  0.39833587  0.00431481  1
  Cu  Cu27  1  0.54202802  0.39833587  0.50431481  1
  Cu  Cu28  1  0.54202802  0.73166920  0.00431481  1
  Cu  Cu29  1  0.54202802  0.73166920  0.50431481  1
  Cu  Cu30  1  0.87536135  0.06500253  0.00431481  1
  Cu  Cu31  1  0.87536135  0.06500253  0.50431481  1
  Cu  Cu32  1  0.87536135  0.39833587  0.00431481  1
  Cu  Cu33  1  0.87536135  0.39833587  0.50431481  1
  Cu  Cu34  1  0.87536135  0.73166920  0.00431481  1
  Cu  Cu35  1  0.87536135  0.73166920  0.50431481  1
  As  As36  1  0.19261907  0.26480274  0.15643987  1
  As  As37  1  0.19261907  0.26480274  0.65643987  1
  As  As38  1  0.19261907  0.59813608  0.15643987  1
  As  As39  1  0.19261907  0.59813608  0.65643987  1
  As  As40  1  0.19261907  0.93146941  0.15643987  1
  As  As41  1  0.19261907  0.93146941  0.65643987  1
  As  As42  1  0.52595241  0.26480274  0.15643987  1
  As  As43  1  0.52595241  0.26480274  0.65643987  1
  As  As44  1  0.52595241  0.59813608  0.15643987  1
  As  As45  1  0.52595241  0.59813608  0.65643987  1
  As  As46  1  0.52595241  0.93146941  0.15643987  1
  As  As47  1  0.52595241  0.93146941  0.65643987  1
  As  As48  1  0.85928574  0.26480274  0.15643987  1
  As  As49  1  0.85928574  0.26480274  0.65643987  1
  As  As50  1  0.85928574  0.59813608  0.15643987  1
  As  As51  1  0.85928574  0.59813608  0.65643987  1
  As  As52  1  0.85928574  0.93146941  0.15643987  1
  As  As53  1  0.85928574  0.93146941  0.65643987  1
  As  As54  1  0.14071426  0.06853059  0.34356013  1
  As  As55  1  0.14071426  0.06853059  0.84356013  1
  As  As56  1  0.14071426  0.40186392  0.34356013  1
  As  As57  1  0.14071426  0.40186392  0.84356013  1
  As  As58  1  0.14071426  0.73519726  0.34356013  1
  As  As59  1  0.14071426  0.73519726  0.84356013  1
  As  As60  1  0.47404759  0.06853059  0.34356013  1
  As  As61  1  0.47404759  0.06853059  0.84356013  1
  As  As62  1  0.47404759  0.40186392  0.34356013  1
  As  As63  1  0.47404759  0.40186392  0.84356013  1
  As  As64  1  0.47404759  0.73519726  0.34356013  1
  As  As65  1  0.47404759  0.73519726  0.84356013  1
  As  As66  1  0.80738093  0.06853059  0.34356013  1
  As  As67  1  0.80738093  0.06853059  0.84356013  1
  As  As68  1  0.80738093  0.40186392  0.34356013  1
  As  As69  1  0.80738093  0.40186392  0.84356013  1
  As  As70  1  0.80738093  0.73519726  0.34356013  1
  As  As71  1  0.80738093  0.73519726  0.84356013  1
  Pb  Pb72  1  0.02342633  0.09544153  0.15860801  1
  Pb  Pb73  1  0.02342633  0.09544153  0.65860801  1
  Pb  Pb74  1  0.02342633  0.42877487  0.15860801  1
  Pb  Pb75  1  0.02342633  0.42877487  0.65860801  1
  Pb  Pb76  1  0.02342633  0.76210820  0.15860801  1
  Pb  Pb77  1  0.02342633  0.76210820  0.65860801  1
  Pb  Pb78  1  0.35675967  0.09544153  0.15860801  1
  Pb  Pb79  1  0.35675967  0.09544153  0.65860801  1
  Pb  Pb80  1  0.35675967  0.42877487  0.15860801  1
  Pb  Pb81  1  0.35675967  0.42877487  0.65860801  1
  Pb  Pb82  1  0.35675967  0.76210820  0.15860801  1
  Pb  Pb83  1  0.35675967  0.76210820  0.65860801  1
  Pb  Pb84  1  0.69009300  0.09544153  0.15860801  1
  Pb  Pb85  1  0.69009300  0.09544153  0.65860801  1
  Pb  Pb86  1  0.69009300  0.42877487  0.15860801  1
  Pb  Pb87  1  0.69009300  0.42877487  0.65860801  1
  Pb  Pb88  1  0.69009300  0.76210820  0.15860801  1
  Pb  Pb89  1  0.69009300  0.76210820  0.65860801  1
  Pb  Pb90  1  0.30990700  0.23789180  0.34139199  1
  Pb  Pb91  1  0.30990700  0.23789180  0.84139199  1
  Pb  Pb92  1  0.30990700  0.57122513  0.34139199  1
  Pb  Pb93  1  0.30990700  0.57122513  0.84139199  1
  Pb  Pb94  1  0.30990700  0.90455847  0.34139199  1
  Pb  Pb95  1  0.30990700  0.90455847  0.84139199  1
  Pb  Pb96  1  0.64324033  0.23789180  0.34139199  1
  Pb  Pb97  1  0.64324033  0.23789180  0.84139199  1
  Pb  Pb98  1  0.64324033  0.57122513  0.34139199  1
  Pb  Pb99  1  0.64324033  0.57122513  0.84139199  1
  Pb  Pb100  1  0.64324033  0.90455847  0.34139199  1
  Pb  Pb101  1  0.64324033  0.90455847  0.84139199  1
  Pb  Pb102  1  0.97657367  0.23789180  0.34139199  1
  Pb  Pb103  1  0.97657367  0.23789180  0.84139199  1
  Pb  Pb104  1  0.97657367  0.57122513  0.34139199  1
  Pb  Pb105  1  0.97657367  0.57122513  0.84139199  1
  Pb  Pb106  1  0.97657367  0.90455847  0.34139199  1
  Pb  Pb107  1  0.97657367  0.90455847  0.84139199  1
  O  O108  1  0.25765078  0.01073362  0.09392795  1
  O  O109  1  0.25765078  0.01073362  0.59392795  1
  O  O110  1  0.25765078  0.34406696  0.09392795  1
  O  O111  1  0.25765078  0.34406696  0.59392795  1
  O  O112  1  0.25765078  0.67740029  0.09392795  1
  O  O113  1  0.25765078  0.67740029  0.59392795  1
  O  O114  1  0.59098412  0.01073362  0.09392795  1
  O  O115  1  0.59098412  0.01073362  0.59392795  1
  O  O116  1  0.59098412  0.34406696  0.09392795  1
  O  O117  1  0.59098412  0.34406696  0.59392795  1
  O  O118  1  0.59098412  0.67740029  0.09392795  1
  O  O119  1  0.59098412  0.67740029  0.59392795  1
  O  O120  1  0.92431745  0.01073362  0.09392795  1
  O  O121  1  0.92431745  0.01073362  0.59392795  1
  O  O122  1  0.92431745  0.34406696  0.09392795  1
  O  O123  1  0.92431745  0.34406696  0.59392795  1
  O  O124  1  0.92431745  0.67740029  0.09392795  1
  O  O125  1  0.92431745  0.67740029  0.59392795  1
  O  O126  1  0.07568255  0.32259971  0.40607205  1
  O  O127  1  0.07568255  0.32259971  0.90607205  1
  O  O128  1  0.07568255  0.65593304  0.40607205  1
  O  O129  1  0.07568255  0.65593304  0.90607205  1
  O  O130  1  0.07568255  0.98926638  0.40607205  1
  O  O131  1  0.07568255  0.98926638  0.90607205  1
  O  O132  1  0.40901588  0.32259971  0.40607205  1
  O  O133  1  0.40901588  0.32259971  0.90607205  1
  O  O134  1  0.40901588  0.65593304  0.40607205  1
  O  O135  1  0.40901588  0.65593304  0.90607205  1
  O  O136  1  0.40901588  0.98926638  0.40607205  1
  O  O137  1  0.40901588  0.98926638  0.90607205  1
  O  O138  1  0.74234922  0.32259971  0.40607205  1
  O  O139  1  0.74234922  0.32259971  0.90607205  1
  O  O140  1  0.74234922  0.65593304  0.40607205  1
  O  O141  1  0.74234922  0.65593304  0.90607205  1
  O  O142  1  0.74234922  0.98926638  0.40607205  1
  O  O143  1  0.74234922  0.98926638  0.90607205  1
  O  O144  1  0.07447411  0.12695247  0.28088318  1
  O  O145  1  0.07447411  0.12695247  0.78088318  1
  O  O146  1  0.07447411  0.46028580  0.28088318  1
  O  O147  1  0.07447411  0.46028580  0.78088318  1
  O  O148  1  0.07447411  0.79361914  0.28088318  1
  O  O149  1  0.07447411  0.79361914  0.78088318  1
  O  O150  1  0.40780744  0.12695247  0.28088318  1
  O  O151  1  0.40780744  0.12695247  0.78088318  1
  O  O152  1  0.40780744  0.46028580  0.28088318  1
  O  O153  1  0.40780744  0.46028580  0.78088318  1
  O  O154  1  0.40780744  0.79361914  0.28088318  1
  O  O155  1  0.40780744  0.79361914  0.78088318  1
  O  O156  1  0.74114078  0.12695247  0.28088318  1
  O  O157  1  0.74114078  0.12695247  0.78088318  1
  O  O158  1  0.74114078  0.46028580  0.28088318  1
  O  O159  1  0.74114078  0.46028580  0.78088318  1
  O  O160  1  0.74114078  0.79361914  0.28088318  1
  O  O161  1  0.74114078  0.79361914  0.78088318  1
  O  O162  1  0.16459792  0.12597663  0.41467665  1
  O  O163  1  0.16459792  0.12597663  0.91467665  1
  O  O164  1  0.16459792  0.45930997  0.41467665  1
  O  O165  1  0.16459792  0.45930997  0.91467665  1
  O  O166  1  0.16459792  0.79264330  0.41467665  1
  O  O167  1  0.16459792  0.79264330  0.91467665  1
  O  O168  1  0.49793125  0.12597663  0.41467665  1
  O  O169  1  0.49793125  0.12597663  0.91467665  1
  O  O170  1  0.49793125  0.45930997  0.41467665  1
  O  O171  1  0.49793125  0.45930997  0.91467665  1
  O  O172  1  0.49793125  0.79264330  0.41467665  1
  O  O173  1  0.49793125  0.79264330  0.91467665  1
  O  O174  1  0.83126459  0.12597663  0.41467665  1
  O  O175  1  0.83126459  0.12597663  0.91467665  1
  O  O176  1  0.83126459  0.45930997  0.41467665  1
  O  O177  1  0.83126459  0.45930997  0.91467665  1
  O  O178  1  0.83126459  0.79264330  0.41467665  1
  O  O179  1  0.83126459  0.79264330  0.91467665  1
  O  O180  1  0.24373824  0.03063361  0.28093777  1
  O  O181  1  0.24373824  0.03063361  0.78093777  1
  O  O182  1  0.24373824  0.36396694  0.28093777  1
  O  O183  1  0.24373824  0.36396694  0.78093777  1
  O  O184  1  0.24373824  0.69730028  0.28093777  1
  O  O185  1  0.24373824  0.69730028  0.78093777  1
  O  O186  1  0.57707158  0.03063361  0.28093777  1
  O  O187  1  0.57707158  0.03063361  0.78093777  1
  O  O188  1  0.57707158  0.36396694  0.28093777  1
  O  O189  1  0.57707158  0.36396694  0.78093777  1
  O  O190  1  0.57707158  0.69730028  0.28093777  1
  O  O191  1  0.57707158  0.69730028  0.78093777  1
  O  O192  1  0.91040491  0.03063361  0.28093777  1
  O  O193  1  0.91040491  0.03063361  0.78093777  1
  O  O194  1  0.91040491  0.36396694  0.28093777  1
  O  O195  1  0.91040491  0.36396694  0.78093777  1
  O  O196  1  0.91040491  0.69730028  0.28093777  1
  O  O197  1  0.91040491  0.69730028  0.78093777  1
  O  O198  1  0.08959509  0.30269972  0.21906223  1
  O  O199  1  0.08959509  0.30269972  0.71906223  1
  O  O200  1  0.08959509  0.63603306  0.21906223  1
  O  O201  1  0.08959509  0.63603306  0.71906223  1
  O  O202  1  0.08959509  0.96936639  0.21906223  1
  O  O203  1  0.08959509  0.96936639  0.71906223  1
  O  O204  1  0.42292842  0.30269972  0.21906223  1
  O  O205  1  0.42292842  0.30269972  0.71906223  1
  O  O206  1  0.42292842  0.63603306  0.21906223  1
  O  O207  1  0.42292842  0.63603306  0.71906223  1
  O  O208  1  0.42292842  0.96936639  0.21906223  1
  O  O209  1  0.42292842  0.96936639  0.71906223  1
  O  O210  1  0.75626176  0.30269972  0.21906223  1
  O  O211  1  0.75626176  0.30269972  0.71906223  1
  O  O212  1  0.75626176  0.63603306  0.21906223  1
  O  O213  1  0.75626176  0.63603306  0.71906223  1
  O  O214  1  0.75626176  0.96936639  0.21906223  1
  O  O215  1  0.75626176  0.96936639  0.71906223  1
  O  O216  1  0.25885922  0.20638086  0.21911682  1
  O  O217  1  0.25885922  0.20638086  0.71911682  1
  O  O218  1  0.25885922  0.53971420  0.21911682  1
  O  O219  1  0.25885922  0.53971420  0.71911682  1
  O  O220  1  0.25885922  0.87304753  0.21911682  1
  O  O221  1  0.25885922  0.87304753  0.71911682  1
  O  O222  1  0.59219256  0.20638086  0.21911682  1
  O  O223  1  0.59219256  0.20638086  0.71911682  1
  O  O224  1  0.59219256  0.53971420  0.21911682  1
  O  O225  1  0.59219256  0.53971420  0.71911682  1
  O  O226  1  0.59219256  0.87304753  0.21911682  1
  O  O227  1  0.59219256  0.87304753  0.71911682  1
  O  O228  1  0.92552589  0.20638086  0.21911682  1
  O  O229  1  0.92552589  0.20638086  0.71911682  1
  O  O230  1  0.92552589  0.53971420  0.21911682  1
  O  O231  1  0.92552589  0.53971420  0.71911682  1
  O  O232  1  0.92552589  0.87304753  0.21911682  1
  O  O233  1  0.92552589  0.87304753  0.71911682  1
  O  O234  1  0.16873541  0.20735670  0.08532335  1
  O  O235  1  0.16873541  0.20735670  0.58532335  1
  O  O236  1  0.16873541  0.54069003  0.08532335  1
  O  O237  1  0.16873541  0.54069003  0.58532335  1
  O  O238  1  0.16873541  0.87402337  0.08532335  1
  O  O239  1  0.16873541  0.87402337  0.58532335  1
  O  O240  1  0.50206875  0.20735670  0.08532335  1
  O  O241  1  0.50206875  0.20735670  0.58532335  1
  O  O242  1  0.50206875  0.54069003  0.08532335  1
  O  O243  1  0.50206875  0.54069003  0.58532335  1
  O  O244  1  0.50206875  0.87402337  0.08532335  1
  O  O245  1  0.50206875  0.87402337  0.58532335  1
  O  O246  1  0.83540208  0.20735670  0.08532335  1
  O  O247  1  0.83540208  0.20735670  0.58532335  1
  O  O248  1  0.83540208  0.54069003  0.08532335  1
  O  O249  1  0.83540208  0.54069003  0.58532335  1
  O  O250  1  0.83540208  0.87402337  0.08532335  1
  O  O251  1  0.83540208  0.87402337  0.58532335  1
