# generated using pymatgen
data_CaCdO2
_symmetry_space_group_name_H-M   'P 1'
_cell_length_a   14.20663249
_cell_length_b   14.20663249
_cell_length_c   14.16342990
_cell_angle_alpha   90.00000000
_cell_angle_beta   90.00000000
_cell_angle_gamma   90.00000000
_symmetry_Int_Tables_number   1
_chemical_formula_structural   CaCdO2
_chemical_formula_sum   'Ca54 Cd54 O108'
_cell_volume   2858.58248876
_cell_formula_units_Z   54
loop_
 _symmetry_equiv_pos_site_id
 _symmetry_equiv_pos_as_xyz
  1  'x, y, z'
loop_
 _atom_site_type_symbol
 _atom_site_label
 _atom_site_symmetry_multiplicity
 _atom_site_fract_x
 _atom_site_fract_y
 _atom_site_fract_z
 _atom_site_occupancy
  Ca  Ca0  1  0.16666667  0.66666667  0.16666667  1
  Ca  Ca1  1  0.16666667  0.66666667  0.50000000  1
  Ca  Ca2  1  0.16666667  0.66666667  0.83333333  1
  Ca  Ca3  1  0.33333333  0.83333333  0.16666667  1
  Ca  Ca4  1  0.33333333  0.83333333  0.50000000  1
  Ca  Ca5  1  0.33333333  0.83333333  0.83333333  1
  Ca  Ca6  1  0.16666667  0.33333333  0.16666667  1
  Ca  Ca7  1  0.16666667  0.33333333  0.50000000  1
  Ca  Ca8  1  0.16666667  0.33333333  0.83333333  1
  Ca  Ca9  1  0.33333333  0.50000000  0.16666667  1
  Ca  Ca10  1  0.33333333  0.50000000  0.50000000  1
  Ca  Ca11  1  0.33333333  0.50000000  0.83333333  1
  Ca  Ca12  1  0.50000000  0.66666667  0.16666667  1
  Ca  Ca13  1  0.50000000  0.66666667  0.50000000  1
  Ca  Ca14  1  0.50000000  0.66666667  0.83333333  1
  Ca  Ca15  1  0.66666667  0.83333333  0.16666667  1
  Ca  Ca16  1  0.66666667  0.83333333  0.50000000  1
  Ca  Ca17  1  0.66666667  0.83333333  0.83333333  1
  Ca  Ca18  1  0.16666667  0.00000000  0.16666667  1
  Ca  Ca19  1  0.16666667  0.00000000  0.50000000  1
  Ca  Ca20  1  0.16666667  0.00000000  0.83333333  1
  Ca  Ca21  1  0.33333333  0.16666667  0.16666667  1
  Ca  Ca22  1  0.33333333  0.16666667  0.50000000  1
  Ca  Ca23  1  0.33333333  0.16666667  0.83333333  1
  Ca  Ca24  1  0.50000000  0.33333333  0.16666667  1
  Ca  Ca25  1  0.50000000  0.33333333  0.50000000  1
  Ca  Ca26  1  0.50000000  0.33333333  0.83333333  1
  Ca  Ca27  1  0.66666667  0.50000000  0.16666667  1
  Ca  Ca28  1  0.66666667  0.50000000  0.50000000  1
  Ca  Ca29  1  0.66666667  0.50000000  0.83333333  1
  Ca  Ca30  1  0.83333333  0.66666667  0.16666667  1
  Ca  Ca31  1  0.83333333  0.66666667  0.50000000  1
  Ca  Ca32  1  0.83333333  0.66666667  0.83333333  1
  Ca  Ca33  1  1.00000000  0.83333333  0.16666667  1
  Ca  Ca34  1  1.00000000  0.83333333  0.50000000  1
  Ca  Ca35  1  1.00000000  0.83333333  0.83333333  1
  Ca  Ca36  1  0.50000000  0.00000000  0.16666667  1
  Ca  Ca37  1  0.50000000  0.00000000  0.50000000  1
  Ca  Ca38  1  0.50000000  0.00000000  0.83333333  1
  Ca  Ca39  1  0.66666667  0.16666667  0.16666667  1
  Ca  Ca40  1  0.66666667  0.16666667  0.50000000  1
  Ca  Ca41  1  0.66666667  0.16666667  0.83333333  1
  Ca  Ca42  1  0.83333333  0.33333333  0.16666667  1
  Ca  Ca43  1  0.83333333  0.33333333  0.50000000  1
  Ca  Ca44  1  0.83333333  0.33333333  0.83333333  1
  Ca  Ca45  1  1.00000000  0.50000000  0.16666667  1
  Ca  Ca46  1  1.00000000  0.50000000  0.50000000  1
  Ca  Ca47  1  1.00000000  0.50000000  0.83333333  1
  Ca  Ca48  1  0.83333333  0.00000000  0.16666667  1
  Ca  Ca49  1  0.83333333  0.00000000  0.50000000  1
  Ca  Ca50  1  0.83333333  0.00000000  0.83333333  1
  Ca  Ca51  1  1.00000000  0.16666667  0.16666667  1
  Ca  Ca52  1  1.00000000  0.16666667  0.50000000  1
  Ca  Ca53  1  1.00000000  0.16666667  0.83333333  1
  Cd  Cd54  1  0.00000000  0.66666667  0.00000000  1
  Cd  Cd55  1  0.00000000  0.66666667  0.33333333  1
  Cd  Cd56  1  0.00000000  0.66666667  0.66666667  1
  Cd  Cd57  1  0.16666667  0.83333333  0.00000000  1
  Cd  Cd58  1  0.16666667  0.83333333  0.33333333  1
  Cd  Cd59  1  0.16666667  0.83333333  0.66666667  1
  Cd  Cd60  1  0.00000000  0.33333333  0.00000000  1
  Cd  Cd61  1  0.00000000  0.33333333  0.33333333  1
  Cd  Cd62  1  0.00000000  0.33333333  0.66666667  1
  Cd  Cd63  1  0.16666667  0.50000000  0.00000000  1
  Cd  Cd64  1  0.16666667  0.50000000  0.33333333  1
  Cd  Cd65  1  0.16666667  0.50000000  0.66666667  1
  Cd  Cd66  1  0.33333333  0.66666667  0.00000000  1
  Cd  Cd67  1  0.33333333  0.66666667  0.33333333  1
  Cd  Cd68  1  0.33333333  0.66666667  0.66666667  1
  Cd  Cd69  1  0.50000000  0.83333333  0.00000000  1
  Cd  Cd70  1  0.50000000  0.83333333  0.33333333  1
  Cd  Cd71  1  0.50000000  0.83333333  0.66666667  1
  Cd  Cd72  1  0.00000000  0.00000000  0.00000000  1
  Cd  Cd73  1  0.00000000  0.00000000  0.33333333  1
  Cd  Cd74  1  0.00000000  0.00000000  0.66666667  1
  Cd  Cd75  1  0.16666667  0.16666667  0.00000000  1
  Cd  Cd76  1  0.16666667  0.16666667  0.33333333  1
  Cd  Cd77  1  0.16666667  0.16666667  0.66666667  1
  Cd  Cd78  1  0.33333333  0.33333333  0.00000000  1
  Cd  Cd79  1  0.33333333  0.33333333  0.33333333  1
  Cd  Cd80  1  0.33333333  0.33333333  0.66666667  1
  Cd  Cd81  1  0.50000000  0.50000000  0.00000000  1
  Cd  Cd82  1  0.50000000  0.50000000  0.33333333  1
  Cd  Cd83  1  0.50000000  0.50000000  0.66666667  1
  Cd  Cd84  1  0.66666667  0.66666667  0.00000000  1
  Cd  Cd85  1  0.66666667  0.66666667  0.33333333  1
  Cd  Cd86  1  0.66666667  0.66666667  0.66666667  1
  Cd  Cd87  1  0.83333333  0.83333333  0.00000000  1
  Cd  Cd88  1  0.83333333  0.83333333  0.33333333  1
  Cd  Cd89  1  0.83333333  0.83333333  0.66666667  1
  Cd  Cd90  1  0.33333333  0.00000000  0.00000000  1
  Cd  Cd91  1  0.33333333  0.00000000  0.33333333  1
  Cd  Cd92  1  0.33333333  0.00000000  0.66666667  1
  Cd  Cd93  1  0.50000000  0.16666667  0.00000000  1
  Cd  Cd94  1  0.50000000  0.16666667  0.33333333  1
  Cd  Cd95  1  0.50000000  0.16666667  0.66666667  1
  Cd  Cd96  1  0.66666667  0.33333333  0.00000000  1
  Cd  Cd97  1  0.66666667  0.33333333  0.33333333  1
  Cd  Cd98  1  0.66666667  0.33333333  0.66666667  1
  Cd  Cd99  1  0.83333333  0.50000000  0.00000000  1
  Cd  Cd100  1  0.83333333  0.50000000  0.33333333  1
  Cd  Cd101  1  0.83333333  0.50000000  0.66666667  1
  Cd  Cd102  1  0.66666667  0.00000000  0.00000000  1
  Cd  Cd103  1  0.66666667  0.00000000  0.33333333  1
  Cd  Cd104  1  0.66666667  0.00000000  0.66666667  1
  Cd  Cd105  1  0.83333333  0.16666667  0.00000000  1
  Cd  Cd106  1  0.83333333  0.16666667  0.33333333  1
  Cd  Cd107  1  0.83333333  0.16666667  0.66666667  1
  O  O108  1  0.16666667  0.66666667  0.00000000  1
  O  O109  1  0.16666667  0.66666667  0.33333333  1
  O  O110  1  0.16666667  0.66666667  0.66666667  1
  O  O111  1  0.33333333  0.83333333  0.00000000  1
  O  O112  1  0.33333333  0.83333333  0.33333333  1
  O  O113  1  0.33333333  0.83333333  0.66666667  1
  O  O114  1  0.16666667  0.33333333  0.00000000  1
  O  O115  1  0.16666667  0.33333333  0.33333333  1
  O  O116  1  0.16666667  0.33333333  0.66666667  1
  O  O117  1  0.33333333  0.50000000  0.00000000  1
  O  O118  1  0.33333333  0.50000000  0.33333333  1
  O  O119  1  0.33333333  0.50000000  0.66666667  1
  O  O120  1  0.50000000  0.66666667  0.00000000  1
  O  O121  1  0.50000000  0.66666667  0.33333333  1
  O  O122  1  0.50000000  0.66666667  0.66666667  1
  O  O123  1  0.66666667  0.83333333  0.00000000  1
  O  O124  1  0.66666667  0.83333333  0.33333333  1
  O  O125  1  0.66666667  0.83333333  0.66666667  1
  O  O126  1  0.16666667  0.00000000  0.00000000  1
  O  O127  1  0.16666667  0.00000000  0.33333333  1
  O  O128  1  0.16666667  0.00000000  0.66666667  1
  O  O129  1  0.33333333  0.16666667  0.00000000  1
  O  O130  1  0.33333333  0.16666667  0.33333333  1
  O  O131  1  0.33333333  0.16666667  0.66666667  1
  O  O132  1  0.50000000  0.33333333  0.00000000  1
  O  O133  1  0.50000000  0.33333333  0.33333333  1
  O  O134  1  0.50000000  0.33333333  0.66666667  1
  O  O135  1  0.66666667  0.50000000  0.00000000  1
  O  O136  1  0.66666667  0.50000000  0.33333333  1
  O  O137  1  0.66666667  0.50000000  0.66666667  1
  O  O138  1  0.83333333  0.66666667  0.00000000  1
  O  O139  1  0.83333333  0.66666667  0.33333333  1
  O  O140  1  0.83333333  0.66666667  0.66666667  1
  O  O141  1  1.00000000  0.83333333  0.00000000  1
  O  O142  1  1.00000000  0.83333333  0.33333333  1
  O  O143  1  1.00000000  0.83333333  0.66666667  1
  O  O144  1  0.50000000  0.00000000  0.00000000  1
  O  O145  1  0.50000000  0.00000000  0.33333333  1
  O  O146  1  0.50000000  0.00000000  0.66666667  1
  O  O147  1  0.66666667  0.16666667  0.00000000  1
  O  O148  1  0.66666667  0.16666667  0.33333333  1
  O  O149  1  0.66666667  0.16666667  0.66666667  1
  O  O150  1  0.83333333  0.33333333  0.00000000  1
  O  O151  1  0.83333333  0.33333333  0.33333333  1
  O  O152  1  0.83333333  0.33333333  0.66666667  1
  O  O153  1  1.00000000  0.50000000  0.00000000  1
  O  O154  1  1.00000000  0.50000000  0.33333333  1
  O  O155  1  1.00000000  0.50000000  0.66666667  1
  O  O156  1  0.83333333  0.00000000  0.00000000  1
  O  O157  1  0.83333333  0.00000000  0.33333333  1
  O  O158  1  0.83333333  0.00000000  0.66666667  1
  O  O159  1  1.00000000  0.16666667  0.00000000  1
  O  O160  1  1.00000000  0.16666667  0.33333333  1
  O  O161  1  1.00000000  0.16666667  0.66666667  1
  O  O162  1  0.00000000  0.66666667  0.16666667  1
  O  O163  1  0.00000000  0.66666667  0.50000000  1
  O  O164  1  0.00000000  0.66666667  0.83333333  1
  O  O165  1  0.16666667  0.83333333  0.16666667  1
  O  O166  1  0.16666667  0.83333333  0.50000000  1
  O  O167  1  0.16666667  0.83333333  0.83333333  1
  O  O168  1  0.00000000  0.33333333  0.16666667  1
  O  O169  1  0.00000000  0.33333333  0.50000000  1
  O  O170  1  0.00000000  0.33333333  0.83333333  1
  O  O171  1  0.16666667  0.50000000  0.16666667  1
  O  O172  1  0.16666667  0.50000000  0.50000000  1
  O  O173  1  0.16666667  0.50000000  0.83333333  1
  O  O174  1  0.33333333  0.66666667  0.16666667  1
  O  O175  1  0.33333333  0.66666667  0.50000000  1
  O  O176  1  0.33333333  0.66666667  0.83333333  1
  O  O177  1  0.50000000  0.83333333  0.16666667  1
  O  O178  1  0.50000000  0.83333333  0.50000000  1
  O  O179  1  0.50000000  0.83333333  0.83333333  1
  O  O180  1  0.00000000  0.00000000  0.16666667  1
  O  O181  1  0.00000000  0.00000000  0.50000000  1
  O  O182  1  0.00000000  0.00000000  0.83333333  1
  O  O183  1  0.16666667  0.16666667  0.16666667  1
  O  O184  1  0.16666667  0.16666667  0.50000000  1
  O  O185  1  0.16666667  0.16666667  0.83333333  1
  O  O186  1  0.33333333  0.33333333  0.16666667  1
  O  O187  1  0.33333333  0.33333333  0.50000000  1
  O  O188  1  0.33333333  0.33333333  0.83333333  1
  O  O189  1  0.50000000  0.50000000  0.16666667  1
  O  O190  1  0.50000000  0.50000000  0.50000000  1
  O  O191  1  0.50000000  0.50000000  0.83333333  1
  O  O192  1  0.66666667  0.66666667  0.16666667  1
  O  O193  1  0.66666667  0.66666667  0.50000000  1
  O  O194  1  0.66666667  0.66666667  0.83333333  1
  O  O195  1  0.83333333  0.83333333  0.16666667  1
  O  O196  1  0.83333333  0.83333333  0.50000000  1
  O  O197  1  0.83333333  0.83333333  0.83333333  1
  O  O198  1  0.33333333  0.00000000  0.16666667  1
  O  O199  1  0.33333333  0.00000000  0.50000000  1
  O  O200  1  0.33333333  0.00000000  0.83333333  1
  O  O201  1  0.50000000  0.16666667  0.16666667  1
  O  O202  1  0.50000000  0.16666667  0.50000000  1
  O  O203  1  0.50000000  0.16666667  0.83333333  1
  O  O204  1  0.66666667  0.33333333  0.16666667  1
  O  O205  1  0.66666667  0.33333333  0.50000000  1
  O  O206  1  0.66666667  0.33333333  0.83333333  1
  O  O207  1  0.83333333  0.50000000  0.16666667  1
  O  O208  1  0.83333333  0.50000000  0.50000000  1
  O  O209  1  0.83333333  0.50000000  0.83333333  1
  O  O210  1  0.66666667  0.00000000  0.16666667  1
  O  O211  1  0.66666667  0.00000000  0.50000000  1
  O  O212  1  0.66666667  0.00000000  0.83333333  1
  O  O213  1  0.83333333  0.16666667  0.16666667  1
  O  O214  1  0.83333333  0.16666667  0.50000000  1
  O  O215  1  0.83333333  0.16666667  0.83333333  1
