# generated using pymatgen
data_Li2SiO3
_symmetry_space_group_name_H-M   'P 1'
_cell_length_a   9.39819936
_cell_length_b   10.77781915
_cell_length_c   9.34044692
_cell_angle_alpha   90.00000000
_cell_angle_beta   90.00000000
_cell_angle_gamma   90.00000000
_symmetry_Int_Tables_number   1
_chemical_formula_structural   Li2SiO3
_chemical_formula_sum   'Li32 Si16 O48'
_cell_volume   946.11341851
_cell_formula_units_Z   16
loop_
 _symmetry_equiv_pos_site_id
 _symmetry_equiv_pos_as_xyz
  1  'x, y, z'
loop_
 _atom_site_type_symbol
 _atom_site_label
 _atom_site_symmetry_multiplicity
 _atom_site_fract_x
 _atom_site_fract_y
 _atom_site_fract_z
 _atom_site_occupancy
  Li  Li0  1  0.67392708  -0.07817923  0.49768975  1
  Li  Li1  1  0.67392708  -0.07817923  0.99768975  1
  Li  Li2  1  0.67392708  0.42182077  0.49768975  1
  Li  Li3  1  0.67392708  0.42182077  0.99768975  1
  Li  Li4  1  1.17392708  0.17182077  0.49768975  1
  Li  Li5  1  1.17392708  0.17182077  0.99768975  1
  Li  Li6  1  1.17392708  0.67182077  0.49768975  1
  Li  Li7  1  1.17392708  0.67182077  0.99768975  1
  Li  Li8  1  0.32607292  0.07817923  0.24768975  1
  Li  Li9  1  0.32607292  0.07817923  0.74768975  1
  Li  Li10  1  0.32607292  0.57817923  0.24768975  1
  Li  Li11  1  0.32607292  0.57817923  0.74768975  1
  Li  Li12  1  0.82607292  0.32817923  0.24768975  1
  Li  Li13  1  0.82607292  0.32817923  0.74768975  1
  Li  Li14  1  0.82607292  0.82817923  0.24768975  1
  Li  Li15  1  0.82607292  0.82817923  0.74768975  1
  Li  Li16  1  0.67392708  0.07817923  0.24768975  1
  Li  Li17  1  0.67392708  0.07817923  0.74768975  1
  Li  Li18  1  0.67392708  0.57817923  0.24768975  1
  Li  Li19  1  0.67392708  0.57817923  0.74768975  1
  Li  Li20  1  1.17392708  0.32817923  0.24768975  1
  Li  Li21  1  1.17392708  0.32817923  0.74768975  1
  Li  Li22  1  1.17392708  0.82817923  0.24768975  1
  Li  Li23  1  1.17392708  0.82817923  0.74768975  1
  Li  Li24  1  0.32607292  -0.07817923  0.49768975  1
  Li  Li25  1  0.32607292  -0.07817923  0.99768975  1
  Li  Li26  1  0.32607292  0.42182077  0.49768975  1
  Li  Li27  1  0.32607292  0.42182077  0.99768975  1
  Li  Li28  1  0.82607292  0.17182077  0.49768975  1
  Li  Li29  1  0.82607292  0.17182077  0.99768975  1
  Li  Li30  1  0.82607292  0.67182077  0.49768975  1
  Li  Li31  1  0.82607292  0.67182077  0.99768975  1
  Si  Si32  1  0.50000000  -0.16390418  0.24937216  1
  Si  Si33  1  0.50000000  -0.16390418  0.74937216  1
  Si  Si34  1  0.50000000  0.33609582  0.24937216  1
  Si  Si35  1  0.50000000  0.33609582  0.74937216  1
  Si  Si36  1  1.00000000  0.08609582  0.24937216  1
  Si  Si37  1  1.00000000  0.08609582  0.74937216  1
  Si  Si38  1  1.00000000  0.58609582  0.24937216  1
  Si  Si39  1  1.00000000  0.58609582  0.74937216  1
  Si  Si40  1  0.50000000  0.16390418  0.49937216  1
  Si  Si41  1  0.50000000  0.16390418  0.99937216  1
  Si  Si42  1  0.50000000  0.66390418  0.49937216  1
  Si  Si43  1  0.50000000  0.66390418  0.99937216  1
  Si  Si44  1  1.00000000  0.41390418  0.49937216  1
  Si  Si45  1  1.00000000  0.41390418  0.99937216  1
  Si  Si46  1  1.00000000  0.91390418  0.49937216  1
  Si  Si47  1  1.00000000  0.91390418  0.99937216  1
  O  O48  1  0.50000000  -0.19172041  0.07116503  1
  O  O49  1  0.50000000  -0.19172041  0.57116503  1
  O  O50  1  0.50000000  0.30827959  0.07116503  1
  O  O51  1  0.50000000  0.30827959  0.57116503  1
  O  O52  1  1.00000000  0.05827959  0.07116503  1
  O  O53  1  1.00000000  0.05827959  0.57116503  1
  O  O54  1  1.00000000  0.55827959  0.07116503  1
  O  O55  1  1.00000000  0.55827959  0.57116503  1
  O  O56  1  0.35430574  -0.09487925  0.29084215  1
  O  O57  1  0.35430574  -0.09487925  0.79084215  1
  O  O58  1  0.35430574  0.40512075  0.29084215  1
  O  O59  1  0.35430574  0.40512075  0.79084215  1
  O  O60  1  0.85430574  0.15512075  0.29084215  1
  O  O61  1  0.85430574  0.15512075  0.79084215  1
  O  O62  1  0.85430574  0.65512075  0.29084215  1
  O  O63  1  0.85430574  0.65512075  0.79084215  1
  O  O64  1  0.64569426  -0.09487925  0.29084215  1
  O  O65  1  0.64569426  -0.09487925  0.79084215  1
  O  O66  1  0.64569426  0.40512075  0.29084215  1
  O  O67  1  0.64569426  0.40512075  0.79084215  1
  O  O68  1  1.14569426  0.15512075  0.29084215  1
  O  O69  1  1.14569426  0.15512075  0.79084215  1
  O  O70  1  1.14569426  0.65512075  0.29084215  1
  O  O71  1  1.14569426  0.65512075  0.79084215  1
  O  O72  1  0.50000000  0.19172041  0.32116503  1
  O  O73  1  0.50000000  0.19172041  0.82116503  1
  O  O74  1  0.50000000  0.69172041  0.32116503  1
  O  O75  1  0.50000000  0.69172041  0.82116503  1
  O  O76  1  1.00000000  0.44172041  0.32116503  1
  O  O77  1  1.00000000  0.44172041  0.82116503  1
  O  O78  1  1.00000000  0.94172041  0.32116503  1
  O  O79  1  1.00000000  0.94172041  0.82116503  1
  O  O80  1  0.35430574  0.09487925  0.04084215  1
  O  O81  1  0.35430574  0.09487925  0.54084215  1
  O  O82  1  0.35430574  0.59487925  0.04084215  1
  O  O83  1  0.35430574  0.59487925  0.54084215  1
  O  O84  1  0.85430574  0.34487925  0.04084215  1
  O  O85  1  0.85430574  0.34487925  0.54084215  1
  O  O86  1  0.85430574  0.84487925  0.04084215  1
  O  O87  1  0.85430574  0.84487925  0.54084215  1
  O  O88  1  0.64569426  0.09487925  0.04084215  1
  O  O89  1  0.64569426  0.09487925  0.54084215  1
  O  O90  1  0.64569426  0.59487925  0.04084215  1
  O  O91  1  0.64569426  0.59487925  0.54084215  1
  O  O92  1  1.14569426  0.34487925  0.04084215  1
  O  O93  1  1.14569426  0.34487925  0.54084215  1
  O  O94  1  1.14569426  0.84487925  0.04084215  1
  O  O95  1  1.14569426  0.84487925  0.54084215  1
