# generated using pymatgen
data_Rb2ZrO3
_symmetry_space_group_name_H-M   'P 1'
_cell_length_a   21.46812870
_cell_length_b   21.93542788
_cell_length_c   17.62601414
_cell_angle_alpha   90.00000000
_cell_angle_beta   90.00000000
_cell_angle_gamma   90.00000000
_symmetry_Int_Tables_number   1
_chemical_formula_structural   Rb2ZrO3
_chemical_formula_sum   'Rb144 Zr72 O216'
_cell_volume   8300.31194712
_cell_formula_units_Z   72
loop_
 _symmetry_equiv_pos_site_id
 _symmetry_equiv_pos_as_xyz
  1  'x, y, z'
loop_
 _atom_site_type_symbol
 _atom_site_label
 _atom_site_symmetry_multiplicity
 _atom_site_fract_x
 _atom_site_fract_y
 _atom_site_fract_z
 _atom_site_occupancy
  Rb  Rb0  1  0.33136123  -0.04742895  0.24747665  1
  Rb  Rb1  1  0.33136123  -0.04742895  0.58080998  1
  Rb  Rb2  1  0.33136123  -0.04742895  0.91414331  1
  Rb  Rb3  1  0.33136123  0.28590438  0.24747665  1
  Rb  Rb4  1  0.33136123  0.28590438  0.58080998  1
  Rb  Rb5  1  0.33136123  0.28590438  0.91414331  1
  Rb  Rb6  1  0.33136123  0.61923771  0.24747665  1
  Rb  Rb7  1  0.33136123  0.61923771  0.58080998  1
  Rb  Rb8  1  0.33136123  0.61923771  0.91414331  1
  Rb  Rb9  1  0.83136123  -0.04742895  0.24747665  1
  Rb  Rb10  1  0.83136123  -0.04742895  0.58080998  1
  Rb  Rb11  1  0.83136123  -0.04742895  0.91414331  1
  Rb  Rb12  1  0.83136123  0.28590438  0.24747665  1
  Rb  Rb13  1  0.83136123  0.28590438  0.58080998  1
  Rb  Rb14  1  0.83136123  0.28590438  0.91414331  1
  Rb  Rb15  1  0.83136123  0.61923771  0.24747665  1
  Rb  Rb16  1  0.83136123  0.61923771  0.58080998  1
  Rb  Rb17  1  0.83136123  0.61923771  0.91414331  1
  Rb  Rb18  1  0.58136123  0.11923771  0.24747665  1
  Rb  Rb19  1  0.58136123  0.11923771  0.58080998  1
  Rb  Rb20  1  0.58136123  0.11923771  0.91414331  1
  Rb  Rb21  1  0.58136123  0.45257105  0.24747665  1
  Rb  Rb22  1  0.58136123  0.45257105  0.58080998  1
  Rb  Rb23  1  0.58136123  0.45257105  0.91414331  1
  Rb  Rb24  1  0.58136123  0.78590438  0.24747665  1
  Rb  Rb25  1  0.58136123  0.78590438  0.58080998  1
  Rb  Rb26  1  0.58136123  0.78590438  0.91414331  1
  Rb  Rb27  1  1.08136123  0.11923771  0.24747665  1
  Rb  Rb28  1  1.08136123  0.11923771  0.58080998  1
  Rb  Rb29  1  1.08136123  0.11923771  0.91414331  1
  Rb  Rb30  1  1.08136123  0.45257105  0.24747665  1
  Rb  Rb31  1  1.08136123  0.45257105  0.58080998  1
  Rb  Rb32  1  1.08136123  0.45257105  0.91414331  1
  Rb  Rb33  1  1.08136123  0.78590438  0.24747665  1
  Rb  Rb34  1  1.08136123  0.78590438  0.58080998  1
  Rb  Rb35  1  1.08136123  0.78590438  0.91414331  1
  Rb  Rb36  1  0.33136123  0.04742895  0.08080998  1
  Rb  Rb37  1  0.33136123  0.04742895  0.41414331  1
  Rb  Rb38  1  0.33136123  0.04742895  0.74747665  1
  Rb  Rb39  1  0.33136123  0.38076229  0.08080998  1
  Rb  Rb40  1  0.33136123  0.38076229  0.41414331  1
  Rb  Rb41  1  0.33136123  0.38076229  0.74747665  1
  Rb  Rb42  1  0.33136123  0.71409562  0.08080998  1
  Rb  Rb43  1  0.33136123  0.71409562  0.41414331  1
  Rb  Rb44  1  0.33136123  0.71409562  0.74747665  1
  Rb  Rb45  1  0.83136123  0.04742895  0.08080998  1
  Rb  Rb46  1  0.83136123  0.04742895  0.41414331  1
  Rb  Rb47  1  0.83136123  0.04742895  0.74747665  1
  Rb  Rb48  1  0.83136123  0.38076229  0.08080998  1
  Rb  Rb49  1  0.83136123  0.38076229  0.41414331  1
  Rb  Rb50  1  0.83136123  0.38076229  0.74747665  1
  Rb  Rb51  1  0.83136123  0.71409562  0.08080998  1
  Rb  Rb52  1  0.83136123  0.71409562  0.41414331  1
  Rb  Rb53  1  0.83136123  0.71409562  0.74747665  1
  Rb  Rb54  1  0.58136123  0.21409562  0.08080998  1
  Rb  Rb55  1  0.58136123  0.21409562  0.41414331  1
  Rb  Rb56  1  0.58136123  0.21409562  0.74747665  1
  Rb  Rb57  1  0.58136123  0.54742895  0.08080998  1
  Rb  Rb58  1  0.58136123  0.54742895  0.41414331  1
  Rb  Rb59  1  0.58136123  0.54742895  0.74747665  1
  Rb  Rb60  1  0.58136123  0.88076229  0.08080998  1
  Rb  Rb61  1  0.58136123  0.88076229  0.41414331  1
  Rb  Rb62  1  0.58136123  0.88076229  0.74747665  1
  Rb  Rb63  1  1.08136123  0.21409562  0.08080998  1
  Rb  Rb64  1  1.08136123  0.21409562  0.41414331  1
  Rb  Rb65  1  1.08136123  0.21409562  0.74747665  1
  Rb  Rb66  1  1.08136123  0.54742895  0.08080998  1
  Rb  Rb67  1  1.08136123  0.54742895  0.41414331  1
  Rb  Rb68  1  1.08136123  0.54742895  0.74747665  1
  Rb  Rb69  1  1.08136123  0.88076229  0.08080998  1
  Rb  Rb70  1  1.08136123  0.88076229  0.41414331  1
  Rb  Rb71  1  1.08136123  0.88076229  0.74747665  1
  Rb  Rb72  1  0.16863877  0.04742895  0.08080998  1
  Rb  Rb73  1  0.16863877  0.04742895  0.41414331  1
  Rb  Rb74  1  0.16863877  0.04742895  0.74747665  1
  Rb  Rb75  1  0.16863877  0.38076229  0.08080998  1
  Rb  Rb76  1  0.16863877  0.38076229  0.41414331  1
  Rb  Rb77  1  0.16863877  0.38076229  0.74747665  1
  Rb  Rb78  1  0.16863877  0.71409562  0.08080998  1
  Rb  Rb79  1  0.16863877  0.71409562  0.41414331  1
  Rb  Rb80  1  0.16863877  0.71409562  0.74747665  1
  Rb  Rb81  1  0.66863877  0.04742895  0.08080998  1
  Rb  Rb82  1  0.66863877  0.04742895  0.41414331  1
  Rb  Rb83  1  0.66863877  0.04742895  0.74747665  1
  Rb  Rb84  1  0.66863877  0.38076229  0.08080998  1
  Rb  Rb85  1  0.66863877  0.38076229  0.41414331  1
  Rb  Rb86  1  0.66863877  0.38076229  0.74747665  1
  Rb  Rb87  1  0.66863877  0.71409562  0.08080998  1
  Rb  Rb88  1  0.66863877  0.71409562  0.41414331  1
  Rb  Rb89  1  0.66863877  0.71409562  0.74747665  1
  Rb  Rb90  1  0.41863877  0.21409562  0.08080998  1
  Rb  Rb91  1  0.41863877  0.21409562  0.41414331  1
  Rb  Rb92  1  0.41863877  0.21409562  0.74747665  1
  Rb  Rb93  1  0.41863877  0.54742895  0.08080998  1
  Rb  Rb94  1  0.41863877  0.54742895  0.41414331  1
  Rb  Rb95  1  0.41863877  0.54742895  0.74747665  1
  Rb  Rb96  1  0.41863877  0.88076229  0.08080998  1
  Rb  Rb97  1  0.41863877  0.88076229  0.41414331  1
  Rb  Rb98  1  0.41863877  0.88076229  0.74747665  1
  Rb  Rb99  1  0.91863877  0.21409562  0.08080998  1
  Rb  Rb100  1  0.91863877  0.21409562  0.41414331  1
  Rb  Rb101  1  0.91863877  0.21409562  0.74747665  1
  Rb  Rb102  1  0.91863877  0.54742895  0.08080998  1
  Rb  Rb103  1  0.91863877  0.54742895  0.41414331  1
  Rb  Rb104  1  0.91863877  0.54742895  0.74747665  1
  Rb  Rb105  1  0.91863877  0.88076229  0.08080998  1
  Rb  Rb106  1  0.91863877  0.88076229  0.41414331  1
  Rb  Rb107  1  0.91863877  0.88076229  0.74747665  1
  Rb  Rb108  1  0.16863877  -0.04742895  0.24747665  1
  Rb  Rb109  1  0.16863877  -0.04742895  0.58080998  1
  Rb  Rb110  1  0.16863877  -0.04742895  0.91414331  1
  Rb  Rb111  1  0.16863877  0.28590438  0.24747665  1
  Rb  Rb112  1  0.16863877  0.28590438  0.58080998  1
  Rb  Rb113  1  0.16863877  0.28590438  0.91414331  1
  Rb  Rb114  1  0.16863877  0.61923771  0.24747665  1
  Rb  Rb115  1  0.16863877  0.61923771  0.58080998  1
  Rb  Rb116  1  0.16863877  0.61923771  0.91414331  1
  Rb  Rb117  1  0.66863877  -0.04742895  0.24747665  1
  Rb  Rb118  1  0.66863877  -0.04742895  0.58080998  1
  Rb  Rb119  1  0.66863877  -0.04742895  0.91414331  1
  Rb  Rb120  1  0.66863877  0.28590438  0.24747665  1
  Rb  Rb121  1  0.66863877  0.28590438  0.58080998  1
  Rb  Rb122  1  0.66863877  0.28590438  0.91414331  1
  Rb  Rb123  1  0.66863877  0.61923771  0.24747665  1
  Rb  Rb124  1  0.66863877  0.61923771  0.58080998  1
  Rb  Rb125  1  0.66863877  0.61923771  0.91414331  1
  Rb  Rb126  1  0.41863877  0.11923771  0.24747665  1
  Rb  Rb127  1  0.41863877  0.11923771  0.58080998  1
  Rb  Rb128  1  0.41863877  0.11923771  0.91414331  1
  Rb  Rb129  1  0.41863877  0.45257105  0.24747665  1
  Rb  Rb130  1  0.41863877  0.45257105  0.58080998  1
  Rb  Rb131  1  0.41863877  0.45257105  0.91414331  1
  Rb  Rb132  1  0.41863877  0.78590438  0.24747665  1
  Rb  Rb133  1  0.41863877  0.78590438  0.58080998  1
  Rb  Rb134  1  0.41863877  0.78590438  0.91414331  1
  Rb  Rb135  1  0.91863877  0.11923771  0.24747665  1
  Rb  Rb136  1  0.91863877  0.11923771  0.58080998  1
  Rb  Rb137  1  0.91863877  0.11923771  0.91414331  1
  Rb  Rb138  1  0.91863877  0.45257105  0.24747665  1
  Rb  Rb139  1  0.91863877  0.45257105  0.58080998  1
  Rb  Rb140  1  0.91863877  0.45257105  0.91414331  1
  Rb  Rb141  1  0.91863877  0.78590438  0.24747665  1
  Rb  Rb142  1  0.91863877  0.78590438  0.58080998  1
  Rb  Rb143  1  0.91863877  0.78590438  0.91414331  1
  Zr  Zr144  1  0.25000000  -0.13735181  0.08797516  1
  Zr  Zr145  1  0.25000000  -0.13735181  0.42130849  1
  Zr  Zr146  1  0.25000000  -0.13735181  0.75464183  1
  Zr  Zr147  1  0.25000000  0.19598152  0.08797516  1
  Zr  Zr148  1  0.25000000  0.19598152  0.42130849  1
  Zr  Zr149  1  0.25000000  0.19598152  0.75464183  1
  Zr  Zr150  1  0.25000000  0.52931485  0.08797516  1
  Zr  Zr151  1  0.25000000  0.52931485  0.42130849  1
  Zr  Zr152  1  0.25000000  0.52931485  0.75464183  1
  Zr  Zr153  1  0.75000000  -0.13735181  0.08797516  1
  Zr  Zr154  1  0.75000000  -0.13735181  0.42130849  1
  Zr  Zr155  1  0.75000000  -0.13735181  0.75464183  1
  Zr  Zr156  1  0.75000000  0.19598152  0.08797516  1
  Zr  Zr157  1  0.75000000  0.19598152  0.42130849  1
  Zr  Zr158  1  0.75000000  0.19598152  0.75464183  1
  Zr  Zr159  1  0.75000000  0.52931485  0.08797516  1
  Zr  Zr160  1  0.75000000  0.52931485  0.42130849  1
  Zr  Zr161  1  0.75000000  0.52931485  0.75464183  1
  Zr  Zr162  1  0.50000000  0.02931485  0.08797516  1
  Zr  Zr163  1  0.50000000  0.02931485  0.42130849  1
  Zr  Zr164  1  0.50000000  0.02931485  0.75464183  1
  Zr  Zr165  1  0.50000000  0.36264819  0.08797516  1
  Zr  Zr166  1  0.50000000  0.36264819  0.42130849  1
  Zr  Zr167  1  0.50000000  0.36264819  0.75464183  1
  Zr  Zr168  1  0.50000000  0.69598152  0.08797516  1
  Zr  Zr169  1  0.50000000  0.69598152  0.42130849  1
  Zr  Zr170  1  0.50000000  0.69598152  0.75464183  1
  Zr  Zr171  1  1.00000000  0.02931485  0.08797516  1
  Zr  Zr172  1  1.00000000  0.02931485  0.42130849  1
  Zr  Zr173  1  1.00000000  0.02931485  0.75464183  1
  Zr  Zr174  1  1.00000000  0.36264819  0.08797516  1
  Zr  Zr175  1  1.00000000  0.36264819  0.42130849  1
  Zr  Zr176  1  1.00000000  0.36264819  0.75464183  1
  Zr  Zr177  1  1.00000000  0.69598152  0.08797516  1
  Zr  Zr178  1  1.00000000  0.69598152  0.42130849  1
  Zr  Zr179  1  1.00000000  0.69598152  0.75464183  1
  Zr  Zr180  1  0.25000000  0.13735181  0.25464183  1
  Zr  Zr181  1  0.25000000  0.13735181  0.58797516  1
  Zr  Zr182  1  0.25000000  0.13735181  0.92130849  1
  Zr  Zr183  1  0.25000000  0.47068515  0.25464183  1
  Zr  Zr184  1  0.25000000  0.47068515  0.58797516  1
  Zr  Zr185  1  0.25000000  0.47068515  0.92130849  1
  Zr  Zr186  1  0.25000000  0.80401848  0.25464183  1
  Zr  Zr187  1  0.25000000  0.80401848  0.58797516  1
  Zr  Zr188  1  0.25000000  0.80401848  0.92130849  1
  Zr  Zr189  1  0.75000000  0.13735181  0.25464183  1
  Zr  Zr190  1  0.75000000  0.13735181  0.58797516  1
  Zr  Zr191  1  0.75000000  0.13735181  0.92130849  1
  Zr  Zr192  1  0.75000000  0.47068515  0.25464183  1
  Zr  Zr193  1  0.75000000  0.47068515  0.58797516  1
  Zr  Zr194  1  0.75000000  0.47068515  0.92130849  1
  Zr  Zr195  1  0.75000000  0.80401848  0.25464183  1
  Zr  Zr196  1  0.75000000  0.80401848  0.58797516  1
  Zr  Zr197  1  0.75000000  0.80401848  0.92130849  1
  Zr  Zr198  1  0.50000000  0.30401848  0.25464183  1
  Zr  Zr199  1  0.50000000  0.30401848  0.58797516  1
  Zr  Zr200  1  0.50000000  0.30401848  0.92130849  1
  Zr  Zr201  1  0.50000000  0.63735181  0.25464183  1
  Zr  Zr202  1  0.50000000  0.63735181  0.58797516  1
  Zr  Zr203  1  0.50000000  0.63735181  0.92130849  1
  Zr  Zr204  1  0.50000000  0.97068515  0.25464183  1
  Zr  Zr205  1  0.50000000  0.97068515  0.58797516  1
  Zr  Zr206  1  0.50000000  0.97068515  0.92130849  1
  Zr  Zr207  1  1.00000000  0.30401848  0.25464183  1
  Zr  Zr208  1  1.00000000  0.30401848  0.58797516  1
  Zr  Zr209  1  1.00000000  0.30401848  0.92130849  1
  Zr  Zr210  1  1.00000000  0.63735181  0.25464183  1
  Zr  Zr211  1  1.00000000  0.63735181  0.58797516  1
  Zr  Zr212  1  1.00000000  0.63735181  0.92130849  1
  Zr  Zr213  1  1.00000000  0.97068515  0.25464183  1
  Zr  Zr214  1  1.00000000  0.97068515  0.58797516  1
  Zr  Zr215  1  1.00000000  0.97068515  0.92130849  1
  O  O216  1  0.43762401  -0.00343699  0.16894172  1
  O  O217  1  0.43762401  -0.00343699  0.50227505  1
  O  O218  1  0.43762401  -0.00343699  0.83560839  1
  O  O219  1  0.43762401  0.32989634  0.16894172  1
  O  O220  1  0.43762401  0.32989634  0.50227505  1
  O  O221  1  0.43762401  0.32989634  0.83560839  1
  O  O222  1  0.43762401  0.66322968  0.16894172  1
  O  O223  1  0.43762401  0.66322968  0.50227505  1
  O  O224  1  0.43762401  0.66322968  0.83560839  1
  O  O225  1  0.93762401  -0.00343699  0.16894172  1
  O  O226  1  0.93762401  -0.00343699  0.50227505  1
  O  O227  1  0.93762401  -0.00343699  0.83560839  1
  O  O228  1  0.93762401  0.32989634  0.16894172  1
  O  O229  1  0.93762401  0.32989634  0.50227505  1
  O  O230  1  0.93762401  0.32989634  0.83560839  1
  O  O231  1  0.93762401  0.66322968  0.16894172  1
  O  O232  1  0.93762401  0.66322968  0.50227505  1
  O  O233  1  0.93762401  0.66322968  0.83560839  1
  O  O234  1  0.68762401  0.16322968  0.16894172  1
  O  O235  1  0.68762401  0.16322968  0.50227505  1
  O  O236  1  0.68762401  0.16322968  0.83560839  1
  O  O237  1  0.68762401  0.49656301  0.16894172  1
  O  O238  1  0.68762401  0.49656301  0.50227505  1
  O  O239  1  0.68762401  0.49656301  0.83560839  1
  O  O240  1  0.68762401  0.82989634  0.16894172  1
  O  O241  1  0.68762401  0.82989634  0.50227505  1
  O  O242  1  0.68762401  0.82989634  0.83560839  1
  O  O243  1  1.18762401  0.16322968  0.16894172  1
  O  O244  1  1.18762401  0.16322968  0.50227505  1
  O  O245  1  1.18762401  0.16322968  0.83560839  1
  O  O246  1  1.18762401  0.49656301  0.16894172  1
  O  O247  1  1.18762401  0.49656301  0.50227505  1
  O  O248  1  1.18762401  0.49656301  0.83560839  1
  O  O249  1  1.18762401  0.82989634  0.16894172  1
  O  O250  1  1.18762401  0.82989634  0.50227505  1
  O  O251  1  1.18762401  0.82989634  0.83560839  1
  O  O252  1  0.43762401  0.00343699  0.00227505  1
  O  O253  1  0.43762401  0.00343699  0.33560839  1
  O  O254  1  0.43762401  0.00343699  0.66894172  1
  O  O255  1  0.43762401  0.33677032  0.00227505  1
  O  O256  1  0.43762401  0.33677032  0.33560839  1
  O  O257  1  0.43762401  0.33677032  0.66894172  1
  O  O258  1  0.43762401  0.67010366  0.00227505  1
  O  O259  1  0.43762401  0.67010366  0.33560839  1
  O  O260  1  0.43762401  0.67010366  0.66894172  1
  O  O261  1  0.93762401  0.00343699  0.00227505  1
  O  O262  1  0.93762401  0.00343699  0.33560839  1
  O  O263  1  0.93762401  0.00343699  0.66894172  1
  O  O264  1  0.93762401  0.33677032  0.00227505  1
  O  O265  1  0.93762401  0.33677032  0.33560839  1
  O  O266  1  0.93762401  0.33677032  0.66894172  1
  O  O267  1  0.93762401  0.67010366  0.00227505  1
  O  O268  1  0.93762401  0.67010366  0.33560839  1
  O  O269  1  0.93762401  0.67010366  0.66894172  1
  O  O270  1  0.68762401  0.17010366  0.00227505  1
  O  O271  1  0.68762401  0.17010366  0.33560839  1
  O  O272  1  0.68762401  0.17010366  0.66894172  1
  O  O273  1  0.68762401  0.50343699  0.00227505  1
  O  O274  1  0.68762401  0.50343699  0.33560839  1
  O  O275  1  0.68762401  0.50343699  0.66894172  1
  O  O276  1  0.68762401  0.83677032  0.00227505  1
  O  O277  1  0.68762401  0.83677032  0.33560839  1
  O  O278  1  0.68762401  0.83677032  0.66894172  1
  O  O279  1  1.18762401  0.17010366  0.00227505  1
  O  O280  1  1.18762401  0.17010366  0.33560839  1
  O  O281  1  1.18762401  0.17010366  0.66894172  1
  O  O282  1  1.18762401  0.50343699  0.00227505  1
  O  O283  1  1.18762401  0.50343699  0.33560839  1
  O  O284  1  1.18762401  0.50343699  0.66894172  1
  O  O285  1  1.18762401  0.83677032  0.00227505  1
  O  O286  1  1.18762401  0.83677032  0.33560839  1
  O  O287  1  1.18762401  0.83677032  0.66894172  1
  O  O288  1  0.25000000  -0.05064823  0.09918810  1
  O  O289  1  0.25000000  -0.05064823  0.43252144  1
  O  O290  1  0.25000000  -0.05064823  0.76585477  1
  O  O291  1  0.25000000  0.28268511  0.09918810  1
  O  O292  1  0.25000000  0.28268511  0.43252144  1
  O  O293  1  0.25000000  0.28268511  0.76585477  1
  O  O294  1  0.25000000  0.61601844  0.09918810  1
  O  O295  1  0.25000000  0.61601844  0.43252144  1
  O  O296  1  0.25000000  0.61601844  0.76585477  1
  O  O297  1  0.75000000  -0.05064823  0.09918810  1
  O  O298  1  0.75000000  -0.05064823  0.43252144  1
  O  O299  1  0.75000000  -0.05064823  0.76585477  1
  O  O300  1  0.75000000  0.28268511  0.09918810  1
  O  O301  1  0.75000000  0.28268511  0.43252144  1
  O  O302  1  0.75000000  0.28268511  0.76585477  1
  O  O303  1  0.75000000  0.61601844  0.09918810  1
  O  O304  1  0.75000000  0.61601844  0.43252144  1
  O  O305  1  0.75000000  0.61601844  0.76585477  1
  O  O306  1  0.50000000  0.11601844  0.09918810  1
  O  O307  1  0.50000000  0.11601844  0.43252144  1
  O  O308  1  0.50000000  0.11601844  0.76585477  1
  O  O309  1  0.50000000  0.44935177  0.09918810  1
  O  O310  1  0.50000000  0.44935177  0.43252144  1
  O  O311  1  0.50000000  0.44935177  0.76585477  1
  O  O312  1  0.50000000  0.78268511  0.09918810  1
  O  O313  1  0.50000000  0.78268511  0.43252144  1
  O  O314  1  0.50000000  0.78268511  0.76585477  1
  O  O315  1  1.00000000  0.11601844  0.09918810  1
  O  O316  1  1.00000000  0.11601844  0.43252144  1
  O  O317  1  1.00000000  0.11601844  0.76585477  1
  O  O318  1  1.00000000  0.44935177  0.09918810  1
  O  O319  1  1.00000000  0.44935177  0.43252144  1
  O  O320  1  1.00000000  0.44935177  0.76585477  1
  O  O321  1  1.00000000  0.78268511  0.09918810  1
  O  O322  1  1.00000000  0.78268511  0.43252144  1
  O  O323  1  1.00000000  0.78268511  0.76585477  1
  O  O324  1  0.25000000  0.05064823  0.26585477  1
  O  O325  1  0.25000000  0.05064823  0.59918810  1
  O  O326  1  0.25000000  0.05064823  0.93252144  1
  O  O327  1  0.25000000  0.38398156  0.26585477  1
  O  O328  1  0.25000000  0.38398156  0.59918810  1
  O  O329  1  0.25000000  0.38398156  0.93252144  1
  O  O330  1  0.25000000  0.71731489  0.26585477  1
  O  O331  1  0.25000000  0.71731489  0.59918810  1
  O  O332  1  0.25000000  0.71731489  0.93252144  1
  O  O333  1  0.75000000  0.05064823  0.26585477  1
  O  O334  1  0.75000000  0.05064823  0.59918810  1
  O  O335  1  0.75000000  0.05064823  0.93252144  1
  O  O336  1  0.75000000  0.38398156  0.26585477  1
  O  O337  1  0.75000000  0.38398156  0.59918810  1
  O  O338  1  0.75000000  0.38398156  0.93252144  1
  O  O339  1  0.75000000  0.71731489  0.26585477  1
  O  O340  1  0.75000000  0.71731489  0.59918810  1
  O  O341  1  0.75000000  0.71731489  0.93252144  1
  O  O342  1  0.50000000  0.21731489  0.26585477  1
  O  O343  1  0.50000000  0.21731489  0.59918810  1
  O  O344  1  0.50000000  0.21731489  0.93252144  1
  O  O345  1  0.50000000  0.55064823  0.26585477  1
  O  O346  1  0.50000000  0.55064823  0.59918810  1
  O  O347  1  0.50000000  0.55064823  0.93252144  1
  O  O348  1  0.50000000  0.88398156  0.26585477  1
  O  O349  1  0.50000000  0.88398156  0.59918810  1
  O  O350  1  0.50000000  0.88398156  0.93252144  1
  O  O351  1  1.00000000  0.21731489  0.26585477  1
  O  O352  1  1.00000000  0.21731489  0.59918810  1
  O  O353  1  1.00000000  0.21731489  0.93252144  1
  O  O354  1  1.00000000  0.55064823  0.26585477  1
  O  O355  1  1.00000000  0.55064823  0.59918810  1
  O  O356  1  1.00000000  0.55064823  0.93252144  1
  O  O357  1  1.00000000  0.88398156  0.26585477  1
  O  O358  1  1.00000000  0.88398156  0.59918810  1
  O  O359  1  1.00000000  0.88398156  0.93252144  1
  O  O360  1  0.06237599  0.00343699  0.00227505  1
  O  O361  1  0.06237599  0.00343699  0.33560839  1
  O  O362  1  0.06237599  0.00343699  0.66894172  1
  O  O363  1  0.06237599  0.33677032  0.00227505  1
  O  O364  1  0.06237599  0.33677032  0.33560839  1
  O  O365  1  0.06237599  0.33677032  0.66894172  1
  O  O366  1  0.06237599  0.67010366  0.00227505  1
  O  O367  1  0.06237599  0.67010366  0.33560839  1
  O  O368  1  0.06237599  0.67010366  0.66894172  1
  O  O369  1  0.56237599  0.00343699  0.00227505  1
  O  O370  1  0.56237599  0.00343699  0.33560839  1
  O  O371  1  0.56237599  0.00343699  0.66894172  1
  O  O372  1  0.56237599  0.33677032  0.00227505  1
  O  O373  1  0.56237599  0.33677032  0.33560839  1
  O  O374  1  0.56237599  0.33677032  0.66894172  1
  O  O375  1  0.56237599  0.67010366  0.00227505  1
  O  O376  1  0.56237599  0.67010366  0.33560839  1
  O  O377  1  0.56237599  0.67010366  0.66894172  1
  O  O378  1  0.31237599  0.17010366  0.00227505  1
  O  O379  1  0.31237599  0.17010366  0.33560839  1
  O  O380  1  0.31237599  0.17010366  0.66894172  1
  O  O381  1  0.31237599  0.50343699  0.00227505  1
  O  O382  1  0.31237599  0.50343699  0.33560839  1
  O  O383  1  0.31237599  0.50343699  0.66894172  1
  O  O384  1  0.31237599  0.83677032  0.00227505  1
  O  O385  1  0.31237599  0.83677032  0.33560839  1
  O  O386  1  0.31237599  0.83677032  0.66894172  1
  O  O387  1  0.81237599  0.17010366  0.00227505  1
  O  O388  1  0.81237599  0.17010366  0.33560839  1
  O  O389  1  0.81237599  0.17010366  0.66894172  1
  O  O390  1  0.81237599  0.50343699  0.00227505  1
  O  O391  1  0.81237599  0.50343699  0.33560839  1
  O  O392  1  0.81237599  0.50343699  0.66894172  1
  O  O393  1  0.81237599  0.83677032  0.00227505  1
  O  O394  1  0.81237599  0.83677032  0.33560839  1
  O  O395  1  0.81237599  0.83677032  0.66894172  1
  O  O396  1  0.06237599  -0.00343699  0.16894172  1
  O  O397  1  0.06237599  -0.00343699  0.50227505  1
  O  O398  1  0.06237599  -0.00343699  0.83560839  1
  O  O399  1  0.06237599  0.32989634  0.16894172  1
  O  O400  1  0.06237599  0.32989634  0.50227505  1
  O  O401  1  0.06237599  0.32989634  0.83560839  1
  O  O402  1  0.06237599  0.66322968  0.16894172  1
  O  O403  1  0.06237599  0.66322968  0.50227505  1
  O  O404  1  0.06237599  0.66322968  0.83560839  1
  O  O405  1  0.56237599  -0.00343699  0.16894172  1
  O  O406  1  0.56237599  -0.00343699  0.50227505  1
  O  O407  1  0.56237599  -0.00343699  0.83560839  1
  O  O408  1  0.56237599  0.32989634  0.16894172  1
  O  O409  1  0.56237599  0.32989634  0.50227505  1
  O  O410  1  0.56237599  0.32989634  0.83560839  1
  O  O411  1  0.56237599  0.66322968  0.16894172  1
  O  O412  1  0.56237599  0.66322968  0.50227505  1
  O  O413  1  0.56237599  0.66322968  0.83560839  1
  O  O414  1  0.31237599  0.16322968  0.16894172  1
  O  O415  1  0.31237599  0.16322968  0.50227505  1
  O  O416  1  0.31237599  0.16322968  0.83560839  1
  O  O417  1  0.31237599  0.49656301  0.16894172  1
  O  O418  1  0.31237599  0.49656301  0.50227505  1
  O  O419  1  0.31237599  0.49656301  0.83560839  1
  O  O420  1  0.31237599  0.82989634  0.16894172  1
  O  O421  1  0.31237599  0.82989634  0.50227505  1
  O  O422  1  0.31237599  0.82989634  0.83560839  1
  O  O423  1  0.81237599  0.16322968  0.16894172  1
  O  O424  1  0.81237599  0.16322968  0.50227505  1
  O  O425  1  0.81237599  0.16322968  0.83560839  1
  O  O426  1  0.81237599  0.49656301  0.16894172  1
  O  O427  1  0.81237599  0.49656301  0.50227505  1
  O  O428  1  0.81237599  0.49656301  0.83560839  1
  O  O429  1  0.81237599  0.82989634  0.16894172  1
  O  O430  1  0.81237599  0.82989634  0.50227505  1
  O  O431  1  0.81237599  0.82989634  0.83560839  1
