# generated using pymatgen
data_CaMg(SiO3)2
_symmetry_space_group_name_H-M   'P 1'
_cell_length_a   9.77326248
_cell_length_b   8.88740533
_cell_length_c   10.53014800
_cell_angle_alpha   90.00000000
_cell_angle_beta   106.00069176
_cell_angle_gamma   90.00000000
_symmetry_Int_Tables_number   1
_chemical_formula_structural   CaMg(SiO3)2
_chemical_formula_sum   'Ca8 Mg8 Si16 O48'
_cell_volume   879.20299502
_cell_formula_units_Z   8
loop_
 _symmetry_equiv_pos_site_id
 _symmetry_equiv_pos_as_xyz
  1  'x, y, z'
loop_
 _atom_site_type_symbol
 _atom_site_label
 _atom_site_symmetry_multiplicity
 _atom_site_fract_x
 _atom_site_fract_y
 _atom_site_fract_z
 _atom_site_occupancy
  Ca  Ca0  1  0.50000000  0.19915113  0.37500000  1
  Ca  Ca1  1  0.50000000  0.19915113  0.87500000  1
  Ca  Ca2  1  1.00000000  0.69915113  0.37500000  1
  Ca  Ca3  1  1.00000000  0.69915113  0.87500000  1
  Ca  Ca4  1  0.50000000  -0.19915113  0.12500000  1
  Ca  Ca5  1  0.50000000  -0.19915113  0.62500000  1
  Ca  Ca6  1  1.00000000  0.30084887  0.12500000  1
  Ca  Ca7  1  1.00000000  0.30084887  0.62500000  1
  Mg  Mg8  1  0.50000000  -0.40916896  0.37500000  1
  Mg  Mg9  1  0.50000000  -0.40916896  0.87500000  1
  Mg  Mg10  1  1.00000000  0.09083104  0.37500000  1
  Mg  Mg11  1  1.00000000  0.09083104  0.87500000  1
  Mg  Mg12  1  0.50000000  0.40916896  0.12500000  1
  Mg  Mg13  1  0.50000000  0.40916896  0.62500000  1
  Mg  Mg14  1  1.00000000  0.90916896  0.12500000  1
  Mg  Mg15  1  1.00000000  0.90916896  0.62500000  1
  Si  Si16  1  0.28638096  0.09438792  0.11569347  1
  Si  Si17  1  0.28638096  0.09438792  0.61569347  1
  Si  Si18  1  0.78638096  0.59438792  0.11569347  1
  Si  Si19  1  0.78638096  0.59438792  0.61569347  1
  Si  Si20  1  0.71361904  -0.09438792  0.38430653  1
  Si  Si21  1  0.71361904  -0.09438792  0.88430653  1
  Si  Si22  1  1.21361904  0.40561208  0.38430653  1
  Si  Si23  1  1.21361904  0.40561208  0.88430653  1
  Si  Si24  1  0.71361904  0.09438792  0.13430653  1
  Si  Si25  1  0.71361904  0.09438792  0.63430653  1
  Si  Si26  1  1.21361904  0.59438792  0.13430653  1
  Si  Si27  1  1.21361904  0.59438792  0.63430653  1
  Si  Si28  1  0.28638096  -0.09438792  0.36569347  1
  Si  Si29  1  0.28638096  -0.09438792  0.86569347  1
  Si  Si30  1  0.78638096  0.40561208  0.36569347  1
  Si  Si31  1  0.78638096  0.40561208  0.86569347  1
  O  O32  1  0.64846716  0.01825295  0.25138056  1
  O  O33  1  0.64846716  0.01825295  0.75138056  1
  O  O34  1  1.14846716  0.51825295  0.25138056  1
  O  O35  1  1.14846716  0.51825295  0.75138056  1
  O  O36  1  0.35153284  0.01825295  0.49861944  1
  O  O37  1  0.35153284  0.01825295  0.99861944  1
  O  O38  1  0.85153284  0.51825295  0.49861944  1
  O  O39  1  0.85153284  0.51825295  0.99861944  1
  O  O40  1  0.35153284  -0.01825295  0.24861944  1
  O  O41  1  0.35153284  -0.01825295  0.74861944  1
  O  O42  1  0.85153284  0.48174705  0.24861944  1
  O  O43  1  0.85153284  0.48174705  0.74861944  1
  O  O44  1  0.64846716  -0.01825295  0.00138056  1
  O  O45  1  0.64846716  -0.01825295  0.50138056  1
  O  O46  1  1.14846716  0.48174705  0.00138056  1
  O  O47  1  1.14846716  0.48174705  0.50138056  1
  O  O48  1  0.63752890  0.25235156  0.08827917  1
  O  O49  1  0.63752890  0.25235156  0.58827917  1
  O  O50  1  1.13752890  0.75235156  0.08827917  1
  O  O51  1  1.13752890  0.75235156  0.58827917  1
  O  O52  1  0.36247110  0.25235156  0.16172083  1
  O  O53  1  0.36247110  0.25235156  0.66172083  1
  O  O54  1  0.86247110  0.75235156  0.16172083  1
  O  O55  1  0.86247110  0.75235156  0.66172083  1
  O  O56  1  0.36247110  -0.25235156  0.41172083  1
  O  O57  1  0.36247110  -0.25235156  0.91172083  1
  O  O58  1  0.86247110  0.24764844  0.41172083  1
  O  O59  1  0.86247110  0.24764844  0.91172083  1
  O  O60  1  0.63752890  -0.25235156  0.33827917  1
  O  O61  1  0.63752890  -0.25235156  0.83827917  1
  O  O62  1  1.13752890  0.24764844  0.33827917  1
  O  O63  1  1.13752890  0.24764844  0.83827917  1
  O  O64  1  0.88533133  -0.08882099  0.42873832  1
  O  O65  1  0.88533133  -0.08882099  0.92873832  1
  O  O66  1  1.38533133  0.41117901  0.42873832  1
  O  O67  1  1.38533133  0.41117901  0.92873832  1
  O  O68  1  0.11466867  -0.08882099  0.32126168  1
  O  O69  1  0.11466867  -0.08882099  0.82126168  1
  O  O70  1  0.61466867  0.41117901  0.32126168  1
  O  O71  1  0.61466867  0.41117901  0.82126168  1
  O  O72  1  0.11466867  0.08882099  0.07126168  1
  O  O73  1  0.11466867  0.08882099  0.57126168  1
  O  O74  1  0.61466867  0.58882099  0.07126168  1
  O  O75  1  0.61466867  0.58882099  0.57126168  1
  O  O76  1  0.88533133  0.08882099  0.17873832  1
  O  O77  1  0.88533133  0.08882099  0.67873832  1
  O  O78  1  1.38533133  0.58882099  0.17873832  1
  O  O79  1  1.38533133  0.58882099  0.67873832  1
