# generated using pymatgen
data_LiAsO3
_symmetry_space_group_name_H-M   'P 1'
_cell_length_a   14.54233766
_cell_length_b   14.54233766
_cell_length_c   14.24165945
_cell_angle_alpha   90.00000000
_cell_angle_beta   90.00000000
_cell_angle_gamma   120.00000000
_symmetry_Int_Tables_number   1
_chemical_formula_structural   LiAsO3
_chemical_formula_sum   'Li54 As54 O162'
_cell_volume   2608.31282524
_cell_formula_units_Z   54
loop_
 _symmetry_equiv_pos_site_id
 _symmetry_equiv_pos_as_xyz
  1  'x, y, z'
loop_
 _atom_site_type_symbol
 _atom_site_label
 _atom_site_symmetry_multiplicity
 _atom_site_fract_x
 _atom_site_fract_y
 _atom_site_fract_z
 _atom_site_occupancy
  Li  Li0  1  -0.00000000  -0.00000000  0.86672211  1
  Li  Li1  1  -0.00000000  0.33333333  0.86672211  1
  Li  Li2  1  -0.00000000  0.66666667  0.86672211  1
  Li  Li3  1  0.33333333  -0.00000000  0.86672211  1
  Li  Li4  1  0.33333333  0.33333333  0.86672211  1
  Li  Li5  1  0.33333333  0.66666667  0.86672211  1
  Li  Li6  1  0.66666667  -0.00000000  0.86672211  1
  Li  Li7  1  0.66666667  0.33333333  0.86672211  1
  Li  Li8  1  0.66666667  0.66666667  0.86672211  1
  Li  Li9  1  0.22222222  0.11111111  1.20005544  1
  Li  Li10  1  0.22222222  0.44444444  1.20005544  1
  Li  Li11  1  0.22222222  0.77777778  1.20005544  1
  Li  Li12  1  0.55555556  0.11111111  1.20005544  1
  Li  Li13  1  0.55555556  0.44444444  1.20005544  1
  Li  Li14  1  0.55555556  0.77777778  1.20005544  1
  Li  Li15  1  0.88888889  0.11111111  1.20005544  1
  Li  Li16  1  0.88888889  0.44444444  1.20005544  1
  Li  Li17  1  0.88888889  0.77777778  1.20005544  1
  Li  Li18  1  0.11111111  0.22222222  1.53338877  1
  Li  Li19  1  0.11111111  0.55555556  1.53338877  1
  Li  Li20  1  0.11111111  0.88888889  1.53338877  1
  Li  Li21  1  0.44444444  0.22222222  1.53338877  1
  Li  Li22  1  0.44444444  0.55555556  1.53338877  1
  Li  Li23  1  0.44444444  0.88888889  1.53338877  1
  Li  Li24  1  0.77777778  0.22222222  1.53338877  1
  Li  Li25  1  0.77777778  0.55555556  1.53338877  1
  Li  Li26  1  0.77777778  0.88888889  1.53338877  1
  Li  Li27  1  -0.00000000  -0.00000000  0.13327789  1
  Li  Li28  1  -0.00000000  0.33333333  0.13327789  1
  Li  Li29  1  -0.00000000  0.66666667  0.13327789  1
  Li  Li30  1  0.33333333  -0.00000000  0.13327789  1
  Li  Li31  1  0.33333333  0.33333333  0.13327789  1
  Li  Li32  1  0.33333333  0.66666667  0.13327789  1
  Li  Li33  1  0.66666667  -0.00000000  0.13327789  1
  Li  Li34  1  0.66666667  0.33333333  0.13327789  1
  Li  Li35  1  0.66666667  0.66666667  0.13327789  1
  Li  Li36  1  0.22222222  0.11111111  0.46661123  1
  Li  Li37  1  0.22222222  0.44444444  0.46661123  1
  Li  Li38  1  0.22222222  0.77777778  0.46661123  1
  Li  Li39  1  0.55555556  0.11111111  0.46661123  1
  Li  Li40  1  0.55555556  0.44444444  0.46661123  1
  Li  Li41  1  0.55555556  0.77777778  0.46661123  1
  Li  Li42  1  0.88888889  0.11111111  0.46661123  1
  Li  Li43  1  0.88888889  0.44444444  0.46661123  1
  Li  Li44  1  0.88888889  0.77777778  0.46661123  1
  Li  Li45  1  0.11111111  0.22222222  0.79994456  1
  Li  Li46  1  0.11111111  0.55555556  0.79994456  1
  Li  Li47  1  0.11111111  0.88888889  0.79994456  1
  Li  Li48  1  0.44444444  0.22222222  0.79994456  1
  Li  Li49  1  0.44444444  0.55555556  0.79994456  1
  Li  Li50  1  0.44444444  0.88888889  0.79994456  1
  Li  Li51  1  0.77777778  0.22222222  0.79994456  1
  Li  Li52  1  0.77777778  0.55555556  0.79994456  1
  Li  Li53  1  0.77777778  0.88888889  0.79994456  1
  As  As54  1  -0.00000000  -0.00000000  0.66135166  1
  As  As55  1  -0.00000000  0.33333333  0.66135166  1
  As  As56  1  -0.00000000  0.66666667  0.66135166  1
  As  As57  1  0.33333333  -0.00000000  0.66135166  1
  As  As58  1  0.33333333  0.33333333  0.66135166  1
  As  As59  1  0.33333333  0.66666667  0.66135166  1
  As  As60  1  0.66666667  -0.00000000  0.66135166  1
  As  As61  1  0.66666667  0.33333333  0.66135166  1
  As  As62  1  0.66666667  0.66666667  0.66135166  1
  As  As63  1  0.22222222  0.11111111  0.99468500  1
  As  As64  1  0.22222222  0.44444444  0.99468500  1
  As  As65  1  0.22222222  0.77777778  0.99468500  1
  As  As66  1  0.55555556  0.11111111  0.99468500  1
  As  As67  1  0.55555556  0.44444444  0.99468500  1
  As  As68  1  0.55555556  0.77777778  0.99468500  1
  As  As69  1  0.88888889  0.11111111  0.99468500  1
  As  As70  1  0.88888889  0.44444444  0.99468500  1
  As  As71  1  0.88888889  0.77777778  0.99468500  1
  As  As72  1  0.11111111  0.22222222  1.32801833  1
  As  As73  1  0.11111111  0.55555556  1.32801833  1
  As  As74  1  0.11111111  0.88888889  1.32801833  1
  As  As75  1  0.44444444  0.22222222  1.32801833  1
  As  As76  1  0.44444444  0.55555556  1.32801833  1
  As  As77  1  0.44444444  0.88888889  1.32801833  1
  As  As78  1  0.77777778  0.22222222  1.32801833  1
  As  As79  1  0.77777778  0.55555556  1.32801833  1
  As  As80  1  0.77777778  0.88888889  1.32801833  1
  As  As81  1  0.00000000  0.00000000  0.33864834  1
  As  As82  1  0.00000000  0.33333333  0.33864834  1
  As  As83  1  -0.00000000  0.66666667  0.33864834  1
  As  As84  1  0.33333333  0.00000000  0.33864834  1
  As  As85  1  0.33333333  0.33333333  0.33864834  1
  As  As86  1  0.33333333  0.66666667  0.33864834  1
  As  As87  1  0.66666667  0.00000000  0.33864834  1
  As  As88  1  0.66666667  0.33333333  0.33864834  1
  As  As89  1  0.66666667  0.66666667  0.33864834  1
  As  As90  1  0.22222222  0.11111111  0.67198167  1
  As  As91  1  0.22222222  0.44444444  0.67198167  1
  As  As92  1  0.22222222  0.77777778  0.67198167  1
  As  As93  1  0.55555556  0.11111111  0.67198167  1
  As  As94  1  0.55555556  0.44444444  0.67198167  1
  As  As95  1  0.55555556  0.77777778  0.67198167  1
  As  As96  1  0.88888889  0.11111111  0.67198167  1
  As  As97  1  0.88888889  0.44444444  0.67198167  1
  As  As98  1  0.88888889  0.77777778  0.67198167  1
  As  As99  1  0.11111111  0.22222222  1.00531500  1
  As  As100  1  0.11111111  0.55555556  1.00531500  1
  As  As101  1  0.11111111  0.88888889  1.00531500  1
  As  As102  1  0.44444444  0.22222222  1.00531500  1
  As  As103  1  0.44444444  0.55555556  1.00531500  1
  As  As104  1  0.44444444  0.88888889  1.00531500  1
  As  As105  1  0.77777778  0.22222222  1.00531500  1
  As  As106  1  0.77777778  0.55555556  1.00531500  1
  As  As107  1  0.77777778  0.88888889  1.00531500  1
  O  O108  1  -0.11399421  -0.09956836  0.40667372  1
  O  O109  1  -0.11399421  0.23376497  0.40667372  1
  O  O110  1  -0.11399421  0.56709831  0.40667372  1
  O  O111  1  0.21933913  -0.09956836  0.40667372  1
  O  O112  1  0.21933913  0.23376497  0.40667372  1
  O  O113  1  0.21933913  0.56709831  0.40667372  1
  O  O114  1  0.55267246  -0.09956836  0.40667372  1
  O  O115  1  0.55267246  0.23376497  0.40667372  1
  O  O116  1  0.55267246  0.56709831  0.40667372  1
  O  O117  1  0.10822802  0.01154275  0.74000705  1
  O  O118  1  0.10822802  0.34487608  0.74000705  1
  O  O119  1  0.10822802  0.67820942  0.74000705  1
  O  O120  1  0.44156135  0.01154275  0.74000705  1
  O  O121  1  0.44156135  0.34487608  0.74000705  1
  O  O122  1  0.44156135  0.67820942  0.74000705  1
  O  O123  1  0.77489468  0.01154275  0.74000705  1
  O  O124  1  0.77489468  0.34487608  0.74000705  1
  O  O125  1  0.77489468  0.67820942  0.74000705  1
  O  O126  1  -0.00288310  0.12265386  1.07334039  1
  O  O127  1  -0.00288310  0.45598720  1.07334039  1
  O  O128  1  -0.00288310  0.78932053  1.07334039  1
  O  O129  1  0.33045024  0.12265386  1.07334039  1
  O  O130  1  0.33045024  0.45598720  1.07334039  1
  O  O131  1  0.33045024  0.78932053  1.07334039  1
  O  O132  1  0.66378357  0.12265386  1.07334039  1
  O  O133  1  0.66378357  0.45598720  1.07334039  1
  O  O134  1  0.66378357  0.78932053  1.07334039  1
  O  O135  1  0.01442585  0.11399421  0.40667372  1
  O  O136  1  0.01442585  0.44732754  0.40667372  1
  O  O137  1  0.01442585  0.78066087  0.40667372  1
  O  O138  1  0.34775918  0.11399421  0.40667372  1
  O  O139  1  0.34775918  0.44732754  0.40667372  1
  O  O140  1  0.34775918  0.78066087  0.40667372  1
  O  O141  1  0.68109251  0.11399421  0.40667372  1
  O  O142  1  0.68109251  0.44732754  0.40667372  1
  O  O143  1  0.68109251  0.78066087  0.40667372  1
  O  O144  1  0.23664807  0.22510532  0.74000705  1
  O  O145  1  0.23664807  0.55843865  0.74000705  1
  O  O146  1  0.23664807  0.89177198  0.74000705  1
  O  O147  1  0.56998140  0.22510532  0.74000705  1
  O  O148  1  0.56998140  0.55843865  0.74000705  1
  O  O149  1  0.56998140  0.89177198  0.74000705  1
  O  O150  1  0.90331474  0.22510532  0.74000705  1
  O  O151  1  0.90331474  0.55843865  0.74000705  1
  O  O152  1  0.90331474  0.89177198  0.74000705  1
  O  O153  1  0.12553696  0.33621643  1.07334039  1
  O  O154  1  0.12553696  0.66954976  1.07334039  1
  O  O155  1  0.12553696  1.00288310  1.07334039  1
  O  O156  1  0.45887029  0.33621643  1.07334039  1
  O  O157  1  0.45887029  0.66954976  1.07334039  1
  O  O158  1  0.45887029  1.00288310  1.07334039  1
  O  O159  1  0.79220362  0.33621643  1.07334039  1
  O  O160  1  0.79220362  0.66954976  1.07334039  1
  O  O161  1  0.79220362  1.00288310  1.07334039  1
  O  O162  1  -0.09956836  0.01442585  0.59332628  1
  O  O163  1  -0.09956836  0.34775918  0.59332628  1
  O  O164  1  -0.09956836  0.68109251  0.59332628  1
  O  O165  1  0.23376497  0.01442585  0.59332628  1
  O  O166  1  0.23376497  0.34775918  0.59332628  1
  O  O167  1  0.23376497  0.68109251  0.59332628  1
  O  O168  1  0.56709831  0.01442585  0.59332628  1
  O  O169  1  0.56709831  0.34775918  0.59332628  1
  O  O170  1  0.56709831  0.68109251  0.59332628  1
  O  O171  1  0.12265386  0.12553696  0.92665961  1
  O  O172  1  0.12265386  0.45887029  0.92665961  1
  O  O173  1  0.12265386  0.79220362  0.92665961  1
  O  O174  1  0.45598720  0.12553696  0.92665961  1
  O  O175  1  0.45598720  0.45887029  0.92665961  1
  O  O176  1  0.45598720  0.79220362  0.92665961  1
  O  O177  1  0.78932053  0.12553696  0.92665961  1
  O  O178  1  0.78932053  0.45887029  0.92665961  1
  O  O179  1  0.78932053  0.79220362  0.92665961  1
  O  O180  1  0.01154275  0.23664807  1.25999295  1
  O  O181  1  0.01154275  0.56998140  1.25999295  1
  O  O182  1  0.01154275  0.90331474  1.25999295  1
  O  O183  1  0.34487608  0.23664807  1.25999295  1
  O  O184  1  0.34487608  0.56998140  1.25999295  1
  O  O185  1  0.34487608  0.90331474  1.25999295  1
  O  O186  1  0.67820942  0.23664807  1.25999295  1
  O  O187  1  0.67820942  0.56998140  1.25999295  1
  O  O188  1  0.67820942  0.90331474  1.25999295  1
  O  O189  1  0.11399421  0.09956836  0.59332628  1
  O  O190  1  0.11399421  0.43290169  0.59332628  1
  O  O191  1  0.11399421  0.76623503  0.59332628  1
  O  O192  1  0.44732754  0.09956836  0.59332628  1
  O  O193  1  0.44732754  0.43290169  0.59332628  1
  O  O194  1  0.44732754  0.76623503  0.59332628  1
  O  O195  1  0.78066087  0.09956836  0.59332628  1
  O  O196  1  0.78066087  0.43290169  0.59332628  1
  O  O197  1  0.78066087  0.76623503  0.59332628  1
  O  O198  1  0.33621643  0.21067947  0.92665961  1
  O  O199  1  0.33621643  0.54401280  0.92665961  1
  O  O200  1  0.33621643  0.87734614  0.92665961  1
  O  O201  1  0.66954976  0.21067947  0.92665961  1
  O  O202  1  0.66954976  0.54401280  0.92665961  1
  O  O203  1  0.66954976  0.87734614  0.92665961  1
  O  O204  1  1.00288310  0.21067947  0.92665961  1
  O  O205  1  1.00288310  0.54401280  0.92665961  1
  O  O206  1  1.00288310  0.87734614  0.92665961  1
  O  O207  1  0.22510532  0.32179058  1.25999295  1
  O  O208  1  0.22510532  0.65512392  1.25999295  1
  O  O209  1  0.22510532  0.98845725  1.25999295  1
  O  O210  1  0.55843865  0.32179058  1.25999295  1
  O  O211  1  0.55843865  0.65512392  1.25999295  1
  O  O212  1  0.55843865  0.98845725  1.25999295  1
  O  O213  1  0.89177198  0.32179058  1.25999295  1
  O  O214  1  0.89177198  0.65512392  1.25999295  1
  O  O215  1  0.89177198  0.98845725  1.25999295  1
  O  O216  1  -0.01442585  -0.11399421  0.59332628  1
  O  O217  1  -0.01442585  0.21933913  0.59332628  1
  O  O218  1  -0.01442585  0.55267246  0.59332628  1
  O  O219  1  0.31890749  -0.11399421  0.59332628  1
  O  O220  1  0.31890749  0.21933913  0.59332628  1
  O  O221  1  0.31890749  0.55267246  0.59332628  1
  O  O222  1  0.65224082  -0.11399421  0.59332628  1
  O  O223  1  0.65224082  0.21933913  0.59332628  1
  O  O224  1  0.65224082  0.55267246  0.59332628  1
  O  O225  1  0.20779638  -0.00288310  0.92665961  1
  O  O226  1  0.20779638  0.33045024  0.92665961  1
  O  O227  1  0.20779638  0.66378357  0.92665961  1
  O  O228  1  0.54112971  -0.00288310  0.92665961  1
  O  O229  1  0.54112971  0.33045024  0.92665961  1
  O  O230  1  0.54112971  0.66378357  0.92665961  1
  O  O231  1  0.87446304  -0.00288310  0.92665961  1
  O  O232  1  0.87446304  0.33045024  0.92665961  1
  O  O233  1  0.87446304  0.66378357  0.92665961  1
  O  O234  1  0.09668526  0.10822802  1.25999295  1
  O  O235  1  0.09668526  0.44156135  1.25999295  1
  O  O236  1  0.09668526  0.77489468  1.25999295  1
  O  O237  1  0.43001860  0.10822802  1.25999295  1
  O  O238  1  0.43001860  0.44156135  1.25999295  1
  O  O239  1  0.43001860  0.77489468  1.25999295  1
  O  O240  1  0.76335193  0.10822802  1.25999295  1
  O  O241  1  0.76335193  0.44156135  1.25999295  1
  O  O242  1  0.76335193  0.77489468  1.25999295  1
  O  O243  1  0.09956836  -0.01442585  0.40667372  1
  O  O244  1  0.09956836  0.31890749  0.40667372  1
  O  O245  1  0.09956836  0.65224082  0.40667372  1
  O  O246  1  0.43290169  -0.01442585  0.40667372  1
  O  O247  1  0.43290169  0.31890749  0.40667372  1
  O  O248  1  0.43290169  0.65224082  0.40667372  1
  O  O249  1  0.76623503  -0.01442585  0.40667372  1
  O  O250  1  0.76623503  0.31890749  0.40667372  1
  O  O251  1  0.76623503  0.65224082  0.40667372  1
  O  O252  1  0.32179058  0.09668526  0.74000705  1
  O  O253  1  0.32179058  0.43001860  0.74000705  1
  O  O254  1  0.32179058  0.76335193  0.74000705  1
  O  O255  1  0.65512392  0.09668526  0.74000705  1
  O  O256  1  0.65512392  0.43001860  0.74000705  1
  O  O257  1  0.65512392  0.76335193  0.74000705  1
  O  O258  1  0.98845725  0.09668526  0.74000705  1
  O  O259  1  0.98845725  0.43001860  0.74000705  1
  O  O260  1  0.98845725  0.76335193  0.74000705  1
  O  O261  1  0.21067947  0.20779638  1.07334039  1
  O  O262  1  0.21067947  0.54112971  1.07334039  1
  O  O263  1  0.21067947  0.87446304  1.07334039  1
  O  O264  1  0.54401280  0.20779638  1.07334039  1
  O  O265  1  0.54401280  0.54112971  1.07334039  1
  O  O266  1  0.54401280  0.87446304  1.07334039  1
  O  O267  1  0.87734614  0.20779638  1.07334039  1
  O  O268  1  0.87734614  0.54112971  1.07334039  1
  O  O269  1  0.87734614  0.87446304  1.07334039  1
