# generated using pymatgen
data_KLaTiO4
_symmetry_space_group_name_H-M   'P 1'
_cell_length_a   15.36019785
_cell_length_b   15.36019785
_cell_length_c   13.44344638
_cell_angle_alpha   90.00000000
_cell_angle_beta   90.00000000
_cell_angle_gamma   90.00000000
_symmetry_Int_Tables_number   1
_chemical_formula_structural   KLaTiO4
_chemical_formula_sum   'K32 La32 Ti32 O128'
_cell_volume   3171.78863493
_cell_formula_units_Z   32
loop_
 _symmetry_equiv_pos_site_id
 _symmetry_equiv_pos_as_xyz
  1  'x, y, z'
loop_
 _atom_site_type_symbol
 _atom_site_label
 _atom_site_symmetry_multiplicity
 _atom_site_fract_x
 _atom_site_fract_y
 _atom_site_fract_z
 _atom_site_occupancy
  K  K0  1  0.75000000  0.62500000  0.40595865  1
  K  K1  1  0.75000000  0.37500000  0.40595865  1
  K  K2  1  0.75000000  0.12500000  0.40595865  1
  K  K3  1  0.75000000  -0.12500000  0.40595865  1
  K  K4  1  0.50000000  0.62500000  0.40595865  1
  K  K5  1  0.50000000  0.37500000  0.40595865  1
  K  K6  1  0.50000000  0.12500000  0.40595865  1
  K  K7  1  0.50000000  -0.12500000  0.40595865  1
  K  K8  1  0.25000000  0.62500000  0.40595865  1
  K  K9  1  0.25000000  0.37500000  0.40595865  1
  K  K10  1  0.25000000  0.12500000  0.40595865  1
  K  K11  1  0.25000000  -0.12500000  0.40595865  1
  K  K12  1  0.00000000  0.62500000  0.40595865  1
  K  K13  1  0.00000000  0.37500000  0.40595865  1
  K  K14  1  0.00000000  0.12500000  0.40595865  1
  K  K15  1  0.00000000  -0.12500000  0.40595865  1
  K  K16  1  0.62500000  0.75000000  0.59404135  1
  K  K17  1  0.62500000  0.50000000  0.59404135  1
  K  K18  1  0.62500000  0.25000000  0.59404135  1
  K  K19  1  0.62500000  0.00000000  0.59404135  1
  K  K20  1  0.37500000  0.75000000  0.59404135  1
  K  K21  1  0.37500000  0.50000000  0.59404135  1
  K  K22  1  0.37500000  0.25000000  0.59404135  1
  K  K23  1  0.37500000  0.00000000  0.59404135  1
  K  K24  1  0.12500000  0.75000000  0.59404135  1
  K  K25  1  0.12500000  0.50000000  0.59404135  1
  K  K26  1  0.12500000  0.25000000  0.59404135  1
  K  K27  1  0.12500000  0.00000000  0.59404135  1
  K  K28  1  -0.12500000  0.75000000  0.59404135  1
  K  K29  1  -0.12500000  0.50000000  0.59404135  1
  K  K30  1  -0.12500000  0.25000000  0.59404135  1
  K  K31  1  -0.12500000  0.00000000  0.59404135  1
  La  La32  1  0.75000000  0.62500000  0.10410612  1
  La  La33  1  0.75000000  0.37500000  0.10410612  1
  La  La34  1  0.75000000  0.12500000  0.10410612  1
  La  La35  1  0.75000000  -0.12500000  0.10410612  1
  La  La36  1  0.50000000  0.62500000  0.10410612  1
  La  La37  1  0.50000000  0.37500000  0.10410612  1
  La  La38  1  0.50000000  0.12500000  0.10410612  1
  La  La39  1  0.50000000  -0.12500000  0.10410612  1
  La  La40  1  0.25000000  0.62500000  0.10410612  1
  La  La41  1  0.25000000  0.37500000  0.10410612  1
  La  La42  1  0.25000000  0.12500000  0.10410612  1
  La  La43  1  0.25000000  -0.12500000  0.10410612  1
  La  La44  1  0.00000000  0.62500000  0.10410612  1
  La  La45  1  0.00000000  0.37500000  0.10410612  1
  La  La46  1  0.00000000  0.12500000  0.10410612  1
  La  La47  1  0.00000000  -0.12500000  0.10410612  1
  La  La48  1  0.62500000  0.75000000  0.89589388  1
  La  La49  1  0.62500000  0.50000000  0.89589388  1
  La  La50  1  0.62500000  0.25000000  0.89589388  1
  La  La51  1  0.62500000  0.00000000  0.89589388  1
  La  La52  1  0.37500000  0.75000000  0.89589388  1
  La  La53  1  0.37500000  0.50000000  0.89589388  1
  La  La54  1  0.37500000  0.25000000  0.89589388  1
  La  La55  1  0.37500000  0.00000000  0.89589388  1
  La  La56  1  0.12500000  0.75000000  0.89589388  1
  La  La57  1  0.12500000  0.50000000  0.89589388  1
  La  La58  1  0.12500000  0.25000000  0.89589388  1
  La  La59  1  0.12500000  0.00000000  0.89589388  1
  La  La60  1  -0.12500000  0.75000000  0.89589388  1
  La  La61  1  -0.12500000  0.50000000  0.89589388  1
  La  La62  1  -0.12500000  0.25000000  0.89589388  1
  La  La63  1  -0.12500000  0.00000000  0.89589388  1
  Ti  Ti64  1  0.62500000  0.75000000  0.25437164  1
  Ti  Ti65  1  0.62500000  0.50000000  0.25437164  1
  Ti  Ti66  1  0.62500000  0.25000000  0.25437164  1
  Ti  Ti67  1  0.62500000  0.00000000  0.25437164  1
  Ti  Ti68  1  0.37500000  0.75000000  0.25437164  1
  Ti  Ti69  1  0.37500000  0.50000000  0.25437164  1
  Ti  Ti70  1  0.37500000  0.25000000  0.25437164  1
  Ti  Ti71  1  0.37500000  0.00000000  0.25437164  1
  Ti  Ti72  1  0.12500000  0.75000000  0.25437164  1
  Ti  Ti73  1  0.12500000  0.50000000  0.25437164  1
  Ti  Ti74  1  0.12500000  0.25000000  0.25437164  1
  Ti  Ti75  1  0.12500000  0.00000000  0.25437164  1
  Ti  Ti76  1  -0.12500000  0.75000000  0.25437164  1
  Ti  Ti77  1  -0.12500000  0.50000000  0.25437164  1
  Ti  Ti78  1  -0.12500000  0.25000000  0.25437164  1
  Ti  Ti79  1  -0.12500000  0.00000000  0.25437164  1
  Ti  Ti80  1  0.75000000  0.62500000  0.74562836  1
  Ti  Ti81  1  0.75000000  0.37500000  0.74562836  1
  Ti  Ti82  1  0.75000000  0.12500000  0.74562836  1
  Ti  Ti83  1  0.75000000  -0.12500000  0.74562836  1
  Ti  Ti84  1  0.50000000  0.62500000  0.74562836  1
  Ti  Ti85  1  0.50000000  0.37500000  0.74562836  1
  Ti  Ti86  1  0.50000000  0.12500000  0.74562836  1
  Ti  Ti87  1  0.50000000  -0.12500000  0.74562836  1
  Ti  Ti88  1  0.25000000  0.62500000  0.74562836  1
  Ti  Ti89  1  0.25000000  0.37500000  0.74562836  1
  Ti  Ti90  1  0.25000000  0.12500000  0.74562836  1
  Ti  Ti91  1  0.25000000  -0.12500000  0.74562836  1
  Ti  Ti92  1  0.00000000  0.62500000  0.74562836  1
  Ti  Ti93  1  0.00000000  0.37500000  0.74562836  1
  Ti  Ti94  1  0.00000000  0.12500000  0.74562836  1
  Ti  Ti95  1  0.00000000  -0.12500000  0.74562836  1
  O  O96  1  0.75000000  0.75000000  0.22388245  1
  O  O97  1  0.75000000  0.50000000  0.22388245  1
  O  O98  1  0.75000000  0.25000000  0.22388245  1
  O  O99  1  0.75000000  0.00000000  0.22388245  1
  O  O100  1  0.50000000  0.75000000  0.22388245  1
  O  O101  1  0.50000000  0.50000000  0.22388245  1
  O  O102  1  0.50000000  0.25000000  0.22388245  1
  O  O103  1  0.50000000  0.00000000  0.22388245  1
  O  O104  1  0.25000000  0.75000000  0.22388245  1
  O  O105  1  0.25000000  0.50000000  0.22388245  1
  O  O106  1  0.25000000  0.25000000  0.22388245  1
  O  O107  1  0.25000000  0.00000000  0.22388245  1
  O  O108  1  0.00000000  0.75000000  0.22388245  1
  O  O109  1  0.00000000  0.50000000  0.22388245  1
  O  O110  1  0.00000000  0.25000000  0.22388245  1
  O  O111  1  0.00000000  0.00000000  0.22388245  1
  O  O112  1  0.62500000  0.62500000  0.22388245  1
  O  O113  1  0.62500000  0.37500000  0.22388245  1
  O  O114  1  0.62500000  0.12500000  0.22388245  1
  O  O115  1  0.62500000  -0.12500000  0.22388245  1
  O  O116  1  0.37500000  0.62500000  0.22388245  1
  O  O117  1  0.37500000  0.37500000  0.22388245  1
  O  O118  1  0.37500000  0.12500000  0.22388245  1
  O  O119  1  0.37500000  -0.12500000  0.22388245  1
  O  O120  1  0.12500000  0.62500000  0.22388245  1
  O  O121  1  0.12500000  0.37500000  0.22388245  1
  O  O122  1  0.12500000  0.12500000  0.22388245  1
  O  O123  1  0.12500000  -0.12500000  0.22388245  1
  O  O124  1  -0.12500000  0.62500000  0.22388245  1
  O  O125  1  -0.12500000  0.37500000  0.22388245  1
  O  O126  1  -0.12500000  0.12500000  0.22388245  1
  O  O127  1  -0.12500000  -0.12500000  0.22388245  1
  O  O128  1  0.62500000  0.62500000  0.77611755  1
  O  O129  1  0.62500000  0.37500000  0.77611755  1
  O  O130  1  0.62500000  0.12500000  0.77611755  1
  O  O131  1  0.62500000  -0.12500000  0.77611755  1
  O  O132  1  0.37500000  0.62500000  0.77611755  1
  O  O133  1  0.37500000  0.37500000  0.77611755  1
  O  O134  1  0.37500000  0.12500000  0.77611755  1
  O  O135  1  0.37500000  -0.12500000  0.77611755  1
  O  O136  1  0.12500000  0.62500000  0.77611755  1
  O  O137  1  0.12500000  0.37500000  0.77611755  1
  O  O138  1  0.12500000  0.12500000  0.77611755  1
  O  O139  1  0.12500000  -0.12500000  0.77611755  1
  O  O140  1  -0.12500000  0.62500000  0.77611755  1
  O  O141  1  -0.12500000  0.37500000  0.77611755  1
  O  O142  1  -0.12500000  0.12500000  0.77611755  1
  O  O143  1  -0.12500000  -0.12500000  0.77611755  1
  O  O144  1  0.75000000  0.75000000  0.77611755  1
  O  O145  1  0.75000000  0.50000000  0.77611755  1
  O  O146  1  0.75000000  0.25000000  0.77611755  1
  O  O147  1  0.75000000  0.00000000  0.77611755  1
  O  O148  1  0.50000000  0.75000000  0.77611755  1
  O  O149  1  0.50000000  0.50000000  0.77611755  1
  O  O150  1  0.50000000  0.25000000  0.77611755  1
  O  O151  1  0.50000000  0.00000000  0.77611755  1
  O  O152  1  0.25000000  0.75000000  0.77611755  1
  O  O153  1  0.25000000  0.50000000  0.77611755  1
  O  O154  1  0.25000000  0.25000000  0.77611755  1
  O  O155  1  0.25000000  0.00000000  0.77611755  1
  O  O156  1  0.00000000  0.75000000  0.77611755  1
  O  O157  1  0.00000000  0.50000000  0.77611755  1
  O  O158  1  0.00000000  0.25000000  0.77611755  1
  O  O159  1  0.00000000  0.00000000  0.77611755  1
  O  O160  1  0.75000000  0.62500000  0.61355449  1
  O  O161  1  0.75000000  0.37500000  0.61355449  1
  O  O162  1  0.75000000  0.12500000  0.61355449  1
  O  O163  1  0.75000000  -0.12500000  0.61355449  1
  O  O164  1  0.50000000  0.62500000  0.61355449  1
  O  O165  1  0.50000000  0.37500000  0.61355449  1
  O  O166  1  0.50000000  0.12500000  0.61355449  1
  O  O167  1  0.50000000  -0.12500000  0.61355449  1
  O  O168  1  0.25000000  0.62500000  0.61355449  1
  O  O169  1  0.25000000  0.37500000  0.61355449  1
  O  O170  1  0.25000000  0.12500000  0.61355449  1
  O  O171  1  0.25000000  -0.12500000  0.61355449  1
  O  O172  1  0.00000000  0.62500000  0.61355449  1
  O  O173  1  0.00000000  0.37500000  0.61355449  1
  O  O174  1  0.00000000  0.12500000  0.61355449  1
  O  O175  1  0.00000000  -0.12500000  0.61355449  1
  O  O176  1  0.62500000  0.75000000  0.38644551  1
  O  O177  1  0.62500000  0.50000000  0.38644551  1
  O  O178  1  0.62500000  0.25000000  0.38644551  1
  O  O179  1  0.62500000  0.00000000  0.38644551  1
  O  O180  1  0.37500000  0.75000000  0.38644551  1
  O  O181  1  0.37500000  0.50000000  0.38644551  1
  O  O182  1  0.37500000  0.25000000  0.38644551  1
  O  O183  1  0.37500000  0.00000000  0.38644551  1
  O  O184  1  0.12500000  0.75000000  0.38644551  1
  O  O185  1  0.12500000  0.50000000  0.38644551  1
  O  O186  1  0.12500000  0.25000000  0.38644551  1
  O  O187  1  0.12500000  0.00000000  0.38644551  1
  O  O188  1  -0.12500000  0.75000000  0.38644551  1
  O  O189  1  -0.12500000  0.50000000  0.38644551  1
  O  O190  1  -0.12500000  0.25000000  0.38644551  1
  O  O191  1  -0.12500000  0.00000000  0.38644551  1
  O  O192  1  0.75000000  0.62500000  0.93151997  1
  O  O193  1  0.75000000  0.37500000  0.93151997  1
  O  O194  1  0.75000000  0.12500000  0.93151997  1
  O  O195  1  0.75000000  -0.12500000  0.93151997  1
  O  O196  1  0.50000000  0.62500000  0.93151997  1
  O  O197  1  0.50000000  0.37500000  0.93151997  1
  O  O198  1  0.50000000  0.12500000  0.93151997  1
  O  O199  1  0.50000000  -0.12500000  0.93151997  1
  O  O200  1  0.25000000  0.62500000  0.93151997  1
  O  O201  1  0.25000000  0.37500000  0.93151997  1
  O  O202  1  0.25000000  0.12500000  0.93151997  1
  O  O203  1  0.25000000  -0.12500000  0.93151997  1
  O  O204  1  0.00000000  0.62500000  0.93151997  1
  O  O205  1  0.00000000  0.37500000  0.93151997  1
  O  O206  1  0.00000000  0.12500000  0.93151997  1
  O  O207  1  0.00000000  -0.12500000  0.93151997  1
  O  O208  1  0.62500000  0.75000000  0.06848003  1
  O  O209  1  0.62500000  0.50000000  0.06848003  1
  O  O210  1  0.62500000  0.25000000  0.06848003  1
  O  O211  1  0.62500000  0.00000000  0.06848003  1
  O  O212  1  0.37500000  0.75000000  0.06848003  1
  O  O213  1  0.37500000  0.50000000  0.06848003  1
  O  O214  1  0.37500000  0.25000000  0.06848003  1
  O  O215  1  0.37500000  0.00000000  0.06848003  1
  O  O216  1  0.12500000  0.75000000  0.06848003  1
  O  O217  1  0.12500000  0.50000000  0.06848003  1
  O  O218  1  0.12500000  0.25000000  0.06848003  1
  O  O219  1  0.12500000  0.00000000  0.06848003  1
  O  O220  1  -0.12500000  0.75000000  0.06848003  1
  O  O221  1  -0.12500000  0.50000000  0.06848003  1
  O  O222  1  -0.12500000  0.25000000  0.06848003  1
  O  O223  1  -0.12500000  0.00000000  0.06848003  1
