# generated using pymatgen
data_RbTlO
_symmetry_space_group_name_H-M   'P 1'
_cell_length_a   13.40334193
_cell_length_b   14.66936911
_cell_length_c   12.77013746
_cell_angle_alpha   90.00000000
_cell_angle_beta   106.77329513
_cell_angle_gamma   90.00000000
_symmetry_Int_Tables_number   1
_chemical_formula_structural   RbTlO
_chemical_formula_sum   'Rb32 Tl32 O32'
_cell_volume   2404.01997643
_cell_formula_units_Z   32
loop_
 _symmetry_equiv_pos_site_id
 _symmetry_equiv_pos_as_xyz
  1  'x, y, z'
loop_
 _atom_site_type_symbol
 _atom_site_label
 _atom_site_symmetry_multiplicity
 _atom_site_fract_x
 _atom_site_fract_y
 _atom_site_fract_z
 _atom_site_occupancy
  Rb  Rb0  1  0.12465079  0.00000000  0.17152080  1
  Rb  Rb1  1  0.12465079  0.00000000  0.67152080  1
  Rb  Rb2  1  0.12465079  0.25000000  0.17152080  1
  Rb  Rb3  1  0.12465079  0.25000000  0.67152080  1
  Rb  Rb4  1  0.12465079  0.50000000  0.17152080  1
  Rb  Rb5  1  0.12465079  0.50000000  0.67152080  1
  Rb  Rb6  1  0.12465079  0.75000000  0.17152080  1
  Rb  Rb7  1  0.12465079  0.75000000  0.67152080  1
  Rb  Rb8  1  0.62465079  0.12500000  0.17152080  1
  Rb  Rb9  1  0.62465079  0.12500000  0.67152080  1
  Rb  Rb10  1  0.62465079  0.37500000  0.17152080  1
  Rb  Rb11  1  0.62465079  0.37500000  0.67152080  1
  Rb  Rb12  1  0.62465079  0.62500000  0.17152080  1
  Rb  Rb13  1  0.62465079  0.62500000  0.67152080  1
  Rb  Rb14  1  0.62465079  0.87500000  0.17152080  1
  Rb  Rb15  1  0.62465079  0.87500000  0.67152080  1
  Rb  Rb16  1  0.87534921  -0.00000000  0.32847920  1
  Rb  Rb17  1  0.87534921  -0.00000000  0.82847920  1
  Rb  Rb18  1  0.87534921  0.25000000  0.32847920  1
  Rb  Rb19  1  0.87534921  0.25000000  0.82847920  1
  Rb  Rb20  1  0.87534921  0.50000000  0.32847920  1
  Rb  Rb21  1  0.87534921  0.50000000  0.82847920  1
  Rb  Rb22  1  0.87534921  0.75000000  0.32847920  1
  Rb  Rb23  1  0.87534921  0.75000000  0.82847920  1
  Rb  Rb24  1  1.37534921  0.12500000  0.32847920  1
  Rb  Rb25  1  1.37534921  0.12500000  0.82847920  1
  Rb  Rb26  1  1.37534921  0.37500000  0.32847920  1
  Rb  Rb27  1  1.37534921  0.37500000  0.82847920  1
  Rb  Rb28  1  1.37534921  0.62500000  0.32847920  1
  Rb  Rb29  1  1.37534921  0.62500000  0.82847920  1
  Rb  Rb30  1  1.37534921  0.87500000  0.32847920  1
  Rb  Rb31  1  1.37534921  0.87500000  0.82847920  1
  Tl  Tl32  1  0.35720924  0.00000000  0.07409247  1
  Tl  Tl33  1  0.35720924  0.00000000  0.57409247  1
  Tl  Tl34  1  0.35720924  0.25000000  0.07409247  1
  Tl  Tl35  1  0.35720924  0.25000000  0.57409247  1
  Tl  Tl36  1  0.35720924  0.50000000  0.07409247  1
  Tl  Tl37  1  0.35720924  0.50000000  0.57409247  1
  Tl  Tl38  1  0.35720924  0.75000000  0.07409247  1
  Tl  Tl39  1  0.35720924  0.75000000  0.57409247  1
  Tl  Tl40  1  0.85720924  0.12500000  0.07409247  1
  Tl  Tl41  1  0.85720924  0.12500000  0.57409247  1
  Tl  Tl42  1  0.85720924  0.37500000  0.07409247  1
  Tl  Tl43  1  0.85720924  0.37500000  0.57409247  1
  Tl  Tl44  1  0.85720924  0.62500000  0.07409247  1
  Tl  Tl45  1  0.85720924  0.62500000  0.57409247  1
  Tl  Tl46  1  0.85720924  0.87500000  0.07409247  1
  Tl  Tl47  1  0.85720924  0.87500000  0.57409247  1
  Tl  Tl48  1  0.64279076  0.00000000  0.42590753  1
  Tl  Tl49  1  0.64279076  0.00000000  0.92590753  1
  Tl  Tl50  1  0.64279076  0.25000000  0.42590753  1
  Tl  Tl51  1  0.64279076  0.25000000  0.92590753  1
  Tl  Tl52  1  0.64279076  0.50000000  0.42590753  1
  Tl  Tl53  1  0.64279076  0.50000000  0.92590753  1
  Tl  Tl54  1  0.64279076  0.75000000  0.42590753  1
  Tl  Tl55  1  0.64279076  0.75000000  0.92590753  1
  Tl  Tl56  1  1.14279076  0.12500000  0.42590753  1
  Tl  Tl57  1  1.14279076  0.12500000  0.92590753  1
  Tl  Tl58  1  1.14279076  0.37500000  0.42590753  1
  Tl  Tl59  1  1.14279076  0.37500000  0.92590753  1
  Tl  Tl60  1  1.14279076  0.62500000  0.42590753  1
  Tl  Tl61  1  1.14279076  0.62500000  0.92590753  1
  Tl  Tl62  1  1.14279076  0.87500000  0.42590753  1
  Tl  Tl63  1  1.14279076  0.87500000  0.92590753  1
  O  O64  1  0.75094478  0.00000000  0.10624002  1
  O  O65  1  0.75094478  0.00000000  0.60624002  1
  O  O66  1  0.75094478  0.25000000  0.10624002  1
  O  O67  1  0.75094478  0.25000000  0.60624002  1
  O  O68  1  0.75094478  0.50000000  0.10624002  1
  O  O69  1  0.75094478  0.50000000  0.60624002  1
  O  O70  1  0.75094478  0.75000000  0.10624002  1
  O  O71  1  0.75094478  0.75000000  0.60624002  1
  O  O72  1  1.25094478  0.12500000  0.10624002  1
  O  O73  1  1.25094478  0.12500000  0.60624002  1
  O  O74  1  1.25094478  0.37500000  0.10624002  1
  O  O75  1  1.25094478  0.37500000  0.60624002  1
  O  O76  1  1.25094478  0.62500000  0.10624002  1
  O  O77  1  1.25094478  0.62500000  0.60624002  1
  O  O78  1  1.25094478  0.87500000  0.10624002  1
  O  O79  1  1.25094478  0.87500000  0.60624002  1
  O  O80  1  0.24905522  0.00000000  0.39375998  1
  O  O81  1  0.24905522  0.00000000  0.89375998  1
  O  O82  1  0.24905522  0.25000000  0.39375998  1
  O  O83  1  0.24905522  0.25000000  0.89375998  1
  O  O84  1  0.24905522  0.50000000  0.39375998  1
  O  O85  1  0.24905522  0.50000000  0.89375998  1
  O  O86  1  0.24905522  0.75000000  0.39375998  1
  O  O87  1  0.24905522  0.75000000  0.89375998  1
  O  O88  1  0.74905522  0.12500000  0.39375998  1
  O  O89  1  0.74905522  0.12500000  0.89375998  1
  O  O90  1  0.74905522  0.37500000  0.39375998  1
  O  O91  1  0.74905522  0.37500000  0.89375998  1
  O  O92  1  0.74905522  0.62500000  0.39375998  1
  O  O93  1  0.74905522  0.62500000  0.89375998  1
  O  O94  1  0.74905522  0.87500000  0.39375998  1
  O  O95  1  0.74905522  0.87500000  0.89375998  1
