# generated using pymatgen
data_NaBO2
_symmetry_space_group_name_H-M   'P 1'
_cell_length_a   11.81038848
_cell_length_b   11.81038848
_cell_length_c   12.62115580
_cell_angle_alpha   90.00000000
_cell_angle_beta   90.00000000
_cell_angle_gamma   120.00000000
_symmetry_Int_Tables_number   1
_chemical_formula_structural   NaBO2
_chemical_formula_sum   'Na36 B36 O72'
_cell_volume   1524.60775996
_cell_formula_units_Z   36
loop_
 _symmetry_equiv_pos_site_id
 _symmetry_equiv_pos_as_xyz
  1  'x, y, z'
loop_
 _atom_site_type_symbol
 _atom_site_label
 _atom_site_symmetry_multiplicity
 _atom_site_fract_x
 _atom_site_fract_y
 _atom_site_fract_z
 _atom_site_occupancy
  Na  Na0  1  -0.33333333  -0.22966903  0.29166667  1
  Na  Na1  1  -0.33333333  -0.22966903  0.79166667  1
  Na  Na2  1  0.33333333  0.10366431  0.45833333  1
  Na  Na3  1  0.33333333  0.10366431  0.95833333  1
  Na  Na4  1  -0.00000000  0.43699764  0.62500000  1
  Na  Na5  1  -0.00000000  0.43699764  1.12500000  1
  Na  Na6  1  0.22966903  -0.10366431  0.29166667  1
  Na  Na7  1  0.22966903  -0.10366431  0.79166667  1
  Na  Na8  1  0.89633569  0.22966903  0.45833333  1
  Na  Na9  1  0.89633569  0.22966903  0.95833333  1
  Na  Na10  1  0.56300236  0.56300236  0.62500000  1
  Na  Na11  1  0.56300236  0.56300236  1.12500000  1
  Na  Na12  1  0.10366431  0.33333333  0.29166667  1
  Na  Na13  1  0.10366431  0.33333333  0.79166667  1
  Na  Na14  1  0.77033097  0.66666667  0.45833333  1
  Na  Na15  1  0.77033097  0.66666667  0.95833333  1
  Na  Na16  1  0.43699764  1.00000000  0.62500000  1
  Na  Na17  1  0.43699764  1.00000000  1.12500000  1
  Na  Na18  1  0.33333333  0.22966903  0.20833333  1
  Na  Na19  1  0.33333333  0.22966903  0.70833333  1
  Na  Na20  1  1.00000000  0.56300236  0.37500000  1
  Na  Na21  1  1.00000000  0.56300236  0.87500000  1
  Na  Na22  1  0.66666667  0.89633569  0.54166667  1
  Na  Na23  1  0.66666667  0.89633569  1.04166667  1
  Na  Na24  1  -0.22966903  0.10366431  0.20833333  1
  Na  Na25  1  -0.22966903  0.10366431  0.70833333  1
  Na  Na26  1  0.43699764  0.43699764  0.37500000  1
  Na  Na27  1  0.43699764  0.43699764  0.87500000  1
  Na  Na28  1  0.10366431  0.77033097  0.54166667  1
  Na  Na29  1  0.10366431  0.77033097  1.04166667  1
  Na  Na30  1  -0.10366431  -0.33333333  0.20833333  1
  Na  Na31  1  -0.10366431  -0.33333333  0.70833333  1
  Na  Na32  1  0.56300236  0.00000000  0.37500000  1
  Na  Na33  1  0.56300236  0.00000000  0.87500000  1
  Na  Na34  1  0.22966903  0.33333333  0.54166667  1
  Na  Na35  1  0.22966903  0.33333333  1.04166667  1
  B  B36  1  0.00000000  -0.12219316  0.37500000  1
  B  B37  1  0.00000000  -0.12219316  0.87500000  1
  B  B38  1  0.66666667  0.21114017  0.54166667  1
  B  B39  1  0.66666667  0.21114017  1.04166667  1
  B  B40  1  0.33333333  0.54447350  0.70833333  1
  B  B41  1  0.33333333  0.54447350  1.20833333  1
  B  B42  1  -0.00000000  0.12219316  0.12500000  1
  B  B43  1  -0.00000000  0.12219316  0.62500000  1
  B  B44  1  0.66666667  0.45552650  0.29166667  1
  B  B45  1  0.66666667  0.45552650  0.79166667  1
  B  B46  1  0.33333333  0.78885983  0.45833333  1
  B  B47  1  0.33333333  0.78885983  0.95833333  1
  B  B48  1  -0.12219316  -0.12219316  0.12500000  1
  B  B49  1  -0.12219316  -0.12219316  0.62500000  1
  B  B50  1  0.54447350  0.21114017  0.29166667  1
  B  B51  1  0.54447350  0.21114017  0.79166667  1
  B  B52  1  0.21114017  0.54447350  0.45833333  1
  B  B53  1  0.21114017  0.54447350  0.95833333  1
  B  B54  1  0.12219316  -0.00000000  0.12500000  1
  B  B55  1  0.12219316  -0.00000000  0.62500000  1
  B  B56  1  0.78885983  0.33333333  0.29166667  1
  B  B57  1  0.78885983  0.33333333  0.79166667  1
  B  B58  1  0.45552650  0.66666667  0.45833333  1
  B  B59  1  0.45552650  0.66666667  0.95833333  1
  B  B60  1  0.12219316  0.12219316  0.37500000  1
  B  B61  1  0.12219316  0.12219316  0.87500000  1
  B  B62  1  0.78885983  0.45552650  0.54166667  1
  B  B63  1  0.78885983  0.45552650  1.04166667  1
  B  B64  1  0.45552650  0.78885983  0.70833333  1
  B  B65  1  0.45552650  0.78885983  1.20833333  1
  B  B66  1  -0.12219316  0.00000000  0.37500000  1
  B  B67  1  -0.12219316  0.00000000  0.87500000  1
  B  B68  1  0.54447350  0.33333333  0.54166667  1
  B  B69  1  0.54447350  0.33333333  1.04166667  1
  B  B70  1  0.21114017  0.66666667  0.70833333  1
  B  B71  1  0.21114017  0.66666667  1.20833333  1
  O  O72  1  0.11770905  0.00000000  0.37500000  1
  O  O73  1  0.11770905  0.00000000  0.87500000  1
  O  O74  1  0.78437571  0.33333333  0.54166667  1
  O  O75  1  0.78437571  0.33333333  1.04166667  1
  O  O76  1  0.45104238  0.66666667  0.70833333  1
  O  O77  1  0.45104238  0.66666667  1.20833333  1
  O  O78  1  -0.11770905  -0.11770905  0.37500000  1
  O  O79  1  -0.11770905  -0.11770905  0.87500000  1
  O  O80  1  0.54895762  0.21562429  0.54166667  1
  O  O81  1  0.54895762  0.21562429  1.04166667  1
  O  O82  1  0.21562429  0.54895762  0.70833333  1
  O  O83  1  0.21562429  0.54895762  1.20833333  1
  O  O84  1  0.00000000  -0.11770905  0.12500000  1
  O  O85  1  0.00000000  -0.11770905  0.62500000  1
  O  O86  1  0.66666667  0.21562429  0.29166667  1
  O  O87  1  0.66666667  0.21562429  0.79166667  1
  O  O88  1  0.33333333  0.54895762  0.45833333  1
  O  O89  1  0.33333333  0.54895762  0.95833333  1
  O  O90  1  0.00000000  0.11770905  0.37500000  1
  O  O91  1  0.00000000  0.11770905  0.87500000  1
  O  O92  1  0.66666667  0.45104238  0.54166667  1
  O  O93  1  0.66666667  0.45104238  1.04166667  1
  O  O94  1  0.33333333  0.78437571  0.70833333  1
  O  O95  1  0.33333333  0.78437571  1.20833333  1
  O  O96  1  -0.11770905  -0.00000000  0.12500000  1
  O  O97  1  -0.11770905  -0.00000000  0.62500000  1
  O  O98  1  0.54895762  0.33333333  0.29166667  1
  O  O99  1  0.54895762  0.33333333  0.79166667  1
  O  O100  1  0.21562429  0.66666667  0.45833333  1
  O  O101  1  0.21562429  0.66666667  0.95833333  1
  O  O102  1  0.11770905  0.11770905  0.12500000  1
  O  O103  1  0.11770905  0.11770905  0.62500000  1
  O  O104  1  0.78437571  0.45104238  0.29166667  1
  O  O105  1  0.78437571  0.45104238  0.79166667  1
  O  O106  1  0.45104238  0.78437571  0.45833333  1
  O  O107  1  0.45104238  0.78437571  0.95833333  1
  O  O108  1  -0.23349442  0.00000000  0.37500000  1
  O  O109  1  -0.23349442  0.00000000  0.87500000  1
  O  O110  1  0.43317224  0.33333333  0.54166667  1
  O  O111  1  0.43317224  0.33333333  1.04166667  1
  O  O112  1  0.09983891  0.66666667  0.70833333  1
  O  O113  1  0.09983891  0.66666667  1.20833333  1
  O  O114  1  0.23349442  0.23349442  0.37500000  1
  O  O115  1  0.23349442  0.23349442  0.87500000  1
  O  O116  1  0.90016109  0.56682776  0.54166667  1
  O  O117  1  0.90016109  0.56682776  1.04166667  1
  O  O118  1  0.56682776  0.90016109  0.70833333  1
  O  O119  1  0.56682776  0.90016109  1.20833333  1
  O  O120  1  0.00000000  -0.23349442  0.37500000  1
  O  O121  1  0.00000000  -0.23349442  0.87500000  1
  O  O122  1  0.66666667  0.09983891  0.54166667  1
  O  O123  1  0.66666667  0.09983891  1.04166667  1
  O  O124  1  0.33333333  0.43317224  0.70833333  1
  O  O125  1  0.33333333  0.43317224  1.20833333  1
  O  O126  1  0.23349442  -0.00000000  0.12500000  1
  O  O127  1  0.23349442  -0.00000000  0.62500000  1
  O  O128  1  0.90016109  0.33333333  0.29166667  1
  O  O129  1  0.90016109  0.33333333  0.79166667  1
  O  O130  1  0.56682776  0.66666667  0.45833333  1
  O  O131  1  0.56682776  0.66666667  0.95833333  1
  O  O132  1  -0.23349442  -0.23349442  0.12500000  1
  O  O133  1  -0.23349442  -0.23349442  0.62500000  1
  O  O134  1  0.43317224  0.09983891  0.29166667  1
  O  O135  1  0.43317224  0.09983891  0.79166667  1
  O  O136  1  0.09983891  0.43317224  0.45833333  1
  O  O137  1  0.09983891  0.43317224  0.95833333  1
  O  O138  1  -0.00000000  0.23349442  0.12500000  1
  O  O139  1  -0.00000000  0.23349442  0.62500000  1
  O  O140  1  0.66666667  0.56682776  0.29166667  1
  O  O141  1  0.66666667  0.56682776  0.79166667  1
  O  O142  1  0.33333333  0.90016109  0.45833333  1
  O  O143  1  0.33333333  0.90016109  0.95833333  1
