# generated using pymatgen
data_Sb2O5
_symmetry_space_group_name_H-M   'P 1'
_cell_length_a   12.72239121
_cell_length_b   14.47045519
_cell_length_c   16.40714862
_cell_angle_alpha   90.00000000
_cell_angle_beta   103.71958717
_cell_angle_gamma   90.00000000
_symmetry_Int_Tables_number   1
_chemical_formula_structural   Sb2O5
_chemical_formula_sum   'Sb72 O180'
_cell_volume   2934.35459413
_cell_formula_units_Z   36
loop_
 _symmetry_equiv_pos_site_id
 _symmetry_equiv_pos_as_xyz
  1  'x, y, z'
loop_
 _atom_site_type_symbol
 _atom_site_label
 _atom_site_symmetry_multiplicity
 _atom_site_fract_x
 _atom_site_fract_y
 _atom_site_fract_z
 _atom_site_occupancy
  Sb  Sb0  1  0.36204844  -0.08662025  0.07328851  1
  Sb  Sb1  1  0.36204844  -0.08662025  0.40662184  1
  Sb  Sb2  1  0.36204844  -0.08662025  0.73995518  1
  Sb  Sb3  1  0.36204844  0.24671309  0.07328851  1
  Sb  Sb4  1  0.36204844  0.24671309  0.40662184  1
  Sb  Sb5  1  0.36204844  0.24671309  0.73995518  1
  Sb  Sb6  1  0.36204844  0.58004642  0.07328851  1
  Sb  Sb7  1  0.36204844  0.58004642  0.40662184  1
  Sb  Sb8  1  0.36204844  0.58004642  0.73995518  1
  Sb  Sb9  1  0.86204844  0.08004642  0.07328851  1
  Sb  Sb10  1  0.86204844  0.08004642  0.40662184  1
  Sb  Sb11  1  0.86204844  0.08004642  0.73995518  1
  Sb  Sb12  1  0.86204844  0.41337975  0.07328851  1
  Sb  Sb13  1  0.86204844  0.41337975  0.40662184  1
  Sb  Sb14  1  0.86204844  0.41337975  0.73995518  1
  Sb  Sb15  1  0.86204844  0.74671309  0.07328851  1
  Sb  Sb16  1  0.86204844  0.74671309  0.40662184  1
  Sb  Sb17  1  0.86204844  0.74671309  0.73995518  1
  Sb  Sb18  1  0.63795156  -0.08662025  0.09337816  1
  Sb  Sb19  1  0.63795156  -0.08662025  0.42671149  1
  Sb  Sb20  1  0.63795156  -0.08662025  0.76004482  1
  Sb  Sb21  1  0.63795156  0.24671309  0.09337816  1
  Sb  Sb22  1  0.63795156  0.24671309  0.42671149  1
  Sb  Sb23  1  0.63795156  0.24671309  0.76004482  1
  Sb  Sb24  1  0.63795156  0.58004642  0.09337816  1
  Sb  Sb25  1  0.63795156  0.58004642  0.42671149  1
  Sb  Sb26  1  0.63795156  0.58004642  0.76004482  1
  Sb  Sb27  1  1.13795156  0.08004642  0.09337816  1
  Sb  Sb28  1  1.13795156  0.08004642  0.42671149  1
  Sb  Sb29  1  1.13795156  0.08004642  0.76004482  1
  Sb  Sb30  1  1.13795156  0.41337975  0.09337816  1
  Sb  Sb31  1  1.13795156  0.41337975  0.42671149  1
  Sb  Sb32  1  1.13795156  0.41337975  0.76004482  1
  Sb  Sb33  1  1.13795156  0.74671309  0.09337816  1
  Sb  Sb34  1  1.13795156  0.74671309  0.42671149  1
  Sb  Sb35  1  1.13795156  0.74671309  0.76004482  1
  Sb  Sb36  1  0.63795156  0.08662025  0.26004482  1
  Sb  Sb37  1  0.63795156  0.08662025  0.59337816  1
  Sb  Sb38  1  0.63795156  0.08662025  0.92671149  1
  Sb  Sb39  1  0.63795156  0.41995358  0.26004482  1
  Sb  Sb40  1  0.63795156  0.41995358  0.59337816  1
  Sb  Sb41  1  0.63795156  0.41995358  0.92671149  1
  Sb  Sb42  1  0.63795156  0.75328691  0.26004482  1
  Sb  Sb43  1  0.63795156  0.75328691  0.59337816  1
  Sb  Sb44  1  0.63795156  0.75328691  0.92671149  1
  Sb  Sb45  1  1.13795156  0.25328691  0.26004482  1
  Sb  Sb46  1  1.13795156  0.25328691  0.59337816  1
  Sb  Sb47  1  1.13795156  0.25328691  0.92671149  1
  Sb  Sb48  1  1.13795156  0.58662025  0.26004482  1
  Sb  Sb49  1  1.13795156  0.58662025  0.59337816  1
  Sb  Sb50  1  1.13795156  0.58662025  0.92671149  1
  Sb  Sb51  1  1.13795156  0.91995358  0.26004482  1
  Sb  Sb52  1  1.13795156  0.91995358  0.59337816  1
  Sb  Sb53  1  1.13795156  0.91995358  0.92671149  1
  Sb  Sb54  1  0.36204844  0.08662025  0.23995518  1
  Sb  Sb55  1  0.36204844  0.08662025  0.57328851  1
  Sb  Sb56  1  0.36204844  0.08662025  0.90662184  1
  Sb  Sb57  1  0.36204844  0.41995358  0.23995518  1
  Sb  Sb58  1  0.36204844  0.41995358  0.57328851  1
  Sb  Sb59  1  0.36204844  0.41995358  0.90662184  1
  Sb  Sb60  1  0.36204844  0.75328691  0.23995518  1
  Sb  Sb61  1  0.36204844  0.75328691  0.57328851  1
  Sb  Sb62  1  0.36204844  0.75328691  0.90662184  1
  Sb  Sb63  1  0.86204844  0.25328691  0.23995518  1
  Sb  Sb64  1  0.86204844  0.25328691  0.57328851  1
  Sb  Sb65  1  0.86204844  0.25328691  0.90662184  1
  Sb  Sb66  1  0.86204844  0.58662025  0.23995518  1
  Sb  Sb67  1  0.86204844  0.58662025  0.57328851  1
  Sb  Sb68  1  0.86204844  0.58662025  0.90662184  1
  Sb  Sb69  1  0.86204844  0.91995358  0.23995518  1
  Sb  Sb70  1  0.86204844  0.91995358  0.57328851  1
  Sb  Sb71  1  0.86204844  0.91995358  0.90662184  1
  O  O72  1  0.50000000  -0.02496361  0.08333333  1
  O  O73  1  0.50000000  -0.02496361  0.41666667  1
  O  O74  1  0.50000000  -0.02496361  0.75000000  1
  O  O75  1  0.50000000  0.30836972  0.08333333  1
  O  O76  1  0.50000000  0.30836972  0.41666667  1
  O  O77  1  0.50000000  0.30836972  0.75000000  1
  O  O78  1  0.50000000  0.64170305  0.08333333  1
  O  O79  1  0.50000000  0.64170305  0.41666667  1
  O  O80  1  0.50000000  0.64170305  0.75000000  1
  O  O81  1  1.00000000  0.14170305  0.08333333  1
  O  O82  1  1.00000000  0.14170305  0.41666667  1
  O  O83  1  1.00000000  0.14170305  0.75000000  1
  O  O84  1  1.00000000  0.47503639  0.08333333  1
  O  O85  1  1.00000000  0.47503639  0.41666667  1
  O  O86  1  1.00000000  0.47503639  0.75000000  1
  O  O87  1  1.00000000  0.80836972  0.08333333  1
  O  O88  1  1.00000000  0.80836972  0.41666667  1
  O  O89  1  1.00000000  0.80836972  0.75000000  1
  O  O90  1  0.50000000  0.02496361  0.25000000  1
  O  O91  1  0.50000000  0.02496361  0.58333333  1
  O  O92  1  0.50000000  0.02496361  0.91666667  1
  O  O93  1  0.50000000  0.35829695  0.25000000  1
  O  O94  1  0.50000000  0.35829695  0.58333333  1
  O  O95  1  0.50000000  0.35829695  0.91666667  1
  O  O96  1  0.50000000  0.69163028  0.25000000  1
  O  O97  1  0.50000000  0.69163028  0.58333333  1
  O  O98  1  0.50000000  0.69163028  0.91666667  1
  O  O99  1  1.00000000  0.19163028  0.25000000  1
  O  O100  1  1.00000000  0.19163028  0.58333333  1
  O  O101  1  1.00000000  0.19163028  0.91666667  1
  O  O102  1  1.00000000  0.52496361  0.25000000  1
  O  O103  1  1.00000000  0.52496361  0.58333333  1
  O  O104  1  1.00000000  0.52496361  0.91666667  1
  O  O105  1  1.00000000  0.85829695  0.25000000  1
  O  O106  1  1.00000000  0.85829695  0.58333333  1
  O  O107  1  1.00000000  0.85829695  0.91666667  1
  O  O108  1  0.10100028  -0.02974724  0.14871774  1
  O  O109  1  0.10100028  -0.02974724  0.48205107  1
  O  O110  1  0.10100028  -0.02974724  0.81538441  1
  O  O111  1  0.10100028  0.30358610  0.14871774  1
  O  O112  1  0.10100028  0.30358610  0.48205107  1
  O  O113  1  0.10100028  0.30358610  0.81538441  1
  O  O114  1  0.10100028  0.63691943  0.14871774  1
  O  O115  1  0.10100028  0.63691943  0.48205107  1
  O  O116  1  0.10100028  0.63691943  0.81538441  1
  O  O117  1  0.60100028  0.13691943  0.14871774  1
  O  O118  1  0.60100028  0.13691943  0.48205107  1
  O  O119  1  0.60100028  0.13691943  0.81538441  1
  O  O120  1  0.60100028  0.47025276  0.14871774  1
  O  O121  1  0.60100028  0.47025276  0.48205107  1
  O  O122  1  0.60100028  0.47025276  0.81538441  1
  O  O123  1  0.60100028  0.80358610  0.14871774  1
  O  O124  1  0.60100028  0.80358610  0.48205107  1
  O  O125  1  0.60100028  0.80358610  0.81538441  1
  O  O126  1  0.89899972  -0.02974724  0.01794893  1
  O  O127  1  0.89899972  -0.02974724  0.35128226  1
  O  O128  1  0.89899972  -0.02974724  0.68461559  1
  O  O129  1  0.89899972  0.30358610  0.01794893  1
  O  O130  1  0.89899972  0.30358610  0.35128226  1
  O  O131  1  0.89899972  0.30358610  0.68461559  1
  O  O132  1  0.89899972  0.63691943  0.01794893  1
  O  O133  1  0.89899972  0.63691943  0.35128226  1
  O  O134  1  0.89899972  0.63691943  0.68461559  1
  O  O135  1  1.39899972  0.13691943  0.01794893  1
  O  O136  1  1.39899972  0.13691943  0.35128226  1
  O  O137  1  1.39899972  0.13691943  0.68461559  1
  O  O138  1  1.39899972  0.47025276  0.01794893  1
  O  O139  1  1.39899972  0.47025276  0.35128226  1
  O  O140  1  1.39899972  0.47025276  0.68461559  1
  O  O141  1  1.39899972  0.80358610  0.01794893  1
  O  O142  1  1.39899972  0.80358610  0.35128226  1
  O  O143  1  1.39899972  0.80358610  0.68461559  1
  O  O144  1  0.70269089  -0.02674367  0.20800280  1
  O  O145  1  0.70269089  -0.02674367  0.54133613  1
  O  O146  1  0.70269089  -0.02674367  0.87466946  1
  O  O147  1  0.70269089  0.30658967  0.20800280  1
  O  O148  1  0.70269089  0.30658967  0.54133613  1
  O  O149  1  0.70269089  0.30658967  0.87466946  1
  O  O150  1  0.70269089  0.63992300  0.20800280  1
  O  O151  1  0.70269089  0.63992300  0.54133613  1
  O  O152  1  0.70269089  0.63992300  0.87466946  1
  O  O153  1  1.20269089  0.13992300  0.20800280  1
  O  O154  1  1.20269089  0.13992300  0.54133613  1
  O  O155  1  1.20269089  0.13992300  0.87466946  1
  O  O156  1  1.20269089  0.47325633  0.20800280  1
  O  O157  1  1.20269089  0.47325633  0.54133613  1
  O  O158  1  1.20269089  0.47325633  0.87466946  1
  O  O159  1  1.20269089  0.80658967  0.20800280  1
  O  O160  1  1.20269089  0.80658967  0.54133613  1
  O  O161  1  1.20269089  0.80658967  0.87466946  1
  O  O162  1  0.29730911  -0.02674367  0.29199720  1
  O  O163  1  0.29730911  -0.02674367  0.62533054  1
  O  O164  1  0.29730911  -0.02674367  0.95866387  1
  O  O165  1  0.29730911  0.30658967  0.29199720  1
  O  O166  1  0.29730911  0.30658967  0.62533054  1
  O  O167  1  0.29730911  0.30658967  0.95866387  1
  O  O168  1  0.29730911  0.63992300  0.29199720  1
  O  O169  1  0.29730911  0.63992300  0.62533054  1
  O  O170  1  0.29730911  0.63992300  0.95866387  1
  O  O171  1  0.79730911  0.13992300  0.29199720  1
  O  O172  1  0.79730911  0.13992300  0.62533054  1
  O  O173  1  0.79730911  0.13992300  0.95866387  1
  O  O174  1  0.79730911  0.47325633  0.29199720  1
  O  O175  1  0.79730911  0.47325633  0.62533054  1
  O  O176  1  0.79730911  0.47325633  0.95866387  1
  O  O177  1  0.79730911  0.80658967  0.29199720  1
  O  O178  1  0.79730911  0.80658967  0.62533054  1
  O  O179  1  0.79730911  0.80658967  0.95866387  1
  O  O180  1  0.29730911  0.02674367  0.12533054  1
  O  O181  1  0.29730911  0.02674367  0.45866387  1
  O  O182  1  0.29730911  0.02674367  0.79199720  1
  O  O183  1  0.29730911  0.36007700  0.12533054  1
  O  O184  1  0.29730911  0.36007700  0.45866387  1
  O  O185  1  0.29730911  0.36007700  0.79199720  1
  O  O186  1  0.29730911  0.69341033  0.12533054  1
  O  O187  1  0.29730911  0.69341033  0.45866387  1
  O  O188  1  0.29730911  0.69341033  0.79199720  1
  O  O189  1  0.79730911  0.19341033  0.12533054  1
  O  O190  1  0.79730911  0.19341033  0.45866387  1
  O  O191  1  0.79730911  0.19341033  0.79199720  1
  O  O192  1  0.79730911  0.52674367  0.12533054  1
  O  O193  1  0.79730911  0.52674367  0.45866387  1
  O  O194  1  0.79730911  0.52674367  0.79199720  1
  O  O195  1  0.79730911  0.86007700  0.12533054  1
  O  O196  1  0.79730911  0.86007700  0.45866387  1
  O  O197  1  0.79730911  0.86007700  0.79199720  1
  O  O198  1  0.70269089  0.02674367  0.04133613  1
  O  O199  1  0.70269089  0.02674367  0.37466946  1
  O  O200  1  0.70269089  0.02674367  0.70800280  1
  O  O201  1  0.70269089  0.36007700  0.04133613  1
  O  O202  1  0.70269089  0.36007700  0.37466946  1
  O  O203  1  0.70269089  0.36007700  0.70800280  1
  O  O204  1  0.70269089  0.69341033  0.04133613  1
  O  O205  1  0.70269089  0.69341033  0.37466946  1
  O  O206  1  0.70269089  0.69341033  0.70800280  1
  O  O207  1  1.20269089  0.19341033  0.04133613  1
  O  O208  1  1.20269089  0.19341033  0.37466946  1
  O  O209  1  1.20269089  0.19341033  0.70800280  1
  O  O210  1  1.20269089  0.52674367  0.04133613  1
  O  O211  1  1.20269089  0.52674367  0.37466946  1
  O  O212  1  1.20269089  0.52674367  0.70800280  1
  O  O213  1  1.20269089  0.86007700  0.04133613  1
  O  O214  1  1.20269089  0.86007700  0.37466946  1
  O  O215  1  1.20269089  0.86007700  0.70800280  1
  O  O216  1  0.10100028  0.02974724  0.31538441  1
  O  O217  1  0.10100028  0.02974724  0.64871774  1
  O  O218  1  0.10100028  0.02974724  0.98205107  1
  O  O219  1  0.10100028  0.36308057  0.31538441  1
  O  O220  1  0.10100028  0.36308057  0.64871774  1
  O  O221  1  0.10100028  0.36308057  0.98205107  1
  O  O222  1  0.10100028  0.69641390  0.31538441  1
  O  O223  1  0.10100028  0.69641390  0.64871774  1
  O  O224  1  0.10100028  0.69641390  0.98205107  1
  O  O225  1  0.60100028  0.19641390  0.31538441  1
  O  O226  1  0.60100028  0.19641390  0.64871774  1
  O  O227  1  0.60100028  0.19641390  0.98205107  1
  O  O228  1  0.60100028  0.52974724  0.31538441  1
  O  O229  1  0.60100028  0.52974724  0.64871774  1
  O  O230  1  0.60100028  0.52974724  0.98205107  1
  O  O231  1  0.60100028  0.86308057  0.31538441  1
  O  O232  1  0.60100028  0.86308057  0.64871774  1
  O  O233  1  0.60100028  0.86308057  0.98205107  1
  O  O234  1  0.89899972  0.02974724  0.18461559  1
  O  O235  1  0.89899972  0.02974724  0.51794893  1
  O  O236  1  0.89899972  0.02974724  0.85128226  1
  O  O237  1  0.89899972  0.36308057  0.18461559  1
  O  O238  1  0.89899972  0.36308057  0.51794893  1
  O  O239  1  0.89899972  0.36308057  0.85128226  1
  O  O240  1  0.89899972  0.69641390  0.18461559  1
  O  O241  1  0.89899972  0.69641390  0.51794893  1
  O  O242  1  0.89899972  0.69641390  0.85128226  1
  O  O243  1  1.39899972  0.19641390  0.18461559  1
  O  O244  1  1.39899972  0.19641390  0.51794893  1
  O  O245  1  1.39899972  0.19641390  0.85128226  1
  O  O246  1  1.39899972  0.52974724  0.18461559  1
  O  O247  1  1.39899972  0.52974724  0.51794893  1
  O  O248  1  1.39899972  0.52974724  0.85128226  1
  O  O249  1  1.39899972  0.86308057  0.18461559  1
  O  O250  1  1.39899972  0.86308057  0.51794893  1
  O  O251  1  1.39899972  0.86308057  0.85128226  1
