# generated using pymatgen
data_LiMgVO4
_symmetry_space_group_name_H-M   'P 1'
_cell_length_a   16.85505501
_cell_length_b   17.16502510
_cell_length_c   12.47161584
_cell_angle_alpha   90.00000000
_cell_angle_beta   90.00000000
_cell_angle_gamma   90.00000000
_symmetry_Int_Tables_number   1
_chemical_formula_structural   LiMgVO4
_chemical_formula_sum   'Li48 Mg48 V48 O192'
_cell_volume   3608.25599676
_cell_formula_units_Z   48
loop_
 _symmetry_equiv_pos_site_id
 _symmetry_equiv_pos_as_xyz
  1  'x, y, z'
loop_
 _atom_site_type_symbol
 _atom_site_label
 _atom_site_symmetry_multiplicity
 _atom_site_fract_x
 _atom_site_fract_y
 _atom_site_fract_z
 _atom_site_occupancy
  Li  Li0  1  0.16666667  -0.16877516  0.37500000  1
  Li  Li1  1  0.16666667  -0.16877516  0.87500000  1
  Li  Li2  1  0.16666667  0.33122484  0.37500000  1
  Li  Li3  1  0.16666667  0.33122484  0.87500000  1
  Li  Li4  1  0.50000000  -0.16877516  0.37500000  1
  Li  Li5  1  0.50000000  -0.16877516  0.87500000  1
  Li  Li6  1  0.50000000  0.33122484  0.37500000  1
  Li  Li7  1  0.50000000  0.33122484  0.87500000  1
  Li  Li8  1  0.83333333  -0.16877516  0.37500000  1
  Li  Li9  1  0.83333333  -0.16877516  0.87500000  1
  Li  Li10  1  0.83333333  0.33122484  0.37500000  1
  Li  Li11  1  0.83333333  0.33122484  0.87500000  1
  Li  Li12  1  0.33333333  0.08122484  0.37500000  1
  Li  Li13  1  0.33333333  0.08122484  0.87500000  1
  Li  Li14  1  0.33333333  0.58122484  0.37500000  1
  Li  Li15  1  0.33333333  0.58122484  0.87500000  1
  Li  Li16  1  0.66666667  0.08122484  0.37500000  1
  Li  Li17  1  0.66666667  0.08122484  0.87500000  1
  Li  Li18  1  0.66666667  0.58122484  0.37500000  1
  Li  Li19  1  0.66666667  0.58122484  0.87500000  1
  Li  Li20  1  1.00000000  0.08122484  0.37500000  1
  Li  Li21  1  1.00000000  0.08122484  0.87500000  1
  Li  Li22  1  1.00000000  0.58122484  0.37500000  1
  Li  Li23  1  1.00000000  0.58122484  0.87500000  1
  Li  Li24  1  0.16666667  0.16877516  0.12500000  1
  Li  Li25  1  0.16666667  0.16877516  0.62500000  1
  Li  Li26  1  0.16666667  0.66877516  0.12500000  1
  Li  Li27  1  0.16666667  0.66877516  0.62500000  1
  Li  Li28  1  0.50000000  0.16877516  0.12500000  1
  Li  Li29  1  0.50000000  0.16877516  0.62500000  1
  Li  Li30  1  0.50000000  0.66877516  0.12500000  1
  Li  Li31  1  0.50000000  0.66877516  0.62500000  1
  Li  Li32  1  0.83333333  0.16877516  0.12500000  1
  Li  Li33  1  0.83333333  0.16877516  0.62500000  1
  Li  Li34  1  0.83333333  0.66877516  0.12500000  1
  Li  Li35  1  0.83333333  0.66877516  0.62500000  1
  Li  Li36  1  0.33333333  0.41877516  0.12500000  1
  Li  Li37  1  0.33333333  0.41877516  0.62500000  1
  Li  Li38  1  0.33333333  0.91877516  0.12500000  1
  Li  Li39  1  0.33333333  0.91877516  0.62500000  1
  Li  Li40  1  0.66666667  0.41877516  0.12500000  1
  Li  Li41  1  0.66666667  0.41877516  0.62500000  1
  Li  Li42  1  0.66666667  0.91877516  0.12500000  1
  Li  Li43  1  0.66666667  0.91877516  0.62500000  1
  Li  Li44  1  1.00000000  0.41877516  0.12500000  1
  Li  Li45  1  1.00000000  0.41877516  0.62500000  1
  Li  Li46  1  1.00000000  0.91877516  0.12500000  1
  Li  Li47  1  1.00000000  0.91877516  0.62500000  1
  Mg  Mg48  1  0.16666667  0.00000000  0.25000000  1
  Mg  Mg49  1  0.16666667  0.00000000  0.75000000  1
  Mg  Mg50  1  0.16666667  0.50000000  0.25000000  1
  Mg  Mg51  1  0.16666667  0.50000000  0.75000000  1
  Mg  Mg52  1  0.50000000  0.00000000  0.25000000  1
  Mg  Mg53  1  0.50000000  0.00000000  0.75000000  1
  Mg  Mg54  1  0.50000000  0.50000000  0.25000000  1
  Mg  Mg55  1  0.50000000  0.50000000  0.75000000  1
  Mg  Mg56  1  0.83333333  0.00000000  0.25000000  1
  Mg  Mg57  1  0.83333333  0.00000000  0.75000000  1
  Mg  Mg58  1  0.83333333  0.50000000  0.25000000  1
  Mg  Mg59  1  0.83333333  0.50000000  0.75000000  1
  Mg  Mg60  1  0.33333333  0.25000000  0.25000000  1
  Mg  Mg61  1  0.33333333  0.25000000  0.75000000  1
  Mg  Mg62  1  0.33333333  0.75000000  0.25000000  1
  Mg  Mg63  1  0.33333333  0.75000000  0.75000000  1
  Mg  Mg64  1  0.66666667  0.25000000  0.25000000  1
  Mg  Mg65  1  0.66666667  0.25000000  0.75000000  1
  Mg  Mg66  1  0.66666667  0.75000000  0.25000000  1
  Mg  Mg67  1  0.66666667  0.75000000  0.75000000  1
  Mg  Mg68  1  1.00000000  0.25000000  0.25000000  1
  Mg  Mg69  1  1.00000000  0.25000000  0.75000000  1
  Mg  Mg70  1  1.00000000  0.75000000  0.25000000  1
  Mg  Mg71  1  1.00000000  0.75000000  0.75000000  1
  Mg  Mg72  1  0.16666667  0.00000000  0.00000000  1
  Mg  Mg73  1  0.16666667  0.00000000  0.50000000  1
  Mg  Mg74  1  0.16666667  0.50000000  0.00000000  1
  Mg  Mg75  1  0.16666667  0.50000000  0.50000000  1
  Mg  Mg76  1  0.50000000  0.00000000  0.00000000  1
  Mg  Mg77  1  0.50000000  0.00000000  0.50000000  1
  Mg  Mg78  1  0.50000000  0.50000000  0.00000000  1
  Mg  Mg79  1  0.50000000  0.50000000  0.50000000  1
  Mg  Mg80  1  0.83333333  0.00000000  0.00000000  1
  Mg  Mg81  1  0.83333333  0.00000000  0.50000000  1
  Mg  Mg82  1  0.83333333  0.50000000  0.00000000  1
  Mg  Mg83  1  0.83333333  0.50000000  0.50000000  1
  Mg  Mg84  1  0.33333333  0.25000000  0.00000000  1
  Mg  Mg85  1  0.33333333  0.25000000  0.50000000  1
  Mg  Mg86  1  0.33333333  0.75000000  0.00000000  1
  Mg  Mg87  1  0.33333333  0.75000000  0.50000000  1
  Mg  Mg88  1  0.66666667  0.25000000  0.00000000  1
  Mg  Mg89  1  0.66666667  0.25000000  0.50000000  1
  Mg  Mg90  1  0.66666667  0.75000000  0.00000000  1
  Mg  Mg91  1  0.66666667  0.75000000  0.50000000  1
  Mg  Mg92  1  1.00000000  0.25000000  0.00000000  1
  Mg  Mg93  1  1.00000000  0.25000000  0.50000000  1
  Mg  Mg94  1  1.00000000  0.75000000  0.00000000  1
  Mg  Mg95  1  1.00000000  0.75000000  0.50000000  1
  V  V96  1  0.16666667  0.17736032  0.37500000  1
  V  V97  1  0.16666667  0.17736032  0.87500000  1
  V  V98  1  0.16666667  0.67736032  0.37500000  1
  V  V99  1  0.16666667  0.67736032  0.87500000  1
  V  V100  1  0.50000000  0.17736032  0.37500000  1
  V  V101  1  0.50000000  0.17736032  0.87500000  1
  V  V102  1  0.50000000  0.67736032  0.37500000  1
  V  V103  1  0.50000000  0.67736032  0.87500000  1
  V  V104  1  0.83333333  0.17736032  0.37500000  1
  V  V105  1  0.83333333  0.17736032  0.87500000  1
  V  V106  1  0.83333333  0.67736032  0.37500000  1
  V  V107  1  0.83333333  0.67736032  0.87500000  1
  V  V108  1  0.33333333  0.42736032  0.37500000  1
  V  V109  1  0.33333333  0.42736032  0.87500000  1
  V  V110  1  0.33333333  0.92736032  0.37500000  1
  V  V111  1  0.33333333  0.92736032  0.87500000  1
  V  V112  1  0.66666667  0.42736032  0.37500000  1
  V  V113  1  0.66666667  0.42736032  0.87500000  1
  V  V114  1  0.66666667  0.92736032  0.37500000  1
  V  V115  1  0.66666667  0.92736032  0.87500000  1
  V  V116  1  1.00000000  0.42736032  0.37500000  1
  V  V117  1  1.00000000  0.42736032  0.87500000  1
  V  V118  1  1.00000000  0.92736032  0.37500000  1
  V  V119  1  1.00000000  0.92736032  0.87500000  1
  V  V120  1  0.16666667  -0.17736032  0.12500000  1
  V  V121  1  0.16666667  -0.17736032  0.62500000  1
  V  V122  1  0.16666667  0.32263968  0.12500000  1
  V  V123  1  0.16666667  0.32263968  0.62500000  1
  V  V124  1  0.50000000  -0.17736032  0.12500000  1
  V  V125  1  0.50000000  -0.17736032  0.62500000  1
  V  V126  1  0.50000000  0.32263968  0.12500000  1
  V  V127  1  0.50000000  0.32263968  0.62500000  1
  V  V128  1  0.83333333  -0.17736032  0.12500000  1
  V  V129  1  0.83333333  -0.17736032  0.62500000  1
  V  V130  1  0.83333333  0.32263968  0.12500000  1
  V  V131  1  0.83333333  0.32263968  0.62500000  1
  V  V132  1  0.33333333  0.07263968  0.12500000  1
  V  V133  1  0.33333333  0.07263968  0.62500000  1
  V  V134  1  0.33333333  0.57263968  0.12500000  1
  V  V135  1  0.33333333  0.57263968  0.62500000  1
  V  V136  1  0.66666667  0.07263968  0.12500000  1
  V  V137  1  0.66666667  0.07263968  0.62500000  1
  V  V138  1  0.66666667  0.57263968  0.12500000  1
  V  V139  1  0.66666667  0.57263968  0.62500000  1
  V  V140  1  1.00000000  0.07263968  0.12500000  1
  V  V141  1  1.00000000  0.07263968  0.62500000  1
  V  V142  1  1.00000000  0.57263968  0.12500000  1
  V  V143  1  1.00000000  0.57263968  0.62500000  1
  O  O144  1  0.16666667  0.12015604  0.48560224  1
  O  O145  1  0.16666667  0.12015604  0.98560224  1
  O  O146  1  0.16666667  0.62015604  0.48560224  1
  O  O147  1  0.16666667  0.62015604  0.98560224  1
  O  O148  1  0.50000000  0.12015604  0.48560224  1
  O  O149  1  0.50000000  0.12015604  0.98560224  1
  O  O150  1  0.50000000  0.62015604  0.48560224  1
  O  O151  1  0.50000000  0.62015604  0.98560224  1
  O  O152  1  0.83333333  0.12015604  0.48560224  1
  O  O153  1  0.83333333  0.12015604  0.98560224  1
  O  O154  1  0.83333333  0.62015604  0.48560224  1
  O  O155  1  0.83333333  0.62015604  0.98560224  1
  O  O156  1  0.33333333  0.37015604  0.48560224  1
  O  O157  1  0.33333333  0.37015604  0.98560224  1
  O  O158  1  0.33333333  0.87015604  0.48560224  1
  O  O159  1  0.33333333  0.87015604  0.98560224  1
  O  O160  1  0.66666667  0.37015604  0.48560224  1
  O  O161  1  0.66666667  0.37015604  0.98560224  1
  O  O162  1  0.66666667  0.87015604  0.48560224  1
  O  O163  1  0.66666667  0.87015604  0.98560224  1
  O  O164  1  1.00000000  0.37015604  0.48560224  1
  O  O165  1  1.00000000  0.37015604  0.98560224  1
  O  O166  1  1.00000000  0.87015604  0.48560224  1
  O  O167  1  1.00000000  0.87015604  0.98560224  1
  O  O168  1  0.25126386  0.00968451  0.12500000  1
  O  O169  1  0.25126386  0.00968451  0.62500000  1
  O  O170  1  0.25126386  0.50968451  0.12500000  1
  O  O171  1  0.25126386  0.50968451  0.62500000  1
  O  O172  1  0.58459719  0.00968451  0.12500000  1
  O  O173  1  0.58459719  0.00968451  0.62500000  1
  O  O174  1  0.58459719  0.50968451  0.12500000  1
  O  O175  1  0.58459719  0.50968451  0.62500000  1
  O  O176  1  0.91793052  0.00968451  0.12500000  1
  O  O177  1  0.91793052  0.00968451  0.62500000  1
  O  O178  1  0.91793052  0.50968451  0.12500000  1
  O  O179  1  0.91793052  0.50968451  0.62500000  1
  O  O180  1  0.41793052  0.25968451  0.12500000  1
  O  O181  1  0.41793052  0.25968451  0.62500000  1
  O  O182  1  0.41793052  0.75968451  0.12500000  1
  O  O183  1  0.41793052  0.75968451  0.62500000  1
  O  O184  1  0.75126386  0.25968451  0.12500000  1
  O  O185  1  0.75126386  0.25968451  0.62500000  1
  O  O186  1  0.75126386  0.75968451  0.12500000  1
  O  O187  1  0.75126386  0.75968451  0.62500000  1
  O  O188  1  1.08459719  0.25968451  0.12500000  1
  O  O189  1  1.08459719  0.25968451  0.62500000  1
  O  O190  1  1.08459719  0.75968451  0.12500000  1
  O  O191  1  1.08459719  0.75968451  0.62500000  1
  O  O192  1  0.08206948  -0.00968451  0.37500000  1
  O  O193  1  0.08206948  -0.00968451  0.87500000  1
  O  O194  1  0.08206948  0.49031549  0.37500000  1
  O  O195  1  0.08206948  0.49031549  0.87500000  1
  O  O196  1  0.41540281  -0.00968451  0.37500000  1
  O  O197  1  0.41540281  -0.00968451  0.87500000  1
  O  O198  1  0.41540281  0.49031549  0.37500000  1
  O  O199  1  0.41540281  0.49031549  0.87500000  1
  O  O200  1  0.74873614  -0.00968451  0.37500000  1
  O  O201  1  0.74873614  -0.00968451  0.87500000  1
  O  O202  1  0.74873614  0.49031549  0.37500000  1
  O  O203  1  0.74873614  0.49031549  0.87500000  1
  O  O204  1  0.24873614  0.24031549  0.37500000  1
  O  O205  1  0.24873614  0.24031549  0.87500000  1
  O  O206  1  0.24873614  0.74031549  0.37500000  1
  O  O207  1  0.24873614  0.74031549  0.87500000  1
  O  O208  1  0.58206948  0.24031549  0.37500000  1
  O  O209  1  0.58206948  0.24031549  0.87500000  1
  O  O210  1  0.58206948  0.74031549  0.37500000  1
  O  O211  1  0.58206948  0.74031549  0.87500000  1
  O  O212  1  0.91540281  0.24031549  0.37500000  1
  O  O213  1  0.91540281  0.24031549  0.87500000  1
  O  O214  1  0.91540281  0.74031549  0.37500000  1
  O  O215  1  0.91540281  0.74031549  0.87500000  1
  O  O216  1  0.16666667  -0.12015604  0.23560224  1
  O  O217  1  0.16666667  -0.12015604  0.73560224  1
  O  O218  1  0.16666667  0.37984396  0.23560224  1
  O  O219  1  0.16666667  0.37984396  0.73560224  1
  O  O220  1  0.50000000  -0.12015604  0.23560224  1
  O  O221  1  0.50000000  -0.12015604  0.73560224  1
  O  O222  1  0.50000000  0.37984396  0.23560224  1
  O  O223  1  0.50000000  0.37984396  0.73560224  1
  O  O224  1  0.83333333  -0.12015604  0.23560224  1
  O  O225  1  0.83333333  -0.12015604  0.73560224  1
  O  O226  1  0.83333333  0.37984396  0.23560224  1
  O  O227  1  0.83333333  0.37984396  0.73560224  1
  O  O228  1  0.33333333  0.12984396  0.23560224  1
  O  O229  1  0.33333333  0.12984396  0.73560224  1
  O  O230  1  0.33333333  0.62984396  0.23560224  1
  O  O231  1  0.33333333  0.62984396  0.73560224  1
  O  O232  1  0.66666667  0.12984396  0.23560224  1
  O  O233  1  0.66666667  0.12984396  0.73560224  1
  O  O234  1  0.66666667  0.62984396  0.23560224  1
  O  O235  1  0.66666667  0.62984396  0.73560224  1
  O  O236  1  1.00000000  0.12984396  0.23560224  1
  O  O237  1  1.00000000  0.12984396  0.73560224  1
  O  O238  1  1.00000000  0.62984396  0.23560224  1
  O  O239  1  1.00000000  0.62984396  0.73560224  1
  O  O240  1  0.16666667  -0.12015604  0.01439776  1
  O  O241  1  0.16666667  -0.12015604  0.51439776  1
  O  O242  1  0.16666667  0.37984396  0.01439776  1
  O  O243  1  0.16666667  0.37984396  0.51439776  1
  O  O244  1  0.50000000  -0.12015604  0.01439776  1
  O  O245  1  0.50000000  -0.12015604  0.51439776  1
  O  O246  1  0.50000000  0.37984396  0.01439776  1
  O  O247  1  0.50000000  0.37984396  0.51439776  1
  O  O248  1  0.83333333  -0.12015604  0.01439776  1
  O  O249  1  0.83333333  -0.12015604  0.51439776  1
  O  O250  1  0.83333333  0.37984396  0.01439776  1
  O  O251  1  0.83333333  0.37984396  0.51439776  1
  O  O252  1  0.33333333  0.12984396  0.01439776  1
  O  O253  1  0.33333333  0.12984396  0.51439776  1
  O  O254  1  0.33333333  0.62984396  0.01439776  1
  O  O255  1  0.33333333  0.62984396  0.51439776  1
  O  O256  1  0.66666667  0.12984396  0.01439776  1
  O  O257  1  0.66666667  0.12984396  0.51439776  1
  O  O258  1  0.66666667  0.62984396  0.01439776  1
  O  O259  1  0.66666667  0.62984396  0.51439776  1
  O  O260  1  1.00000000  0.12984396  0.01439776  1
  O  O261  1  1.00000000  0.12984396  0.51439776  1
  O  O262  1  1.00000000  0.62984396  0.01439776  1
  O  O263  1  1.00000000  0.62984396  0.51439776  1
  O  O264  1  0.25126386  -0.00968451  0.37500000  1
  O  O265  1  0.25126386  -0.00968451  0.87500000  1
  O  O266  1  0.25126386  0.49031549  0.37500000  1
  O  O267  1  0.25126386  0.49031549  0.87500000  1
  O  O268  1  0.58459719  -0.00968451  0.37500000  1
  O  O269  1  0.58459719  -0.00968451  0.87500000  1
  O  O270  1  0.58459719  0.49031549  0.37500000  1
  O  O271  1  0.58459719  0.49031549  0.87500000  1
  O  O272  1  0.91793052  -0.00968451  0.37500000  1
  O  O273  1  0.91793052  -0.00968451  0.87500000  1
  O  O274  1  0.91793052  0.49031549  0.37500000  1
  O  O275  1  0.91793052  0.49031549  0.87500000  1
  O  O276  1  0.41793052  0.24031549  0.37500000  1
  O  O277  1  0.41793052  0.24031549  0.87500000  1
  O  O278  1  0.41793052  0.74031549  0.37500000  1
  O  O279  1  0.41793052  0.74031549  0.87500000  1
  O  O280  1  0.75126386  0.24031549  0.37500000  1
  O  O281  1  0.75126386  0.24031549  0.87500000  1
  O  O282  1  0.75126386  0.74031549  0.37500000  1
  O  O283  1  0.75126386  0.74031549  0.87500000  1
  O  O284  1  1.08459719  0.24031549  0.37500000  1
  O  O285  1  1.08459719  0.24031549  0.87500000  1
  O  O286  1  1.08459719  0.74031549  0.37500000  1
  O  O287  1  1.08459719  0.74031549  0.87500000  1
  O  O288  1  0.08206948  0.00968451  0.12500000  1
  O  O289  1  0.08206948  0.00968451  0.62500000  1
  O  O290  1  0.08206948  0.50968451  0.12500000  1
  O  O291  1  0.08206948  0.50968451  0.62500000  1
  O  O292  1  0.41540281  0.00968451  0.12500000  1
  O  O293  1  0.41540281  0.00968451  0.62500000  1
  O  O294  1  0.41540281  0.50968451  0.12500000  1
  O  O295  1  0.41540281  0.50968451  0.62500000  1
  O  O296  1  0.74873614  0.00968451  0.12500000  1
  O  O297  1  0.74873614  0.00968451  0.62500000  1
  O  O298  1  0.74873614  0.50968451  0.12500000  1
  O  O299  1  0.74873614  0.50968451  0.62500000  1
  O  O300  1  0.24873614  0.25968451  0.12500000  1
  O  O301  1  0.24873614  0.25968451  0.62500000  1
  O  O302  1  0.24873614  0.75968451  0.12500000  1
  O  O303  1  0.24873614  0.75968451  0.62500000  1
  O  O304  1  0.58206948  0.25968451  0.12500000  1
  O  O305  1  0.58206948  0.25968451  0.62500000  1
  O  O306  1  0.58206948  0.75968451  0.12500000  1
  O  O307  1  0.58206948  0.75968451  0.62500000  1
  O  O308  1  0.91540281  0.25968451  0.12500000  1
  O  O309  1  0.91540281  0.25968451  0.62500000  1
  O  O310  1  0.91540281  0.75968451  0.12500000  1
  O  O311  1  0.91540281  0.75968451  0.62500000  1
  O  O312  1  0.16666667  0.12015604  0.26439776  1
  O  O313  1  0.16666667  0.12015604  0.76439776  1
  O  O314  1  0.16666667  0.62015604  0.26439776  1
  O  O315  1  0.16666667  0.62015604  0.76439776  1
  O  O316  1  0.50000000  0.12015604  0.26439776  1
  O  O317  1  0.50000000  0.12015604  0.76439776  1
  O  O318  1  0.50000000  0.62015604  0.26439776  1
  O  O319  1  0.50000000  0.62015604  0.76439776  1
  O  O320  1  0.83333333  0.12015604  0.26439776  1
  O  O321  1  0.83333333  0.12015604  0.76439776  1
  O  O322  1  0.83333333  0.62015604  0.26439776  1
  O  O323  1  0.83333333  0.62015604  0.76439776  1
  O  O324  1  0.33333333  0.37015604  0.26439776  1
  O  O325  1  0.33333333  0.37015604  0.76439776  1
  O  O326  1  0.33333333  0.87015604  0.26439776  1
  O  O327  1  0.33333333  0.87015604  0.76439776  1
  O  O328  1  0.66666667  0.37015604  0.26439776  1
  O  O329  1  0.66666667  0.37015604  0.76439776  1
  O  O330  1  0.66666667  0.87015604  0.26439776  1
  O  O331  1  0.66666667  0.87015604  0.76439776  1
  O  O332  1  1.00000000  0.37015604  0.26439776  1
  O  O333  1  1.00000000  0.37015604  0.76439776  1
  O  O334  1  1.00000000  0.87015604  0.26439776  1
  O  O335  1  1.00000000  0.87015604  0.76439776  1
