# generated using pymatgen
data_NbGaO4
_symmetry_space_group_name_H-M   'P 1'
_cell_length_a   12.57094164
_cell_length_b   11.44744217
_cell_length_c   13.29486034
_cell_angle_alpha   90.00000000
_cell_angle_beta   107.98495814
_cell_angle_gamma   90.00000000
_symmetry_Int_Tables_number   1
_chemical_formula_structural   NbGaO4
_chemical_formula_sum   'Nb24 Ga24 O96'
_cell_volume   1819.71511587
_cell_formula_units_Z   24
loop_
 _symmetry_equiv_pos_site_id
 _symmetry_equiv_pos_as_xyz
  1  'x, y, z'
loop_
 _atom_site_type_symbol
 _atom_site_label
 _atom_site_symmetry_multiplicity
 _atom_site_fract_x
 _atom_site_fract_y
 _atom_site_fract_z
 _atom_site_occupancy
  Nb  Nb0  1  0.10387822  0.00000000  0.11564452  1
  Nb  Nb1  1  0.10387822  0.00000000  0.61564452  1
  Nb  Nb2  1  0.10387822  0.33333333  0.11564452  1
  Nb  Nb3  1  0.10387822  0.33333333  0.61564452  1
  Nb  Nb4  1  0.10387822  0.66666667  0.11564452  1
  Nb  Nb5  1  0.10387822  0.66666667  0.61564452  1
  Nb  Nb6  1  0.60387822  0.16666667  0.11564452  1
  Nb  Nb7  1  0.60387822  0.16666667  0.61564452  1
  Nb  Nb8  1  0.60387822  0.50000000  0.11564452  1
  Nb  Nb9  1  0.60387822  0.50000000  0.61564452  1
  Nb  Nb10  1  0.60387822  0.83333333  0.11564452  1
  Nb  Nb11  1  0.60387822  0.83333333  0.61564452  1
  Nb  Nb12  1  0.89612178  -0.00000000  0.38435548  1
  Nb  Nb13  1  0.89612178  -0.00000000  0.88435548  1
  Nb  Nb14  1  0.89612178  0.33333333  0.38435548  1
  Nb  Nb15  1  0.89612178  0.33333333  0.88435548  1
  Nb  Nb16  1  0.89612178  0.66666667  0.38435548  1
  Nb  Nb17  1  0.89612178  0.66666667  0.88435548  1
  Nb  Nb18  1  1.39612178  0.16666667  0.38435548  1
  Nb  Nb19  1  1.39612178  0.16666667  0.88435548  1
  Nb  Nb20  1  1.39612178  0.50000000  0.38435548  1
  Nb  Nb21  1  1.39612178  0.50000000  0.88435548  1
  Nb  Nb22  1  1.39612178  0.83333333  0.38435548  1
  Nb  Nb23  1  1.39612178  0.83333333  0.88435548  1
  Ga  Ga24  1  0.19731087  0.00000000  0.40824118  1
  Ga  Ga25  1  0.19731087  0.00000000  0.90824118  1
  Ga  Ga26  1  0.19731087  0.33333333  0.40824118  1
  Ga  Ga27  1  0.19731087  0.33333333  0.90824118  1
  Ga  Ga28  1  0.19731087  0.66666667  0.40824118  1
  Ga  Ga29  1  0.19731087  0.66666667  0.90824118  1
  Ga  Ga30  1  0.69731087  0.16666667  0.40824118  1
  Ga  Ga31  1  0.69731087  0.16666667  0.90824118  1
  Ga  Ga32  1  0.69731087  0.50000000  0.40824118  1
  Ga  Ga33  1  0.69731087  0.50000000  0.90824118  1
  Ga  Ga34  1  0.69731087  0.83333333  0.40824118  1
  Ga  Ga35  1  0.69731087  0.83333333  0.90824118  1
  Ga  Ga36  1  0.80268913  -0.00000000  0.09175882  1
  Ga  Ga37  1  0.80268913  -0.00000000  0.59175882  1
  Ga  Ga38  1  0.80268913  0.33333333  0.09175882  1
  Ga  Ga39  1  0.80268913  0.33333333  0.59175882  1
  Ga  Ga40  1  0.80268913  0.66666667  0.09175882  1
  Ga  Ga41  1  0.80268913  0.66666667  0.59175882  1
  Ga  Ga42  1  1.30268913  0.16666667  0.09175882  1
  Ga  Ga43  1  1.30268913  0.16666667  0.59175882  1
  Ga  Ga44  1  1.30268913  0.50000000  0.09175882  1
  Ga  Ga45  1  1.30268913  0.50000000  0.59175882  1
  Ga  Ga46  1  1.30268913  0.83333333  0.09175882  1
  Ga  Ga47  1  1.30268913  0.83333333  0.59175882  1
  O  O48  1  0.86283159  0.00000000  0.24121474  1
  O  O49  1  0.86283159  0.00000000  0.74121474  1
  O  O50  1  0.86283159  0.33333333  0.24121474  1
  O  O51  1  0.86283159  0.33333333  0.74121474  1
  O  O52  1  0.86283159  0.66666667  0.24121474  1
  O  O53  1  0.86283159  0.66666667  0.74121474  1
  O  O54  1  1.36283159  0.16666667  0.24121474  1
  O  O55  1  1.36283159  0.16666667  0.74121474  1
  O  O56  1  1.36283159  0.50000000  0.24121474  1
  O  O57  1  1.36283159  0.50000000  0.74121474  1
  O  O58  1  1.36283159  0.83333333  0.24121474  1
  O  O59  1  1.36283159  0.83333333  0.74121474  1
  O  O60  1  0.13716841  0.00000000  0.25878526  1
  O  O61  1  0.13716841  0.00000000  0.75878526  1
  O  O62  1  0.13716841  0.33333333  0.25878526  1
  O  O63  1  0.13716841  0.33333333  0.75878526  1
  O  O64  1  0.13716841  0.66666667  0.25878526  1
  O  O65  1  0.13716841  0.66666667  0.75878526  1
  O  O66  1  0.63716841  0.16666667  0.25878526  1
  O  O67  1  0.63716841  0.16666667  0.75878526  1
  O  O68  1  0.63716841  0.50000000  0.25878526  1
  O  O69  1  0.63716841  0.50000000  0.75878526  1
  O  O70  1  0.63716841  0.83333333  0.25878526  1
  O  O71  1  0.63716841  0.83333333  0.75878526  1
  O  O72  1  0.94517786  -0.00000000  0.06656653  1
  O  O73  1  0.94517786  -0.00000000  0.56656653  1
  O  O74  1  0.94517786  0.33333333  0.06656653  1
  O  O75  1  0.94517786  0.33333333  0.56656653  1
  O  O76  1  0.94517786  0.66666667  0.06656653  1
  O  O77  1  0.94517786  0.66666667  0.56656653  1
  O  O78  1  1.44517786  0.16666667  0.06656653  1
  O  O79  1  1.44517786  0.16666667  0.56656653  1
  O  O80  1  1.44517786  0.50000000  0.06656653  1
  O  O81  1  1.44517786  0.50000000  0.56656653  1
  O  O82  1  1.44517786  0.83333333  0.06656653  1
  O  O83  1  1.44517786  0.83333333  0.56656653  1
  O  O84  1  0.05482214  0.00000000  0.43343347  1
  O  O85  1  0.05482214  0.00000000  0.93343347  1
  O  O86  1  0.05482214  0.33333333  0.43343347  1
  O  O87  1  0.05482214  0.33333333  0.93343347  1
  O  O88  1  0.05482214  0.66666667  0.43343347  1
  O  O89  1  0.05482214  0.66666667  0.93343347  1
  O  O90  1  0.55482214  0.16666667  0.43343347  1
  O  O91  1  0.55482214  0.16666667  0.93343347  1
  O  O92  1  0.55482214  0.50000000  0.43343347  1
  O  O93  1  0.55482214  0.50000000  0.93343347  1
  O  O94  1  0.55482214  0.83333333  0.43343347  1
  O  O95  1  0.55482214  0.83333333  0.93343347  1
  O  O96  1  0.25887161  -0.00000000  0.07247749  1
  O  O97  1  0.25887161  -0.00000000  0.57247749  1
  O  O98  1  0.25887161  0.33333333  0.07247749  1
  O  O99  1  0.25887161  0.33333333  0.57247749  1
  O  O100  1  0.25887161  0.66666667  0.07247749  1
  O  O101  1  0.25887161  0.66666667  0.57247749  1
  O  O102  1  0.75887161  0.16666667  0.07247749  1
  O  O103  1  0.75887161  0.16666667  0.57247749  1
  O  O104  1  0.75887161  0.50000000  0.07247749  1
  O  O105  1  0.75887161  0.50000000  0.57247749  1
  O  O106  1  0.75887161  0.83333333  0.07247749  1
  O  O107  1  0.75887161  0.83333333  0.57247749  1
  O  O108  1  0.74112839  0.00000000  0.42752251  1
  O  O109  1  0.74112839  0.00000000  0.92752251  1
  O  O110  1  0.74112839  0.33333333  0.42752251  1
  O  O111  1  0.74112839  0.33333333  0.92752251  1
  O  O112  1  0.74112839  0.66666667  0.42752251  1
  O  O113  1  0.74112839  0.66666667  0.92752251  1
  O  O114  1  1.24112839  0.16666667  0.42752251  1
  O  O115  1  1.24112839  0.16666667  0.92752251  1
  O  O116  1  1.24112839  0.50000000  0.42752251  1
  O  O117  1  1.24112839  0.50000000  0.92752251  1
  O  O118  1  1.24112839  0.83333333  0.42752251  1
  O  O119  1  1.24112839  0.83333333  0.92752251  1
  O  O120  1  0.36044983  -0.00000000  0.39868082  1
  O  O121  1  0.36044983  -0.00000000  0.89868082  1
  O  O122  1  0.36044983  0.33333333  0.39868082  1
  O  O123  1  0.36044983  0.33333333  0.89868082  1
  O  O124  1  0.36044983  0.66666667  0.39868082  1
  O  O125  1  0.36044983  0.66666667  0.89868082  1
  O  O126  1  0.86044983  0.16666667  0.39868082  1
  O  O127  1  0.86044983  0.16666667  0.89868082  1
  O  O128  1  0.86044983  0.50000000  0.39868082  1
  O  O129  1  0.86044983  0.50000000  0.89868082  1
  O  O130  1  0.86044983  0.83333333  0.39868082  1
  O  O131  1  0.86044983  0.83333333  0.89868082  1
  O  O132  1  0.63955017  0.00000000  0.10131918  1
  O  O133  1  0.63955017  0.00000000  0.60131918  1
  O  O134  1  0.63955017  0.33333333  0.10131918  1
  O  O135  1  0.63955017  0.33333333  0.60131918  1
  O  O136  1  0.63955017  0.66666667  0.10131918  1
  O  O137  1  0.63955017  0.66666667  0.60131918  1
  O  O138  1  1.13955017  0.16666667  0.10131918  1
  O  O139  1  1.13955017  0.16666667  0.60131918  1
  O  O140  1  1.13955017  0.50000000  0.10131918  1
  O  O141  1  1.13955017  0.50000000  0.60131918  1
  O  O142  1  1.13955017  0.83333333  0.10131918  1
  O  O143  1  1.13955017  0.83333333  0.60131918  1
