# generated using pymatgen
data_Li3CuO3
_symmetry_space_group_name_H-M   'P 1'
_cell_length_a   12.18965544
_cell_length_b   12.18965544
_cell_length_c   10.79120339
_cell_angle_alpha   90.00000000
_cell_angle_beta   90.00000000
_cell_angle_gamma   90.00000000
_symmetry_Int_Tables_number   1
_chemical_formula_structural   Li3CuO3
_chemical_formula_sum   'Li72 Cu24 O72'
_cell_volume   1603.44008886
_cell_formula_units_Z   24
loop_
 _symmetry_equiv_pos_site_id
 _symmetry_equiv_pos_as_xyz
  1  'x, y, z'
loop_
 _atom_site_type_symbol
 _atom_site_label
 _atom_site_symmetry_multiplicity
 _atom_site_fract_x
 _atom_site_fract_y
 _atom_site_fract_z
 _atom_site_occupancy
  Li  Li0  1  0.50000000  0.16548841  0.16666667  1
  Li  Li1  1  0.50000000  0.16548841  0.50000000  1
  Li  Li2  1  0.50000000  0.16548841  0.83333333  1
  Li  Li3  1  1.00000000  0.66548841  0.16666667  1
  Li  Li4  1  1.00000000  0.66548841  0.50000000  1
  Li  Li5  1  1.00000000  0.66548841  0.83333333  1
  Li  Li6  1  0.83451159  0.00000000  0.00000000  1
  Li  Li7  1  0.83451159  0.00000000  0.33333333  1
  Li  Li8  1  0.83451159  0.00000000  0.66666667  1
  Li  Li9  1  1.33451159  0.50000000  0.00000000  1
  Li  Li10  1  1.33451159  0.50000000  0.33333333  1
  Li  Li11  1  1.33451159  0.50000000  0.66666667  1
  Li  Li12  1  0.50000000  -0.16548841  0.16666667  1
  Li  Li13  1  0.50000000  -0.16548841  0.50000000  1
  Li  Li14  1  0.50000000  -0.16548841  0.83333333  1
  Li  Li15  1  1.00000000  0.33451159  0.16666667  1
  Li  Li16  1  1.00000000  0.33451159  0.50000000  1
  Li  Li17  1  1.00000000  0.33451159  0.83333333  1
  Li  Li18  1  0.16548841  -0.00000000  0.00000000  1
  Li  Li19  1  0.16548841  -0.00000000  0.33333333  1
  Li  Li20  1  0.16548841  -0.00000000  0.66666667  1
  Li  Li21  1  0.66548841  0.50000000  0.00000000  1
  Li  Li22  1  0.66548841  0.50000000  0.33333333  1
  Li  Li23  1  0.66548841  0.50000000  0.66666667  1
  Li  Li24  1  0.37175327  0.23360946  0.00000000  1
  Li  Li25  1  0.37175327  0.23360946  0.33333333  1
  Li  Li26  1  0.37175327  0.23360946  0.66666667  1
  Li  Li27  1  0.87175327  0.73360946  0.00000000  1
  Li  Li28  1  0.87175327  0.73360946  0.33333333  1
  Li  Li29  1  0.87175327  0.73360946  0.66666667  1
  Li  Li30  1  0.23360946  0.12824673  0.16666667  1
  Li  Li31  1  0.23360946  0.12824673  0.50000000  1
  Li  Li32  1  0.23360946  0.12824673  0.83333333  1
  Li  Li33  1  0.73360946  0.62824673  0.16666667  1
  Li  Li34  1  0.73360946  0.62824673  0.50000000  1
  Li  Li35  1  0.73360946  0.62824673  0.83333333  1
  Li  Li36  1  0.76639054  -0.12824673  0.16666667  1
  Li  Li37  1  0.76639054  -0.12824673  0.50000000  1
  Li  Li38  1  0.76639054  -0.12824673  0.83333333  1
  Li  Li39  1  1.26639054  0.37175327  0.16666667  1
  Li  Li40  1  1.26639054  0.37175327  0.50000000  1
  Li  Li41  1  1.26639054  0.37175327  0.83333333  1
  Li  Li42  1  0.62824673  -0.23360946  0.00000000  1
  Li  Li43  1  0.62824673  -0.23360946  0.33333333  1
  Li  Li44  1  0.62824673  -0.23360946  0.66666667  1
  Li  Li45  1  1.12824673  0.26639054  0.00000000  1
  Li  Li46  1  1.12824673  0.26639054  0.33333333  1
  Li  Li47  1  1.12824673  0.26639054  0.66666667  1
  Li  Li48  1  0.23360946  -0.12824673  0.16666667  1
  Li  Li49  1  0.23360946  -0.12824673  0.50000000  1
  Li  Li50  1  0.23360946  -0.12824673  0.83333333  1
  Li  Li51  1  0.73360946  0.37175327  0.16666667  1
  Li  Li52  1  0.73360946  0.37175327  0.50000000  1
  Li  Li53  1  0.73360946  0.37175327  0.83333333  1
  Li  Li54  1  0.76639054  0.12824673  0.16666667  1
  Li  Li55  1  0.76639054  0.12824673  0.50000000  1
  Li  Li56  1  0.76639054  0.12824673  0.83333333  1
  Li  Li57  1  1.26639054  0.62824673  0.16666667  1
  Li  Li58  1  1.26639054  0.62824673  0.50000000  1
  Li  Li59  1  1.26639054  0.62824673  0.83333333  1
  Li  Li60  1  0.37175327  -0.23360946  0.00000000  1
  Li  Li61  1  0.37175327  -0.23360946  0.33333333  1
  Li  Li62  1  0.37175327  -0.23360946  0.66666667  1
  Li  Li63  1  0.87175327  0.26639054  0.00000000  1
  Li  Li64  1  0.87175327  0.26639054  0.33333333  1
  Li  Li65  1  0.87175327  0.26639054  0.66666667  1
  Li  Li66  1  0.62824673  0.23360946  0.00000000  1
  Li  Li67  1  0.62824673  0.23360946  0.33333333  1
  Li  Li68  1  0.62824673  0.23360946  0.66666667  1
  Li  Li69  1  1.12824673  0.73360946  0.00000000  1
  Li  Li70  1  1.12824673  0.73360946  0.33333333  1
  Li  Li71  1  1.12824673  0.73360946  0.66666667  1
  Cu  Cu72  1  0.61315877  0.00000000  0.00000000  1
  Cu  Cu73  1  0.61315877  0.00000000  0.33333333  1
  Cu  Cu74  1  0.61315877  0.00000000  0.66666667  1
  Cu  Cu75  1  1.11315877  0.50000000  0.00000000  1
  Cu  Cu76  1  1.11315877  0.50000000  0.33333333  1
  Cu  Cu77  1  1.11315877  0.50000000  0.66666667  1
  Cu  Cu78  1  0.50000000  0.38684123  0.16666667  1
  Cu  Cu79  1  0.50000000  0.38684123  0.50000000  1
  Cu  Cu80  1  0.50000000  0.38684123  0.83333333  1
  Cu  Cu81  1  1.00000000  0.88684123  0.16666667  1
  Cu  Cu82  1  1.00000000  0.88684123  0.50000000  1
  Cu  Cu83  1  1.00000000  0.88684123  0.83333333  1
  Cu  Cu84  1  0.50000000  -0.38684123  0.16666667  1
  Cu  Cu85  1  0.50000000  -0.38684123  0.50000000  1
  Cu  Cu86  1  0.50000000  -0.38684123  0.83333333  1
  Cu  Cu87  1  1.00000000  0.11315877  0.16666667  1
  Cu  Cu88  1  1.00000000  0.11315877  0.50000000  1
  Cu  Cu89  1  1.00000000  0.11315877  0.83333333  1
  Cu  Cu90  1  0.38684123  0.00000000  0.00000000  1
  Cu  Cu91  1  0.38684123  0.00000000  0.33333333  1
  Cu  Cu92  1  0.38684123  0.00000000  0.66666667  1
  Cu  Cu93  1  0.88684123  0.50000000  0.00000000  1
  Cu  Cu94  1  0.88684123  0.50000000  0.33333333  1
  Cu  Cu95  1  0.88684123  0.50000000  0.66666667  1
  O  O96  1  0.50000000  -0.10117059  0.00000000  1
  O  O97  1  0.50000000  -0.10117059  0.33333333  1
  O  O98  1  0.50000000  -0.10117059  0.66666667  1
  O  O99  1  1.00000000  0.39882941  0.00000000  1
  O  O100  1  1.00000000  0.39882941  0.33333333  1
  O  O101  1  1.00000000  0.39882941  0.66666667  1
  O  O102  1  0.89882941  -0.00000000  0.16666667  1
  O  O103  1  0.89882941  -0.00000000  0.50000000  1
  O  O104  1  0.89882941  -0.00000000  0.83333333  1
  O  O105  1  1.39882941  0.50000000  0.16666667  1
  O  O106  1  1.39882941  0.50000000  0.50000000  1
  O  O107  1  1.39882941  0.50000000  0.83333333  1
  O  O108  1  0.50000000  0.10117059  0.00000000  1
  O  O109  1  0.50000000  0.10117059  0.33333333  1
  O  O110  1  0.50000000  0.10117059  0.66666667  1
  O  O111  1  1.00000000  0.60117059  0.00000000  1
  O  O112  1  1.00000000  0.60117059  0.33333333  1
  O  O113  1  1.00000000  0.60117059  0.66666667  1
  O  O114  1  0.10117059  0.00000000  0.16666667  1
  O  O115  1  0.10117059  0.00000000  0.50000000  1
  O  O116  1  0.10117059  0.00000000  0.83333333  1
  O  O117  1  0.60117059  0.50000000  0.16666667  1
  O  O118  1  0.60117059  0.50000000  0.50000000  1
  O  O119  1  0.60117059  0.50000000  0.83333333  1
  O  O120  1  0.28290302  -0.10528731  0.00000000  1
  O  O121  1  0.28290302  -0.10528731  0.33333333  1
  O  O122  1  0.28290302  -0.10528731  0.66666667  1
  O  O123  1  0.78290302  0.39471269  0.00000000  1
  O  O124  1  0.78290302  0.39471269  0.33333333  1
  O  O125  1  0.78290302  0.39471269  0.66666667  1
  O  O126  1  0.39471269  -0.28290302  0.16666667  1
  O  O127  1  0.39471269  -0.28290302  0.50000000  1
  O  O128  1  0.39471269  -0.28290302  0.83333333  1
  O  O129  1  0.89471269  0.21709698  0.16666667  1
  O  O130  1  0.89471269  0.21709698  0.50000000  1
  O  O131  1  0.89471269  0.21709698  0.83333333  1
  O  O132  1  0.60528731  0.28290302  0.16666667  1
  O  O133  1  0.60528731  0.28290302  0.50000000  1
  O  O134  1  0.60528731  0.28290302  0.83333333  1
  O  O135  1  1.10528731  0.78290302  0.16666667  1
  O  O136  1  1.10528731  0.78290302  0.50000000  1
  O  O137  1  1.10528731  0.78290302  0.83333333  1
  O  O138  1  0.71709698  0.10528731  0.00000000  1
  O  O139  1  0.71709698  0.10528731  0.33333333  1
  O  O140  1  0.71709698  0.10528731  0.66666667  1
  O  O141  1  1.21709698  0.60528731  0.00000000  1
  O  O142  1  1.21709698  0.60528731  0.33333333  1
  O  O143  1  1.21709698  0.60528731  0.66666667  1
  O  O144  1  0.39471269  0.28290302  0.16666667  1
  O  O145  1  0.39471269  0.28290302  0.50000000  1
  O  O146  1  0.39471269  0.28290302  0.83333333  1
  O  O147  1  0.89471269  0.78290302  0.16666667  1
  O  O148  1  0.89471269  0.78290302  0.50000000  1
  O  O149  1  0.89471269  0.78290302  0.83333333  1
  O  O150  1  0.60528731  -0.28290302  0.16666667  1
  O  O151  1  0.60528731  -0.28290302  0.50000000  1
  O  O152  1  0.60528731  -0.28290302  0.83333333  1
  O  O153  1  1.10528731  0.21709698  0.16666667  1
  O  O154  1  1.10528731  0.21709698  0.50000000  1
  O  O155  1  1.10528731  0.21709698  0.83333333  1
  O  O156  1  0.28290302  0.10528731  0.00000000  1
  O  O157  1  0.28290302  0.10528731  0.33333333  1
  O  O158  1  0.28290302  0.10528731  0.66666667  1
  O  O159  1  0.78290302  0.60528731  0.00000000  1
  O  O160  1  0.78290302  0.60528731  0.33333333  1
  O  O161  1  0.78290302  0.60528731  0.66666667  1
  O  O162  1  0.71709698  -0.10528731  0.00000000  1
  O  O163  1  0.71709698  -0.10528731  0.33333333  1
  O  O164  1  0.71709698  -0.10528731  0.66666667  1
  O  O165  1  1.21709698  0.39471269  0.00000000  1
  O  O166  1  1.21709698  0.39471269  0.33333333  1
  O  O167  1  1.21709698  0.39471269  0.66666667  1
