# generated using pymatgen
data_KBaY(BO3)2
_symmetry_space_group_name_H-M   'P 1'
_cell_length_a   16.30547229
_cell_length_b   16.30547229
_cell_length_c   17.59090451
_cell_angle_alpha   90.00000000
_cell_angle_beta   90.00000000
_cell_angle_gamma   120.00000000
_symmetry_Int_Tables_number   1
_chemical_formula_structural   KBaY(BO3)2
_chemical_formula_sum   'K27 Ba27 Y27 B54 O162'
_cell_volume   4050.28485755
_cell_formula_units_Z   27
loop_
 _symmetry_equiv_pos_site_id
 _symmetry_equiv_pos_as_xyz
  1  'x, y, z'
loop_
 _atom_site_type_symbol
 _atom_site_label
 _atom_site_symmetry_multiplicity
 _atom_site_fract_x
 _atom_site_fract_y
 _atom_site_fract_z
 _atom_site_occupancy
  K  K0  1  -0.00000000  0.00000000  0.77957246  1
  K  K1  1  0.00000000  0.33333333  0.77957246  1
  K  K2  1  0.00000000  0.66666667  0.77957246  1
  K  K3  1  0.33333333  0.00000000  0.77957246  1
  K  K4  1  0.33333333  0.33333333  0.77957246  1
  K  K5  1  0.33333333  0.66666667  0.77957246  1
  K  K6  1  0.66666667  0.00000000  0.77957246  1
  K  K7  1  0.66666667  0.33333333  0.77957246  1
  K  K8  1  0.66666667  0.66666667  0.77957246  1
  K  K9  1  0.22222222  0.11111111  1.11290579  1
  K  K10  1  0.22222222  0.44444444  1.11290579  1
  K  K11  1  0.22222222  0.77777778  1.11290579  1
  K  K12  1  0.55555556  0.11111111  1.11290579  1
  K  K13  1  0.55555556  0.44444444  1.11290579  1
  K  K14  1  0.55555556  0.77777778  1.11290579  1
  K  K15  1  0.88888889  0.11111111  1.11290579  1
  K  K16  1  0.88888889  0.44444444  1.11290579  1
  K  K17  1  0.88888889  0.77777778  1.11290579  1
  K  K18  1  0.11111111  0.22222222  1.44623912  1
  K  K19  1  0.11111111  0.55555556  1.44623912  1
  K  K20  1  0.11111111  0.88888889  1.44623912  1
  K  K21  1  0.44444444  0.22222222  1.44623912  1
  K  K22  1  0.44444444  0.55555556  1.44623912  1
  K  K23  1  0.44444444  0.88888889  1.44623912  1
  K  K24  1  0.77777778  0.22222222  1.44623912  1
  K  K25  1  0.77777778  0.55555556  1.44623912  1
  K  K26  1  0.77777778  0.88888889  1.44623912  1
  Ba  Ba27  1  -0.00000000  -0.00000000  0.20916472  1
  Ba  Ba28  1  0.00000000  0.33333333  0.20916472  1
  Ba  Ba29  1  0.00000000  0.66666667  0.20916472  1
  Ba  Ba30  1  0.33333333  -0.00000000  0.20916472  1
  Ba  Ba31  1  0.33333333  0.33333333  0.20916472  1
  Ba  Ba32  1  0.33333333  0.66666667  0.20916472  1
  Ba  Ba33  1  0.66666667  -0.00000000  0.20916472  1
  Ba  Ba34  1  0.66666667  0.33333333  0.20916472  1
  Ba  Ba35  1  0.66666667  0.66666667  0.20916472  1
  Ba  Ba36  1  0.22222222  0.11111111  0.54249806  1
  Ba  Ba37  1  0.22222222  0.44444444  0.54249806  1
  Ba  Ba38  1  0.22222222  0.77777778  0.54249806  1
  Ba  Ba39  1  0.55555556  0.11111111  0.54249806  1
  Ba  Ba40  1  0.55555556  0.44444444  0.54249806  1
  Ba  Ba41  1  0.55555556  0.77777778  0.54249806  1
  Ba  Ba42  1  0.88888889  0.11111111  0.54249806  1
  Ba  Ba43  1  0.88888889  0.44444444  0.54249806  1
  Ba  Ba44  1  0.88888889  0.77777778  0.54249806  1
  Ba  Ba45  1  0.11111111  0.22222222  0.87583139  1
  Ba  Ba46  1  0.11111111  0.55555556  0.87583139  1
  Ba  Ba47  1  0.11111111  0.88888889  0.87583139  1
  Ba  Ba48  1  0.44444444  0.22222222  0.87583139  1
  Ba  Ba49  1  0.44444444  0.55555556  0.87583139  1
  Ba  Ba50  1  0.44444444  0.88888889  0.87583139  1
  Ba  Ba51  1  0.77777778  0.22222222  0.87583139  1
  Ba  Ba52  1  0.77777778  0.55555556  0.87583139  1
  Ba  Ba53  1  0.77777778  0.88888889  0.87583139  1
  Y  Y54  1  -0.00000000  -0.00000000  0.00166802  1
  Y  Y55  1  0.00000000  0.33333333  0.00166802  1
  Y  Y56  1  0.00000000  0.66666667  0.00166802  1
  Y  Y57  1  0.33333333  -0.00000000  0.00166802  1
  Y  Y58  1  0.33333333  0.33333333  0.00166802  1
  Y  Y59  1  0.33333333  0.66666667  0.00166802  1
  Y  Y60  1  0.66666667  -0.00000000  0.00166802  1
  Y  Y61  1  0.66666667  0.33333333  0.00166802  1
  Y  Y62  1  0.66666667  0.66666667  0.00166802  1
  Y  Y63  1  0.22222222  0.11111111  0.33500135  1
  Y  Y64  1  0.22222222  0.44444444  0.33500135  1
  Y  Y65  1  0.22222222  0.77777778  0.33500135  1
  Y  Y66  1  0.55555556  0.11111111  0.33500135  1
  Y  Y67  1  0.55555556  0.44444444  0.33500135  1
  Y  Y68  1  0.55555556  0.77777778  0.33500135  1
  Y  Y69  1  0.88888889  0.11111111  0.33500135  1
  Y  Y70  1  0.88888889  0.44444444  0.33500135  1
  Y  Y71  1  0.88888889  0.77777778  0.33500135  1
  Y  Y72  1  0.11111111  0.22222222  0.66833469  1
  Y  Y73  1  0.11111111  0.55555556  0.66833469  1
  Y  Y74  1  0.11111111  0.88888889  0.66833469  1
  Y  Y75  1  0.44444444  0.22222222  0.66833469  1
  Y  Y76  1  0.44444444  0.55555556  0.66833469  1
  Y  Y77  1  0.44444444  0.88888889  0.66833469  1
  Y  Y78  1  0.77777778  0.22222222  0.66833469  1
  Y  Y79  1  0.77777778  0.55555556  0.66833469  1
  Y  Y80  1  0.77777778  0.88888889  0.66833469  1
  B  B81  1  -0.00000000  0.00000000  0.41398457  1
  B  B82  1  0.00000000  0.33333333  0.41398457  1
  B  B83  1  0.00000000  0.66666667  0.41398457  1
  B  B84  1  0.33333333  0.00000000  0.41398457  1
  B  B85  1  0.33333333  0.33333333  0.41398457  1
  B  B86  1  0.33333333  0.66666667  0.41398457  1
  B  B87  1  0.66666667  0.00000000  0.41398457  1
  B  B88  1  0.66666667  0.33333333  0.41398457  1
  B  B89  1  0.66666667  0.66666667  0.41398457  1
  B  B90  1  0.22222222  0.11111111  0.74731790  1
  B  B91  1  0.22222222  0.44444444  0.74731790  1
  B  B92  1  0.22222222  0.77777778  0.74731790  1
  B  B93  1  0.55555556  0.11111111  0.74731790  1
  B  B94  1  0.55555556  0.44444444  0.74731790  1
  B  B95  1  0.55555556  0.77777778  0.74731790  1
  B  B96  1  0.88888889  0.11111111  0.74731790  1
  B  B97  1  0.88888889  0.44444444  0.74731790  1
  B  B98  1  0.88888889  0.77777778  0.74731790  1
  B  B99  1  0.11111111  0.22222222  1.08065123  1
  B  B100  1  0.11111111  0.55555556  1.08065123  1
  B  B101  1  0.11111111  0.88888889  1.08065123  1
  B  B102  1  0.44444444  0.22222222  1.08065123  1
  B  B103  1  0.44444444  0.55555556  1.08065123  1
  B  B104  1  0.44444444  0.88888889  1.08065123  1
  B  B105  1  0.77777778  0.22222222  1.08065123  1
  B  B106  1  0.77777778  0.55555556  1.08065123  1
  B  B107  1  0.77777778  0.88888889  1.08065123  1
  B  B108  1  0.00000000  -0.00000000  0.58906270  1
  B  B109  1  0.00000000  0.33333333  0.58906270  1
  B  B110  1  0.00000000  0.66666667  0.58906270  1
  B  B111  1  0.33333333  -0.00000000  0.58906270  1
  B  B112  1  0.33333333  0.33333333  0.58906270  1
  B  B113  1  0.33333333  0.66666667  0.58906270  1
  B  B114  1  0.66666667  -0.00000000  0.58906270  1
  B  B115  1  0.66666667  0.33333333  0.58906270  1
  B  B116  1  0.66666667  0.66666667  0.58906270  1
  B  B117  1  0.22222222  0.11111111  0.92239603  1
  B  B118  1  0.22222222  0.44444444  0.92239603  1
  B  B119  1  0.22222222  0.77777778  0.92239603  1
  B  B120  1  0.55555556  0.11111111  0.92239603  1
  B  B121  1  0.55555556  0.44444444  0.92239603  1
  B  B122  1  0.55555556  0.77777778  0.92239603  1
  B  B123  1  0.88888889  0.11111111  0.92239603  1
  B  B124  1  0.88888889  0.44444444  0.92239603  1
  B  B125  1  0.88888889  0.77777778  0.92239603  1
  B  B126  1  0.11111111  0.22222222  1.25572936  1
  B  B127  1  0.11111111  0.55555556  1.25572936  1
  B  B128  1  0.11111111  0.88888889  1.25572936  1
  B  B129  1  0.44444444  0.22222222  1.25572936  1
  B  B130  1  0.44444444  0.55555556  1.25572936  1
  B  B131  1  0.44444444  0.88888889  1.25572936  1
  B  B132  1  0.77777778  0.22222222  1.25572936  1
  B  B133  1  0.77777778  0.55555556  1.25572936  1
  B  B134  1  0.77777778  0.88888889  1.25572936  1
  O  O135  1  0.09837838  0.04918919  0.41327429  1
  O  O136  1  0.09837838  0.38252252  0.41327429  1
  O  O137  1  0.09837838  0.71585586  0.41327429  1
  O  O138  1  0.43171171  0.04918919  0.41327429  1
  O  O139  1  0.43171171  0.38252252  0.41327429  1
  O  O140  1  0.43171171  0.71585586  0.41327429  1
  O  O141  1  0.76504505  0.04918919  0.41327429  1
  O  O142  1  0.76504505  0.38252252  0.41327429  1
  O  O143  1  0.76504505  0.71585586  0.41327429  1
  O  O144  1  0.32060060  0.16030030  0.74660762  1
  O  O145  1  0.32060060  0.49363363  0.74660762  1
  O  O146  1  0.32060060  0.82696697  0.74660762  1
  O  O147  1  0.65393394  0.16030030  0.74660762  1
  O  O148  1  0.65393394  0.49363363  0.74660762  1
  O  O149  1  0.65393394  0.82696697  0.74660762  1
  O  O150  1  0.98726727  0.16030030  0.74660762  1
  O  O151  1  0.98726727  0.49363363  0.74660762  1
  O  O152  1  0.98726727  0.82696697  0.74660762  1
  O  O153  1  0.20948949  0.27141141  1.07994096  1
  O  O154  1  0.20948949  0.60474475  1.07994096  1
  O  O155  1  0.20948949  0.93807808  1.07994096  1
  O  O156  1  0.54282282  0.27141141  1.07994096  1
  O  O157  1  0.54282282  0.60474475  1.07994096  1
  O  O158  1  0.54282282  0.93807808  1.07994096  1
  O  O159  1  0.87615616  0.27141141  1.07994096  1
  O  O160  1  0.87615616  0.60474475  1.07994096  1
  O  O161  1  0.87615616  0.93807808  1.07994096  1
  O  O162  1  -0.04918919  0.04918919  0.41327429  1
  O  O163  1  -0.04918919  0.38252252  0.41327429  1
  O  O164  1  -0.04918919  0.71585586  0.41327429  1
  O  O165  1  0.28414414  0.04918919  0.41327429  1
  O  O166  1  0.28414414  0.38252252  0.41327429  1
  O  O167  1  0.28414414  0.71585586  0.41327429  1
  O  O168  1  0.61747748  0.04918919  0.41327429  1
  O  O169  1  0.61747748  0.38252252  0.41327429  1
  O  O170  1  0.61747748  0.71585586  0.41327429  1
  O  O171  1  0.17303303  0.16030030  0.74660762  1
  O  O172  1  0.17303303  0.49363363  0.74660762  1
  O  O173  1  0.17303303  0.82696697  0.74660762  1
  O  O174  1  0.50636637  0.16030030  0.74660762  1
  O  O175  1  0.50636637  0.49363363  0.74660762  1
  O  O176  1  0.50636637  0.82696697  0.74660762  1
  O  O177  1  0.83969970  0.16030030  0.74660762  1
  O  O178  1  0.83969970  0.49363363  0.74660762  1
  O  O179  1  0.83969970  0.82696697  0.74660762  1
  O  O180  1  0.06192192  0.27141141  1.07994096  1
  O  O181  1  0.06192192  0.60474475  1.07994096  1
  O  O182  1  0.06192192  0.93807808  1.07994096  1
  O  O183  1  0.39525525  0.27141141  1.07994096  1
  O  O184  1  0.39525525  0.60474475  1.07994096  1
  O  O185  1  0.39525525  0.93807808  1.07994096  1
  O  O186  1  0.72858859  0.27141141  1.07994096  1
  O  O187  1  0.72858859  0.60474475  1.07994096  1
  O  O188  1  0.72858859  0.93807808  1.07994096  1
  O  O189  1  -0.04918919  -0.09837838  0.41327429  1
  O  O190  1  -0.04918919  0.23495495  0.41327429  1
  O  O191  1  -0.04918919  0.56828829  0.41327429  1
  O  O192  1  0.28414414  -0.09837838  0.41327429  1
  O  O193  1  0.28414414  0.23495495  0.41327429  1
  O  O194  1  0.28414414  0.56828829  0.41327429  1
  O  O195  1  0.61747748  -0.09837838  0.41327429  1
  O  O196  1  0.61747748  0.23495495  0.41327429  1
  O  O197  1  0.61747748  0.56828829  0.41327429  1
  O  O198  1  0.17303303  0.01273273  0.74660762  1
  O  O199  1  0.17303303  0.34606606  0.74660762  1
  O  O200  1  0.17303303  0.67939940  0.74660762  1
  O  O201  1  0.50636637  0.01273273  0.74660762  1
  O  O202  1  0.50636637  0.34606606  0.74660762  1
  O  O203  1  0.50636637  0.67939940  0.74660762  1
  O  O204  1  0.83969970  0.01273273  0.74660762  1
  O  O205  1  0.83969970  0.34606606  0.74660762  1
  O  O206  1  0.83969970  0.67939940  0.74660762  1
  O  O207  1  0.06192192  0.12384384  1.07994096  1
  O  O208  1  0.06192192  0.45717718  1.07994096  1
  O  O209  1  0.06192192  0.79051051  1.07994096  1
  O  O210  1  0.39525525  0.12384384  1.07994096  1
  O  O211  1  0.39525525  0.45717718  1.07994096  1
  O  O212  1  0.39525525  0.79051051  1.07994096  1
  O  O213  1  0.72858859  0.12384384  1.07994096  1
  O  O214  1  0.72858859  0.45717718  1.07994096  1
  O  O215  1  0.72858859  0.79051051  1.07994096  1
  O  O216  1  -0.09813824  -0.04906912  0.58876589  1
  O  O217  1  -0.09813824  0.28426421  0.58876589  1
  O  O218  1  -0.09813824  0.61759755  0.58876589  1
  O  O219  1  0.23519509  -0.04906912  0.58876589  1
  O  O220  1  0.23519509  0.28426421  0.58876589  1
  O  O221  1  0.23519509  0.61759755  0.58876589  1
  O  O222  1  0.56852843  -0.04906912  0.58876589  1
  O  O223  1  0.56852843  0.28426421  0.58876589  1
  O  O224  1  0.56852843  0.61759755  0.58876589  1
  O  O225  1  0.12408398  0.06204199  0.92209922  1
  O  O226  1  0.12408398  0.39537532  0.92209922  1
  O  O227  1  0.12408398  0.72870866  0.92209922  1
  O  O228  1  0.45741731  0.06204199  0.92209922  1
  O  O229  1  0.45741731  0.39537532  0.92209922  1
  O  O230  1  0.45741731  0.72870866  0.92209922  1
  O  O231  1  0.79075065  0.06204199  0.92209922  1
  O  O232  1  0.79075065  0.39537532  0.92209922  1
  O  O233  1  0.79075065  0.72870866  0.92209922  1
  O  O234  1  0.01297287  0.17315310  1.25543256  1
  O  O235  1  0.01297287  0.50648643  1.25543256  1
  O  O236  1  0.01297287  0.83981977  1.25543256  1
  O  O237  1  0.34630620  0.17315310  1.25543256  1
  O  O238  1  0.34630620  0.50648643  1.25543256  1
  O  O239  1  0.34630620  0.83981977  1.25543256  1
  O  O240  1  0.67963954  0.17315310  1.25543256  1
  O  O241  1  0.67963954  0.50648643  1.25543256  1
  O  O242  1  0.67963954  0.83981977  1.25543256  1
  O  O243  1  0.04906912  -0.04906912  0.58876589  1
  O  O244  1  0.04906912  0.28426421  0.58876589  1
  O  O245  1  0.04906912  0.61759755  0.58876589  1
  O  O246  1  0.38240245  -0.04906912  0.58876589  1
  O  O247  1  0.38240245  0.28426421  0.58876589  1
  O  O248  1  0.38240245  0.61759755  0.58876589  1
  O  O249  1  0.71573579  -0.04906912  0.58876589  1
  O  O250  1  0.71573579  0.28426421  0.58876589  1
  O  O251  1  0.71573579  0.61759755  0.58876589  1
  O  O252  1  0.27129134  0.06204199  0.92209922  1
  O  O253  1  0.27129134  0.39537532  0.92209922  1
  O  O254  1  0.27129134  0.72870866  0.92209922  1
  O  O255  1  0.60462468  0.06204199  0.92209922  1
  O  O256  1  0.60462468  0.39537532  0.92209922  1
  O  O257  1  0.60462468  0.72870866  0.92209922  1
  O  O258  1  0.93795801  0.06204199  0.92209922  1
  O  O259  1  0.93795801  0.39537532  0.92209922  1
  O  O260  1  0.93795801  0.72870866  0.92209922  1
  O  O261  1  0.16018023  0.17315310  1.25543256  1
  O  O262  1  0.16018023  0.50648643  1.25543256  1
  O  O263  1  0.16018023  0.83981977  1.25543256  1
  O  O264  1  0.49351357  0.17315310  1.25543256  1
  O  O265  1  0.49351357  0.50648643  1.25543256  1
  O  O266  1  0.49351357  0.83981977  1.25543256  1
  O  O267  1  0.82684690  0.17315310  1.25543256  1
  O  O268  1  0.82684690  0.50648643  1.25543256  1
  O  O269  1  0.82684690  0.83981977  1.25543256  1
  O  O270  1  0.04906912  0.09813824  0.58876589  1
  O  O271  1  0.04906912  0.43147157  0.58876589  1
  O  O272  1  0.04906912  0.76480491  0.58876589  1
  O  O273  1  0.38240245  0.09813824  0.58876589  1
  O  O274  1  0.38240245  0.43147157  0.58876589  1
  O  O275  1  0.38240245  0.76480491  0.58876589  1
  O  O276  1  0.71573579  0.09813824  0.58876589  1
  O  O277  1  0.71573579  0.43147157  0.58876589  1
  O  O278  1  0.71573579  0.76480491  0.58876589  1
  O  O279  1  0.27129134  0.20924935  0.92209922  1
  O  O280  1  0.27129134  0.54258269  0.92209922  1
  O  O281  1  0.27129134  0.87591602  0.92209922  1
  O  O282  1  0.60462468  0.20924935  0.92209922  1
  O  O283  1  0.60462468  0.54258269  0.92209922  1
  O  O284  1  0.60462468  0.87591602  0.92209922  1
  O  O285  1  0.93795801  0.20924935  0.92209922  1
  O  O286  1  0.93795801  0.54258269  0.92209922  1
  O  O287  1  0.93795801  0.87591602  0.92209922  1
  O  O288  1  0.16018023  0.32036046  1.25543256  1
  O  O289  1  0.16018023  0.65369380  1.25543256  1
  O  O290  1  0.16018023  0.98702713  1.25543256  1
  O  O291  1  0.49351357  0.32036046  1.25543256  1
  O  O292  1  0.49351357  0.65369380  1.25543256  1
  O  O293  1  0.49351357  0.98702713  1.25543256  1
  O  O294  1  0.82684690  0.32036046  1.25543256  1
  O  O295  1  0.82684690  0.65369380  1.25543256  1
  O  O296  1  0.82684690  0.98702713  1.25543256  1
