# generated using pymatgen
data_Rb2CeO3
_symmetry_space_group_name_H-M   'P 1'
_cell_length_a   19.10298773
_cell_length_b   21.96585363
_cell_length_c   20.62086966
_cell_angle_alpha   90.00000000
_cell_angle_beta   108.39189953
_cell_angle_gamma   90.00000000
_symmetry_Int_Tables_number   1
_chemical_formula_structural   Rb2CeO3
_chemical_formula_sum   'Rb144 Ce72 O216'
_cell_volume   8210.81462503
_cell_formula_units_Z   72
loop_
 _symmetry_equiv_pos_site_id
 _symmetry_equiv_pos_as_xyz
  1  'x, y, z'
loop_
 _atom_site_type_symbol
 _atom_site_label
 _atom_site_symmetry_multiplicity
 _atom_site_fract_x
 _atom_site_fract_y
 _atom_site_fract_z
 _atom_site_occupancy
  Rb  Rb0  1  0.00000000  0.00000000  0.00000000  1
  Rb  Rb1  1  -0.00000000  0.00000000  0.33333333  1
  Rb  Rb2  1  -0.00000000  0.00000000  0.66666667  1
  Rb  Rb3  1  0.00000000  0.50000000  0.00000000  1
  Rb  Rb4  1  -0.00000000  0.50000000  0.33333333  1
  Rb  Rb5  1  -0.00000000  0.50000000  0.66666667  1
  Rb  Rb6  1  0.33333333  0.00000000  0.00000000  1
  Rb  Rb7  1  0.33333333  0.00000000  0.33333333  1
  Rb  Rb8  1  0.33333333  0.00000000  0.66666667  1
  Rb  Rb9  1  0.33333333  0.50000000  0.00000000  1
  Rb  Rb10  1  0.33333333  0.50000000  0.33333333  1
  Rb  Rb11  1  0.33333333  0.50000000  0.66666667  1
  Rb  Rb12  1  0.66666667  0.00000000  0.00000000  1
  Rb  Rb13  1  0.66666667  0.00000000  0.33333333  1
  Rb  Rb14  1  0.66666667  0.00000000  0.66666667  1
  Rb  Rb15  1  0.66666667  0.50000000  0.00000000  1
  Rb  Rb16  1  0.66666667  0.50000000  0.33333333  1
  Rb  Rb17  1  0.66666667  0.50000000  0.66666667  1
  Rb  Rb18  1  0.16666667  0.25000000  0.00000000  1
  Rb  Rb19  1  0.16666667  0.25000000  0.33333333  1
  Rb  Rb20  1  0.16666667  0.25000000  0.66666667  1
  Rb  Rb21  1  0.16666667  0.75000000  0.00000000  1
  Rb  Rb22  1  0.16666667  0.75000000  0.33333333  1
  Rb  Rb23  1  0.16666667  0.75000000  0.66666667  1
  Rb  Rb24  1  0.50000000  0.25000000  0.00000000  1
  Rb  Rb25  1  0.50000000  0.25000000  0.33333333  1
  Rb  Rb26  1  0.50000000  0.25000000  0.66666667  1
  Rb  Rb27  1  0.50000000  0.75000000  0.00000000  1
  Rb  Rb28  1  0.50000000  0.75000000  0.33333333  1
  Rb  Rb29  1  0.50000000  0.75000000  0.66666667  1
  Rb  Rb30  1  0.83333333  0.25000000  0.00000000  1
  Rb  Rb31  1  0.83333333  0.25000000  0.33333333  1
  Rb  Rb32  1  0.83333333  0.25000000  0.66666667  1
  Rb  Rb33  1  0.83333333  0.75000000  0.00000000  1
  Rb  Rb34  1  0.83333333  0.75000000  0.33333333  1
  Rb  Rb35  1  0.83333333  0.75000000  0.66666667  1
  Rb  Rb36  1  0.16666667  0.00000000  0.16666667  1
  Rb  Rb37  1  0.16666667  0.00000000  0.50000000  1
  Rb  Rb38  1  0.16666667  0.00000000  0.83333333  1
  Rb  Rb39  1  0.16666667  0.50000000  0.16666667  1
  Rb  Rb40  1  0.16666667  0.50000000  0.50000000  1
  Rb  Rb41  1  0.16666667  0.50000000  0.83333333  1
  Rb  Rb42  1  0.50000000  0.00000000  0.16666667  1
  Rb  Rb43  1  0.50000000  0.00000000  0.50000000  1
  Rb  Rb44  1  0.50000000  0.00000000  0.83333333  1
  Rb  Rb45  1  0.50000000  0.50000000  0.16666667  1
  Rb  Rb46  1  0.50000000  0.50000000  0.50000000  1
  Rb  Rb47  1  0.50000000  0.50000000  0.83333333  1
  Rb  Rb48  1  0.83333333  0.00000000  0.16666667  1
  Rb  Rb49  1  0.83333333  0.00000000  0.50000000  1
  Rb  Rb50  1  0.83333333  0.00000000  0.83333333  1
  Rb  Rb51  1  0.83333333  0.50000000  0.16666667  1
  Rb  Rb52  1  0.83333333  0.50000000  0.50000000  1
  Rb  Rb53  1  0.83333333  0.50000000  0.83333333  1
  Rb  Rb54  1  0.33333333  0.25000000  0.16666667  1
  Rb  Rb55  1  0.33333333  0.25000000  0.50000000  1
  Rb  Rb56  1  0.33333333  0.25000000  0.83333333  1
  Rb  Rb57  1  0.33333333  0.75000000  0.16666667  1
  Rb  Rb58  1  0.33333333  0.75000000  0.50000000  1
  Rb  Rb59  1  0.33333333  0.75000000  0.83333333  1
  Rb  Rb60  1  0.66666667  0.25000000  0.16666667  1
  Rb  Rb61  1  0.66666667  0.25000000  0.50000000  1
  Rb  Rb62  1  0.66666667  0.25000000  0.83333333  1
  Rb  Rb63  1  0.66666667  0.75000000  0.16666667  1
  Rb  Rb64  1  0.66666667  0.75000000  0.50000000  1
  Rb  Rb65  1  0.66666667  0.75000000  0.83333333  1
  Rb  Rb66  1  1.00000000  0.25000000  0.16666667  1
  Rb  Rb67  1  1.00000000  0.25000000  0.50000000  1
  Rb  Rb68  1  1.00000000  0.25000000  0.83333333  1
  Rb  Rb69  1  1.00000000  0.75000000  0.16666667  1
  Rb  Rb70  1  1.00000000  0.75000000  0.50000000  1
  Rb  Rb71  1  1.00000000  0.75000000  0.83333333  1
  Rb  Rb72  1  0.16666667  0.07797771  0.00000000  1
  Rb  Rb73  1  0.16666667  0.07797771  0.33333333  1
  Rb  Rb74  1  0.16666667  0.07797771  0.66666667  1
  Rb  Rb75  1  0.16666667  0.57797771  0.00000000  1
  Rb  Rb76  1  0.16666667  0.57797771  0.33333333  1
  Rb  Rb77  1  0.16666667  0.57797771  0.66666667  1
  Rb  Rb78  1  0.50000000  0.07797771  0.00000000  1
  Rb  Rb79  1  0.50000000  0.07797771  0.33333333  1
  Rb  Rb80  1  0.50000000  0.07797771  0.66666667  1
  Rb  Rb81  1  0.50000000  0.57797771  0.00000000  1
  Rb  Rb82  1  0.50000000  0.57797771  0.33333333  1
  Rb  Rb83  1  0.50000000  0.57797771  0.66666667  1
  Rb  Rb84  1  0.83333333  0.07797771  0.00000000  1
  Rb  Rb85  1  0.83333333  0.07797771  0.33333333  1
  Rb  Rb86  1  0.83333333  0.07797771  0.66666667  1
  Rb  Rb87  1  0.83333333  0.57797771  0.00000000  1
  Rb  Rb88  1  0.83333333  0.57797771  0.33333333  1
  Rb  Rb89  1  0.83333333  0.57797771  0.66666667  1
  Rb  Rb90  1  0.33333333  0.32797771  0.00000000  1
  Rb  Rb91  1  0.33333333  0.32797771  0.33333333  1
  Rb  Rb92  1  0.33333333  0.32797771  0.66666667  1
  Rb  Rb93  1  0.33333333  0.82797771  0.00000000  1
  Rb  Rb94  1  0.33333333  0.82797771  0.33333333  1
  Rb  Rb95  1  0.33333333  0.82797771  0.66666667  1
  Rb  Rb96  1  0.66666667  0.32797771  0.00000000  1
  Rb  Rb97  1  0.66666667  0.32797771  0.33333333  1
  Rb  Rb98  1  0.66666667  0.32797771  0.66666667  1
  Rb  Rb99  1  0.66666667  0.82797771  0.00000000  1
  Rb  Rb100  1  0.66666667  0.82797771  0.33333333  1
  Rb  Rb101  1  0.66666667  0.82797771  0.66666667  1
  Rb  Rb102  1  1.00000000  0.32797771  0.00000000  1
  Rb  Rb103  1  1.00000000  0.32797771  0.33333333  1
  Rb  Rb104  1  1.00000000  0.32797771  0.66666667  1
  Rb  Rb105  1  1.00000000  0.82797771  0.00000000  1
  Rb  Rb106  1  1.00000000  0.82797771  0.33333333  1
  Rb  Rb107  1  1.00000000  0.82797771  0.66666667  1
  Rb  Rb108  1  0.16666667  -0.07797771  0.00000000  1
  Rb  Rb109  1  0.16666667  -0.07797771  0.33333333  1
  Rb  Rb110  1  0.16666667  -0.07797771  0.66666667  1
  Rb  Rb111  1  0.16666667  0.42202229  0.00000000  1
  Rb  Rb112  1  0.16666667  0.42202229  0.33333333  1
  Rb  Rb113  1  0.16666667  0.42202229  0.66666667  1
  Rb  Rb114  1  0.50000000  -0.07797771  0.00000000  1
  Rb  Rb115  1  0.50000000  -0.07797771  0.33333333  1
  Rb  Rb116  1  0.50000000  -0.07797771  0.66666667  1
  Rb  Rb117  1  0.50000000  0.42202229  0.00000000  1
  Rb  Rb118  1  0.50000000  0.42202229  0.33333333  1
  Rb  Rb119  1  0.50000000  0.42202229  0.66666667  1
  Rb  Rb120  1  0.83333333  -0.07797771  0.00000000  1
  Rb  Rb121  1  0.83333333  -0.07797771  0.33333333  1
  Rb  Rb122  1  0.83333333  -0.07797771  0.66666667  1
  Rb  Rb123  1  0.83333333  0.42202229  0.00000000  1
  Rb  Rb124  1  0.83333333  0.42202229  0.33333333  1
  Rb  Rb125  1  0.83333333  0.42202229  0.66666667  1
  Rb  Rb126  1  0.33333333  0.17202229  0.00000000  1
  Rb  Rb127  1  0.33333333  0.17202229  0.33333333  1
  Rb  Rb128  1  0.33333333  0.17202229  0.66666667  1
  Rb  Rb129  1  0.33333333  0.67202229  0.00000000  1
  Rb  Rb130  1  0.33333333  0.67202229  0.33333333  1
  Rb  Rb131  1  0.33333333  0.67202229  0.66666667  1
  Rb  Rb132  1  0.66666667  0.17202229  0.00000000  1
  Rb  Rb133  1  0.66666667  0.17202229  0.33333333  1
  Rb  Rb134  1  0.66666667  0.17202229  0.66666667  1
  Rb  Rb135  1  0.66666667  0.67202229  0.00000000  1
  Rb  Rb136  1  0.66666667  0.67202229  0.33333333  1
  Rb  Rb137  1  0.66666667  0.67202229  0.66666667  1
  Rb  Rb138  1  1.00000000  0.17202229  0.00000000  1
  Rb  Rb139  1  1.00000000  0.17202229  0.33333333  1
  Rb  Rb140  1  1.00000000  0.17202229  0.66666667  1
  Rb  Rb141  1  1.00000000  0.67202229  0.00000000  1
  Rb  Rb142  1  1.00000000  0.67202229  0.33333333  1
  Rb  Rb143  1  1.00000000  0.67202229  0.66666667  1
  Ce  Ce144  1  0.16666667  -0.16641839  0.16666667  1
  Ce  Ce145  1  0.16666667  -0.16641839  0.50000000  1
  Ce  Ce146  1  0.16666667  -0.16641839  0.83333333  1
  Ce  Ce147  1  0.16666667  0.33358161  0.16666667  1
  Ce  Ce148  1  0.16666667  0.33358161  0.50000000  1
  Ce  Ce149  1  0.16666667  0.33358161  0.83333333  1
  Ce  Ce150  1  0.50000000  -0.16641839  0.16666667  1
  Ce  Ce151  1  0.50000000  -0.16641839  0.50000000  1
  Ce  Ce152  1  0.50000000  -0.16641839  0.83333333  1
  Ce  Ce153  1  0.50000000  0.33358161  0.16666667  1
  Ce  Ce154  1  0.50000000  0.33358161  0.50000000  1
  Ce  Ce155  1  0.50000000  0.33358161  0.83333333  1
  Ce  Ce156  1  0.83333333  -0.16641839  0.16666667  1
  Ce  Ce157  1  0.83333333  -0.16641839  0.50000000  1
  Ce  Ce158  1  0.83333333  -0.16641839  0.83333333  1
  Ce  Ce159  1  0.83333333  0.33358161  0.16666667  1
  Ce  Ce160  1  0.83333333  0.33358161  0.50000000  1
  Ce  Ce161  1  0.83333333  0.33358161  0.83333333  1
  Ce  Ce162  1  0.33333333  0.08358161  0.16666667  1
  Ce  Ce163  1  0.33333333  0.08358161  0.50000000  1
  Ce  Ce164  1  0.33333333  0.08358161  0.83333333  1
  Ce  Ce165  1  0.33333333  0.58358161  0.16666667  1
  Ce  Ce166  1  0.33333333  0.58358161  0.50000000  1
  Ce  Ce167  1  0.33333333  0.58358161  0.83333333  1
  Ce  Ce168  1  0.66666667  0.08358161  0.16666667  1
  Ce  Ce169  1  0.66666667  0.08358161  0.50000000  1
  Ce  Ce170  1  0.66666667  0.08358161  0.83333333  1
  Ce  Ce171  1  0.66666667  0.58358161  0.16666667  1
  Ce  Ce172  1  0.66666667  0.58358161  0.50000000  1
  Ce  Ce173  1  0.66666667  0.58358161  0.83333333  1
  Ce  Ce174  1  1.00000000  0.08358161  0.16666667  1
  Ce  Ce175  1  1.00000000  0.08358161  0.50000000  1
  Ce  Ce176  1  1.00000000  0.08358161  0.83333333  1
  Ce  Ce177  1  1.00000000  0.58358161  0.16666667  1
  Ce  Ce178  1  1.00000000  0.58358161  0.50000000  1
  Ce  Ce179  1  1.00000000  0.58358161  0.83333333  1
  Ce  Ce180  1  0.16666667  0.16641839  0.16666667  1
  Ce  Ce181  1  0.16666667  0.16641839  0.50000000  1
  Ce  Ce182  1  0.16666667  0.16641839  0.83333333  1
  Ce  Ce183  1  0.16666667  0.66641839  0.16666667  1
  Ce  Ce184  1  0.16666667  0.66641839  0.50000000  1
  Ce  Ce185  1  0.16666667  0.66641839  0.83333333  1
  Ce  Ce186  1  0.50000000  0.16641839  0.16666667  1
  Ce  Ce187  1  0.50000000  0.16641839  0.50000000  1
  Ce  Ce188  1  0.50000000  0.16641839  0.83333333  1
  Ce  Ce189  1  0.50000000  0.66641839  0.16666667  1
  Ce  Ce190  1  0.50000000  0.66641839  0.50000000  1
  Ce  Ce191  1  0.50000000  0.66641839  0.83333333  1
  Ce  Ce192  1  0.83333333  0.16641839  0.16666667  1
  Ce  Ce193  1  0.83333333  0.16641839  0.50000000  1
  Ce  Ce194  1  0.83333333  0.16641839  0.83333333  1
  Ce  Ce195  1  0.83333333  0.66641839  0.16666667  1
  Ce  Ce196  1  0.83333333  0.66641839  0.50000000  1
  Ce  Ce197  1  0.83333333  0.66641839  0.83333333  1
  Ce  Ce198  1  0.33333333  0.41641839  0.16666667  1
  Ce  Ce199  1  0.33333333  0.41641839  0.50000000  1
  Ce  Ce200  1  0.33333333  0.41641839  0.83333333  1
  Ce  Ce201  1  0.33333333  0.91641839  0.16666667  1
  Ce  Ce202  1  0.33333333  0.91641839  0.50000000  1
  Ce  Ce203  1  0.33333333  0.91641839  0.83333333  1
  Ce  Ce204  1  0.66666667  0.41641839  0.16666667  1
  Ce  Ce205  1  0.66666667  0.41641839  0.50000000  1
  Ce  Ce206  1  0.66666667  0.41641839  0.83333333  1
  Ce  Ce207  1  0.66666667  0.91641839  0.16666667  1
  Ce  Ce208  1  0.66666667  0.91641839  0.50000000  1
  Ce  Ce209  1  0.66666667  0.91641839  0.83333333  1
  Ce  Ce210  1  1.00000000  0.41641839  0.16666667  1
  Ce  Ce211  1  1.00000000  0.41641839  0.50000000  1
  Ce  Ce212  1  1.00000000  0.41641839  0.83333333  1
  Ce  Ce213  1  1.00000000  0.91641839  0.16666667  1
  Ce  Ce214  1  1.00000000  0.91641839  0.50000000  1
  Ce  Ce215  1  1.00000000  0.91641839  0.83333333  1
  O  O216  1  0.05629961  -0.00000000  0.22868282  1
  O  O217  1  0.05629961  -0.00000000  0.56201615  1
  O  O218  1  0.05629961  -0.00000000  0.89534949  1
  O  O219  1  0.05629961  0.50000000  0.22868282  1
  O  O220  1  0.05629961  0.50000000  0.56201615  1
  O  O221  1  0.05629961  0.50000000  0.89534949  1
  O  O222  1  0.38963294  -0.00000000  0.22868282  1
  O  O223  1  0.38963294  -0.00000000  0.56201615  1
  O  O224  1  0.38963294  -0.00000000  0.89534949  1
  O  O225  1  0.38963294  0.50000000  0.22868282  1
  O  O226  1  0.38963294  0.50000000  0.56201615  1
  O  O227  1  0.38963294  0.50000000  0.89534949  1
  O  O228  1  0.72296627  -0.00000000  0.22868282  1
  O  O229  1  0.72296627  -0.00000000  0.56201615  1
  O  O230  1  0.72296627  -0.00000000  0.89534949  1
  O  O231  1  0.72296627  0.50000000  0.22868282  1
  O  O232  1  0.72296627  0.50000000  0.56201615  1
  O  O233  1  0.72296627  0.50000000  0.89534949  1
  O  O234  1  0.22296627  0.25000000  0.22868282  1
  O  O235  1  0.22296627  0.25000000  0.56201615  1
  O  O236  1  0.22296627  0.25000000  0.89534949  1
  O  O237  1  0.22296627  0.75000000  0.22868282  1
  O  O238  1  0.22296627  0.75000000  0.56201615  1
  O  O239  1  0.22296627  0.75000000  0.89534949  1
  O  O240  1  0.55629961  0.25000000  0.22868282  1
  O  O241  1  0.55629961  0.25000000  0.56201615  1
  O  O242  1  0.55629961  0.25000000  0.89534949  1
  O  O243  1  0.55629961  0.75000000  0.22868282  1
  O  O244  1  0.55629961  0.75000000  0.56201615  1
  O  O245  1  0.55629961  0.75000000  0.89534949  1
  O  O246  1  0.88963294  0.25000000  0.22868282  1
  O  O247  1  0.88963294  0.25000000  0.56201615  1
  O  O248  1  0.88963294  0.25000000  0.89534949  1
  O  O249  1  0.88963294  0.75000000  0.22868282  1
  O  O250  1  0.88963294  0.75000000  0.56201615  1
  O  O251  1  0.88963294  0.75000000  0.89534949  1
  O  O252  1  0.25464518  0.09920788  0.22977770  1
  O  O253  1  0.25464518  0.09920788  0.56311103  1
  O  O254  1  0.25464518  0.09920788  0.89644436  1
  O  O255  1  0.25464518  0.59920788  0.22977770  1
  O  O256  1  0.25464518  0.59920788  0.56311103  1
  O  O257  1  0.25464518  0.59920788  0.89644436  1
  O  O258  1  0.58797851  0.09920788  0.22977770  1
  O  O259  1  0.58797851  0.09920788  0.56311103  1
  O  O260  1  0.58797851  0.09920788  0.89644436  1
  O  O261  1  0.58797851  0.59920788  0.22977770  1
  O  O262  1  0.58797851  0.59920788  0.56311103  1
  O  O263  1  0.58797851  0.59920788  0.89644436  1
  O  O264  1  0.92131184  0.09920788  0.22977770  1
  O  O265  1  0.92131184  0.09920788  0.56311103  1
  O  O266  1  0.92131184  0.09920788  0.89644436  1
  O  O267  1  0.92131184  0.59920788  0.22977770  1
  O  O268  1  0.92131184  0.59920788  0.56311103  1
  O  O269  1  0.92131184  0.59920788  0.89644436  1
  O  O270  1  0.42131184  0.34920788  0.22977770  1
  O  O271  1  0.42131184  0.34920788  0.56311103  1
  O  O272  1  0.42131184  0.34920788  0.89644436  1
  O  O273  1  0.42131184  0.84920788  0.22977770  1
  O  O274  1  0.42131184  0.84920788  0.56311103  1
  O  O275  1  0.42131184  0.84920788  0.89644436  1
  O  O276  1  0.75464518  0.34920788  0.22977770  1
  O  O277  1  0.75464518  0.34920788  0.56311103  1
  O  O278  1  0.75464518  0.34920788  0.89644436  1
  O  O279  1  0.75464518  0.84920788  0.22977770  1
  O  O280  1  0.75464518  0.84920788  0.56311103  1
  O  O281  1  0.75464518  0.84920788  0.89644436  1
  O  O282  1  1.08797851  0.34920788  0.22977770  1
  O  O283  1  1.08797851  0.34920788  0.56311103  1
  O  O284  1  1.08797851  0.34920788  0.89644436  1
  O  O285  1  1.08797851  0.84920788  0.22977770  1
  O  O286  1  1.08797851  0.84920788  0.56311103  1
  O  O287  1  1.08797851  0.84920788  0.89644436  1
  O  O288  1  0.25464518  -0.09920788  0.22977770  1
  O  O289  1  0.25464518  -0.09920788  0.56311103  1
  O  O290  1  0.25464518  -0.09920788  0.89644436  1
  O  O291  1  0.25464518  0.40079212  0.22977770  1
  O  O292  1  0.25464518  0.40079212  0.56311103  1
  O  O293  1  0.25464518  0.40079212  0.89644436  1
  O  O294  1  0.58797851  -0.09920788  0.22977770  1
  O  O295  1  0.58797851  -0.09920788  0.56311103  1
  O  O296  1  0.58797851  -0.09920788  0.89644436  1
  O  O297  1  0.58797851  0.40079212  0.22977770  1
  O  O298  1  0.58797851  0.40079212  0.56311103  1
  O  O299  1  0.58797851  0.40079212  0.89644436  1
  O  O300  1  0.92131184  -0.09920788  0.22977770  1
  O  O301  1  0.92131184  -0.09920788  0.56311103  1
  O  O302  1  0.92131184  -0.09920788  0.89644436  1
  O  O303  1  0.92131184  0.40079212  0.22977770  1
  O  O304  1  0.92131184  0.40079212  0.56311103  1
  O  O305  1  0.92131184  0.40079212  0.89644436  1
  O  O306  1  0.42131184  0.15079212  0.22977770  1
  O  O307  1  0.42131184  0.15079212  0.56311103  1
  O  O308  1  0.42131184  0.15079212  0.89644436  1
  O  O309  1  0.42131184  0.65079212  0.22977770  1
  O  O310  1  0.42131184  0.65079212  0.56311103  1
  O  O311  1  0.42131184  0.65079212  0.89644436  1
  O  O312  1  0.75464518  0.15079212  0.22977770  1
  O  O313  1  0.75464518  0.15079212  0.56311103  1
  O  O314  1  0.75464518  0.15079212  0.89644436  1
  O  O315  1  0.75464518  0.65079212  0.22977770  1
  O  O316  1  0.75464518  0.65079212  0.56311103  1
  O  O317  1  0.75464518  0.65079212  0.89644436  1
  O  O318  1  1.08797851  0.15079212  0.22977770  1
  O  O319  1  1.08797851  0.15079212  0.56311103  1
  O  O320  1  1.08797851  0.15079212  0.89644436  1
  O  O321  1  1.08797851  0.65079212  0.22977770  1
  O  O322  1  1.08797851  0.65079212  0.56311103  1
  O  O323  1  1.08797851  0.65079212  0.89644436  1
  O  O324  1  0.07868816  0.09920788  0.10355564  1
  O  O325  1  0.07868816  0.09920788  0.43688897  1
  O  O326  1  0.07868816  0.09920788  0.77022230  1
  O  O327  1  0.07868816  0.59920788  0.10355564  1
  O  O328  1  0.07868816  0.59920788  0.43688897  1
  O  O329  1  0.07868816  0.59920788  0.77022230  1
  O  O330  1  0.41202149  0.09920788  0.10355564  1
  O  O331  1  0.41202149  0.09920788  0.43688897  1
  O  O332  1  0.41202149  0.09920788  0.77022230  1
  O  O333  1  0.41202149  0.59920788  0.10355564  1
  O  O334  1  0.41202149  0.59920788  0.43688897  1
  O  O335  1  0.41202149  0.59920788  0.77022230  1
  O  O336  1  0.74535482  0.09920788  0.10355564  1
  O  O337  1  0.74535482  0.09920788  0.43688897  1
  O  O338  1  0.74535482  0.09920788  0.77022230  1
  O  O339  1  0.74535482  0.59920788  0.10355564  1
  O  O340  1  0.74535482  0.59920788  0.43688897  1
  O  O341  1  0.74535482  0.59920788  0.77022230  1
  O  O342  1  0.24535482  0.34920788  0.10355564  1
  O  O343  1  0.24535482  0.34920788  0.43688897  1
  O  O344  1  0.24535482  0.34920788  0.77022230  1
  O  O345  1  0.24535482  0.84920788  0.10355564  1
  O  O346  1  0.24535482  0.84920788  0.43688897  1
  O  O347  1  0.24535482  0.84920788  0.77022230  1
  O  O348  1  0.57868816  0.34920788  0.10355564  1
  O  O349  1  0.57868816  0.34920788  0.43688897  1
  O  O350  1  0.57868816  0.34920788  0.77022230  1
  O  O351  1  0.57868816  0.84920788  0.10355564  1
  O  O352  1  0.57868816  0.84920788  0.43688897  1
  O  O353  1  0.57868816  0.84920788  0.77022230  1
  O  O354  1  0.91202149  0.34920788  0.10355564  1
  O  O355  1  0.91202149  0.34920788  0.43688897  1
  O  O356  1  0.91202149  0.34920788  0.77022230  1
  O  O357  1  0.91202149  0.84920788  0.10355564  1
  O  O358  1  0.91202149  0.84920788  0.43688897  1
  O  O359  1  0.91202149  0.84920788  0.77022230  1
  O  O360  1  0.07868816  -0.09920788  0.10355564  1
  O  O361  1  0.07868816  -0.09920788  0.43688897  1
  O  O362  1  0.07868816  -0.09920788  0.77022230  1
  O  O363  1  0.07868816  0.40079212  0.10355564  1
  O  O364  1  0.07868816  0.40079212  0.43688897  1
  O  O365  1  0.07868816  0.40079212  0.77022230  1
  O  O366  1  0.41202149  -0.09920788  0.10355564  1
  O  O367  1  0.41202149  -0.09920788  0.43688897  1
  O  O368  1  0.41202149  -0.09920788  0.77022230  1
  O  O369  1  0.41202149  0.40079212  0.10355564  1
  O  O370  1  0.41202149  0.40079212  0.43688897  1
  O  O371  1  0.41202149  0.40079212  0.77022230  1
  O  O372  1  0.74535482  -0.09920788  0.10355564  1
  O  O373  1  0.74535482  -0.09920788  0.43688897  1
  O  O374  1  0.74535482  -0.09920788  0.77022230  1
  O  O375  1  0.74535482  0.40079212  0.10355564  1
  O  O376  1  0.74535482  0.40079212  0.43688897  1
  O  O377  1  0.74535482  0.40079212  0.77022230  1
  O  O378  1  0.24535482  0.15079212  0.10355564  1
  O  O379  1  0.24535482  0.15079212  0.43688897  1
  O  O380  1  0.24535482  0.15079212  0.77022230  1
  O  O381  1  0.24535482  0.65079212  0.10355564  1
  O  O382  1  0.24535482  0.65079212  0.43688897  1
  O  O383  1  0.24535482  0.65079212  0.77022230  1
  O  O384  1  0.57868816  0.15079212  0.10355564  1
  O  O385  1  0.57868816  0.15079212  0.43688897  1
  O  O386  1  0.57868816  0.15079212  0.77022230  1
  O  O387  1  0.57868816  0.65079212  0.10355564  1
  O  O388  1  0.57868816  0.65079212  0.43688897  1
  O  O389  1  0.57868816  0.65079212  0.77022230  1
  O  O390  1  0.91202149  0.15079212  0.10355564  1
  O  O391  1  0.91202149  0.15079212  0.43688897  1
  O  O392  1  0.91202149  0.15079212  0.77022230  1
  O  O393  1  0.91202149  0.65079212  0.10355564  1
  O  O394  1  0.91202149  0.65079212  0.43688897  1
  O  O395  1  0.91202149  0.65079212  0.77022230  1
  O  O396  1  0.27703373  -0.00000000  0.10465051  1
  O  O397  1  0.27703373  -0.00000000  0.43798385  1
  O  O398  1  0.27703373  -0.00000000  0.77131718  1
  O  O399  1  0.27703373  0.50000000  0.10465051  1
  O  O400  1  0.27703373  0.50000000  0.43798385  1
  O  O401  1  0.27703373  0.50000000  0.77131718  1
  O  O402  1  0.61036706  -0.00000000  0.10465051  1
  O  O403  1  0.61036706  -0.00000000  0.43798385  1
  O  O404  1  0.61036706  -0.00000000  0.77131718  1
  O  O405  1  0.61036706  0.50000000  0.10465051  1
  O  O406  1  0.61036706  0.50000000  0.43798385  1
  O  O407  1  0.61036706  0.50000000  0.77131718  1
  O  O408  1  0.94370039  -0.00000000  0.10465051  1
  O  O409  1  0.94370039  -0.00000000  0.43798385  1
  O  O410  1  0.94370039  -0.00000000  0.77131718  1
  O  O411  1  0.94370039  0.50000000  0.10465051  1
  O  O412  1  0.94370039  0.50000000  0.43798385  1
  O  O413  1  0.94370039  0.50000000  0.77131718  1
  O  O414  1  0.44370039  0.25000000  0.10465051  1
  O  O415  1  0.44370039  0.25000000  0.43798385  1
  O  O416  1  0.44370039  0.25000000  0.77131718  1
  O  O417  1  0.44370039  0.75000000  0.10465051  1
  O  O418  1  0.44370039  0.75000000  0.43798385  1
  O  O419  1  0.44370039  0.75000000  0.77131718  1
  O  O420  1  0.77703373  0.25000000  0.10465051  1
  O  O421  1  0.77703373  0.25000000  0.43798385  1
  O  O422  1  0.77703373  0.25000000  0.77131718  1
  O  O423  1  0.77703373  0.75000000  0.10465051  1
  O  O424  1  0.77703373  0.75000000  0.43798385  1
  O  O425  1  0.77703373  0.75000000  0.77131718  1
  O  O426  1  1.11036706  0.25000000  0.10465051  1
  O  O427  1  1.11036706  0.25000000  0.43798385  1
  O  O428  1  1.11036706  0.25000000  0.77131718  1
  O  O429  1  1.11036706  0.75000000  0.10465051  1
  O  O430  1  1.11036706  0.75000000  0.43798385  1
  O  O431  1  1.11036706  0.75000000  0.77131718  1
