# generated using pymatgen
data_SrMoO4
_symmetry_space_group_name_H-M   'P 1'
_cell_length_a   10.80242475
_cell_length_b   10.80242475
_cell_length_c   11.94694779
_cell_angle_alpha   90.00000000
_cell_angle_beta   90.00000000
_cell_angle_gamma   90.00000000
_symmetry_Int_Tables_number   1
_chemical_formula_structural   SrMoO4
_chemical_formula_sum   'Sr16 Mo16 O64'
_cell_volume   1394.11777703
_cell_formula_units_Z   16
loop_
 _symmetry_equiv_pos_site_id
 _symmetry_equiv_pos_as_xyz
  1  'x, y, z'
loop_
 _atom_site_type_symbol
 _atom_site_label
 _atom_site_symmetry_multiplicity
 _atom_site_fract_x
 _atom_site_fract_y
 _atom_site_fract_z
 _atom_site_occupancy
  Sr  Sr0  1  0.00000000  0.50000000  0.50000000  1
  Sr  Sr1  1  0.50000000  0.50000000  0.50000000  1
  Sr  Sr2  1  0.00000000  0.00000000  0.50000000  1
  Sr  Sr3  1  0.50000000  0.00000000  0.50000000  1
  Sr  Sr4  1  0.25000000  0.25000000  1.00000000  1
  Sr  Sr5  1  0.75000000  0.25000000  1.00000000  1
  Sr  Sr6  1  0.25000000  -0.25000000  1.00000000  1
  Sr  Sr7  1  0.75000000  -0.25000000  1.00000000  1
  Sr  Sr8  1  0.00000000  0.25000000  0.25000000  1
  Sr  Sr9  1  0.50000000  0.25000000  0.25000000  1
  Sr  Sr10  1  0.00000000  -0.25000000  0.25000000  1
  Sr  Sr11  1  0.50000000  -0.25000000  0.25000000  1
  Sr  Sr12  1  0.25000000  0.00000000  0.75000000  1
  Sr  Sr13  1  0.75000000  0.00000000  0.75000000  1
  Sr  Sr14  1  0.25000000  -0.50000000  0.75000000  1
  Sr  Sr15  1  0.75000000  -0.50000000  0.75000000  1
  Mo  Mo16  1  0.00000000  0.50000000  0.00000000  1
  Mo  Mo17  1  0.50000000  0.50000000  0.00000000  1
  Mo  Mo18  1  0.00000000  0.00000000  0.00000000  1
  Mo  Mo19  1  0.50000000  0.00000000  0.00000000  1
  Mo  Mo20  1  0.25000000  0.25000000  0.50000000  1
  Mo  Mo21  1  0.75000000  0.25000000  0.50000000  1
  Mo  Mo22  1  0.25000000  -0.25000000  0.50000000  1
  Mo  Mo23  1  0.75000000  -0.25000000  0.50000000  1
  Mo  Mo24  1  0.25000000  0.50000000  0.25000000  1
  Mo  Mo25  1  0.75000000  0.50000000  0.25000000  1
  Mo  Mo26  1  0.25000000  0.00000000  0.25000000  1
  Mo  Mo27  1  0.75000000  0.00000000  0.25000000  1
  Mo  Mo28  1  0.50000000  0.25000000  0.75000000  1
  Mo  Mo29  1  1.00000000  0.25000000  0.75000000  1
  Mo  Mo30  1  0.50000000  -0.25000000  0.75000000  1
  Mo  Mo31  1  1.00000000  -0.25000000  0.75000000  1
  O  O32  1  -0.07062933  0.36916729  0.66711426  1
  O  O33  1  0.42937067  0.36916729  0.66711426  1
  O  O34  1  -0.07062933  -0.13083271  0.66711426  1
  O  O35  1  0.42937067  -0.13083271  0.66711426  1
  O  O36  1  0.17937067  0.11916729  1.16711426  1
  O  O37  1  0.67937067  0.11916729  1.16711426  1
  O  O38  1  0.17937067  -0.38083271  1.16711426  1
  O  O39  1  0.67937067  -0.38083271  1.16711426  1
  O  O40  1  0.17937067  0.36916729  0.58288574  1
  O  O41  1  0.67937067  0.36916729  0.58288574  1
  O  O42  1  0.17937067  -0.13083271  0.58288574  1
  O  O43  1  0.67937067  -0.13083271  0.58288574  1
  O  O44  1  0.42937067  0.11916729  1.08288574  1
  O  O45  1  0.92937067  0.11916729  1.08288574  1
  O  O46  1  0.42937067  -0.38083271  1.08288574  1
  O  O47  1  0.92937067  -0.38083271  1.08288574  1
  O  O48  1  0.13083271  0.42937067  0.33288574  1
  O  O49  1  0.63083271  0.42937067  0.33288574  1
  O  O50  1  0.13083271  -0.07062933  0.33288574  1
  O  O51  1  0.63083271  -0.07062933  0.33288574  1
  O  O52  1  0.38083271  0.17937067  0.83288574  1
  O  O53  1  0.88083271  0.17937067  0.83288574  1
  O  O54  1  0.38083271  -0.32062933  0.83288574  1
  O  O55  1  0.88083271  -0.32062933  0.83288574  1
  O  O56  1  0.11916729  0.32062933  -0.16711426  1
  O  O57  1  0.61916729  0.32062933  -0.16711426  1
  O  O58  1  0.11916729  -0.17937067  -0.16711426  1
  O  O59  1  0.61916729  -0.17937067  -0.16711426  1
  O  O60  1  0.36916729  0.07062933  0.33288574  1
  O  O61  1  0.86916729  0.07062933  0.33288574  1
  O  O62  1  0.36916729  -0.42937067  0.33288574  1
  O  O63  1  0.86916729  -0.42937067  0.33288574  1
  O  O64  1  0.38083271  0.42937067  -0.08288574  1
  O  O65  1  0.88083271  0.42937067  -0.08288574  1
  O  O66  1  0.38083271  -0.07062933  -0.08288574  1
  O  O67  1  0.88083271  -0.07062933  -0.08288574  1
  O  O68  1  0.63083271  0.17937067  0.41711426  1
  O  O69  1  1.13083271  0.17937067  0.41711426  1
  O  O70  1  0.63083271  -0.32062933  0.41711426  1
  O  O71  1  1.13083271  -0.32062933  0.41711426  1
  O  O72  1  0.07062933  0.38083271  0.08288574  1
  O  O73  1  0.57062933  0.38083271  0.08288574  1
  O  O74  1  0.07062933  -0.11916729  0.08288574  1
  O  O75  1  0.57062933  -0.11916729  0.08288574  1
  O  O76  1  0.32062933  0.13083271  0.58288574  1
  O  O77  1  0.82062933  0.13083271  0.58288574  1
  O  O78  1  0.32062933  -0.36916729  0.58288574  1
  O  O79  1  0.82062933  -0.36916729  0.58288574  1
  O  O80  1  0.32062933  0.38083271  0.16711426  1
  O  O81  1  0.82062933  0.38083271  0.16711426  1
  O  O82  1  0.32062933  -0.11916729  0.16711426  1
  O  O83  1  0.82062933  -0.11916729  0.16711426  1
  O  O84  1  0.57062933  0.13083271  0.66711426  1
  O  O85  1  1.07062933  0.13083271  0.66711426  1
  O  O86  1  0.57062933  -0.36916729  0.66711426  1
  O  O87  1  1.07062933  -0.36916729  0.66711426  1
  O  O88  1  -0.13083271  0.32062933  0.41711426  1
  O  O89  1  0.36916729  0.32062933  0.41711426  1
  O  O90  1  -0.13083271  -0.17937067  0.41711426  1
  O  O91  1  0.36916729  -0.17937067  0.41711426  1
  O  O92  1  0.11916729  0.07062933  0.91711426  1
  O  O93  1  0.61916729  0.07062933  0.91711426  1
  O  O94  1  0.11916729  -0.42937067  0.91711426  1
  O  O95  1  0.61916729  -0.42937067  0.91711426  1
