# generated using pymatgen
data_CsSbO2
_symmetry_space_group_name_H-M   'P 1'
_cell_length_a   24.24704294
_cell_length_b   19.63595098
_cell_length_c   22.34118785
_cell_angle_alpha   90.00000000
_cell_angle_beta   122.26173285
_cell_angle_gamma   90.00000000
_symmetry_Int_Tables_number   1
_chemical_formula_structural   CsSbO2
_chemical_formula_sum   'Cs96 Sb96 O192'
_cell_volume   8994.79921101
_cell_formula_units_Z   96
loop_
 _symmetry_equiv_pos_site_id
 _symmetry_equiv_pos_as_xyz
  1  'x, y, z'
loop_
 _atom_site_type_symbol
 _atom_site_label
 _atom_site_symmetry_multiplicity
 _atom_site_fract_x
 _atom_site_fract_y
 _atom_site_fract_z
 _atom_site_occupancy
  Cs  Cs0  1  0.16666667  0.07437330  0.18750000  1
  Cs  Cs1  1  0.16666667  0.07437330  0.43750000  1
  Cs  Cs2  1  0.16666667  0.07437330  0.68750000  1
  Cs  Cs3  1  0.16666667  0.07437330  0.93750000  1
  Cs  Cs4  1  0.16666667  0.57437330  0.18750000  1
  Cs  Cs5  1  0.16666667  0.57437330  0.43750000  1
  Cs  Cs6  1  0.16666667  0.57437330  0.68750000  1
  Cs  Cs7  1  0.16666667  0.57437330  0.93750000  1
  Cs  Cs8  1  0.50000000  0.07437330  0.18750000  1
  Cs  Cs9  1  0.50000000  0.07437330  0.43750000  1
  Cs  Cs10  1  0.50000000  0.07437330  0.68750000  1
  Cs  Cs11  1  0.50000000  0.07437330  0.93750000  1
  Cs  Cs12  1  0.50000000  0.57437330  0.18750000  1
  Cs  Cs13  1  0.50000000  0.57437330  0.43750000  1
  Cs  Cs14  1  0.50000000  0.57437330  0.68750000  1
  Cs  Cs15  1  0.50000000  0.57437330  0.93750000  1
  Cs  Cs16  1  0.83333333  0.07437330  0.18750000  1
  Cs  Cs17  1  0.83333333  0.07437330  0.43750000  1
  Cs  Cs18  1  0.83333333  0.07437330  0.68750000  1
  Cs  Cs19  1  0.83333333  0.07437330  0.93750000  1
  Cs  Cs20  1  0.83333333  0.57437330  0.18750000  1
  Cs  Cs21  1  0.83333333  0.57437330  0.43750000  1
  Cs  Cs22  1  0.83333333  0.57437330  0.68750000  1
  Cs  Cs23  1  0.83333333  0.57437330  0.93750000  1
  Cs  Cs24  1  0.33333333  0.32437330  0.18750000  1
  Cs  Cs25  1  0.33333333  0.32437330  0.43750000  1
  Cs  Cs26  1  0.33333333  0.32437330  0.68750000  1
  Cs  Cs27  1  0.33333333  0.32437330  0.93750000  1
  Cs  Cs28  1  0.33333333  0.82437330  0.18750000  1
  Cs  Cs29  1  0.33333333  0.82437330  0.43750000  1
  Cs  Cs30  1  0.33333333  0.82437330  0.68750000  1
  Cs  Cs31  1  0.33333333  0.82437330  0.93750000  1
  Cs  Cs32  1  0.66666667  0.32437330  0.18750000  1
  Cs  Cs33  1  0.66666667  0.32437330  0.43750000  1
  Cs  Cs34  1  0.66666667  0.32437330  0.68750000  1
  Cs  Cs35  1  0.66666667  0.32437330  0.93750000  1
  Cs  Cs36  1  0.66666667  0.82437330  0.18750000  1
  Cs  Cs37  1  0.66666667  0.82437330  0.43750000  1
  Cs  Cs38  1  0.66666667  0.82437330  0.68750000  1
  Cs  Cs39  1  0.66666667  0.82437330  0.93750000  1
  Cs  Cs40  1  1.00000000  0.32437330  0.18750000  1
  Cs  Cs41  1  1.00000000  0.32437330  0.43750000  1
  Cs  Cs42  1  1.00000000  0.32437330  0.68750000  1
  Cs  Cs43  1  1.00000000  0.32437330  0.93750000  1
  Cs  Cs44  1  1.00000000  0.82437330  0.18750000  1
  Cs  Cs45  1  1.00000000  0.82437330  0.43750000  1
  Cs  Cs46  1  1.00000000  0.82437330  0.68750000  1
  Cs  Cs47  1  1.00000000  0.82437330  0.93750000  1
  Cs  Cs48  1  0.16666667  -0.07437330  0.06250000  1
  Cs  Cs49  1  0.16666667  -0.07437330  0.31250000  1
  Cs  Cs50  1  0.16666667  -0.07437330  0.56250000  1
  Cs  Cs51  1  0.16666667  -0.07437330  0.81250000  1
  Cs  Cs52  1  0.16666667  0.42562670  0.06250000  1
  Cs  Cs53  1  0.16666667  0.42562670  0.31250000  1
  Cs  Cs54  1  0.16666667  0.42562670  0.56250000  1
  Cs  Cs55  1  0.16666667  0.42562670  0.81250000  1
  Cs  Cs56  1  0.50000000  -0.07437330  0.06250000  1
  Cs  Cs57  1  0.50000000  -0.07437330  0.31250000  1
  Cs  Cs58  1  0.50000000  -0.07437330  0.56250000  1
  Cs  Cs59  1  0.50000000  -0.07437330  0.81250000  1
  Cs  Cs60  1  0.50000000  0.42562670  0.06250000  1
  Cs  Cs61  1  0.50000000  0.42562670  0.31250000  1
  Cs  Cs62  1  0.50000000  0.42562670  0.56250000  1
  Cs  Cs63  1  0.50000000  0.42562670  0.81250000  1
  Cs  Cs64  1  0.83333333  -0.07437330  0.06250000  1
  Cs  Cs65  1  0.83333333  -0.07437330  0.31250000  1
  Cs  Cs66  1  0.83333333  -0.07437330  0.56250000  1
  Cs  Cs67  1  0.83333333  -0.07437330  0.81250000  1
  Cs  Cs68  1  0.83333333  0.42562670  0.06250000  1
  Cs  Cs69  1  0.83333333  0.42562670  0.31250000  1
  Cs  Cs70  1  0.83333333  0.42562670  0.56250000  1
  Cs  Cs71  1  0.83333333  0.42562670  0.81250000  1
  Cs  Cs72  1  0.33333333  0.17562670  0.06250000  1
  Cs  Cs73  1  0.33333333  0.17562670  0.31250000  1
  Cs  Cs74  1  0.33333333  0.17562670  0.56250000  1
  Cs  Cs75  1  0.33333333  0.17562670  0.81250000  1
  Cs  Cs76  1  0.33333333  0.67562670  0.06250000  1
  Cs  Cs77  1  0.33333333  0.67562670  0.31250000  1
  Cs  Cs78  1  0.33333333  0.67562670  0.56250000  1
  Cs  Cs79  1  0.33333333  0.67562670  0.81250000  1
  Cs  Cs80  1  0.66666667  0.17562670  0.06250000  1
  Cs  Cs81  1  0.66666667  0.17562670  0.31250000  1
  Cs  Cs82  1  0.66666667  0.17562670  0.56250000  1
  Cs  Cs83  1  0.66666667  0.17562670  0.81250000  1
  Cs  Cs84  1  0.66666667  0.67562670  0.06250000  1
  Cs  Cs85  1  0.66666667  0.67562670  0.31250000  1
  Cs  Cs86  1  0.66666667  0.67562670  0.56250000  1
  Cs  Cs87  1  0.66666667  0.67562670  0.81250000  1
  Cs  Cs88  1  1.00000000  0.17562670  0.06250000  1
  Cs  Cs89  1  1.00000000  0.17562670  0.31250000  1
  Cs  Cs90  1  1.00000000  0.17562670  0.56250000  1
  Cs  Cs91  1  1.00000000  0.17562670  0.81250000  1
  Cs  Cs92  1  1.00000000  0.67562670  0.06250000  1
  Cs  Cs93  1  1.00000000  0.67562670  0.31250000  1
  Cs  Cs94  1  1.00000000  0.67562670  0.56250000  1
  Cs  Cs95  1  1.00000000  0.67562670  0.81250000  1
  Sb  Sb96  1  0.16666667  0.20910858  0.06250000  1
  Sb  Sb97  1  0.16666667  0.20910858  0.31250000  1
  Sb  Sb98  1  0.16666667  0.20910858  0.56250000  1
  Sb  Sb99  1  0.16666667  0.20910858  0.81250000  1
  Sb  Sb100  1  0.16666667  0.70910858  0.06250000  1
  Sb  Sb101  1  0.16666667  0.70910858  0.31250000  1
  Sb  Sb102  1  0.16666667  0.70910858  0.56250000  1
  Sb  Sb103  1  0.16666667  0.70910858  0.81250000  1
  Sb  Sb104  1  0.50000000  0.20910858  0.06250000  1
  Sb  Sb105  1  0.50000000  0.20910858  0.31250000  1
  Sb  Sb106  1  0.50000000  0.20910858  0.56250000  1
  Sb  Sb107  1  0.50000000  0.20910858  0.81250000  1
  Sb  Sb108  1  0.50000000  0.70910858  0.06250000  1
  Sb  Sb109  1  0.50000000  0.70910858  0.31250000  1
  Sb  Sb110  1  0.50000000  0.70910858  0.56250000  1
  Sb  Sb111  1  0.50000000  0.70910858  0.81250000  1
  Sb  Sb112  1  0.83333333  0.20910858  0.06250000  1
  Sb  Sb113  1  0.83333333  0.20910858  0.31250000  1
  Sb  Sb114  1  0.83333333  0.20910858  0.56250000  1
  Sb  Sb115  1  0.83333333  0.20910858  0.81250000  1
  Sb  Sb116  1  0.83333333  0.70910858  0.06250000  1
  Sb  Sb117  1  0.83333333  0.70910858  0.31250000  1
  Sb  Sb118  1  0.83333333  0.70910858  0.56250000  1
  Sb  Sb119  1  0.83333333  0.70910858  0.81250000  1
  Sb  Sb120  1  0.33333333  0.45910858  0.06250000  1
  Sb  Sb121  1  0.33333333  0.45910858  0.31250000  1
  Sb  Sb122  1  0.33333333  0.45910858  0.56250000  1
  Sb  Sb123  1  0.33333333  0.45910858  0.81250000  1
  Sb  Sb124  1  0.33333333  0.95910858  0.06250000  1
  Sb  Sb125  1  0.33333333  0.95910858  0.31250000  1
  Sb  Sb126  1  0.33333333  0.95910858  0.56250000  1
  Sb  Sb127  1  0.33333333  0.95910858  0.81250000  1
  Sb  Sb128  1  0.66666667  0.45910858  0.06250000  1
  Sb  Sb129  1  0.66666667  0.45910858  0.31250000  1
  Sb  Sb130  1  0.66666667  0.45910858  0.56250000  1
  Sb  Sb131  1  0.66666667  0.45910858  0.81250000  1
  Sb  Sb132  1  0.66666667  0.95910858  0.06250000  1
  Sb  Sb133  1  0.66666667  0.95910858  0.31250000  1
  Sb  Sb134  1  0.66666667  0.95910858  0.56250000  1
  Sb  Sb135  1  0.66666667  0.95910858  0.81250000  1
  Sb  Sb136  1  1.00000000  0.45910858  0.06250000  1
  Sb  Sb137  1  1.00000000  0.45910858  0.31250000  1
  Sb  Sb138  1  1.00000000  0.45910858  0.56250000  1
  Sb  Sb139  1  1.00000000  0.45910858  0.81250000  1
  Sb  Sb140  1  1.00000000  0.95910858  0.06250000  1
  Sb  Sb141  1  1.00000000  0.95910858  0.31250000  1
  Sb  Sb142  1  1.00000000  0.95910858  0.56250000  1
  Sb  Sb143  1  1.00000000  0.95910858  0.81250000  1
  Sb  Sb144  1  0.16666667  -0.20910858  0.18750000  1
  Sb  Sb145  1  0.16666667  -0.20910858  0.43750000  1
  Sb  Sb146  1  0.16666667  -0.20910858  0.68750000  1
  Sb  Sb147  1  0.16666667  -0.20910858  0.93750000  1
  Sb  Sb148  1  0.16666667  0.29089142  0.18750000  1
  Sb  Sb149  1  0.16666667  0.29089142  0.43750000  1
  Sb  Sb150  1  0.16666667  0.29089142  0.68750000  1
  Sb  Sb151  1  0.16666667  0.29089142  0.93750000  1
  Sb  Sb152  1  0.50000000  -0.20910858  0.18750000  1
  Sb  Sb153  1  0.50000000  -0.20910858  0.43750000  1
  Sb  Sb154  1  0.50000000  -0.20910858  0.68750000  1
  Sb  Sb155  1  0.50000000  -0.20910858  0.93750000  1
  Sb  Sb156  1  0.50000000  0.29089142  0.18750000  1
  Sb  Sb157  1  0.50000000  0.29089142  0.43750000  1
  Sb  Sb158  1  0.50000000  0.29089142  0.68750000  1
  Sb  Sb159  1  0.50000000  0.29089142  0.93750000  1
  Sb  Sb160  1  0.83333333  -0.20910858  0.18750000  1
  Sb  Sb161  1  0.83333333  -0.20910858  0.43750000  1
  Sb  Sb162  1  0.83333333  -0.20910858  0.68750000  1
  Sb  Sb163  1  0.83333333  -0.20910858  0.93750000  1
  Sb  Sb164  1  0.83333333  0.29089142  0.18750000  1
  Sb  Sb165  1  0.83333333  0.29089142  0.43750000  1
  Sb  Sb166  1  0.83333333  0.29089142  0.68750000  1
  Sb  Sb167  1  0.83333333  0.29089142  0.93750000  1
  Sb  Sb168  1  0.33333333  0.04089142  0.18750000  1
  Sb  Sb169  1  0.33333333  0.04089142  0.43750000  1
  Sb  Sb170  1  0.33333333  0.04089142  0.68750000  1
  Sb  Sb171  1  0.33333333  0.04089142  0.93750000  1
  Sb  Sb172  1  0.33333333  0.54089142  0.18750000  1
  Sb  Sb173  1  0.33333333  0.54089142  0.43750000  1
  Sb  Sb174  1  0.33333333  0.54089142  0.68750000  1
  Sb  Sb175  1  0.33333333  0.54089142  0.93750000  1
  Sb  Sb176  1  0.66666667  0.04089142  0.18750000  1
  Sb  Sb177  1  0.66666667  0.04089142  0.43750000  1
  Sb  Sb178  1  0.66666667  0.04089142  0.68750000  1
  Sb  Sb179  1  0.66666667  0.04089142  0.93750000  1
  Sb  Sb180  1  0.66666667  0.54089142  0.18750000  1
  Sb  Sb181  1  0.66666667  0.54089142  0.43750000  1
  Sb  Sb182  1  0.66666667  0.54089142  0.68750000  1
  Sb  Sb183  1  0.66666667  0.54089142  0.93750000  1
  Sb  Sb184  1  1.00000000  0.04089142  0.18750000  1
  Sb  Sb185  1  1.00000000  0.04089142  0.43750000  1
  Sb  Sb186  1  1.00000000  0.04089142  0.68750000  1
  Sb  Sb187  1  1.00000000  0.04089142  0.93750000  1
  Sb  Sb188  1  1.00000000  0.54089142  0.18750000  1
  Sb  Sb189  1  1.00000000  0.54089142  0.43750000  1
  Sb  Sb190  1  1.00000000  0.54089142  0.68750000  1
  Sb  Sb191  1  1.00000000  0.54089142  0.93750000  1
  O  O192  1  0.27528915  -0.02160114  0.19921013  1
  O  O193  1  0.27528915  -0.02160114  0.44921013  1
  O  O194  1  0.27528915  -0.02160114  0.69921013  1
  O  O195  1  0.27528915  -0.02160114  0.94921013  1
  O  O196  1  0.27528915  0.47839886  0.19921013  1
  O  O197  1  0.27528915  0.47839886  0.44921013  1
  O  O198  1  0.27528915  0.47839886  0.69921013  1
  O  O199  1  0.27528915  0.47839886  0.94921013  1
  O  O200  1  0.60862248  -0.02160114  0.19921013  1
  O  O201  1  0.60862248  -0.02160114  0.44921013  1
  O  O202  1  0.60862248  -0.02160114  0.69921013  1
  O  O203  1  0.60862248  -0.02160114  0.94921013  1
  O  O204  1  0.60862248  0.47839886  0.19921013  1
  O  O205  1  0.60862248  0.47839886  0.44921013  1
  O  O206  1  0.60862248  0.47839886  0.69921013  1
  O  O207  1  0.60862248  0.47839886  0.94921013  1
  O  O208  1  0.94195582  -0.02160114  0.19921013  1
  O  O209  1  0.94195582  -0.02160114  0.44921013  1
  O  O210  1  0.94195582  -0.02160114  0.69921013  1
  O  O211  1  0.94195582  -0.02160114  0.94921013  1
  O  O212  1  0.94195582  0.47839886  0.19921013  1
  O  O213  1  0.94195582  0.47839886  0.44921013  1
  O  O214  1  0.94195582  0.47839886  0.69921013  1
  O  O215  1  0.94195582  0.47839886  0.94921013  1
  O  O216  1  0.44195582  0.22839886  0.19921013  1
  O  O217  1  0.44195582  0.22839886  0.44921013  1
  O  O218  1  0.44195582  0.22839886  0.69921013  1
  O  O219  1  0.44195582  0.22839886  0.94921013  1
  O  O220  1  0.44195582  0.72839886  0.19921013  1
  O  O221  1  0.44195582  0.72839886  0.44921013  1
  O  O222  1  0.44195582  0.72839886  0.69921013  1
  O  O223  1  0.44195582  0.72839886  0.94921013  1
  O  O224  1  0.77528915  0.22839886  0.19921013  1
  O  O225  1  0.77528915  0.22839886  0.44921013  1
  O  O226  1  0.77528915  0.22839886  0.69921013  1
  O  O227  1  0.77528915  0.22839886  0.94921013  1
  O  O228  1  0.77528915  0.72839886  0.19921013  1
  O  O229  1  0.77528915  0.72839886  0.44921013  1
  O  O230  1  0.77528915  0.72839886  0.69921013  1
  O  O231  1  0.77528915  0.72839886  0.94921013  1
  O  O232  1  1.10862248  0.22839886  0.19921013  1
  O  O233  1  1.10862248  0.22839886  0.44921013  1
  O  O234  1  1.10862248  0.22839886  0.69921013  1
  O  O235  1  1.10862248  0.22839886  0.94921013  1
  O  O236  1  1.10862248  0.72839886  0.19921013  1
  O  O237  1  1.10862248  0.72839886  0.44921013  1
  O  O238  1  1.10862248  0.72839886  0.69921013  1
  O  O239  1  1.10862248  0.72839886  0.94921013  1
  O  O240  1  0.05804418  0.02160114  0.05078987  1
  O  O241  1  0.05804418  0.02160114  0.30078987  1
  O  O242  1  0.05804418  0.02160114  0.55078987  1
  O  O243  1  0.05804418  0.02160114  0.80078987  1
  O  O244  1  0.05804418  0.52160114  0.05078987  1
  O  O245  1  0.05804418  0.52160114  0.30078987  1
  O  O246  1  0.05804418  0.52160114  0.55078987  1
  O  O247  1  0.05804418  0.52160114  0.80078987  1
  O  O248  1  0.39137752  0.02160114  0.05078987  1
  O  O249  1  0.39137752  0.02160114  0.30078987  1
  O  O250  1  0.39137752  0.02160114  0.55078987  1
  O  O251  1  0.39137752  0.02160114  0.80078987  1
  O  O252  1  0.39137752  0.52160114  0.05078987  1
  O  O253  1  0.39137752  0.52160114  0.30078987  1
  O  O254  1  0.39137752  0.52160114  0.55078987  1
  O  O255  1  0.39137752  0.52160114  0.80078987  1
  O  O256  1  0.72471085  0.02160114  0.05078987  1
  O  O257  1  0.72471085  0.02160114  0.30078987  1
  O  O258  1  0.72471085  0.02160114  0.55078987  1
  O  O259  1  0.72471085  0.02160114  0.80078987  1
  O  O260  1  0.72471085  0.52160114  0.05078987  1
  O  O261  1  0.72471085  0.52160114  0.30078987  1
  O  O262  1  0.72471085  0.52160114  0.55078987  1
  O  O263  1  0.72471085  0.52160114  0.80078987  1
  O  O264  1  0.22471085  0.27160114  0.05078987  1
  O  O265  1  0.22471085  0.27160114  0.30078987  1
  O  O266  1  0.22471085  0.27160114  0.55078987  1
  O  O267  1  0.22471085  0.27160114  0.80078987  1
  O  O268  1  0.22471085  0.77160114  0.05078987  1
  O  O269  1  0.22471085  0.77160114  0.30078987  1
  O  O270  1  0.22471085  0.77160114  0.55078987  1
  O  O271  1  0.22471085  0.77160114  0.80078987  1
  O  O272  1  0.55804418  0.27160114  0.05078987  1
  O  O273  1  0.55804418  0.27160114  0.30078987  1
  O  O274  1  0.55804418  0.27160114  0.55078987  1
  O  O275  1  0.55804418  0.27160114  0.80078987  1
  O  O276  1  0.55804418  0.77160114  0.05078987  1
  O  O277  1  0.55804418  0.77160114  0.30078987  1
  O  O278  1  0.55804418  0.77160114  0.55078987  1
  O  O279  1  0.55804418  0.77160114  0.80078987  1
  O  O280  1  0.89137752  0.27160114  0.05078987  1
  O  O281  1  0.89137752  0.27160114  0.30078987  1
  O  O282  1  0.89137752  0.27160114  0.55078987  1
  O  O283  1  0.89137752  0.27160114  0.80078987  1
  O  O284  1  0.89137752  0.77160114  0.05078987  1
  O  O285  1  0.89137752  0.77160114  0.30078987  1
  O  O286  1  0.89137752  0.77160114  0.55078987  1
  O  O287  1  0.89137752  0.77160114  0.80078987  1
  O  O288  1  0.05804418  -0.02160114  0.17578987  1
  O  O289  1  0.05804418  -0.02160114  0.42578987  1
  O  O290  1  0.05804418  -0.02160114  0.67578987  1
  O  O291  1  0.05804418  -0.02160114  0.92578987  1
  O  O292  1  0.05804418  0.47839886  0.17578987  1
  O  O293  1  0.05804418  0.47839886  0.42578987  1
  O  O294  1  0.05804418  0.47839886  0.67578987  1
  O  O295  1  0.05804418  0.47839886  0.92578987  1
  O  O296  1  0.39137752  -0.02160114  0.17578987  1
  O  O297  1  0.39137752  -0.02160114  0.42578987  1
  O  O298  1  0.39137752  -0.02160114  0.67578987  1
  O  O299  1  0.39137752  -0.02160114  0.92578987  1
  O  O300  1  0.39137752  0.47839886  0.17578987  1
  O  O301  1  0.39137752  0.47839886  0.42578987  1
  O  O302  1  0.39137752  0.47839886  0.67578987  1
  O  O303  1  0.39137752  0.47839886  0.92578987  1
  O  O304  1  0.72471085  -0.02160114  0.17578987  1
  O  O305  1  0.72471085  -0.02160114  0.42578987  1
  O  O306  1  0.72471085  -0.02160114  0.67578987  1
  O  O307  1  0.72471085  -0.02160114  0.92578987  1
  O  O308  1  0.72471085  0.47839886  0.17578987  1
  O  O309  1  0.72471085  0.47839886  0.42578987  1
  O  O310  1  0.72471085  0.47839886  0.67578987  1
  O  O311  1  0.72471085  0.47839886  0.92578987  1
  O  O312  1  0.22471085  0.22839886  0.17578987  1
  O  O313  1  0.22471085  0.22839886  0.42578987  1
  O  O314  1  0.22471085  0.22839886  0.67578987  1
  O  O315  1  0.22471085  0.22839886  0.92578987  1
  O  O316  1  0.22471085  0.72839886  0.17578987  1
  O  O317  1  0.22471085  0.72839886  0.42578987  1
  O  O318  1  0.22471085  0.72839886  0.67578987  1
  O  O319  1  0.22471085  0.72839886  0.92578987  1
  O  O320  1  0.55804418  0.22839886  0.17578987  1
  O  O321  1  0.55804418  0.22839886  0.42578987  1
  O  O322  1  0.55804418  0.22839886  0.67578987  1
  O  O323  1  0.55804418  0.22839886  0.92578987  1
  O  O324  1  0.55804418  0.72839886  0.17578987  1
  O  O325  1  0.55804418  0.72839886  0.42578987  1
  O  O326  1  0.55804418  0.72839886  0.67578987  1
  O  O327  1  0.55804418  0.72839886  0.92578987  1
  O  O328  1  0.89137752  0.22839886  0.17578987  1
  O  O329  1  0.89137752  0.22839886  0.42578987  1
  O  O330  1  0.89137752  0.22839886  0.67578987  1
  O  O331  1  0.89137752  0.22839886  0.92578987  1
  O  O332  1  0.89137752  0.72839886  0.17578987  1
  O  O333  1  0.89137752  0.72839886  0.42578987  1
  O  O334  1  0.89137752  0.72839886  0.67578987  1
  O  O335  1  0.89137752  0.72839886  0.92578987  1
  O  O336  1  0.27528915  0.02160114  0.07421013  1
  O  O337  1  0.27528915  0.02160114  0.32421013  1
  O  O338  1  0.27528915  0.02160114  0.57421013  1
  O  O339  1  0.27528915  0.02160114  0.82421013  1
  O  O340  1  0.27528915  0.52160114  0.07421013  1
  O  O341  1  0.27528915  0.52160114  0.32421013  1
  O  O342  1  0.27528915  0.52160114  0.57421013  1
  O  O343  1  0.27528915  0.52160114  0.82421013  1
  O  O344  1  0.60862248  0.02160114  0.07421013  1
  O  O345  1  0.60862248  0.02160114  0.32421013  1
  O  O346  1  0.60862248  0.02160114  0.57421013  1
  O  O347  1  0.60862248  0.02160114  0.82421013  1
  O  O348  1  0.60862248  0.52160114  0.07421013  1
  O  O349  1  0.60862248  0.52160114  0.32421013  1
  O  O350  1  0.60862248  0.52160114  0.57421013  1
  O  O351  1  0.60862248  0.52160114  0.82421013  1
  O  O352  1  0.94195582  0.02160114  0.07421013  1
  O  O353  1  0.94195582  0.02160114  0.32421013  1
  O  O354  1  0.94195582  0.02160114  0.57421013  1
  O  O355  1  0.94195582  0.02160114  0.82421013  1
  O  O356  1  0.94195582  0.52160114  0.07421013  1
  O  O357  1  0.94195582  0.52160114  0.32421013  1
  O  O358  1  0.94195582  0.52160114  0.57421013  1
  O  O359  1  0.94195582  0.52160114  0.82421013  1
  O  O360  1  0.44195582  0.27160114  0.07421013  1
  O  O361  1  0.44195582  0.27160114  0.32421013  1
  O  O362  1  0.44195582  0.27160114  0.57421013  1
  O  O363  1  0.44195582  0.27160114  0.82421013  1
  O  O364  1  0.44195582  0.77160114  0.07421013  1
  O  O365  1  0.44195582  0.77160114  0.32421013  1
  O  O366  1  0.44195582  0.77160114  0.57421013  1
  O  O367  1  0.44195582  0.77160114  0.82421013  1
  O  O368  1  0.77528915  0.27160114  0.07421013  1
  O  O369  1  0.77528915  0.27160114  0.32421013  1
  O  O370  1  0.77528915  0.27160114  0.57421013  1
  O  O371  1  0.77528915  0.27160114  0.82421013  1
  O  O372  1  0.77528915  0.77160114  0.07421013  1
  O  O373  1  0.77528915  0.77160114  0.32421013  1
  O  O374  1  0.77528915  0.77160114  0.57421013  1
  O  O375  1  0.77528915  0.77160114  0.82421013  1
  O  O376  1  1.10862248  0.27160114  0.07421013  1
  O  O377  1  1.10862248  0.27160114  0.32421013  1
  O  O378  1  1.10862248  0.27160114  0.57421013  1
  O  O379  1  1.10862248  0.27160114  0.82421013  1
  O  O380  1  1.10862248  0.77160114  0.07421013  1
  O  O381  1  1.10862248  0.77160114  0.32421013  1
  O  O382  1  1.10862248  0.77160114  0.57421013  1
  O  O383  1  1.10862248  0.77160114  0.82421013  1
