# generated using pymatgen
data_NaSr3TaO6
_symmetry_space_group_name_H-M   'P 1'
_cell_length_a   9.74012671
_cell_length_b   9.74012671
_cell_length_c   11.52560597
_cell_angle_alpha   90.00000000
_cell_angle_beta   90.00000000
_cell_angle_gamma   120.00000000
_symmetry_Int_Tables_number   1
_chemical_formula_structural   NaSr3TaO6
_chemical_formula_sum   'Na6 Sr18 Ta6 O36'
_cell_volume   946.94251030
_cell_formula_units_Z   6
loop_
 _symmetry_equiv_pos_site_id
 _symmetry_equiv_pos_as_xyz
  1  'x, y, z'
loop_
 _atom_site_type_symbol
 _atom_site_label
 _atom_site_symmetry_multiplicity
 _atom_site_fract_x
 _atom_site_fract_y
 _atom_site_fract_z
 _atom_site_occupancy
  Na  Na0  1  -0.00000000  0.00000000  0.25000000  1
  Na  Na1  1  0.66666667  0.33333333  0.58333333  1
  Na  Na2  1  0.33333333  0.66666667  0.91666667  1
  Na  Na3  1  0.00000000  0.00000000  0.75000000  1
  Na  Na4  1  0.66666667  0.33333333  1.08333333  1
  Na  Na5  1  0.33333333  0.66666667  1.41666667  1
  Sr  Sr6  1  0.01845162  -0.31488172  0.58333333  1
  Sr  Sr7  1  0.68511828  0.01845162  0.91666667  1
  Sr  Sr8  1  0.35178495  0.35178495  1.25000000  1
  Sr  Sr9  1  0.31488172  0.33333333  0.58333333  1
  Sr  Sr10  1  0.98154838  0.66666667  0.91666667  1
  Sr  Sr11  1  0.64821505  1.00000000  1.25000000  1
  Sr  Sr12  1  -0.33333333  -0.01845162  0.58333333  1
  Sr  Sr13  1  0.33333333  0.31488172  0.91666667  1
  Sr  Sr14  1  -0.00000000  0.64821505  1.25000000  1
  Sr  Sr15  1  -0.01845162  0.31488172  0.41666667  1
  Sr  Sr16  1  0.64821505  0.64821505  0.75000000  1
  Sr  Sr17  1  0.31488172  0.98154838  1.08333333  1
  Sr  Sr18  1  -0.31488172  -0.33333333  0.41666667  1
  Sr  Sr19  1  0.35178495  0.00000000  0.75000000  1
  Sr  Sr20  1  0.01845162  0.33333333  1.08333333  1
  Sr  Sr21  1  0.33333333  0.01845162  0.41666667  1
  Sr  Sr22  1  1.00000000  0.35178495  0.75000000  1
  Sr  Sr23  1  0.66666667  0.68511828  1.08333333  1
  Ta  Ta24  1  -0.00000000  0.00000000  0.50000000  1
  Ta  Ta25  1  0.66666667  0.33333333  0.83333333  1
  Ta  Ta26  1  0.33333333  0.66666667  1.16666667  1
  Ta  Ta27  1  -0.00000000  -0.00000000  -0.00000000  1
  Ta  Ta28  1  0.66666667  0.33333333  0.33333333  1
  Ta  Ta29  1  0.33333333  0.66666667  0.66666667  1
  O  O30  1  -0.17974259  -0.02564221  0.39979628  1
  O  O31  1  0.48692408  0.30769113  0.73312961  1
  O  O32  1  0.15359075  0.64102446  1.06646294  1
  O  O33  1  0.02564221  -0.15410038  0.39979628  1
  O  O34  1  0.69230887  0.17923296  0.73312961  1
  O  O35  1  0.35897554  0.51256629  1.06646294  1
  O  O36  1  0.15410038  0.17974259  0.39979628  1
  O  O37  1  0.82076704  0.51307592  0.73312961  1
  O  O38  1  0.48743371  0.84640925  1.06646294  1
  O  O39  1  0.51256629  0.35897554  0.43353706  1
  O  O40  1  1.17923296  0.69230887  0.76687039  1
  O  O41  1  0.84589962  1.02564221  1.10020372  1
  O  O42  1  -0.35897554  0.15359075  0.43353706  1
  O  O43  1  0.30769113  0.48692408  0.76687039  1
  O  O44  1  -0.02564221  0.82025741  1.10020372  1
  O  O45  1  -0.15359075  -0.51256629  0.43353706  1
  O  O46  1  0.51307592  -0.17923296  0.76687039  1
  O  O47  1  0.17974259  0.15410038  1.10020372  1
  O  O48  1  0.17974259  0.02564221  0.60020372  1
  O  O49  1  0.84640925  0.35897554  0.93353706  1
  O  O50  1  0.51307592  0.69230887  1.26687039  1
  O  O51  1  -0.02564221  0.15410038  0.60020372  1
  O  O52  1  0.64102446  0.48743371  0.93353706  1
  O  O53  1  0.30769113  0.82076704  1.26687039  1
  O  O54  1  -0.15410038  -0.17974259  0.60020372  1
  O  O55  1  0.51256629  0.15359075  0.93353706  1
  O  O56  1  0.17923296  0.48692408  1.26687039  1
  O  O57  1  -0.51256629  -0.35897554  0.56646294  1
  O  O58  1  0.15410038  -0.02564221  0.89979628  1
  O  O59  1  -0.17923296  0.30769113  1.23312961  1
  O  O60  1  0.15359075  0.51256629  0.56646294  1
  O  O61  1  0.82025741  0.84589962  0.89979628  1
  O  O62  1  0.48692408  1.17923296  1.23312961  1
  O  O63  1  0.35897554  -0.15359075  0.56646294  1
  O  O64  1  1.02564221  0.17974259  0.89979628  1
  O  O65  1  0.69230887  0.51307592  1.23312961  1
