# generated using pymatgen
data_K2WO4
_symmetry_space_group_name_H-M   'P 1'
_cell_length_a   12.41838996
_cell_length_b   12.27571172
_cell_length_c   15.17877879
_cell_angle_alpha   90.00000000
_cell_angle_beta   115.87655460
_cell_angle_gamma   90.00000000
_symmetry_Int_Tables_number   1
_chemical_formula_structural   K2WO4
_chemical_formula_sum   'K32 W16 O64'
_cell_volume   2081.92038317
_cell_formula_units_Z   16
loop_
 _symmetry_equiv_pos_site_id
 _symmetry_equiv_pos_as_xyz
  1  'x, y, z'
loop_
 _atom_site_type_symbol
 _atom_site_label
 _atom_site_symmetry_multiplicity
 _atom_site_fract_x
 _atom_site_fract_y
 _atom_site_fract_z
 _atom_site_occupancy
  K  K0  1  0.50956666  0.00000000  0.11732620  1
  K  K1  1  0.50956666  0.00000000  0.61732620  1
  K  K2  1  0.50956666  0.50000000  0.11732620  1
  K  K3  1  0.50956666  0.50000000  0.61732620  1
  K  K4  1  1.00956666  0.25000000  0.11732620  1
  K  K5  1  1.00956666  0.25000000  0.61732620  1
  K  K6  1  1.00956666  0.75000000  0.11732620  1
  K  K7  1  1.00956666  0.75000000  0.61732620  1
  K  K8  1  0.49043334  -0.00000000  0.38267380  1
  K  K9  1  0.49043334  -0.00000000  0.88267380  1
  K  K10  1  0.49043334  0.50000000  0.38267380  1
  K  K11  1  0.49043334  0.50000000  0.88267380  1
  K  K12  1  0.99043334  0.25000000  0.38267380  1
  K  K13  1  0.99043334  0.25000000  0.88267380  1
  K  K14  1  0.99043334  0.75000000  0.38267380  1
  K  K15  1  0.99043334  0.75000000  0.88267380  1
  K  K16  1  0.15600854  -0.00000000  0.37417703  1
  K  K17  1  0.15600854  -0.00000000  0.87417703  1
  K  K18  1  0.15600854  0.50000000  0.37417703  1
  K  K19  1  0.15600854  0.50000000  0.87417703  1
  K  K20  1  0.65600854  0.25000000  0.37417703  1
  K  K21  1  0.65600854  0.25000000  0.87417703  1
  K  K22  1  0.65600854  0.75000000  0.37417703  1
  K  K23  1  0.65600854  0.75000000  0.87417703  1
  K  K24  1  0.84399146  0.00000000  0.12582297  1
  K  K25  1  0.84399146  0.00000000  0.62582297  1
  K  K26  1  0.84399146  0.50000000  0.12582297  1
  K  K27  1  0.84399146  0.50000000  0.62582297  1
  K  K28  1  1.34399146  0.25000000  0.12582297  1
  K  K29  1  1.34399146  0.25000000  0.62582297  1
  K  K30  1  1.34399146  0.75000000  0.12582297  1
  K  K31  1  1.34399146  0.75000000  0.62582297  1
  W  W32  1  0.17545463  0.00000000  0.11260661  1
  W  W33  1  0.17545463  0.00000000  0.61260661  1
  W  W34  1  0.17545463  0.50000000  0.11260661  1
  W  W35  1  0.17545463  0.50000000  0.61260661  1
  W  W36  1  0.67545463  0.25000000  0.11260661  1
  W  W37  1  0.67545463  0.25000000  0.61260661  1
  W  W38  1  0.67545463  0.75000000  0.11260661  1
  W  W39  1  0.67545463  0.75000000  0.61260661  1
  W  W40  1  0.82454537  0.00000000  0.38739339  1
  W  W41  1  0.82454537  0.00000000  0.88739339  1
  W  W42  1  0.82454537  0.50000000  0.38739339  1
  W  W43  1  0.82454537  0.50000000  0.88739339  1
  W  W44  1  1.32454537  0.25000000  0.38739339  1
  W  W45  1  1.32454537  0.25000000  0.88739339  1
  W  W46  1  1.32454537  0.75000000  0.38739339  1
  W  W47  1  1.32454537  0.75000000  0.88739339  1
  O  O48  1  0.64173944  -0.13073975  0.03698169  1
  O  O49  1  0.64173944  -0.13073975  0.53698169  1
  O  O50  1  0.64173944  0.36926025  0.03698169  1
  O  O51  1  0.64173944  0.36926025  0.53698169  1
  O  O52  1  1.14173944  0.11926025  0.03698169  1
  O  O53  1  1.14173944  0.11926025  0.53698169  1
  O  O54  1  1.14173944  0.61926025  0.03698169  1
  O  O55  1  1.14173944  0.61926025  0.53698169  1
  O  O56  1  0.35826056  -0.13073975  0.46301831  1
  O  O57  1  0.35826056  -0.13073975  0.96301831  1
  O  O58  1  0.35826056  0.36926025  0.46301831  1
  O  O59  1  0.35826056  0.36926025  0.96301831  1
  O  O60  1  0.85826056  0.11926025  0.46301831  1
  O  O61  1  0.85826056  0.11926025  0.96301831  1
  O  O62  1  0.85826056  0.61926025  0.46301831  1
  O  O63  1  0.85826056  0.61926025  0.96301831  1
  O  O64  1  0.35826056  0.13073975  0.46301831  1
  O  O65  1  0.35826056  0.13073975  0.96301831  1
  O  O66  1  0.35826056  0.63073975  0.46301831  1
  O  O67  1  0.35826056  0.63073975  0.96301831  1
  O  O68  1  0.85826056  0.38073975  0.46301831  1
  O  O69  1  0.85826056  0.38073975  0.96301831  1
  O  O70  1  0.85826056  0.88073975  0.46301831  1
  O  O71  1  0.85826056  0.88073975  0.96301831  1
  O  O72  1  0.64173944  0.13073975  0.03698169  1
  O  O73  1  0.64173944  0.13073975  0.53698169  1
  O  O74  1  0.64173944  0.63073975  0.03698169  1
  O  O75  1  0.64173944  0.63073975  0.53698169  1
  O  O76  1  1.14173944  0.38073975  0.03698169  1
  O  O77  1  1.14173944  0.38073975  0.53698169  1
  O  O78  1  1.14173944  0.88073975  0.03698169  1
  O  O79  1  1.14173944  0.88073975  0.53698169  1
  O  O80  1  0.91206153  0.00000000  0.31939049  1
  O  O81  1  0.91206153  0.00000000  0.81939049  1
  O  O82  1  0.91206153  0.50000000  0.31939049  1
  O  O83  1  0.91206153  0.50000000  0.81939049  1
  O  O84  1  1.41206153  0.25000000  0.31939049  1
  O  O85  1  1.41206153  0.25000000  0.81939049  1
  O  O86  1  1.41206153  0.75000000  0.31939049  1
  O  O87  1  1.41206153  0.75000000  0.81939049  1
  O  O88  1  0.08793847  0.00000000  0.18060951  1
  O  O89  1  0.08793847  0.00000000  0.68060951  1
  O  O90  1  0.08793847  0.50000000  0.18060951  1
  O  O91  1  0.08793847  0.50000000  0.68060951  1
  O  O92  1  0.58793847  0.25000000  0.18060951  1
  O  O93  1  0.58793847  0.25000000  0.68060951  1
  O  O94  1  0.58793847  0.75000000  0.18060951  1
  O  O95  1  0.58793847  0.75000000  0.68060951  1
  O  O96  1  0.33334525  -0.00000000  0.19139192  1
  O  O97  1  0.33334525  -0.00000000  0.69139192  1
  O  O98  1  0.33334525  0.50000000  0.19139192  1
  O  O99  1  0.33334525  0.50000000  0.69139192  1
  O  O100  1  0.83334525  0.25000000  0.19139192  1
  O  O101  1  0.83334525  0.25000000  0.69139192  1
  O  O102  1  0.83334525  0.75000000  0.19139192  1
  O  O103  1  0.83334525  0.75000000  0.69139192  1
  O  O104  1  0.66665475  -0.00000000  0.30860808  1
  O  O105  1  0.66665475  -0.00000000  0.80860808  1
  O  O106  1  0.66665475  0.50000000  0.30860808  1
  O  O107  1  0.66665475  0.50000000  0.80860808  1
  O  O108  1  1.16665475  0.25000000  0.30860808  1
  O  O109  1  1.16665475  0.25000000  0.80860808  1
  O  O110  1  1.16665475  0.75000000  0.30860808  1
  O  O111  1  1.16665475  0.75000000  0.80860808  1
