# generated using pymatgen
data_K3Ta3(BO6)2
_symmetry_space_group_name_H-M   'P 1'
_cell_length_a   17.64455081
_cell_length_b   17.64455081
_cell_length_c   19.55894451
_cell_angle_alpha   90.00000000
_cell_angle_beta   90.00000000
_cell_angle_gamma   120.00000000
_symmetry_Int_Tables_number   1
_chemical_formula_structural   K3Ta3(BO6)2
_chemical_formula_sum   'K60 Ta60 B40 O240'
_cell_volume   5273.47947076
_cell_formula_units_Z   20
loop_
 _symmetry_equiv_pos_site_id
 _symmetry_equiv_pos_as_xyz
  1  'x, y, z'
loop_
 _atom_site_type_symbol
 _atom_site_label
 _atom_site_symmetry_multiplicity
 _atom_site_fract_x
 _atom_site_fract_y
 _atom_site_fract_z
 _atom_site_occupancy
  K  K0  1  0.20172498  0.00000000  0.10000000  1
  K  K1  1  0.20172498  0.00000000  0.30000000  1
  K  K2  1  0.20172498  0.00000000  0.50000000  1
  K  K3  1  0.20172498  0.00000000  0.70000000  1
  K  K4  1  0.20172498  0.00000000  0.90000000  1
  K  K5  1  0.20172498  0.50000000  0.10000000  1
  K  K6  1  0.20172498  0.50000000  0.30000000  1
  K  K7  1  0.20172498  0.50000000  0.50000000  1
  K  K8  1  0.20172498  0.50000000  0.70000000  1
  K  K9  1  0.20172498  0.50000000  0.90000000  1
  K  K10  1  0.70172498  0.00000000  0.10000000  1
  K  K11  1  0.70172498  0.00000000  0.30000000  1
  K  K12  1  0.70172498  0.00000000  0.50000000  1
  K  K13  1  0.70172498  0.00000000  0.70000000  1
  K  K14  1  0.70172498  0.00000000  0.90000000  1
  K  K15  1  0.70172498  0.50000000  0.10000000  1
  K  K16  1  0.70172498  0.50000000  0.30000000  1
  K  K17  1  0.70172498  0.50000000  0.50000000  1
  K  K18  1  0.70172498  0.50000000  0.70000000  1
  K  K19  1  0.70172498  0.50000000  0.90000000  1
  K  K20  1  0.29827502  0.29827502  0.10000000  1
  K  K21  1  0.29827502  0.29827502  0.30000000  1
  K  K22  1  0.29827502  0.29827502  0.50000000  1
  K  K23  1  0.29827502  0.29827502  0.70000000  1
  K  K24  1  0.29827502  0.29827502  0.90000000  1
  K  K25  1  0.29827502  0.79827502  0.10000000  1
  K  K26  1  0.29827502  0.79827502  0.30000000  1
  K  K27  1  0.29827502  0.79827502  0.50000000  1
  K  K28  1  0.29827502  0.79827502  0.70000000  1
  K  K29  1  0.29827502  0.79827502  0.90000000  1
  K  K30  1  0.79827502  0.29827502  0.10000000  1
  K  K31  1  0.79827502  0.29827502  0.30000000  1
  K  K32  1  0.79827502  0.29827502  0.50000000  1
  K  K33  1  0.79827502  0.29827502  0.70000000  1
  K  K34  1  0.79827502  0.29827502  0.90000000  1
  K  K35  1  0.79827502  0.79827502  0.10000000  1
  K  K36  1  0.79827502  0.79827502  0.30000000  1
  K  K37  1  0.79827502  0.79827502  0.50000000  1
  K  K38  1  0.79827502  0.79827502  0.70000000  1
  K  K39  1  0.79827502  0.79827502  0.90000000  1
  K  K40  1  -0.00000000  0.20172498  0.10000000  1
  K  K41  1  -0.00000000  0.20172498  0.30000000  1
  K  K42  1  -0.00000000  0.20172498  0.50000000  1
  K  K43  1  -0.00000000  0.20172498  0.70000000  1
  K  K44  1  -0.00000000  0.20172498  0.90000000  1
  K  K45  1  -0.00000000  0.70172498  0.10000000  1
  K  K46  1  -0.00000000  0.70172498  0.30000000  1
  K  K47  1  -0.00000000  0.70172498  0.50000000  1
  K  K48  1  -0.00000000  0.70172498  0.70000000  1
  K  K49  1  -0.00000000  0.70172498  0.90000000  1
  K  K50  1  0.50000000  0.20172498  0.10000000  1
  K  K51  1  0.50000000  0.20172498  0.30000000  1
  K  K52  1  0.50000000  0.20172498  0.50000000  1
  K  K53  1  0.50000000  0.20172498  0.70000000  1
  K  K54  1  0.50000000  0.20172498  0.90000000  1
  K  K55  1  0.50000000  0.70172498  0.10000000  1
  K  K56  1  0.50000000  0.70172498  0.30000000  1
  K  K57  1  0.50000000  0.70172498  0.50000000  1
  K  K58  1  0.50000000  0.70172498  0.70000000  1
  K  K59  1  0.50000000  0.70172498  0.90000000  1
  Ta  Ta60  1  0.37663984  0.00000000  0.00000000  1
  Ta  Ta61  1  0.37663984  0.00000000  0.20000000  1
  Ta  Ta62  1  0.37663984  0.00000000  0.40000000  1
  Ta  Ta63  1  0.37663984  0.00000000  0.60000000  1
  Ta  Ta64  1  0.37663984  0.00000000  0.80000000  1
  Ta  Ta65  1  0.37663984  0.50000000  0.00000000  1
  Ta  Ta66  1  0.37663984  0.50000000  0.20000000  1
  Ta  Ta67  1  0.37663984  0.50000000  0.40000000  1
  Ta  Ta68  1  0.37663984  0.50000000  0.60000000  1
  Ta  Ta69  1  0.37663984  0.50000000  0.80000000  1
  Ta  Ta70  1  0.87663984  0.00000000  0.00000000  1
  Ta  Ta71  1  0.87663984  0.00000000  0.20000000  1
  Ta  Ta72  1  0.87663984  0.00000000  0.40000000  1
  Ta  Ta73  1  0.87663984  0.00000000  0.60000000  1
  Ta  Ta74  1  0.87663984  0.00000000  0.80000000  1
  Ta  Ta75  1  0.87663984  0.50000000  0.00000000  1
  Ta  Ta76  1  0.87663984  0.50000000  0.20000000  1
  Ta  Ta77  1  0.87663984  0.50000000  0.40000000  1
  Ta  Ta78  1  0.87663984  0.50000000  0.60000000  1
  Ta  Ta79  1  0.87663984  0.50000000  0.80000000  1
  Ta  Ta80  1  0.12336016  0.12336016  0.00000000  1
  Ta  Ta81  1  0.12336016  0.12336016  0.20000000  1
  Ta  Ta82  1  0.12336016  0.12336016  0.40000000  1
  Ta  Ta83  1  0.12336016  0.12336016  0.60000000  1
  Ta  Ta84  1  0.12336016  0.12336016  0.80000000  1
  Ta  Ta85  1  0.12336016  0.62336016  0.00000000  1
  Ta  Ta86  1  0.12336016  0.62336016  0.20000000  1
  Ta  Ta87  1  0.12336016  0.62336016  0.40000000  1
  Ta  Ta88  1  0.12336016  0.62336016  0.60000000  1
  Ta  Ta89  1  0.12336016  0.62336016  0.80000000  1
  Ta  Ta90  1  0.62336016  0.12336016  0.00000000  1
  Ta  Ta91  1  0.62336016  0.12336016  0.20000000  1
  Ta  Ta92  1  0.62336016  0.12336016  0.40000000  1
  Ta  Ta93  1  0.62336016  0.12336016  0.60000000  1
  Ta  Ta94  1  0.62336016  0.12336016  0.80000000  1
  Ta  Ta95  1  0.62336016  0.62336016  0.00000000  1
  Ta  Ta96  1  0.62336016  0.62336016  0.20000000  1
  Ta  Ta97  1  0.62336016  0.62336016  0.40000000  1
  Ta  Ta98  1  0.62336016  0.62336016  0.60000000  1
  Ta  Ta99  1  0.62336016  0.62336016  0.80000000  1
  Ta  Ta100  1  0.00000000  0.37663984  0.00000000  1
  Ta  Ta101  1  0.00000000  0.37663984  0.20000000  1
  Ta  Ta102  1  0.00000000  0.37663984  0.40000000  1
  Ta  Ta103  1  0.00000000  0.37663984  0.60000000  1
  Ta  Ta104  1  0.00000000  0.37663984  0.80000000  1
  Ta  Ta105  1  0.00000000  0.87663984  0.00000000  1
  Ta  Ta106  1  0.00000000  0.87663984  0.20000000  1
  Ta  Ta107  1  0.00000000  0.87663984  0.40000000  1
  Ta  Ta108  1  0.00000000  0.87663984  0.60000000  1
  Ta  Ta109  1  0.00000000  0.87663984  0.80000000  1
  Ta  Ta110  1  0.50000000  0.37663984  0.00000000  1
  Ta  Ta111  1  0.50000000  0.37663984  0.20000000  1
  Ta  Ta112  1  0.50000000  0.37663984  0.40000000  1
  Ta  Ta113  1  0.50000000  0.37663984  0.60000000  1
  Ta  Ta114  1  0.50000000  0.37663984  0.80000000  1
  Ta  Ta115  1  0.50000000  0.87663984  0.00000000  1
  Ta  Ta116  1  0.50000000  0.87663984  0.20000000  1
  Ta  Ta117  1  0.50000000  0.87663984  0.40000000  1
  Ta  Ta118  1  0.50000000  0.87663984  0.60000000  1
  Ta  Ta119  1  0.50000000  0.87663984  0.80000000  1
  B  B120  1  0.16666667  0.33333333  0.00000000  1
  B  B121  1  0.16666667  0.33333333  0.20000000  1
  B  B122  1  0.16666667  0.33333333  0.40000000  1
  B  B123  1  0.16666667  0.33333333  0.60000000  1
  B  B124  1  0.16666667  0.33333333  0.80000000  1
  B  B125  1  0.16666667  0.83333333  0.00000000  1
  B  B126  1  0.16666667  0.83333333  0.20000000  1
  B  B127  1  0.16666667  0.83333333  0.40000000  1
  B  B128  1  0.16666667  0.83333333  0.60000000  1
  B  B129  1  0.16666667  0.83333333  0.80000000  1
  B  B130  1  0.66666667  0.33333333  0.00000000  1
  B  B131  1  0.66666667  0.33333333  0.20000000  1
  B  B132  1  0.66666667  0.33333333  0.40000000  1
  B  B133  1  0.66666667  0.33333333  0.60000000  1
  B  B134  1  0.66666667  0.33333333  0.80000000  1
  B  B135  1  0.66666667  0.83333333  0.00000000  1
  B  B136  1  0.66666667  0.83333333  0.20000000  1
  B  B137  1  0.66666667  0.83333333  0.40000000  1
  B  B138  1  0.66666667  0.83333333  0.60000000  1
  B  B139  1  0.66666667  0.83333333  0.80000000  1
  B  B140  1  0.33333333  0.16666667  0.00000000  1
  B  B141  1  0.33333333  0.16666667  0.20000000  1
  B  B142  1  0.33333333  0.16666667  0.40000000  1
  B  B143  1  0.33333333  0.16666667  0.60000000  1
  B  B144  1  0.33333333  0.16666667  0.80000000  1
  B  B145  1  0.33333333  0.66666667  0.00000000  1
  B  B146  1  0.33333333  0.66666667  0.20000000  1
  B  B147  1  0.33333333  0.66666667  0.40000000  1
  B  B148  1  0.33333333  0.66666667  0.60000000  1
  B  B149  1  0.33333333  0.66666667  0.80000000  1
  B  B150  1  0.83333333  0.16666667  0.00000000  1
  B  B151  1  0.83333333  0.16666667  0.20000000  1
  B  B152  1  0.83333333  0.16666667  0.40000000  1
  B  B153  1  0.83333333  0.16666667  0.60000000  1
  B  B154  1  0.83333333  0.16666667  0.80000000  1
  B  B155  1  0.83333333  0.66666667  0.00000000  1
  B  B156  1  0.83333333  0.66666667  0.20000000  1
  B  B157  1  0.83333333  0.66666667  0.40000000  1
  B  B158  1  0.83333333  0.66666667  0.60000000  1
  B  B159  1  0.83333333  0.66666667  0.80000000  1
  O  O160  1  0.40583915  0.24878790  0.00000000  1
  O  O161  1  0.40583915  0.24878790  0.20000000  1
  O  O162  1  0.40583915  0.24878790  0.40000000  1
  O  O163  1  0.40583915  0.24878790  0.60000000  1
  O  O164  1  0.40583915  0.24878790  0.80000000  1
  O  O165  1  0.40583915  0.74878790  0.00000000  1
  O  O166  1  0.40583915  0.74878790  0.20000000  1
  O  O167  1  0.40583915  0.74878790  0.40000000  1
  O  O168  1  0.40583915  0.74878790  0.60000000  1
  O  O169  1  0.40583915  0.74878790  0.80000000  1
  O  O170  1  0.90583915  0.24878790  0.00000000  1
  O  O171  1  0.90583915  0.24878790  0.20000000  1
  O  O172  1  0.90583915  0.24878790  0.40000000  1
  O  O173  1  0.90583915  0.24878790  0.60000000  1
  O  O174  1  0.90583915  0.24878790  0.80000000  1
  O  O175  1  0.90583915  0.74878790  0.00000000  1
  O  O176  1  0.90583915  0.74878790  0.20000000  1
  O  O177  1  0.90583915  0.74878790  0.40000000  1
  O  O178  1  0.90583915  0.74878790  0.60000000  1
  O  O179  1  0.90583915  0.74878790  0.80000000  1
  O  O180  1  0.24878790  0.40583915  0.00000000  1
  O  O181  1  0.24878790  0.40583915  0.20000000  1
  O  O182  1  0.24878790  0.40583915  0.40000000  1
  O  O183  1  0.24878790  0.40583915  0.60000000  1
  O  O184  1  0.24878790  0.40583915  0.80000000  1
  O  O185  1  0.24878790  0.90583915  0.00000000  1
  O  O186  1  0.24878790  0.90583915  0.20000000  1
  O  O187  1  0.24878790  0.90583915  0.40000000  1
  O  O188  1  0.24878790  0.90583915  0.60000000  1
  O  O189  1  0.24878790  0.90583915  0.80000000  1
  O  O190  1  0.74878790  0.40583915  0.00000000  1
  O  O191  1  0.74878790  0.40583915  0.20000000  1
  O  O192  1  0.74878790  0.40583915  0.40000000  1
  O  O193  1  0.74878790  0.40583915  0.60000000  1
  O  O194  1  0.74878790  0.40583915  0.80000000  1
  O  O195  1  0.74878790  0.90583915  0.00000000  1
  O  O196  1  0.74878790  0.90583915  0.20000000  1
  O  O197  1  0.74878790  0.90583915  0.40000000  1
  O  O198  1  0.74878790  0.90583915  0.60000000  1
  O  O199  1  0.74878790  0.90583915  0.80000000  1
  O  O200  1  0.09416085  0.34294875  0.00000000  1
  O  O201  1  0.09416085  0.34294875  0.20000000  1
  O  O202  1  0.09416085  0.34294875  0.40000000  1
  O  O203  1  0.09416085  0.34294875  0.60000000  1
  O  O204  1  0.09416085  0.34294875  0.80000000  1
  O  O205  1  0.09416085  0.84294875  0.00000000  1
  O  O206  1  0.09416085  0.84294875  0.20000000  1
  O  O207  1  0.09416085  0.84294875  0.40000000  1
  O  O208  1  0.09416085  0.84294875  0.60000000  1
  O  O209  1  0.09416085  0.84294875  0.80000000  1
  O  O210  1  0.59416085  0.34294875  0.00000000  1
  O  O211  1  0.59416085  0.34294875  0.20000000  1
  O  O212  1  0.59416085  0.34294875  0.40000000  1
  O  O213  1  0.59416085  0.34294875  0.60000000  1
  O  O214  1  0.59416085  0.34294875  0.80000000  1
  O  O215  1  0.59416085  0.84294875  0.00000000  1
  O  O216  1  0.59416085  0.84294875  0.20000000  1
  O  O217  1  0.59416085  0.84294875  0.40000000  1
  O  O218  1  0.59416085  0.84294875  0.60000000  1
  O  O219  1  0.59416085  0.84294875  0.80000000  1
  O  O220  1  0.15705125  0.25121210  0.00000000  1
  O  O221  1  0.15705125  0.25121210  0.20000000  1
  O  O222  1  0.15705125  0.25121210  0.40000000  1
  O  O223  1  0.15705125  0.25121210  0.60000000  1
  O  O224  1  0.15705125  0.25121210  0.80000000  1
  O  O225  1  0.15705125  0.75121210  0.00000000  1
  O  O226  1  0.15705125  0.75121210  0.20000000  1
  O  O227  1  0.15705125  0.75121210  0.40000000  1
  O  O228  1  0.15705125  0.75121210  0.60000000  1
  O  O229  1  0.15705125  0.75121210  0.80000000  1
  O  O230  1  0.65705125  0.25121210  0.00000000  1
  O  O231  1  0.65705125  0.25121210  0.20000000  1
  O  O232  1  0.65705125  0.25121210  0.40000000  1
  O  O233  1  0.65705125  0.25121210  0.60000000  1
  O  O234  1  0.65705125  0.25121210  0.80000000  1
  O  O235  1  0.65705125  0.75121210  0.00000000  1
  O  O236  1  0.65705125  0.75121210  0.20000000  1
  O  O237  1  0.65705125  0.75121210  0.40000000  1
  O  O238  1  0.65705125  0.75121210  0.60000000  1
  O  O239  1  0.65705125  0.75121210  0.80000000  1
  O  O240  1  0.25121210  0.15705125  0.00000000  1
  O  O241  1  0.25121210  0.15705125  0.20000000  1
  O  O242  1  0.25121210  0.15705125  0.40000000  1
  O  O243  1  0.25121210  0.15705125  0.60000000  1
  O  O244  1  0.25121210  0.15705125  0.80000000  1
  O  O245  1  0.25121210  0.65705125  0.00000000  1
  O  O246  1  0.25121210  0.65705125  0.20000000  1
  O  O247  1  0.25121210  0.65705125  0.40000000  1
  O  O248  1  0.25121210  0.65705125  0.60000000  1
  O  O249  1  0.25121210  0.65705125  0.80000000  1
  O  O250  1  0.75121210  0.15705125  0.00000000  1
  O  O251  1  0.75121210  0.15705125  0.20000000  1
  O  O252  1  0.75121210  0.15705125  0.40000000  1
  O  O253  1  0.75121210  0.15705125  0.60000000  1
  O  O254  1  0.75121210  0.15705125  0.80000000  1
  O  O255  1  0.75121210  0.65705125  0.00000000  1
  O  O256  1  0.75121210  0.65705125  0.20000000  1
  O  O257  1  0.75121210  0.65705125  0.40000000  1
  O  O258  1  0.75121210  0.65705125  0.60000000  1
  O  O259  1  0.75121210  0.65705125  0.80000000  1
  O  O260  1  0.34294875  0.09416085  0.00000000  1
  O  O261  1  0.34294875  0.09416085  0.20000000  1
  O  O262  1  0.34294875  0.09416085  0.40000000  1
  O  O263  1  0.34294875  0.09416085  0.60000000  1
  O  O264  1  0.34294875  0.09416085  0.80000000  1
  O  O265  1  0.34294875  0.59416085  0.00000000  1
  O  O266  1  0.34294875  0.59416085  0.20000000  1
  O  O267  1  0.34294875  0.59416085  0.40000000  1
  O  O268  1  0.34294875  0.59416085  0.60000000  1
  O  O269  1  0.34294875  0.59416085  0.80000000  1
  O  O270  1  0.84294875  0.09416085  0.00000000  1
  O  O271  1  0.84294875  0.09416085  0.20000000  1
  O  O272  1  0.84294875  0.09416085  0.40000000  1
  O  O273  1  0.84294875  0.09416085  0.60000000  1
  O  O274  1  0.84294875  0.09416085  0.80000000  1
  O  O275  1  0.84294875  0.59416085  0.00000000  1
  O  O276  1  0.84294875  0.59416085  0.20000000  1
  O  O277  1  0.84294875  0.59416085  0.40000000  1
  O  O278  1  0.84294875  0.59416085  0.60000000  1
  O  O279  1  0.84294875  0.59416085  0.80000000  1
  O  O280  1  0.36794634  0.00000000  0.10000000  1
  O  O281  1  0.36794634  0.00000000  0.30000000  1
  O  O282  1  0.36794634  0.00000000  0.50000000  1
  O  O283  1  0.36794634  0.00000000  0.70000000  1
  O  O284  1  0.36794634  0.00000000  0.90000000  1
  O  O285  1  0.36794634  0.50000000  0.10000000  1
  O  O286  1  0.36794634  0.50000000  0.30000000  1
  O  O287  1  0.36794634  0.50000000  0.50000000  1
  O  O288  1  0.36794634  0.50000000  0.70000000  1
  O  O289  1  0.36794634  0.50000000  0.90000000  1
  O  O290  1  0.86794634  0.00000000  0.10000000  1
  O  O291  1  0.86794634  0.00000000  0.30000000  1
  O  O292  1  0.86794634  0.00000000  0.50000000  1
  O  O293  1  0.86794634  0.00000000  0.70000000  1
  O  O294  1  0.86794634  0.00000000  0.90000000  1
  O  O295  1  0.86794634  0.50000000  0.10000000  1
  O  O296  1  0.86794634  0.50000000  0.30000000  1
  O  O297  1  0.86794634  0.50000000  0.50000000  1
  O  O298  1  0.86794634  0.50000000  0.70000000  1
  O  O299  1  0.86794634  0.50000000  0.90000000  1
  O  O300  1  0.13205366  0.13205366  0.10000000  1
  O  O301  1  0.13205366  0.13205366  0.30000000  1
  O  O302  1  0.13205366  0.13205366  0.50000000  1
  O  O303  1  0.13205366  0.13205366  0.70000000  1
  O  O304  1  0.13205366  0.13205366  0.90000000  1
  O  O305  1  0.13205366  0.63205366  0.10000000  1
  O  O306  1  0.13205366  0.63205366  0.30000000  1
  O  O307  1  0.13205366  0.63205366  0.50000000  1
  O  O308  1  0.13205366  0.63205366  0.70000000  1
  O  O309  1  0.13205366  0.63205366  0.90000000  1
  O  O310  1  0.63205366  0.13205366  0.10000000  1
  O  O311  1  0.63205366  0.13205366  0.30000000  1
  O  O312  1  0.63205366  0.13205366  0.50000000  1
  O  O313  1  0.63205366  0.13205366  0.70000000  1
  O  O314  1  0.63205366  0.13205366  0.90000000  1
  O  O315  1  0.63205366  0.63205366  0.10000000  1
  O  O316  1  0.63205366  0.63205366  0.30000000  1
  O  O317  1  0.63205366  0.63205366  0.50000000  1
  O  O318  1  0.63205366  0.63205366  0.70000000  1
  O  O319  1  0.63205366  0.63205366  0.90000000  1
  O  O320  1  0.00000000  0.36794634  0.10000000  1
  O  O321  1  0.00000000  0.36794634  0.30000000  1
  O  O322  1  0.00000000  0.36794634  0.50000000  1
  O  O323  1  0.00000000  0.36794634  0.70000000  1
  O  O324  1  0.00000000  0.36794634  0.90000000  1
  O  O325  1  0.00000000  0.86794634  0.10000000  1
  O  O326  1  0.00000000  0.86794634  0.30000000  1
  O  O327  1  0.00000000  0.86794634  0.50000000  1
  O  O328  1  0.00000000  0.86794634  0.70000000  1
  O  O329  1  0.00000000  0.86794634  0.90000000  1
  O  O330  1  0.50000000  0.36794634  0.10000000  1
  O  O331  1  0.50000000  0.36794634  0.30000000  1
  O  O332  1  0.50000000  0.36794634  0.50000000  1
  O  O333  1  0.50000000  0.36794634  0.70000000  1
  O  O334  1  0.50000000  0.36794634  0.90000000  1
  O  O335  1  0.50000000  0.86794634  0.10000000  1
  O  O336  1  0.50000000  0.86794634  0.30000000  1
  O  O337  1  0.50000000  0.86794634  0.50000000  1
  O  O338  1  0.50000000  0.86794634  0.70000000  1
  O  O339  1  0.50000000  0.86794634  0.90000000  1
  O  O340  1  0.08942437  0.00000000  0.00000000  1
  O  O341  1  0.08942437  0.00000000  0.20000000  1
  O  O342  1  0.08942437  0.00000000  0.40000000  1
  O  O343  1  0.08942437  0.00000000  0.60000000  1
  O  O344  1  0.08942437  0.00000000  0.80000000  1
  O  O345  1  0.08942437  0.50000000  0.00000000  1
  O  O346  1  0.08942437  0.50000000  0.20000000  1
  O  O347  1  0.08942437  0.50000000  0.40000000  1
  O  O348  1  0.08942437  0.50000000  0.60000000  1
  O  O349  1  0.08942437  0.50000000  0.80000000  1
  O  O350  1  0.58942437  0.00000000  0.00000000  1
  O  O351  1  0.58942437  0.00000000  0.20000000  1
  O  O352  1  0.58942437  0.00000000  0.40000000  1
  O  O353  1  0.58942437  0.00000000  0.60000000  1
  O  O354  1  0.58942437  0.00000000  0.80000000  1
  O  O355  1  0.58942437  0.50000000  0.00000000  1
  O  O356  1  0.58942437  0.50000000  0.20000000  1
  O  O357  1  0.58942437  0.50000000  0.40000000  1
  O  O358  1  0.58942437  0.50000000  0.60000000  1
  O  O359  1  0.58942437  0.50000000  0.80000000  1
  O  O360  1  0.41057563  0.41057563  0.00000000  1
  O  O361  1  0.41057563  0.41057563  0.20000000  1
  O  O362  1  0.41057563  0.41057563  0.40000000  1
  O  O363  1  0.41057563  0.41057563  0.60000000  1
  O  O364  1  0.41057563  0.41057563  0.80000000  1
  O  O365  1  0.41057563  0.91057563  0.00000000  1
  O  O366  1  0.41057563  0.91057563  0.20000000  1
  O  O367  1  0.41057563  0.91057563  0.40000000  1
  O  O368  1  0.41057563  0.91057563  0.60000000  1
  O  O369  1  0.41057563  0.91057563  0.80000000  1
  O  O370  1  0.91057563  0.41057563  0.00000000  1
  O  O371  1  0.91057563  0.41057563  0.20000000  1
  O  O372  1  0.91057563  0.41057563  0.40000000  1
  O  O373  1  0.91057563  0.41057563  0.60000000  1
  O  O374  1  0.91057563  0.41057563  0.80000000  1
  O  O375  1  0.91057563  0.91057563  0.00000000  1
  O  O376  1  0.91057563  0.91057563  0.20000000  1
  O  O377  1  0.91057563  0.91057563  0.40000000  1
  O  O378  1  0.91057563  0.91057563  0.60000000  1
  O  O379  1  0.91057563  0.91057563  0.80000000  1
  O  O380  1  -0.00000000  0.08942437  0.00000000  1
  O  O381  1  -0.00000000  0.08942437  0.20000000  1
  O  O382  1  -0.00000000  0.08942437  0.40000000  1
  O  O383  1  -0.00000000  0.08942437  0.60000000  1
  O  O384  1  -0.00000000  0.08942437  0.80000000  1
  O  O385  1  -0.00000000  0.58942437  0.00000000  1
  O  O386  1  -0.00000000  0.58942437  0.20000000  1
  O  O387  1  -0.00000000  0.58942437  0.40000000  1
  O  O388  1  -0.00000000  0.58942437  0.60000000  1
  O  O389  1  -0.00000000  0.58942437  0.80000000  1
  O  O390  1  0.50000000  0.08942437  0.00000000  1
  O  O391  1  0.50000000  0.08942437  0.20000000  1
  O  O392  1  0.50000000  0.08942437  0.40000000  1
  O  O393  1  0.50000000  0.08942437  0.60000000  1
  O  O394  1  0.50000000  0.08942437  0.80000000  1
  O  O395  1  0.50000000  0.58942437  0.00000000  1
  O  O396  1  0.50000000  0.58942437  0.20000000  1
  O  O397  1  0.50000000  0.58942437  0.40000000  1
  O  O398  1  0.50000000  0.58942437  0.60000000  1
  O  O399  1  0.50000000  0.58942437  0.80000000  1
