# generated using pymatgen
data_SrTlVO4
_symmetry_space_group_name_H-M   'P 1'
_cell_length_a   17.51036914
_cell_length_b   15.05009669
_cell_length_c   19.89787115
_cell_angle_alpha   90.00000000
_cell_angle_beta   90.00000000
_cell_angle_gamma   90.00000000
_symmetry_Int_Tables_number   1
_chemical_formula_structural   SrTlVO4
_chemical_formula_sum   'Sr48 Tl48 V48 O192'
_cell_volume   5243.74067864
_cell_formula_units_Z   48
loop_
 _symmetry_equiv_pos_site_id
 _symmetry_equiv_pos_as_xyz
  1  'x, y, z'
loop_
 _atom_site_type_symbol
 _atom_site_label
 _atom_site_symmetry_multiplicity
 _atom_site_fract_x
 _atom_site_fract_y
 _atom_site_fract_z
 _atom_site_occupancy
  Sr  Sr0  1  0.32505745  0.12566685  0.35159392  1
  Sr  Sr1  1  0.32505745  0.12566685  0.85159392  1
  Sr  Sr2  1  0.32505745  0.62566685  0.35159392  1
  Sr  Sr3  1  0.32505745  0.62566685  0.85159392  1
  Sr  Sr4  1  0.65839078  0.12566685  0.35159392  1
  Sr  Sr5  1  0.65839078  0.12566685  0.85159392  1
  Sr  Sr6  1  0.65839078  0.62566685  0.35159392  1
  Sr  Sr7  1  0.65839078  0.62566685  0.85159392  1
  Sr  Sr8  1  0.99172412  0.12566685  0.35159392  1
  Sr  Sr9  1  0.99172412  0.12566685  0.85159392  1
  Sr  Sr10  1  0.99172412  0.62566685  0.35159392  1
  Sr  Sr11  1  0.99172412  0.62566685  0.85159392  1
  Sr  Sr12  1  0.00827588  0.37566685  0.39840608  1
  Sr  Sr13  1  0.00827588  0.37566685  0.89840608  1
  Sr  Sr14  1  0.00827588  0.87566685  0.39840608  1
  Sr  Sr15  1  0.00827588  0.87566685  0.89840608  1
  Sr  Sr16  1  0.34160922  0.37566685  0.39840608  1
  Sr  Sr17  1  0.34160922  0.37566685  0.89840608  1
  Sr  Sr18  1  0.34160922  0.87566685  0.39840608  1
  Sr  Sr19  1  0.34160922  0.87566685  0.89840608  1
  Sr  Sr20  1  0.67494255  0.37566685  0.39840608  1
  Sr  Sr21  1  0.67494255  0.37566685  0.89840608  1
  Sr  Sr22  1  0.67494255  0.87566685  0.39840608  1
  Sr  Sr23  1  0.67494255  0.87566685  0.89840608  1
  Sr  Sr24  1  0.17494255  0.37433315  0.10159392  1
  Sr  Sr25  1  0.17494255  0.37433315  0.60159392  1
  Sr  Sr26  1  0.17494255  0.87433315  0.10159392  1
  Sr  Sr27  1  0.17494255  0.87433315  0.60159392  1
  Sr  Sr28  1  0.50827588  0.37433315  0.10159392  1
  Sr  Sr29  1  0.50827588  0.37433315  0.60159392  1
  Sr  Sr30  1  0.50827588  0.87433315  0.10159392  1
  Sr  Sr31  1  0.50827588  0.87433315  0.60159392  1
  Sr  Sr32  1  0.84160922  0.37433315  0.10159392  1
  Sr  Sr33  1  0.84160922  0.37433315  0.60159392  1
  Sr  Sr34  1  0.84160922  0.87433315  0.10159392  1
  Sr  Sr35  1  0.84160922  0.87433315  0.60159392  1
  Sr  Sr36  1  0.15839078  0.12433315  0.14840608  1
  Sr  Sr37  1  0.15839078  0.12433315  0.64840608  1
  Sr  Sr38  1  0.15839078  0.62433315  0.14840608  1
  Sr  Sr39  1  0.15839078  0.62433315  0.64840608  1
  Sr  Sr40  1  0.49172412  0.12433315  0.14840608  1
  Sr  Sr41  1  0.49172412  0.12433315  0.64840608  1
  Sr  Sr42  1  0.49172412  0.62433315  0.14840608  1
  Sr  Sr43  1  0.49172412  0.62433315  0.64840608  1
  Sr  Sr44  1  0.82505745  0.12433315  0.14840608  1
  Sr  Sr45  1  0.82505745  0.12433315  0.64840608  1
  Sr  Sr46  1  0.82505745  0.62433315  0.14840608  1
  Sr  Sr47  1  0.82505745  0.62433315  0.64840608  1
  Tl  Tl48  1  0.15913448  0.20662854  0.46126373  1
  Tl  Tl49  1  0.15913448  0.20662854  0.96126373  1
  Tl  Tl50  1  0.15913448  0.70662854  0.46126373  1
  Tl  Tl51  1  0.15913448  0.70662854  0.96126373  1
  Tl  Tl52  1  0.49246782  0.20662854  0.46126373  1
  Tl  Tl53  1  0.49246782  0.20662854  0.96126373  1
  Tl  Tl54  1  0.49246782  0.70662854  0.46126373  1
  Tl  Tl55  1  0.49246782  0.70662854  0.96126373  1
  Tl  Tl56  1  0.82580115  0.20662854  0.46126373  1
  Tl  Tl57  1  0.82580115  0.20662854  0.96126373  1
  Tl  Tl58  1  0.82580115  0.70662854  0.46126373  1
  Tl  Tl59  1  0.82580115  0.70662854  0.96126373  1
  Tl  Tl60  1  0.32580115  0.04337146  0.03873627  1
  Tl  Tl61  1  0.32580115  0.04337146  0.53873627  1
  Tl  Tl62  1  0.32580115  0.54337146  0.03873627  1
  Tl  Tl63  1  0.32580115  0.54337146  0.53873627  1
  Tl  Tl64  1  0.65913448  0.04337146  0.03873627  1
  Tl  Tl65  1  0.65913448  0.04337146  0.53873627  1
  Tl  Tl66  1  0.65913448  0.54337146  0.03873627  1
  Tl  Tl67  1  0.65913448  0.54337146  0.53873627  1
  Tl  Tl68  1  0.99246782  0.04337146  0.03873627  1
  Tl  Tl69  1  0.99246782  0.04337146  0.53873627  1
  Tl  Tl70  1  0.99246782  0.54337146  0.03873627  1
  Tl  Tl71  1  0.99246782  0.54337146  0.53873627  1
  Tl  Tl72  1  0.17419885  0.45662854  0.28873627  1
  Tl  Tl73  1  0.17419885  0.45662854  0.78873627  1
  Tl  Tl74  1  0.17419885  0.95662854  0.28873627  1
  Tl  Tl75  1  0.17419885  0.95662854  0.78873627  1
  Tl  Tl76  1  0.50753218  0.45662854  0.28873627  1
  Tl  Tl77  1  0.50753218  0.45662854  0.78873627  1
  Tl  Tl78  1  0.50753218  0.95662854  0.28873627  1
  Tl  Tl79  1  0.50753218  0.95662854  0.78873627  1
  Tl  Tl80  1  0.84086552  0.45662854  0.28873627  1
  Tl  Tl81  1  0.84086552  0.45662854  0.78873627  1
  Tl  Tl82  1  0.84086552  0.95662854  0.28873627  1
  Tl  Tl83  1  0.84086552  0.95662854  0.78873627  1
  Tl  Tl84  1  0.00753218  0.29337146  0.21126373  1
  Tl  Tl85  1  0.00753218  0.29337146  0.71126373  1
  Tl  Tl86  1  0.00753218  0.79337146  0.21126373  1
  Tl  Tl87  1  0.00753218  0.79337146  0.71126373  1
  Tl  Tl88  1  0.34086552  0.29337146  0.21126373  1
  Tl  Tl89  1  0.34086552  0.29337146  0.71126373  1
  Tl  Tl90  1  0.34086552  0.79337146  0.21126373  1
  Tl  Tl91  1  0.34086552  0.79337146  0.71126373  1
  Tl  Tl92  1  0.67419885  0.29337146  0.21126373  1
  Tl  Tl93  1  0.67419885  0.29337146  0.71126373  1
  Tl  Tl94  1  0.67419885  0.79337146  0.21126373  1
  Tl  Tl95  1  0.67419885  0.79337146  0.71126373  1
  V  V96  1  0.17195844  0.23509178  0.29114816  1
  V  V97  1  0.17195844  0.23509178  0.79114816  1
  V  V98  1  0.17195844  0.73509178  0.29114816  1
  V  V99  1  0.17195844  0.73509178  0.79114816  1
  V  V100  1  0.50529178  0.23509178  0.29114816  1
  V  V101  1  0.50529178  0.23509178  0.79114816  1
  V  V102  1  0.50529178  0.73509178  0.29114816  1
  V  V103  1  0.50529178  0.73509178  0.79114816  1
  V  V104  1  0.83862511  0.23509178  0.29114816  1
  V  V105  1  0.83862511  0.23509178  0.79114816  1
  V  V106  1  0.83862511  0.73509178  0.29114816  1
  V  V107  1  0.83862511  0.73509178  0.79114816  1
  V  V108  1  0.16137489  0.48509178  0.45885184  1
  V  V109  1  0.16137489  0.48509178  0.95885184  1
  V  V110  1  0.16137489  0.98509178  0.45885184  1
  V  V111  1  0.16137489  0.98509178  0.95885184  1
  V  V112  1  0.49470822  0.48509178  0.45885184  1
  V  V113  1  0.49470822  0.48509178  0.95885184  1
  V  V114  1  0.49470822  0.98509178  0.45885184  1
  V  V115  1  0.49470822  0.98509178  0.95885184  1
  V  V116  1  0.82804156  0.48509178  0.45885184  1
  V  V117  1  0.82804156  0.48509178  0.95885184  1
  V  V118  1  0.82804156  0.98509178  0.45885184  1
  V  V119  1  0.82804156  0.98509178  0.95885184  1
  V  V120  1  0.00529178  0.01490822  0.20885184  1
  V  V121  1  0.00529178  0.01490822  0.70885184  1
  V  V122  1  0.00529178  0.51490822  0.20885184  1
  V  V123  1  0.00529178  0.51490822  0.70885184  1
  V  V124  1  0.33862511  0.01490822  0.20885184  1
  V  V125  1  0.33862511  0.01490822  0.70885184  1
  V  V126  1  0.33862511  0.51490822  0.20885184  1
  V  V127  1  0.33862511  0.51490822  0.70885184  1
  V  V128  1  0.67195844  0.01490822  0.20885184  1
  V  V129  1  0.67195844  0.01490822  0.70885184  1
  V  V130  1  0.67195844  0.51490822  0.20885184  1
  V  V131  1  0.67195844  0.51490822  0.70885184  1
  V  V132  1  0.32804156  0.26490822  0.04114816  1
  V  V133  1  0.32804156  0.26490822  0.54114816  1
  V  V134  1  0.32804156  0.76490822  0.04114816  1
  V  V135  1  0.32804156  0.76490822  0.54114816  1
  V  V136  1  0.66137489  0.26490822  0.04114816  1
  V  V137  1  0.66137489  0.26490822  0.54114816  1
  V  V138  1  0.66137489  0.76490822  0.04114816  1
  V  V139  1  0.66137489  0.76490822  0.54114816  1
  V  V140  1  0.99470822  0.26490822  0.04114816  1
  V  V141  1  0.99470822  0.26490822  0.54114816  1
  V  V142  1  0.99470822  0.76490822  0.04114816  1
  V  V143  1  0.99470822  0.76490822  0.54114816  1
  O  O144  1  0.08027714  0.24539154  0.08259666  1
  O  O145  1  0.08027714  0.24539154  0.58259666  1
  O  O146  1  0.08027714  0.74539154  0.08259666  1
  O  O147  1  0.08027714  0.74539154  0.58259666  1
  O  O148  1  0.41361047  0.24539154  0.08259666  1
  O  O149  1  0.41361047  0.24539154  0.58259666  1
  O  O150  1  0.41361047  0.74539154  0.08259666  1
  O  O151  1  0.41361047  0.74539154  0.58259666  1
  O  O152  1  0.74694380  0.24539154  0.08259666  1
  O  O153  1  0.74694380  0.24539154  0.58259666  1
  O  O154  1  0.74694380  0.74539154  0.08259666  1
  O  O155  1  0.74694380  0.74539154  0.58259666  1
  O  O156  1  0.16692004  0.02750274  0.03958623  1
  O  O157  1  0.16692004  0.02750274  0.53958623  1
  O  O158  1  0.16692004  0.52750274  0.03958623  1
  O  O159  1  0.16692004  0.52750274  0.53958623  1
  O  O160  1  0.50025338  0.02750274  0.03958623  1
  O  O161  1  0.50025338  0.02750274  0.53958623  1
  O  O162  1  0.50025338  0.52750274  0.03958623  1
  O  O163  1  0.50025338  0.52750274  0.53958623  1
  O  O164  1  0.83358671  0.02750274  0.03958623  1
  O  O165  1  0.83358671  0.02750274  0.53958623  1
  O  O166  1  0.83358671  0.52750274  0.03958623  1
  O  O167  1  0.83358671  0.52750274  0.53958623  1
  O  O168  1  0.24938437  0.27635521  0.33448924  1
  O  O169  1  0.24938437  0.27635521  0.83448924  1
  O  O170  1  0.24938437  0.77635521  0.33448924  1
  O  O171  1  0.24938437  0.77635521  0.83448924  1
  O  O172  1  0.58271770  0.27635521  0.33448924  1
  O  O173  1  0.58271770  0.27635521  0.83448924  1
  O  O174  1  0.58271770  0.77635521  0.33448924  1
  O  O175  1  0.58271770  0.77635521  0.83448924  1
  O  O176  1  0.91605103  0.27635521  0.33448924  1
  O  O177  1  0.91605103  0.27635521  0.83448924  1
  O  O178  1  0.91605103  0.77635521  0.33448924  1
  O  O179  1  0.91605103  0.77635521  0.83448924  1
  O  O180  1  0.00025338  0.22249726  0.46041377  1
  O  O181  1  0.00025338  0.22249726  0.96041377  1
  O  O182  1  0.00025338  0.72249726  0.46041377  1
  O  O183  1  0.00025338  0.72249726  0.96041377  1
  O  O184  1  0.33358671  0.22249726  0.46041377  1
  O  O185  1  0.33358671  0.22249726  0.96041377  1
  O  O186  1  0.33358671  0.72249726  0.46041377  1
  O  O187  1  0.33358671  0.72249726  0.96041377  1
  O  O188  1  0.66692004  0.22249726  0.46041377  1
  O  O189  1  0.66692004  0.22249726  0.96041377  1
  O  O190  1  0.66692004  0.72249726  0.46041377  1
  O  O191  1  0.66692004  0.72249726  0.96041377  1
  O  O192  1  0.08394897  0.02635521  0.41551076  1
  O  O193  1  0.08394897  0.02635521  0.91551076  1
  O  O194  1  0.08394897  0.52635521  0.41551076  1
  O  O195  1  0.08394897  0.52635521  0.91551076  1
  O  O196  1  0.41728230  0.02635521  0.41551076  1
  O  O197  1  0.41728230  0.02635521  0.91551076  1
  O  O198  1  0.41728230  0.52635521  0.41551076  1
  O  O199  1  0.41728230  0.52635521  0.91551076  1
  O  O200  1  0.75061563  0.02635521  0.41551076  1
  O  O201  1  0.75061563  0.02635521  0.91551076  1
  O  O202  1  0.75061563  0.52635521  0.41551076  1
  O  O203  1  0.75061563  0.52635521  0.91551076  1
  O  O204  1  0.24694380  0.00460846  0.41740334  1
  O  O205  1  0.24694380  0.00460846  0.91740334  1
  O  O206  1  0.24694380  0.50460846  0.41740334  1
  O  O207  1  0.24694380  0.50460846  0.91740334  1
  O  O208  1  0.58027714  0.00460846  0.41740334  1
  O  O209  1  0.58027714  0.00460846  0.91740334  1
  O  O210  1  0.58027714  0.50460846  0.41740334  1
  O  O211  1  0.58027714  0.50460846  0.91740334  1
  O  O212  1  0.91361047  0.00460846  0.41740334  1
  O  O213  1  0.91361047  0.00460846  0.91740334  1
  O  O214  1  0.91361047  0.50460846  0.41740334  1
  O  O215  1  0.91361047  0.50460846  0.91740334  1
  O  O216  1  0.08638953  0.25460846  0.33259666  1
  O  O217  1  0.08638953  0.25460846  0.83259666  1
  O  O218  1  0.08638953  0.75460846  0.33259666  1
  O  O219  1  0.08638953  0.75460846  0.83259666  1
  O  O220  1  0.41972286  0.25460846  0.33259666  1
  O  O221  1  0.41972286  0.25460846  0.83259666  1
  O  O222  1  0.41972286  0.75460846  0.33259666  1
  O  O223  1  0.41972286  0.75460846  0.83259666  1
  O  O224  1  0.75305620  0.25460846  0.33259666  1
  O  O225  1  0.75305620  0.25460846  0.83259666  1
  O  O226  1  0.75305620  0.75460846  0.33259666  1
  O  O227  1  0.75305620  0.75460846  0.83259666  1
  O  O228  1  0.08271770  0.47364479  0.16551076  1
  O  O229  1  0.08271770  0.47364479  0.66551076  1
  O  O230  1  0.08271770  0.97364479  0.16551076  1
  O  O231  1  0.08271770  0.97364479  0.66551076  1
  O  O232  1  0.41605103  0.47364479  0.16551076  1
  O  O233  1  0.41605103  0.47364479  0.66551076  1
  O  O234  1  0.41605103  0.97364479  0.16551076  1
  O  O235  1  0.41605103  0.97364479  0.66551076  1
  O  O236  1  0.74938437  0.47364479  0.16551076  1
  O  O237  1  0.74938437  0.47364479  0.66551076  1
  O  O238  1  0.74938437  0.97364479  0.16551076  1
  O  O239  1  0.74938437  0.97364479  0.66551076  1
  O  O240  1  0.14260322  0.37375774  0.46821236  1
  O  O241  1  0.14260322  0.37375774  0.96821236  1
  O  O242  1  0.14260322  0.87375774  0.46821236  1
  O  O243  1  0.14260322  0.87375774  0.96821236  1
  O  O244  1  0.47593655  0.37375774  0.46821236  1
  O  O245  1  0.47593655  0.37375774  0.96821236  1
  O  O246  1  0.47593655  0.87375774  0.46821236  1
  O  O247  1  0.47593655  0.87375774  0.96821236  1
  O  O248  1  0.80926989  0.37375774  0.46821236  1
  O  O249  1  0.80926989  0.37375774  0.96821236  1
  O  O250  1  0.80926989  0.87375774  0.46821236  1
  O  O251  1  0.80926989  0.87375774  0.96821236  1
  O  O252  1  0.30926989  0.37624226  0.03178764  1
  O  O253  1  0.30926989  0.37624226  0.53178764  1
  O  O254  1  0.30926989  0.87624226  0.03178764  1
  O  O255  1  0.30926989  0.87624226  0.53178764  1
  O  O256  1  0.64260322  0.37624226  0.03178764  1
  O  O257  1  0.64260322  0.37624226  0.53178764  1
  O  O258  1  0.64260322  0.87624226  0.03178764  1
  O  O259  1  0.64260322  0.87624226  0.53178764  1
  O  O260  1  0.97593655  0.37624226  0.03178764  1
  O  O261  1  0.97593655  0.37624226  0.53178764  1
  O  O262  1  0.97593655  0.87624226  0.03178764  1
  O  O263  1  0.97593655  0.87624226  0.53178764  1
  O  O264  1  0.25305620  0.49539154  0.16740334  1
  O  O265  1  0.25305620  0.49539154  0.66740334  1
  O  O266  1  0.25305620  0.99539154  0.16740334  1
  O  O267  1  0.25305620  0.99539154  0.66740334  1
  O  O268  1  0.58638953  0.49539154  0.16740334  1
  O  O269  1  0.58638953  0.49539154  0.66740334  1
  O  O270  1  0.58638953  0.99539154  0.16740334  1
  O  O271  1  0.58638953  0.99539154  0.66740334  1
  O  O272  1  0.91972286  0.49539154  0.16740334  1
  O  O273  1  0.91972286  0.49539154  0.66740334  1
  O  O274  1  0.91972286  0.99539154  0.16740334  1
  O  O275  1  0.91972286  0.99539154  0.66740334  1
  O  O276  1  0.16641329  0.27750274  0.21041377  1
  O  O277  1  0.16641329  0.27750274  0.71041377  1
  O  O278  1  0.16641329  0.77750274  0.21041377  1
  O  O279  1  0.16641329  0.77750274  0.71041377  1
  O  O280  1  0.49974662  0.27750274  0.21041377  1
  O  O281  1  0.49974662  0.27750274  0.71041377  1
  O  O282  1  0.49974662  0.77750274  0.21041377  1
  O  O283  1  0.49974662  0.77750274  0.71041377  1
  O  O284  1  0.83307996  0.27750274  0.21041377  1
  O  O285  1  0.83307996  0.27750274  0.71041377  1
  O  O286  1  0.83307996  0.77750274  0.21041377  1
  O  O287  1  0.83307996  0.77750274  0.71041377  1
  O  O288  1  0.25061563  0.22364479  0.08448924  1
  O  O289  1  0.25061563  0.22364479  0.58448924  1
  O  O290  1  0.25061563  0.72364479  0.08448924  1
  O  O291  1  0.25061563  0.72364479  0.58448924  1
  O  O292  1  0.58394897  0.22364479  0.08448924  1
  O  O293  1  0.58394897  0.22364479  0.58448924  1
  O  O294  1  0.58394897  0.72364479  0.08448924  1
  O  O295  1  0.58394897  0.72364479  0.58448924  1
  O  O296  1  0.91728230  0.22364479  0.08448924  1
  O  O297  1  0.91728230  0.22364479  0.58448924  1
  O  O298  1  0.91728230  0.72364479  0.08448924  1
  O  O299  1  0.91728230  0.72364479  0.58448924  1
  O  O300  1  0.33307996  0.47249726  0.28958623  1
  O  O301  1  0.33307996  0.47249726  0.78958623  1
  O  O302  1  0.33307996  0.97249726  0.28958623  1
  O  O303  1  0.33307996  0.97249726  0.78958623  1
  O  O304  1  0.66641329  0.47249726  0.28958623  1
  O  O305  1  0.66641329  0.47249726  0.78958623  1
  O  O306  1  0.66641329  0.97249726  0.28958623  1
  O  O307  1  0.66641329  0.97249726  0.78958623  1
  O  O308  1  0.99974662  0.47249726  0.28958623  1
  O  O309  1  0.99974662  0.47249726  0.78958623  1
  O  O310  1  0.99974662  0.97249726  0.28958623  1
  O  O311  1  0.99974662  0.97249726  0.78958623  1
  O  O312  1  0.02406345  0.12624226  0.21821236  1
  O  O313  1  0.02406345  0.12624226  0.71821236  1
  O  O314  1  0.02406345  0.62624226  0.21821236  1
  O  O315  1  0.02406345  0.62624226  0.71821236  1
  O  O316  1  0.35739678  0.12624226  0.21821236  1
  O  O317  1  0.35739678  0.12624226  0.71821236  1
  O  O318  1  0.35739678  0.62624226  0.21821236  1
  O  O319  1  0.35739678  0.62624226  0.71821236  1
  O  O320  1  0.69073011  0.12624226  0.21821236  1
  O  O321  1  0.69073011  0.12624226  0.71821236  1
  O  O322  1  0.69073011  0.62624226  0.21821236  1
  O  O323  1  0.69073011  0.62624226  0.71821236  1
  O  O324  1  0.19073011  0.12375774  0.28178764  1
  O  O325  1  0.19073011  0.12375774  0.78178764  1
  O  O326  1  0.19073011  0.62375774  0.28178764  1
  O  O327  1  0.19073011  0.62375774  0.78178764  1
  O  O328  1  0.52406345  0.12375774  0.28178764  1
  O  O329  1  0.52406345  0.12375774  0.78178764  1
  O  O330  1  0.52406345  0.62375774  0.28178764  1
  O  O331  1  0.52406345  0.62375774  0.78178764  1
  O  O332  1  0.85739678  0.12375774  0.28178764  1
  O  O333  1  0.85739678  0.12375774  0.78178764  1
  O  O334  1  0.85739678  0.62375774  0.28178764  1
  O  O335  1  0.85739678  0.62375774  0.78178764  1
