# generated using pymatgen
data_Cd2SiO4
_symmetry_space_group_name_H-M   'P 1'
_cell_length_a   12.02226201
_cell_length_b   9.84441952
_cell_length_c   11.87861737
_cell_angle_alpha   90.00000000
_cell_angle_beta   90.00000000
_cell_angle_gamma   90.00000000
_symmetry_Int_Tables_number   1
_chemical_formula_structural   Cd2SiO4
_chemical_formula_sum   'Cd32 Si16 O64'
_cell_volume   1405.86038932
_cell_formula_units_Z   16
loop_
 _symmetry_equiv_pos_site_id
 _symmetry_equiv_pos_as_xyz
  1  'x, y, z'
loop_
 _atom_site_type_symbol
 _atom_site_label
 _atom_site_symmetry_multiplicity
 _atom_site_fract_x
 _atom_site_fract_y
 _atom_site_fract_z
 _atom_site_occupancy
  Cd  Cd0  1  0.37500000  0.56503159  0.75000000  1
  Cd  Cd1  1  0.87500000  0.56503159  0.75000000  1
  Cd  Cd2  1  0.62500000  1.06503159  0.75000000  1
  Cd  Cd3  1  1.12500000  1.06503159  0.75000000  1
  Cd  Cd4  1  0.62500000  0.56503159  1.25000000  1
  Cd  Cd5  1  1.12500000  0.56503159  1.25000000  1
  Cd  Cd6  1  0.37500000  1.06503159  1.25000000  1
  Cd  Cd7  1  0.87500000  1.06503159  1.25000000  1
  Cd  Cd8  1  0.37500000  0.93496841  0.75000000  1
  Cd  Cd9  1  0.87500000  0.93496841  0.75000000  1
  Cd  Cd10  1  0.62500000  1.43496841  0.75000000  1
  Cd  Cd11  1  1.12500000  1.43496841  0.75000000  1
  Cd  Cd12  1  0.62500000  0.93496841  1.25000000  1
  Cd  Cd13  1  1.12500000  0.93496841  1.25000000  1
  Cd  Cd14  1  0.37500000  1.43496841  1.25000000  1
  Cd  Cd15  1  0.87500000  1.43496841  1.25000000  1
  Cd  Cd16  1  0.25000000  0.68496841  0.50000000  1
  Cd  Cd17  1  0.75000000  0.68496841  0.50000000  1
  Cd  Cd18  1  0.50000000  1.18496841  0.50000000  1
  Cd  Cd19  1  1.00000000  1.18496841  0.50000000  1
  Cd  Cd20  1  0.50000000  0.68496841  1.00000000  1
  Cd  Cd21  1  1.00000000  0.68496841  1.00000000  1
  Cd  Cd22  1  0.25000000  1.18496841  1.00000000  1
  Cd  Cd23  1  0.75000000  1.18496841  1.00000000  1
  Cd  Cd24  1  0.25000000  0.31503159  0.50000000  1
  Cd  Cd25  1  0.75000000  0.31503159  0.50000000  1
  Cd  Cd26  1  0.50000000  0.81503159  0.50000000  1
  Cd  Cd27  1  1.00000000  0.81503159  0.50000000  1
  Cd  Cd28  1  0.50000000  0.31503159  1.00000000  1
  Cd  Cd29  1  1.00000000  0.31503159  1.00000000  1
  Cd  Cd30  1  0.25000000  0.81503159  1.00000000  1
  Cd  Cd31  1  0.75000000  0.81503159  1.00000000  1
  Si  Si32  1  0.12500000  0.25000000  0.25000000  1
  Si  Si33  1  0.62500000  0.25000000  0.25000000  1
  Si  Si34  1  0.37500000  0.75000000  0.25000000  1
  Si  Si35  1  0.87500000  0.75000000  0.25000000  1
  Si  Si36  1  0.37500000  0.25000000  0.75000000  1
  Si  Si37  1  0.87500000  0.25000000  0.75000000  1
  Si  Si38  1  0.12500000  0.75000000  0.75000000  1
  Si  Si39  1  0.62500000  0.75000000  0.75000000  1
  Si  Si40  1  0.00000000  0.00000000  0.00000000  1
  Si  Si41  1  0.50000000  0.00000000  0.00000000  1
  Si  Si42  1  0.25000000  0.50000000  0.00000000  1
  Si  Si43  1  0.75000000  0.50000000  0.00000000  1
  Si  Si44  1  0.25000000  0.00000000  0.50000000  1
  Si  Si45  1  0.75000000  0.00000000  0.50000000  1
  Si  Si46  1  0.00000000  0.50000000  0.50000000  1
  Si  Si47  1  0.50000000  0.50000000  0.50000000  1
  O  O48  1  0.20303636  0.35500007  0.32423151  1
  O  O49  1  0.70303636  0.35500007  0.32423151  1
  O  O50  1  0.45303636  0.85500007  0.32423151  1
  O  O51  1  0.95303636  0.85500007  0.32423151  1
  O  O52  1  0.45303636  0.35500007  0.82423151  1
  O  O53  1  0.95303636  0.35500007  0.82423151  1
  O  O54  1  0.20303636  0.85500007  0.82423151  1
  O  O55  1  0.70303636  0.85500007  0.82423151  1
  O  O56  1  0.20303636  0.64499993  0.67576849  1
  O  O57  1  0.70303636  0.64499993  0.67576849  1
  O  O58  1  0.45303636  1.14499993  0.67576849  1
  O  O59  1  0.95303636  1.14499993  0.67576849  1
  O  O60  1  0.45303636  0.64499993  1.17576849  1
  O  O61  1  0.95303636  0.64499993  1.17576849  1
  O  O62  1  0.20303636  1.14499993  1.17576849  1
  O  O63  1  0.70303636  1.14499993  1.17576849  1
  O  O64  1  0.29696364  0.35500007  0.67576849  1
  O  O65  1  0.79696364  0.35500007  0.67576849  1
  O  O66  1  0.54696364  0.85500007  0.67576849  1
  O  O67  1  1.04696364  0.85500007  0.67576849  1
  O  O68  1  0.54696364  0.35500007  1.17576849  1
  O  O69  1  1.04696364  0.35500007  1.17576849  1
  O  O70  1  0.29696364  0.85500007  1.17576849  1
  O  O71  1  0.79696364  0.85500007  1.17576849  1
  O  O72  1  0.29696364  0.64499993  0.32423151  1
  O  O73  1  0.79696364  0.64499993  0.32423151  1
  O  O74  1  0.54696364  1.14499993  0.32423151  1
  O  O75  1  1.04696364  1.14499993  0.32423151  1
  O  O76  1  0.54696364  0.64499993  0.82423151  1
  O  O77  1  1.04696364  0.64499993  0.82423151  1
  O  O78  1  0.29696364  1.14499993  0.82423151  1
  O  O79  1  0.79696364  1.14499993  0.82423151  1
  O  O80  1  0.42196364  0.89499993  0.92576849  1
  O  O81  1  0.92196364  0.89499993  0.92576849  1
  O  O82  1  0.67196364  1.39499993  0.92576849  1
  O  O83  1  1.17196364  1.39499993  0.92576849  1
  O  O84  1  0.67196364  0.89499993  1.42576849  1
  O  O85  1  1.17196364  0.89499993  1.42576849  1
  O  O86  1  0.42196364  1.39499993  1.42576849  1
  O  O87  1  0.92196364  1.39499993  1.42576849  1
  O  O88  1  0.42196364  0.60500007  0.57423151  1
  O  O89  1  0.92196364  0.60500007  0.57423151  1
  O  O90  1  0.67196364  1.10500007  0.57423151  1
  O  O91  1  1.17196364  1.10500007  0.57423151  1
  O  O92  1  0.67196364  0.60500007  1.07423151  1
  O  O93  1  1.17196364  0.60500007  1.07423151  1
  O  O94  1  0.42196364  1.10500007  1.07423151  1
  O  O95  1  0.92196364  1.10500007  1.07423151  1
  O  O96  1  0.32803636  0.60500007  0.92576849  1
  O  O97  1  0.82803636  0.60500007  0.92576849  1
  O  O98  1  0.57803636  1.10500007  0.92576849  1
  O  O99  1  1.07803636  1.10500007  0.92576849  1
  O  O100  1  0.57803636  0.60500007  1.42576849  1
  O  O101  1  1.07803636  0.60500007  1.42576849  1
  O  O102  1  0.32803636  1.10500007  1.42576849  1
  O  O103  1  0.82803636  1.10500007  1.42576849  1
  O  O104  1  0.32803636  0.89499993  0.57423151  1
  O  O105  1  0.82803636  0.89499993  0.57423151  1
  O  O106  1  0.57803636  1.39499993  0.57423151  1
  O  O107  1  1.07803636  1.39499993  0.57423151  1
  O  O108  1  0.57803636  0.89499993  1.07423151  1
  O  O109  1  1.07803636  0.89499993  1.07423151  1
  O  O110  1  0.32803636  1.39499993  1.07423151  1
  O  O111  1  0.82803636  1.39499993  1.07423151  1
