# generated using pymatgen
data_Li2HgO2
_symmetry_space_group_name_H-M   'P 1'
_cell_length_a   12.84950277
_cell_length_b   12.84950277
_cell_length_c   12.59668798
_cell_angle_alpha   90.00000000
_cell_angle_beta   90.00000000
_cell_angle_gamma   90.00000000
_symmetry_Int_Tables_number   1
_chemical_formula_structural   Li2HgO2
_chemical_formula_sum   'Li72 Hg36 O72'
_cell_volume   2079.83564390
_cell_formula_units_Z   36
loop_
 _symmetry_equiv_pos_site_id
 _symmetry_equiv_pos_as_xyz
  1  'x, y, z'
loop_
 _atom_site_type_symbol
 _atom_site_label
 _atom_site_symmetry_multiplicity
 _atom_site_fract_x
 _atom_site_fract_y
 _atom_site_fract_z
 _atom_site_occupancy
  Li  Li0  1  -0.00000000  0.66666667  0.31264521  1
  Li  Li1  1  0.16666667  0.83333333  0.31264521  1
  Li  Li2  1  -0.00000000  0.33333333  0.31264521  1
  Li  Li3  1  0.16666667  0.50000000  0.31264521  1
  Li  Li4  1  0.33333333  0.66666667  0.31264521  1
  Li  Li5  1  0.50000000  0.83333333  0.31264521  1
  Li  Li6  1  0.00000000  -0.00000000  0.31264521  1
  Li  Li7  1  0.16666667  0.16666667  0.31264521  1
  Li  Li8  1  0.33333333  0.33333333  0.31264521  1
  Li  Li9  1  0.50000000  0.50000000  0.31264521  1
  Li  Li10  1  0.66666667  0.66666667  0.31264521  1
  Li  Li11  1  0.83333333  0.83333333  0.31264521  1
  Li  Li12  1  0.33333333  -0.00000000  0.31264521  1
  Li  Li13  1  0.50000000  0.16666667  0.31264521  1
  Li  Li14  1  0.66666667  0.33333333  0.31264521  1
  Li  Li15  1  0.83333333  0.50000000  0.31264521  1
  Li  Li16  1  0.66666667  -0.00000000  0.31264521  1
  Li  Li17  1  0.83333333  0.16666667  0.31264521  1
  Li  Li18  1  0.16666667  0.66666667  0.81264521  1
  Li  Li19  1  0.33333333  0.83333333  0.81264521  1
  Li  Li20  1  0.16666667  0.33333333  0.81264521  1
  Li  Li21  1  0.33333333  0.50000000  0.81264521  1
  Li  Li22  1  0.50000000  0.66666667  0.81264521  1
  Li  Li23  1  0.66666667  0.83333333  0.81264521  1
  Li  Li24  1  0.16666667  -0.00000000  0.81264521  1
  Li  Li25  1  0.33333333  0.16666667  0.81264521  1
  Li  Li26  1  0.50000000  0.33333333  0.81264521  1
  Li  Li27  1  0.66666667  0.50000000  0.81264521  1
  Li  Li28  1  0.83333333  0.66666667  0.81264521  1
  Li  Li29  1  1.00000000  0.83333333  0.81264521  1
  Li  Li30  1  0.50000000  -0.00000000  0.81264521  1
  Li  Li31  1  0.66666667  0.16666667  0.81264521  1
  Li  Li32  1  0.83333333  0.33333333  0.81264521  1
  Li  Li33  1  1.00000000  0.50000000  0.81264521  1
  Li  Li34  1  0.83333333  0.00000000  0.81264521  1
  Li  Li35  1  1.00000000  0.16666667  0.81264521  1
  Li  Li36  1  -0.00000000  0.66666667  0.68735479  1
  Li  Li37  1  0.16666667  0.83333333  0.68735479  1
  Li  Li38  1  -0.00000000  0.33333333  0.68735479  1
  Li  Li39  1  0.16666667  0.50000000  0.68735479  1
  Li  Li40  1  0.33333333  0.66666667  0.68735479  1
  Li  Li41  1  0.50000000  0.83333333  0.68735479  1
  Li  Li42  1  0.00000000  -0.00000000  0.68735479  1
  Li  Li43  1  0.16666667  0.16666667  0.68735479  1
  Li  Li44  1  0.33333333  0.33333333  0.68735479  1
  Li  Li45  1  0.50000000  0.50000000  0.68735479  1
  Li  Li46  1  0.66666667  0.66666667  0.68735479  1
  Li  Li47  1  0.83333333  0.83333333  0.68735479  1
  Li  Li48  1  0.33333333  -0.00000000  0.68735479  1
  Li  Li49  1  0.50000000  0.16666667  0.68735479  1
  Li  Li50  1  0.66666667  0.33333333  0.68735479  1
  Li  Li51  1  0.83333333  0.50000000  0.68735479  1
  Li  Li52  1  0.66666667  -0.00000000  0.68735479  1
  Li  Li53  1  0.83333333  0.16666667  0.68735479  1
  Li  Li54  1  0.16666667  0.66666667  1.18735479  1
  Li  Li55  1  0.33333333  0.83333333  1.18735479  1
  Li  Li56  1  0.16666667  0.33333333  1.18735479  1
  Li  Li57  1  0.33333333  0.50000000  1.18735479  1
  Li  Li58  1  0.50000000  0.66666667  1.18735479  1
  Li  Li59  1  0.66666667  0.83333333  1.18735479  1
  Li  Li60  1  0.16666667  -0.00000000  1.18735479  1
  Li  Li61  1  0.33333333  0.16666667  1.18735479  1
  Li  Li62  1  0.50000000  0.33333333  1.18735479  1
  Li  Li63  1  0.66666667  0.50000000  1.18735479  1
  Li  Li64  1  0.83333333  0.66666667  1.18735479  1
  Li  Li65  1  1.00000000  0.83333333  1.18735479  1
  Li  Li66  1  0.50000000  -0.00000000  1.18735479  1
  Li  Li67  1  0.66666667  0.16666667  1.18735479  1
  Li  Li68  1  0.83333333  0.33333333  1.18735479  1
  Li  Li69  1  1.00000000  0.50000000  1.18735479  1
  Li  Li70  1  0.83333333  0.00000000  1.18735479  1
  Li  Li71  1  1.00000000  0.16666667  1.18735479  1
  Hg  Hg72  1  -0.00000000  0.66666667  0.00000000  1
  Hg  Hg73  1  0.16666667  0.83333333  0.00000000  1
  Hg  Hg74  1  -0.00000000  0.33333333  0.00000000  1
  Hg  Hg75  1  0.16666667  0.50000000  0.00000000  1
  Hg  Hg76  1  0.33333333  0.66666667  0.00000000  1
  Hg  Hg77  1  0.50000000  0.83333333  0.00000000  1
  Hg  Hg78  1  0.00000000  0.00000000  0.00000000  1
  Hg  Hg79  1  0.16666667  0.16666667  0.00000000  1
  Hg  Hg80  1  0.33333333  0.33333333  0.00000000  1
  Hg  Hg81  1  0.50000000  0.50000000  0.00000000  1
  Hg  Hg82  1  0.66666667  0.66666667  0.00000000  1
  Hg  Hg83  1  0.83333333  0.83333333  0.00000000  1
  Hg  Hg84  1  0.33333333  -0.00000000  0.00000000  1
  Hg  Hg85  1  0.50000000  0.16666667  0.00000000  1
  Hg  Hg86  1  0.66666667  0.33333333  0.00000000  1
  Hg  Hg87  1  0.83333333  0.50000000  0.00000000  1
  Hg  Hg88  1  0.66666667  -0.00000000  0.00000000  1
  Hg  Hg89  1  0.83333333  0.16666667  0.00000000  1
  Hg  Hg90  1  0.16666667  0.66666667  0.50000000  1
  Hg  Hg91  1  0.33333333  0.83333333  0.50000000  1
  Hg  Hg92  1  0.16666667  0.33333333  0.50000000  1
  Hg  Hg93  1  0.33333333  0.50000000  0.50000000  1
  Hg  Hg94  1  0.50000000  0.66666667  0.50000000  1
  Hg  Hg95  1  0.66666667  0.83333333  0.50000000  1
  Hg  Hg96  1  0.16666667  -0.00000000  0.50000000  1
  Hg  Hg97  1  0.33333333  0.16666667  0.50000000  1
  Hg  Hg98  1  0.50000000  0.33333333  0.50000000  1
  Hg  Hg99  1  0.66666667  0.50000000  0.50000000  1
  Hg  Hg100  1  0.83333333  0.66666667  0.50000000  1
  Hg  Hg101  1  1.00000000  0.83333333  0.50000000  1
  Hg  Hg102  1  0.50000000  -0.00000000  0.50000000  1
  Hg  Hg103  1  0.66666667  0.16666667  0.50000000  1
  Hg  Hg104  1  0.83333333  0.33333333  0.50000000  1
  Hg  Hg105  1  1.00000000  0.50000000  0.50000000  1
  Hg  Hg106  1  0.83333333  0.00000000  0.50000000  1
  Hg  Hg107  1  1.00000000  0.16666667  0.50000000  1
  O  O108  1  -0.00000000  0.66666667  0.15846637  1
  O  O109  1  0.16666667  0.83333333  0.15846637  1
  O  O110  1  -0.00000000  0.33333333  0.15846637  1
  O  O111  1  0.16666667  0.50000000  0.15846637  1
  O  O112  1  0.33333333  0.66666667  0.15846637  1
  O  O113  1  0.50000000  0.83333333  0.15846637  1
  O  O114  1  -0.00000000  -0.00000000  0.15846637  1
  O  O115  1  0.16666667  0.16666667  0.15846637  1
  O  O116  1  0.33333333  0.33333333  0.15846637  1
  O  O117  1  0.50000000  0.50000000  0.15846637  1
  O  O118  1  0.66666667  0.66666667  0.15846637  1
  O  O119  1  0.83333333  0.83333333  0.15846637  1
  O  O120  1  0.33333333  -0.00000000  0.15846637  1
  O  O121  1  0.50000000  0.16666667  0.15846637  1
  O  O122  1  0.66666667  0.33333333  0.15846637  1
  O  O123  1  0.83333333  0.50000000  0.15846637  1
  O  O124  1  0.66666667  -0.00000000  0.15846637  1
  O  O125  1  0.83333333  0.16666667  0.15846637  1
  O  O126  1  0.16666667  0.66666667  0.65846637  1
  O  O127  1  0.33333333  0.83333333  0.65846637  1
  O  O128  1  0.16666667  0.33333333  0.65846637  1
  O  O129  1  0.33333333  0.50000000  0.65846637  1
  O  O130  1  0.50000000  0.66666667  0.65846637  1
  O  O131  1  0.66666667  0.83333333  0.65846637  1
  O  O132  1  0.16666667  -0.00000000  0.65846637  1
  O  O133  1  0.33333333  0.16666667  0.65846637  1
  O  O134  1  0.50000000  0.33333333  0.65846637  1
  O  O135  1  0.66666667  0.50000000  0.65846637  1
  O  O136  1  0.83333333  0.66666667  0.65846637  1
  O  O137  1  1.00000000  0.83333333  0.65846637  1
  O  O138  1  0.50000000  -0.00000000  0.65846637  1
  O  O139  1  0.66666667  0.16666667  0.65846637  1
  O  O140  1  0.83333333  0.33333333  0.65846637  1
  O  O141  1  1.00000000  0.50000000  0.65846637  1
  O  O142  1  0.83333333  0.00000000  0.65846637  1
  O  O143  1  1.00000000  0.16666667  0.65846637  1
  O  O144  1  -0.00000000  0.66666667  0.84153363  1
  O  O145  1  0.16666667  0.83333333  0.84153363  1
  O  O146  1  -0.00000000  0.33333333  0.84153363  1
  O  O147  1  0.16666667  0.50000000  0.84153363  1
  O  O148  1  0.33333333  0.66666667  0.84153363  1
  O  O149  1  0.50000000  0.83333333  0.84153363  1
  O  O150  1  -0.00000000  -0.00000000  0.84153363  1
  O  O151  1  0.16666667  0.16666667  0.84153363  1
  O  O152  1  0.33333333  0.33333333  0.84153363  1
  O  O153  1  0.50000000  0.50000000  0.84153363  1
  O  O154  1  0.66666667  0.66666667  0.84153363  1
  O  O155  1  0.83333333  0.83333333  0.84153363  1
  O  O156  1  0.33333333  -0.00000000  0.84153363  1
  O  O157  1  0.50000000  0.16666667  0.84153363  1
  O  O158  1  0.66666667  0.33333333  0.84153363  1
  O  O159  1  0.83333333  0.50000000  0.84153363  1
  O  O160  1  0.66666667  -0.00000000  0.84153363  1
  O  O161  1  0.83333333  0.16666667  0.84153363  1
  O  O162  1  0.16666667  0.66666667  1.34153363  1
  O  O163  1  0.33333333  0.83333333  1.34153363  1
  O  O164  1  0.16666667  0.33333333  1.34153363  1
  O  O165  1  0.33333333  0.50000000  1.34153363  1
  O  O166  1  0.50000000  0.66666667  1.34153363  1
  O  O167  1  0.66666667  0.83333333  1.34153363  1
  O  O168  1  0.16666667  -0.00000000  1.34153363  1
  O  O169  1  0.33333333  0.16666667  1.34153363  1
  O  O170  1  0.50000000  0.33333333  1.34153363  1
  O  O171  1  0.66666667  0.50000000  1.34153363  1
  O  O172  1  0.83333333  0.66666667  1.34153363  1
  O  O173  1  1.00000000  0.83333333  1.34153363  1
  O  O174  1  0.50000000  -0.00000000  1.34153363  1
  O  O175  1  0.66666667  0.16666667  1.34153363  1
  O  O176  1  0.83333333  0.33333333  1.34153363  1
  O  O177  1  1.00000000  0.50000000  1.34153363  1
  O  O178  1  0.83333333  0.00000000  1.34153363  1
  O  O179  1  1.00000000  0.16666667  1.34153363  1
