# generated using pymatgen
data_MgZn2(AsO4)2
_symmetry_space_group_name_H-M   'P 1'
_cell_length_a   15.81215105
_cell_length_b   16.69486488
_cell_length_c   17.66346704
_cell_angle_alpha   90.00000000
_cell_angle_beta   119.45414264
_cell_angle_gamma   90.00000000
_symmetry_Int_Tables_number   1
_chemical_formula_structural   MgZn2(AsO4)2
_chemical_formula_sum   'Mg24 Zn48 As48 O192'
_cell_volume   4060.15923256
_cell_formula_units_Z   24
loop_
 _symmetry_equiv_pos_site_id
 _symmetry_equiv_pos_as_xyz
  1  'x, y, z'
loop_
 _atom_site_type_symbol
 _atom_site_label
 _atom_site_symmetry_multiplicity
 _atom_site_fract_x
 _atom_site_fract_y
 _atom_site_fract_z
 _atom_site_occupancy
  Mg  Mg0  1  0.00000000  0.00000000  0.00000000  1
  Mg  Mg1  1  -0.00000000  0.00000000  0.50000000  1
  Mg  Mg2  1  0.00000000  0.50000000  0.00000000  1
  Mg  Mg3  1  -0.00000000  0.50000000  0.50000000  1
  Mg  Mg4  1  0.33333333  0.00000000  0.00000000  1
  Mg  Mg5  1  0.33333333  0.00000000  0.50000000  1
  Mg  Mg6  1  0.33333333  0.50000000  0.00000000  1
  Mg  Mg7  1  0.33333333  0.50000000  0.50000000  1
  Mg  Mg8  1  0.66666667  0.00000000  0.00000000  1
  Mg  Mg9  1  0.66666667  0.00000000  0.50000000  1
  Mg  Mg10  1  0.66666667  0.50000000  0.00000000  1
  Mg  Mg11  1  0.66666667  0.50000000  0.50000000  1
  Mg  Mg12  1  -0.00000000  0.25000000  0.25000000  1
  Mg  Mg13  1  0.00000000  0.25000000  0.75000000  1
  Mg  Mg14  1  -0.00000000  0.75000000  0.25000000  1
  Mg  Mg15  1  0.00000000  0.75000000  0.75000000  1
  Mg  Mg16  1  0.33333333  0.25000000  0.25000000  1
  Mg  Mg17  1  0.33333333  0.25000000  0.75000000  1
  Mg  Mg18  1  0.33333333  0.75000000  0.25000000  1
  Mg  Mg19  1  0.33333333  0.75000000  0.75000000  1
  Mg  Mg20  1  0.66666667  0.25000000  0.25000000  1
  Mg  Mg21  1  0.66666667  0.25000000  0.75000000  1
  Mg  Mg22  1  0.66666667  0.75000000  0.25000000  1
  Mg  Mg23  1  0.66666667  0.75000000  0.75000000  1
  Zn  Zn24  1  0.00354030  0.18052331  0.05372013  1
  Zn  Zn25  1  0.00354030  0.18052331  0.55372013  1
  Zn  Zn26  1  0.00354030  0.68052331  0.05372013  1
  Zn  Zn27  1  0.00354030  0.68052331  0.55372013  1
  Zn  Zn28  1  0.33687363  0.18052331  0.05372013  1
  Zn  Zn29  1  0.33687363  0.18052331  0.55372013  1
  Zn  Zn30  1  0.33687363  0.68052331  0.05372013  1
  Zn  Zn31  1  0.33687363  0.68052331  0.55372013  1
  Zn  Zn32  1  0.67020697  0.18052331  0.05372013  1
  Zn  Zn33  1  0.67020697  0.18052331  0.55372013  1
  Zn  Zn34  1  0.67020697  0.68052331  0.05372013  1
  Zn  Zn35  1  0.67020697  0.68052331  0.55372013  1
  Zn  Zn36  1  0.32979303  0.31947669  0.44627987  1
  Zn  Zn37  1  0.32979303  0.31947669  0.94627987  1
  Zn  Zn38  1  0.32979303  0.81947669  0.44627987  1
  Zn  Zn39  1  0.32979303  0.81947669  0.94627987  1
  Zn  Zn40  1  0.66312637  0.31947669  0.44627987  1
  Zn  Zn41  1  0.66312637  0.31947669  0.94627987  1
  Zn  Zn42  1  0.66312637  0.81947669  0.44627987  1
  Zn  Zn43  1  0.66312637  0.81947669  0.94627987  1
  Zn  Zn44  1  0.99645970  0.31947669  0.44627987  1
  Zn  Zn45  1  0.99645970  0.31947669  0.94627987  1
  Zn  Zn46  1  0.99645970  0.81947669  0.44627987  1
  Zn  Zn47  1  0.99645970  0.81947669  0.94627987  1
  Zn  Zn48  1  0.32979303  0.43052331  0.19627987  1
  Zn  Zn49  1  0.32979303  0.43052331  0.69627987  1
  Zn  Zn50  1  0.32979303  0.93052331  0.19627987  1
  Zn  Zn51  1  0.32979303  0.93052331  0.69627987  1
  Zn  Zn52  1  0.66312637  0.43052331  0.19627987  1
  Zn  Zn53  1  0.66312637  0.43052331  0.69627987  1
  Zn  Zn54  1  0.66312637  0.93052331  0.19627987  1
  Zn  Zn55  1  0.66312637  0.93052331  0.69627987  1
  Zn  Zn56  1  0.99645970  0.43052331  0.19627987  1
  Zn  Zn57  1  0.99645970  0.43052331  0.69627987  1
  Zn  Zn58  1  0.99645970  0.93052331  0.19627987  1
  Zn  Zn59  1  0.99645970  0.93052331  0.69627987  1
  Zn  Zn60  1  0.00354030  0.06947669  0.30372013  1
  Zn  Zn61  1  0.00354030  0.06947669  0.80372013  1
  Zn  Zn62  1  0.00354030  0.56947669  0.30372013  1
  Zn  Zn63  1  0.00354030  0.56947669  0.80372013  1
  Zn  Zn64  1  0.33687363  0.06947669  0.30372013  1
  Zn  Zn65  1  0.33687363  0.06947669  0.80372013  1
  Zn  Zn66  1  0.33687363  0.56947669  0.30372013  1
  Zn  Zn67  1  0.33687363  0.56947669  0.80372013  1
  Zn  Zn68  1  0.67020697  0.06947669  0.30372013  1
  Zn  Zn69  1  0.67020697  0.06947669  0.80372013  1
  Zn  Zn70  1  0.67020697  0.56947669  0.30372013  1
  Zn  Zn71  1  0.67020697  0.56947669  0.80372013  1
  As  As72  1  0.11791557  0.34785198  0.15295668  1
  As  As73  1  0.11791557  0.34785198  0.65295668  1
  As  As74  1  0.11791557  0.84785198  0.15295668  1
  As  As75  1  0.11791557  0.84785198  0.65295668  1
  As  As76  1  0.45124890  0.34785198  0.15295668  1
  As  As77  1  0.45124890  0.34785198  0.65295668  1
  As  As78  1  0.45124890  0.84785198  0.15295668  1
  As  As79  1  0.45124890  0.84785198  0.65295668  1
  As  As80  1  0.78458224  0.34785198  0.15295668  1
  As  As81  1  0.78458224  0.34785198  0.65295668  1
  As  As82  1  0.78458224  0.84785198  0.15295668  1
  As  As83  1  0.78458224  0.84785198  0.65295668  1
  As  As84  1  0.21541776  0.15214802  0.34704332  1
  As  As85  1  0.21541776  0.15214802  0.84704332  1
  As  As86  1  0.21541776  0.65214802  0.34704332  1
  As  As87  1  0.21541776  0.65214802  0.84704332  1
  As  As88  1  0.54875110  0.15214802  0.34704332  1
  As  As89  1  0.54875110  0.15214802  0.84704332  1
  As  As90  1  0.54875110  0.65214802  0.34704332  1
  As  As91  1  0.54875110  0.65214802  0.84704332  1
  As  As92  1  0.88208443  0.15214802  0.34704332  1
  As  As93  1  0.88208443  0.15214802  0.84704332  1
  As  As94  1  0.88208443  0.65214802  0.34704332  1
  As  As95  1  0.88208443  0.65214802  0.84704332  1
  As  As96  1  0.21541776  0.09785198  0.09704332  1
  As  As97  1  0.21541776  0.09785198  0.59704332  1
  As  As98  1  0.21541776  0.59785198  0.09704332  1
  As  As99  1  0.21541776  0.59785198  0.59704332  1
  As  As100  1  0.54875110  0.09785198  0.09704332  1
  As  As101  1  0.54875110  0.09785198  0.59704332  1
  As  As102  1  0.54875110  0.59785198  0.09704332  1
  As  As103  1  0.54875110  0.59785198  0.59704332  1
  As  As104  1  0.88208443  0.09785198  0.09704332  1
  As  As105  1  0.88208443  0.09785198  0.59704332  1
  As  As106  1  0.88208443  0.59785198  0.09704332  1
  As  As107  1  0.88208443  0.59785198  0.59704332  1
  As  As108  1  0.11791557  0.40214802  0.40295668  1
  As  As109  1  0.11791557  0.40214802  0.90295668  1
  As  As110  1  0.11791557  0.90214802  0.40295668  1
  As  As111  1  0.11791557  0.90214802  0.90295668  1
  As  As112  1  0.45124890  0.40214802  0.40295668  1
  As  As113  1  0.45124890  0.40214802  0.90295668  1
  As  As114  1  0.45124890  0.90214802  0.40295668  1
  As  As115  1  0.45124890  0.90214802  0.90295668  1
  As  As116  1  0.78458224  0.40214802  0.40295668  1
  As  As117  1  0.78458224  0.40214802  0.90295668  1
  As  As118  1  0.78458224  0.90214802  0.40295668  1
  As  As119  1  0.78458224  0.90214802  0.90295668  1
  O  O120  1  0.09317591  0.32056850  0.23284615  1
  O  O121  1  0.09317591  0.32056850  0.73284615  1
  O  O122  1  0.09317591  0.82056850  0.23284615  1
  O  O123  1  0.09317591  0.82056850  0.73284615  1
  O  O124  1  0.42650924  0.32056850  0.23284615  1
  O  O125  1  0.42650924  0.32056850  0.73284615  1
  O  O126  1  0.42650924  0.82056850  0.23284615  1
  O  O127  1  0.42650924  0.82056850  0.73284615  1
  O  O128  1  0.75984257  0.32056850  0.23284615  1
  O  O129  1  0.75984257  0.32056850  0.73284615  1
  O  O130  1  0.75984257  0.82056850  0.23284615  1
  O  O131  1  0.75984257  0.82056850  0.73284615  1
  O  O132  1  0.24015743  0.17943150  0.26715385  1
  O  O133  1  0.24015743  0.17943150  0.76715385  1
  O  O134  1  0.24015743  0.67943150  0.26715385  1
  O  O135  1  0.24015743  0.67943150  0.76715385  1
  O  O136  1  0.57349076  0.17943150  0.26715385  1
  O  O137  1  0.57349076  0.17943150  0.76715385  1
  O  O138  1  0.57349076  0.67943150  0.26715385  1
  O  O139  1  0.57349076  0.67943150  0.76715385  1
  O  O140  1  0.90682409  0.17943150  0.26715385  1
  O  O141  1  0.90682409  0.17943150  0.76715385  1
  O  O142  1  0.90682409  0.67943150  0.26715385  1
  O  O143  1  0.90682409  0.67943150  0.76715385  1
  O  O144  1  0.24015743  0.07056850  0.01715385  1
  O  O145  1  0.24015743  0.07056850  0.51715385  1
  O  O146  1  0.24015743  0.57056850  0.01715385  1
  O  O147  1  0.24015743  0.57056850  0.51715385  1
  O  O148  1  0.57349076  0.07056850  0.01715385  1
  O  O149  1  0.57349076  0.07056850  0.51715385  1
  O  O150  1  0.57349076  0.57056850  0.01715385  1
  O  O151  1  0.57349076  0.57056850  0.51715385  1
  O  O152  1  0.90682409  0.07056850  0.01715385  1
  O  O153  1  0.90682409  0.07056850  0.51715385  1
  O  O154  1  0.90682409  0.57056850  0.01715385  1
  O  O155  1  0.90682409  0.57056850  0.51715385  1
  O  O156  1  0.09317591  0.42943150  0.48284615  1
  O  O157  1  0.09317591  0.42943150  0.98284615  1
  O  O158  1  0.09317591  0.92943150  0.48284615  1
  O  O159  1  0.09317591  0.92943150  0.98284615  1
  O  O160  1  0.42650924  0.42943150  0.48284615  1
  O  O161  1  0.42650924  0.42943150  0.98284615  1
  O  O162  1  0.42650924  0.92943150  0.48284615  1
  O  O163  1  0.42650924  0.92943150  0.98284615  1
  O  O164  1  0.75984257  0.42943150  0.48284615  1
  O  O165  1  0.75984257  0.42943150  0.98284615  1
  O  O166  1  0.75984257  0.92943150  0.48284615  1
  O  O167  1  0.75984257  0.92943150  0.98284615  1
  O  O168  1  0.06999033  0.28192459  0.06741694  1
  O  O169  1  0.06999033  0.28192459  0.56741694  1
  O  O170  1  0.06999033  0.78192459  0.06741694  1
  O  O171  1  0.06999033  0.78192459  0.56741694  1
  O  O172  1  0.40332367  0.28192459  0.06741694  1
  O  O173  1  0.40332367  0.28192459  0.56741694  1
  O  O174  1  0.40332367  0.78192459  0.06741694  1
  O  O175  1  0.40332367  0.78192459  0.56741694  1
  O  O176  1  0.73665700  0.28192459  0.06741694  1
  O  O177  1  0.73665700  0.28192459  0.56741694  1
  O  O178  1  0.73665700  0.78192459  0.06741694  1
  O  O179  1  0.73665700  0.78192459  0.56741694  1
  O  O180  1  0.26334300  0.21807541  0.43258306  1
  O  O181  1  0.26334300  0.21807541  0.93258306  1
  O  O182  1  0.26334300  0.71807541  0.43258306  1
  O  O183  1  0.26334300  0.71807541  0.93258306  1
  O  O184  1  0.59667633  0.21807541  0.43258306  1
  O  O185  1  0.59667633  0.21807541  0.93258306  1
  O  O186  1  0.59667633  0.71807541  0.43258306  1
  O  O187  1  0.59667633  0.71807541  0.93258306  1
  O  O188  1  0.93000967  0.21807541  0.43258306  1
  O  O189  1  0.93000967  0.21807541  0.93258306  1
  O  O190  1  0.93000967  0.71807541  0.43258306  1
  O  O191  1  0.93000967  0.71807541  0.93258306  1
  O  O192  1  0.26334300  0.03192459  0.18258306  1
  O  O193  1  0.26334300  0.03192459  0.68258306  1
  O  O194  1  0.26334300  0.53192459  0.18258306  1
  O  O195  1  0.26334300  0.53192459  0.68258306  1
  O  O196  1  0.59667633  0.03192459  0.18258306  1
  O  O197  1  0.59667633  0.03192459  0.68258306  1
  O  O198  1  0.59667633  0.53192459  0.18258306  1
  O  O199  1  0.59667633  0.53192459  0.68258306  1
  O  O200  1  0.93000967  0.03192459  0.18258306  1
  O  O201  1  0.93000967  0.03192459  0.68258306  1
  O  O202  1  0.93000967  0.53192459  0.18258306  1
  O  O203  1  0.93000967  0.53192459  0.68258306  1
  O  O204  1  0.06999033  0.46807541  0.31741694  1
  O  O205  1  0.06999033  0.46807541  0.81741694  1
  O  O206  1  0.06999033  0.96807541  0.31741694  1
  O  O207  1  0.06999033  0.96807541  0.81741694  1
  O  O208  1  0.40332367  0.46807541  0.31741694  1
  O  O209  1  0.40332367  0.46807541  0.81741694  1
  O  O210  1  0.40332367  0.96807541  0.31741694  1
  O  O211  1  0.40332367  0.96807541  0.81741694  1
  O  O212  1  0.73665700  0.46807541  0.31741694  1
  O  O213  1  0.73665700  0.46807541  0.81741694  1
  O  O214  1  0.73665700  0.96807541  0.31741694  1
  O  O215  1  0.73665700  0.96807541  0.81741694  1
  O  O216  1  0.05610425  0.43792566  0.12170183  1
  O  O217  1  0.05610425  0.43792566  0.62170183  1
  O  O218  1  0.05610425  0.93792566  0.12170183  1
  O  O219  1  0.05610425  0.93792566  0.62170183  1
  O  O220  1  0.38943758  0.43792566  0.12170183  1
  O  O221  1  0.38943758  0.43792566  0.62170183  1
  O  O222  1  0.38943758  0.93792566  0.12170183  1
  O  O223  1  0.38943758  0.93792566  0.62170183  1
  O  O224  1  0.72277091  0.43792566  0.12170183  1
  O  O225  1  0.72277091  0.43792566  0.62170183  1
  O  O226  1  0.72277091  0.93792566  0.12170183  1
  O  O227  1  0.72277091  0.93792566  0.62170183  1
  O  O228  1  0.27722909  0.06207434  0.37829817  1
  O  O229  1  0.27722909  0.06207434  0.87829817  1
  O  O230  1  0.27722909  0.56207434  0.37829817  1
  O  O231  1  0.27722909  0.56207434  0.87829817  1
  O  O232  1  0.61056242  0.06207434  0.37829817  1
  O  O233  1  0.61056242  0.06207434  0.87829817  1
  O  O234  1  0.61056242  0.56207434  0.37829817  1
  O  O235  1  0.61056242  0.56207434  0.87829817  1
  O  O236  1  0.94389575  0.06207434  0.37829817  1
  O  O237  1  0.94389575  0.06207434  0.87829817  1
  O  O238  1  0.94389575  0.56207434  0.37829817  1
  O  O239  1  0.94389575  0.56207434  0.87829817  1
  O  O240  1  0.27722909  0.18792566  0.12829817  1
  O  O241  1  0.27722909  0.18792566  0.62829817  1
  O  O242  1  0.27722909  0.68792566  0.12829817  1
  O  O243  1  0.27722909  0.68792566  0.62829817  1
  O  O244  1  0.61056242  0.18792566  0.12829817  1
  O  O245  1  0.61056242  0.18792566  0.62829817  1
  O  O246  1  0.61056242  0.68792566  0.12829817  1
  O  O247  1  0.61056242  0.68792566  0.62829817  1
  O  O248  1  0.94389575  0.18792566  0.12829817  1
  O  O249  1  0.94389575  0.18792566  0.62829817  1
  O  O250  1  0.94389575  0.68792566  0.12829817  1
  O  O251  1  0.94389575  0.68792566  0.62829817  1
  O  O252  1  0.05610425  0.31207434  0.37170183  1
  O  O253  1  0.05610425  0.31207434  0.87170183  1
  O  O254  1  0.05610425  0.81207434  0.37170183  1
  O  O255  1  0.05610425  0.81207434  0.87170183  1
  O  O256  1  0.38943758  0.31207434  0.37170183  1
  O  O257  1  0.38943758  0.31207434  0.87170183  1
  O  O258  1  0.38943758  0.81207434  0.37170183  1
  O  O259  1  0.38943758  0.81207434  0.87170183  1
  O  O260  1  0.72277091  0.31207434  0.37170183  1
  O  O261  1  0.72277091  0.31207434  0.87170183  1
  O  O262  1  0.72277091  0.81207434  0.37170183  1
  O  O263  1  0.72277091  0.81207434  0.87170183  1
  O  O264  1  0.24000687  0.34996268  0.19101324  1
  O  O265  1  0.24000687  0.34996268  0.69101324  1
  O  O266  1  0.24000687  0.84996268  0.19101324  1
  O  O267  1  0.24000687  0.84996268  0.69101324  1
  O  O268  1  0.57334020  0.34996268  0.19101324  1
  O  O269  1  0.57334020  0.34996268  0.69101324  1
  O  O270  1  0.57334020  0.84996268  0.19101324  1
  O  O271  1  0.57334020  0.84996268  0.69101324  1
  O  O272  1  0.90667354  0.34996268  0.19101324  1
  O  O273  1  0.90667354  0.34996268  0.69101324  1
  O  O274  1  0.90667354  0.84996268  0.19101324  1
  O  O275  1  0.90667354  0.84996268  0.69101324  1
  O  O276  1  0.09332646  0.15003732  0.30898676  1
  O  O277  1  0.09332646  0.15003732  0.80898676  1
  O  O278  1  0.09332646  0.65003732  0.30898676  1
  O  O279  1  0.09332646  0.65003732  0.80898676  1
  O  O280  1  0.42665980  0.15003732  0.30898676  1
  O  O281  1  0.42665980  0.15003732  0.80898676  1
  O  O282  1  0.42665980  0.65003732  0.30898676  1
  O  O283  1  0.42665980  0.65003732  0.80898676  1
  O  O284  1  0.75999313  0.15003732  0.30898676  1
  O  O285  1  0.75999313  0.15003732  0.80898676  1
  O  O286  1  0.75999313  0.65003732  0.30898676  1
  O  O287  1  0.75999313  0.65003732  0.80898676  1
  O  O288  1  0.09332646  0.09996268  0.05898676  1
  O  O289  1  0.09332646  0.09996268  0.55898676  1
  O  O290  1  0.09332646  0.59996268  0.05898676  1
  O  O291  1  0.09332646  0.59996268  0.55898676  1
  O  O292  1  0.42665980  0.09996268  0.05898676  1
  O  O293  1  0.42665980  0.09996268  0.55898676  1
  O  O294  1  0.42665980  0.59996268  0.05898676  1
  O  O295  1  0.42665980  0.59996268  0.55898676  1
  O  O296  1  0.75999313  0.09996268  0.05898676  1
  O  O297  1  0.75999313  0.09996268  0.55898676  1
  O  O298  1  0.75999313  0.59996268  0.05898676  1
  O  O299  1  0.75999313  0.59996268  0.55898676  1
  O  O300  1  0.24000687  0.40003732  0.44101324  1
  O  O301  1  0.24000687  0.40003732  0.94101324  1
  O  O302  1  0.24000687  0.90003732  0.44101324  1
  O  O303  1  0.24000687  0.90003732  0.94101324  1
  O  O304  1  0.57334020  0.40003732  0.44101324  1
  O  O305  1  0.57334020  0.40003732  0.94101324  1
  O  O306  1  0.57334020  0.90003732  0.44101324  1
  O  O307  1  0.57334020  0.90003732  0.94101324  1
  O  O308  1  0.90667354  0.40003732  0.44101324  1
  O  O309  1  0.90667354  0.40003732  0.94101324  1
  O  O310  1  0.90667354  0.90003732  0.44101324  1
  O  O311  1  0.90667354  0.90003732  0.94101324  1
