# generated using pymatgen
data_ZnO
_symmetry_space_group_name_H-M   'P 1'
_cell_length_a   15.87597475
_cell_length_b   15.87597475
_cell_length_c   15.34819602
_cell_angle_alpha   90.00000000
_cell_angle_beta   90.00000000
_cell_angle_gamma   120.00000000
_symmetry_Int_Tables_number   1
_chemical_formula_structural   ZnO
_chemical_formula_sum   'Zn150 O150'
_cell_volume   3350.18483090
_cell_formula_units_Z   150
loop_
 _symmetry_equiv_pos_site_id
 _symmetry_equiv_pos_as_xyz
  1  'x, y, z'
loop_
 _atom_site_type_symbol
 _atom_site_label
 _atom_site_symmetry_multiplicity
 _atom_site_fract_x
 _atom_site_fract_y
 _atom_site_fract_z
 _atom_site_occupancy
  Zn  Zn0  1  0.06666667  0.13333333  0.00012299  1
  Zn  Zn1  1  0.06666667  0.13333333  0.33345632  1
  Zn  Zn2  1  0.06666667  0.13333333  0.66678966  1
  Zn  Zn3  1  0.06666667  0.33333333  0.00012299  1
  Zn  Zn4  1  0.06666667  0.33333333  0.33345632  1
  Zn  Zn5  1  0.06666667  0.33333333  0.66678966  1
  Zn  Zn6  1  0.06666667  0.53333333  0.00012299  1
  Zn  Zn7  1  0.06666667  0.53333333  0.33345632  1
  Zn  Zn8  1  0.06666667  0.53333333  0.66678966  1
  Zn  Zn9  1  0.06666667  0.73333333  0.00012299  1
  Zn  Zn10  1  0.06666667  0.73333333  0.33345632  1
  Zn  Zn11  1  0.06666667  0.73333333  0.66678966  1
  Zn  Zn12  1  0.06666667  0.93333333  0.00012299  1
  Zn  Zn13  1  0.06666667  0.93333333  0.33345632  1
  Zn  Zn14  1  0.06666667  0.93333333  0.66678966  1
  Zn  Zn15  1  0.26666667  0.13333333  0.00012299  1
  Zn  Zn16  1  0.26666667  0.13333333  0.33345632  1
  Zn  Zn17  1  0.26666667  0.13333333  0.66678966  1
  Zn  Zn18  1  0.26666667  0.33333333  0.00012299  1
  Zn  Zn19  1  0.26666667  0.33333333  0.33345632  1
  Zn  Zn20  1  0.26666667  0.33333333  0.66678966  1
  Zn  Zn21  1  0.26666667  0.53333333  0.00012299  1
  Zn  Zn22  1  0.26666667  0.53333333  0.33345632  1
  Zn  Zn23  1  0.26666667  0.53333333  0.66678966  1
  Zn  Zn24  1  0.26666667  0.73333333  0.00012299  1
  Zn  Zn25  1  0.26666667  0.73333333  0.33345632  1
  Zn  Zn26  1  0.26666667  0.73333333  0.66678966  1
  Zn  Zn27  1  0.26666667  0.93333333  0.00012299  1
  Zn  Zn28  1  0.26666667  0.93333333  0.33345632  1
  Zn  Zn29  1  0.26666667  0.93333333  0.66678966  1
  Zn  Zn30  1  0.46666667  0.13333333  0.00012299  1
  Zn  Zn31  1  0.46666667  0.13333333  0.33345632  1
  Zn  Zn32  1  0.46666667  0.13333333  0.66678966  1
  Zn  Zn33  1  0.46666667  0.33333333  0.00012299  1
  Zn  Zn34  1  0.46666667  0.33333333  0.33345632  1
  Zn  Zn35  1  0.46666667  0.33333333  0.66678966  1
  Zn  Zn36  1  0.46666667  0.53333333  0.00012299  1
  Zn  Zn37  1  0.46666667  0.53333333  0.33345632  1
  Zn  Zn38  1  0.46666667  0.53333333  0.66678966  1
  Zn  Zn39  1  0.46666667  0.73333333  0.00012299  1
  Zn  Zn40  1  0.46666667  0.73333333  0.33345632  1
  Zn  Zn41  1  0.46666667  0.73333333  0.66678966  1
  Zn  Zn42  1  0.46666667  0.93333333  0.00012299  1
  Zn  Zn43  1  0.46666667  0.93333333  0.33345632  1
  Zn  Zn44  1  0.46666667  0.93333333  0.66678966  1
  Zn  Zn45  1  0.66666667  0.13333333  0.00012299  1
  Zn  Zn46  1  0.66666667  0.13333333  0.33345632  1
  Zn  Zn47  1  0.66666667  0.13333333  0.66678966  1
  Zn  Zn48  1  0.66666667  0.33333333  0.00012299  1
  Zn  Zn49  1  0.66666667  0.33333333  0.33345632  1
  Zn  Zn50  1  0.66666667  0.33333333  0.66678966  1
  Zn  Zn51  1  0.66666667  0.53333333  0.00012299  1
  Zn  Zn52  1  0.66666667  0.53333333  0.33345632  1
  Zn  Zn53  1  0.66666667  0.53333333  0.66678966  1
  Zn  Zn54  1  0.66666667  0.73333333  0.00012299  1
  Zn  Zn55  1  0.66666667  0.73333333  0.33345632  1
  Zn  Zn56  1  0.66666667  0.73333333  0.66678966  1
  Zn  Zn57  1  0.66666667  0.93333333  0.00012299  1
  Zn  Zn58  1  0.66666667  0.93333333  0.33345632  1
  Zn  Zn59  1  0.66666667  0.93333333  0.66678966  1
  Zn  Zn60  1  0.86666667  0.13333333  0.00012299  1
  Zn  Zn61  1  0.86666667  0.13333333  0.33345632  1
  Zn  Zn62  1  0.86666667  0.13333333  0.66678966  1
  Zn  Zn63  1  0.86666667  0.33333333  0.00012299  1
  Zn  Zn64  1  0.86666667  0.33333333  0.33345632  1
  Zn  Zn65  1  0.86666667  0.33333333  0.66678966  1
  Zn  Zn66  1  0.86666667  0.53333333  0.00012299  1
  Zn  Zn67  1  0.86666667  0.53333333  0.33345632  1
  Zn  Zn68  1  0.86666667  0.53333333  0.66678966  1
  Zn  Zn69  1  0.86666667  0.73333333  0.00012299  1
  Zn  Zn70  1  0.86666667  0.73333333  0.33345632  1
  Zn  Zn71  1  0.86666667  0.73333333  0.66678966  1
  Zn  Zn72  1  0.86666667  0.93333333  0.00012299  1
  Zn  Zn73  1  0.86666667  0.93333333  0.33345632  1
  Zn  Zn74  1  0.86666667  0.93333333  0.66678966  1
  Zn  Zn75  1  0.13333333  0.06666667  0.16678966  1
  Zn  Zn76  1  0.13333333  0.06666667  0.50012299  1
  Zn  Zn77  1  0.13333333  0.06666667  0.83345632  1
  Zn  Zn78  1  0.13333333  0.26666667  0.16678966  1
  Zn  Zn79  1  0.13333333  0.26666667  0.50012299  1
  Zn  Zn80  1  0.13333333  0.26666667  0.83345632  1
  Zn  Zn81  1  0.13333333  0.46666667  0.16678966  1
  Zn  Zn82  1  0.13333333  0.46666667  0.50012299  1
  Zn  Zn83  1  0.13333333  0.46666667  0.83345632  1
  Zn  Zn84  1  0.13333333  0.66666667  0.16678966  1
  Zn  Zn85  1  0.13333333  0.66666667  0.50012299  1
  Zn  Zn86  1  0.13333333  0.66666667  0.83345632  1
  Zn  Zn87  1  0.13333333  0.86666667  0.16678966  1
  Zn  Zn88  1  0.13333333  0.86666667  0.50012299  1
  Zn  Zn89  1  0.13333333  0.86666667  0.83345632  1
  Zn  Zn90  1  0.33333333  0.06666667  0.16678966  1
  Zn  Zn91  1  0.33333333  0.06666667  0.50012299  1
  Zn  Zn92  1  0.33333333  0.06666667  0.83345632  1
  Zn  Zn93  1  0.33333333  0.26666667  0.16678966  1
  Zn  Zn94  1  0.33333333  0.26666667  0.50012299  1
  Zn  Zn95  1  0.33333333  0.26666667  0.83345632  1
  Zn  Zn96  1  0.33333333  0.46666667  0.16678966  1
  Zn  Zn97  1  0.33333333  0.46666667  0.50012299  1
  Zn  Zn98  1  0.33333333  0.46666667  0.83345632  1
  Zn  Zn99  1  0.33333333  0.66666667  0.16678966  1
  Zn  Zn100  1  0.33333333  0.66666667  0.50012299  1
  Zn  Zn101  1  0.33333333  0.66666667  0.83345632  1
  Zn  Zn102  1  0.33333333  0.86666667  0.16678966  1
  Zn  Zn103  1  0.33333333  0.86666667  0.50012299  1
  Zn  Zn104  1  0.33333333  0.86666667  0.83345632  1
  Zn  Zn105  1  0.53333333  0.06666667  0.16678966  1
  Zn  Zn106  1  0.53333333  0.06666667  0.50012299  1
  Zn  Zn107  1  0.53333333  0.06666667  0.83345632  1
  Zn  Zn108  1  0.53333333  0.26666667  0.16678966  1
  Zn  Zn109  1  0.53333333  0.26666667  0.50012299  1
  Zn  Zn110  1  0.53333333  0.26666667  0.83345632  1
  Zn  Zn111  1  0.53333333  0.46666667  0.16678966  1
  Zn  Zn112  1  0.53333333  0.46666667  0.50012299  1
  Zn  Zn113  1  0.53333333  0.46666667  0.83345632  1
  Zn  Zn114  1  0.53333333  0.66666667  0.16678966  1
  Zn  Zn115  1  0.53333333  0.66666667  0.50012299  1
  Zn  Zn116  1  0.53333333  0.66666667  0.83345632  1
  Zn  Zn117  1  0.53333333  0.86666667  0.16678966  1
  Zn  Zn118  1  0.53333333  0.86666667  0.50012299  1
  Zn  Zn119  1  0.53333333  0.86666667  0.83345632  1
  Zn  Zn120  1  0.73333333  0.06666667  0.16678966  1
  Zn  Zn121  1  0.73333333  0.06666667  0.50012299  1
  Zn  Zn122  1  0.73333333  0.06666667  0.83345632  1
  Zn  Zn123  1  0.73333333  0.26666667  0.16678966  1
  Zn  Zn124  1  0.73333333  0.26666667  0.50012299  1
  Zn  Zn125  1  0.73333333  0.26666667  0.83345632  1
  Zn  Zn126  1  0.73333333  0.46666667  0.16678966  1
  Zn  Zn127  1  0.73333333  0.46666667  0.50012299  1
  Zn  Zn128  1  0.73333333  0.46666667  0.83345632  1
  Zn  Zn129  1  0.73333333  0.66666667  0.16678966  1
  Zn  Zn130  1  0.73333333  0.66666667  0.50012299  1
  Zn  Zn131  1  0.73333333  0.66666667  0.83345632  1
  Zn  Zn132  1  0.73333333  0.86666667  0.16678966  1
  Zn  Zn133  1  0.73333333  0.86666667  0.50012299  1
  Zn  Zn134  1  0.73333333  0.86666667  0.83345632  1
  Zn  Zn135  1  0.93333333  0.06666667  0.16678966  1
  Zn  Zn136  1  0.93333333  0.06666667  0.50012299  1
  Zn  Zn137  1  0.93333333  0.06666667  0.83345632  1
  Zn  Zn138  1  0.93333333  0.26666667  0.16678966  1
  Zn  Zn139  1  0.93333333  0.26666667  0.50012299  1
  Zn  Zn140  1  0.93333333  0.26666667  0.83345632  1
  Zn  Zn141  1  0.93333333  0.46666667  0.16678966  1
  Zn  Zn142  1  0.93333333  0.46666667  0.50012299  1
  Zn  Zn143  1  0.93333333  0.46666667  0.83345632  1
  Zn  Zn144  1  0.93333333  0.66666667  0.16678966  1
  Zn  Zn145  1  0.93333333  0.66666667  0.50012299  1
  Zn  Zn146  1  0.93333333  0.66666667  0.83345632  1
  Zn  Zn147  1  0.93333333  0.86666667  0.16678966  1
  Zn  Zn148  1  0.93333333  0.86666667  0.50012299  1
  Zn  Zn149  1  0.93333333  0.86666667  0.83345632  1
  O  O150  1  0.06666667  0.13333333  0.12664701  1
  O  O151  1  0.06666667  0.13333333  0.45998034  1
  O  O152  1  0.06666667  0.13333333  0.79331368  1
  O  O153  1  0.06666667  0.33333333  0.12664701  1
  O  O154  1  0.06666667  0.33333333  0.45998034  1
  O  O155  1  0.06666667  0.33333333  0.79331368  1
  O  O156  1  0.06666667  0.53333333  0.12664701  1
  O  O157  1  0.06666667  0.53333333  0.45998034  1
  O  O158  1  0.06666667  0.53333333  0.79331368  1
  O  O159  1  0.06666667  0.73333333  0.12664701  1
  O  O160  1  0.06666667  0.73333333  0.45998034  1
  O  O161  1  0.06666667  0.73333333  0.79331368  1
  O  O162  1  0.06666667  0.93333333  0.12664701  1
  O  O163  1  0.06666667  0.93333333  0.45998034  1
  O  O164  1  0.06666667  0.93333333  0.79331368  1
  O  O165  1  0.26666667  0.13333333  0.12664701  1
  O  O166  1  0.26666667  0.13333333  0.45998034  1
  O  O167  1  0.26666667  0.13333333  0.79331368  1
  O  O168  1  0.26666667  0.33333333  0.12664701  1
  O  O169  1  0.26666667  0.33333333  0.45998034  1
  O  O170  1  0.26666667  0.33333333  0.79331368  1
  O  O171  1  0.26666667  0.53333333  0.12664701  1
  O  O172  1  0.26666667  0.53333333  0.45998034  1
  O  O173  1  0.26666667  0.53333333  0.79331368  1
  O  O174  1  0.26666667  0.73333333  0.12664701  1
  O  O175  1  0.26666667  0.73333333  0.45998034  1
  O  O176  1  0.26666667  0.73333333  0.79331368  1
  O  O177  1  0.26666667  0.93333333  0.12664701  1
  O  O178  1  0.26666667  0.93333333  0.45998034  1
  O  O179  1  0.26666667  0.93333333  0.79331368  1
  O  O180  1  0.46666667  0.13333333  0.12664701  1
  O  O181  1  0.46666667  0.13333333  0.45998034  1
  O  O182  1  0.46666667  0.13333333  0.79331368  1
  O  O183  1  0.46666667  0.33333333  0.12664701  1
  O  O184  1  0.46666667  0.33333333  0.45998034  1
  O  O185  1  0.46666667  0.33333333  0.79331368  1
  O  O186  1  0.46666667  0.53333333  0.12664701  1
  O  O187  1  0.46666667  0.53333333  0.45998034  1
  O  O188  1  0.46666667  0.53333333  0.79331368  1
  O  O189  1  0.46666667  0.73333333  0.12664701  1
  O  O190  1  0.46666667  0.73333333  0.45998034  1
  O  O191  1  0.46666667  0.73333333  0.79331368  1
  O  O192  1  0.46666667  0.93333333  0.12664701  1
  O  O193  1  0.46666667  0.93333333  0.45998034  1
  O  O194  1  0.46666667  0.93333333  0.79331368  1
  O  O195  1  0.66666667  0.13333333  0.12664701  1
  O  O196  1  0.66666667  0.13333333  0.45998034  1
  O  O197  1  0.66666667  0.13333333  0.79331368  1
  O  O198  1  0.66666667  0.33333333  0.12664701  1
  O  O199  1  0.66666667  0.33333333  0.45998034  1
  O  O200  1  0.66666667  0.33333333  0.79331368  1
  O  O201  1  0.66666667  0.53333333  0.12664701  1
  O  O202  1  0.66666667  0.53333333  0.45998034  1
  O  O203  1  0.66666667  0.53333333  0.79331368  1
  O  O204  1  0.66666667  0.73333333  0.12664701  1
  O  O205  1  0.66666667  0.73333333  0.45998034  1
  O  O206  1  0.66666667  0.73333333  0.79331368  1
  O  O207  1  0.66666667  0.93333333  0.12664701  1
  O  O208  1  0.66666667  0.93333333  0.45998034  1
  O  O209  1  0.66666667  0.93333333  0.79331368  1
  O  O210  1  0.86666667  0.13333333  0.12664701  1
  O  O211  1  0.86666667  0.13333333  0.45998034  1
  O  O212  1  0.86666667  0.13333333  0.79331368  1
  O  O213  1  0.86666667  0.33333333  0.12664701  1
  O  O214  1  0.86666667  0.33333333  0.45998034  1
  O  O215  1  0.86666667  0.33333333  0.79331368  1
  O  O216  1  0.86666667  0.53333333  0.12664701  1
  O  O217  1  0.86666667  0.53333333  0.45998034  1
  O  O218  1  0.86666667  0.53333333  0.79331368  1
  O  O219  1  0.86666667  0.73333333  0.12664701  1
  O  O220  1  0.86666667  0.73333333  0.45998034  1
  O  O221  1  0.86666667  0.73333333  0.79331368  1
  O  O222  1  0.86666667  0.93333333  0.12664701  1
  O  O223  1  0.86666667  0.93333333  0.45998034  1
  O  O224  1  0.86666667  0.93333333  0.79331368  1
  O  O225  1  0.13333333  0.06666667  0.29331368  1
  O  O226  1  0.13333333  0.06666667  0.62664701  1
  O  O227  1  0.13333333  0.06666667  0.95998034  1
  O  O228  1  0.13333333  0.26666667  0.29331368  1
  O  O229  1  0.13333333  0.26666667  0.62664701  1
  O  O230  1  0.13333333  0.26666667  0.95998034  1
  O  O231  1  0.13333333  0.46666667  0.29331368  1
  O  O232  1  0.13333333  0.46666667  0.62664701  1
  O  O233  1  0.13333333  0.46666667  0.95998034  1
  O  O234  1  0.13333333  0.66666667  0.29331368  1
  O  O235  1  0.13333333  0.66666667  0.62664701  1
  O  O236  1  0.13333333  0.66666667  0.95998034  1
  O  O237  1  0.13333333  0.86666667  0.29331368  1
  O  O238  1  0.13333333  0.86666667  0.62664701  1
  O  O239  1  0.13333333  0.86666667  0.95998034  1
  O  O240  1  0.33333333  0.06666667  0.29331368  1
  O  O241  1  0.33333333  0.06666667  0.62664701  1
  O  O242  1  0.33333333  0.06666667  0.95998034  1
  O  O243  1  0.33333333  0.26666667  0.29331368  1
  O  O244  1  0.33333333  0.26666667  0.62664701  1
  O  O245  1  0.33333333  0.26666667  0.95998034  1
  O  O246  1  0.33333333  0.46666667  0.29331368  1
  O  O247  1  0.33333333  0.46666667  0.62664701  1
  O  O248  1  0.33333333  0.46666667  0.95998034  1
  O  O249  1  0.33333333  0.66666667  0.29331368  1
  O  O250  1  0.33333333  0.66666667  0.62664701  1
  O  O251  1  0.33333333  0.66666667  0.95998034  1
  O  O252  1  0.33333333  0.86666667  0.29331368  1
  O  O253  1  0.33333333  0.86666667  0.62664701  1
  O  O254  1  0.33333333  0.86666667  0.95998034  1
  O  O255  1  0.53333333  0.06666667  0.29331368  1
  O  O256  1  0.53333333  0.06666667  0.62664701  1
  O  O257  1  0.53333333  0.06666667  0.95998034  1
  O  O258  1  0.53333333  0.26666667  0.29331368  1
  O  O259  1  0.53333333  0.26666667  0.62664701  1
  O  O260  1  0.53333333  0.26666667  0.95998034  1
  O  O261  1  0.53333333  0.46666667  0.29331368  1
  O  O262  1  0.53333333  0.46666667  0.62664701  1
  O  O263  1  0.53333333  0.46666667  0.95998034  1
  O  O264  1  0.53333333  0.66666667  0.29331368  1
  O  O265  1  0.53333333  0.66666667  0.62664701  1
  O  O266  1  0.53333333  0.66666667  0.95998034  1
  O  O267  1  0.53333333  0.86666667  0.29331368  1
  O  O268  1  0.53333333  0.86666667  0.62664701  1
  O  O269  1  0.53333333  0.86666667  0.95998034  1
  O  O270  1  0.73333333  0.06666667  0.29331368  1
  O  O271  1  0.73333333  0.06666667  0.62664701  1
  O  O272  1  0.73333333  0.06666667  0.95998034  1
  O  O273  1  0.73333333  0.26666667  0.29331368  1
  O  O274  1  0.73333333  0.26666667  0.62664701  1
  O  O275  1  0.73333333  0.26666667  0.95998034  1
  O  O276  1  0.73333333  0.46666667  0.29331368  1
  O  O277  1  0.73333333  0.46666667  0.62664701  1
  O  O278  1  0.73333333  0.46666667  0.95998034  1
  O  O279  1  0.73333333  0.66666667  0.29331368  1
  O  O280  1  0.73333333  0.66666667  0.62664701  1
  O  O281  1  0.73333333  0.66666667  0.95998034  1
  O  O282  1  0.73333333  0.86666667  0.29331368  1
  O  O283  1  0.73333333  0.86666667  0.62664701  1
  O  O284  1  0.73333333  0.86666667  0.95998034  1
  O  O285  1  0.93333333  0.06666667  0.29331368  1
  O  O286  1  0.93333333  0.06666667  0.62664701  1
  O  O287  1  0.93333333  0.06666667  0.95998034  1
  O  O288  1  0.93333333  0.26666667  0.29331368  1
  O  O289  1  0.93333333  0.26666667  0.62664701  1
  O  O290  1  0.93333333  0.26666667  0.95998034  1
  O  O291  1  0.93333333  0.46666667  0.29331368  1
  O  O292  1  0.93333333  0.46666667  0.62664701  1
  O  O293  1  0.93333333  0.46666667  0.95998034  1
  O  O294  1  0.93333333  0.66666667  0.29331368  1
  O  O295  1  0.93333333  0.66666667  0.62664701  1
  O  O296  1  0.93333333  0.66666667  0.95998034  1
  O  O297  1  0.93333333  0.86666667  0.29331368  1
  O  O298  1  0.93333333  0.86666667  0.62664701  1
  O  O299  1  0.93333333  0.86666667  0.95998034  1
