# generated using pymatgen
data_LiInSiO4
_symmetry_space_group_name_H-M   'P 1'
_cell_length_a   10.57870148
_cell_length_b   12.19872159
_cell_length_c   9.74110785
_cell_angle_alpha   90.00000000
_cell_angle_beta   90.00000000
_cell_angle_gamma   90.00000000
_symmetry_Int_Tables_number   1
_chemical_formula_structural   LiInSiO4
_chemical_formula_sum   'Li16 In16 Si16 O64'
_cell_volume   1257.05718115
_cell_formula_units_Z   16
loop_
 _symmetry_equiv_pos_site_id
 _symmetry_equiv_pos_as_xyz
  1  'x, y, z'
loop_
 _atom_site_type_symbol
 _atom_site_label
 _atom_site_symmetry_multiplicity
 _atom_site_fract_x
 _atom_site_fract_y
 _atom_site_fract_z
 _atom_site_occupancy
  Li  Li0  1  0.00000000  0.00000000  0.00000000  1
  Li  Li1  1  0.00000000  0.00000000  0.50000000  1
  Li  Li2  1  0.00000000  0.50000000  0.00000000  1
  Li  Li3  1  0.00000000  0.50000000  0.50000000  1
  Li  Li4  1  0.50000000  0.00000000  0.25000000  1
  Li  Li5  1  0.50000000  0.00000000  0.75000000  1
  Li  Li6  1  0.50000000  0.50000000  0.25000000  1
  Li  Li7  1  0.50000000  0.50000000  0.75000000  1
  Li  Li8  1  0.00000000  0.25000000  0.00000000  1
  Li  Li9  1  0.00000000  0.25000000  0.50000000  1
  Li  Li10  1  0.00000000  0.75000000  0.00000000  1
  Li  Li11  1  0.00000000  0.75000000  0.50000000  1
  Li  Li12  1  0.50000000  0.25000000  0.25000000  1
  Li  Li13  1  0.50000000  0.25000000  0.75000000  1
  Li  Li14  1  0.50000000  0.75000000  0.25000000  1
  Li  Li15  1  0.50000000  0.75000000  0.75000000  1
  In  In16  1  0.72535454  0.37500000  0.01060918  1
  In  In17  1  0.72535454  0.37500000  0.51060918  1
  In  In18  1  0.72535454  0.87500000  0.01060918  1
  In  In19  1  0.72535454  0.87500000  0.51060918  1
  In  In20  1  0.22535454  0.37500000  0.23939082  1
  In  In21  1  0.22535454  0.37500000  0.73939082  1
  In  In22  1  0.22535454  0.87500000  0.23939082  1
  In  In23  1  0.22535454  0.87500000  0.73939082  1
  In  In24  1  0.27464546  0.12500000  0.48939082  1
  In  In25  1  0.27464546  0.12500000  0.98939082  1
  In  In26  1  0.27464546  0.62500000  0.48939082  1
  In  In27  1  0.27464546  0.62500000  0.98939082  1
  In  In28  1  0.77464546  0.12500000  0.26060918  1
  In  In29  1  0.77464546  0.12500000  0.76060918  1
  In  In30  1  0.77464546  0.62500000  0.26060918  1
  In  In31  1  0.77464546  0.62500000  0.76060918  1
  Si  Si32  1  0.91272479  0.37500000  0.28858467  1
  Si  Si33  1  0.91272479  0.37500000  0.78858467  1
  Si  Si34  1  0.91272479  0.87500000  0.28858467  1
  Si  Si35  1  0.91272479  0.87500000  0.78858467  1
  Si  Si36  1  0.41272479  0.37500000  0.46141533  1
  Si  Si37  1  0.41272479  0.37500000  0.96141533  1
  Si  Si38  1  0.41272479  0.87500000  0.46141533  1
  Si  Si39  1  0.41272479  0.87500000  0.96141533  1
  Si  Si40  1  0.08727521  0.12500000  0.21141533  1
  Si  Si41  1  0.08727521  0.12500000  0.71141533  1
  Si  Si42  1  0.08727521  0.62500000  0.21141533  1
  Si  Si43  1  0.08727521  0.62500000  0.71141533  1
  Si  Si44  1  0.58727521  0.12500000  0.03858467  1
  Si  Si45  1  0.58727521  0.12500000  0.53858467  1
  Si  Si46  1  0.58727521  0.62500000  0.03858467  1
  Si  Si47  1  0.58727521  0.62500000  0.53858467  1
  O  O48  1  0.33829810  0.27070534  0.38452742  1
  O  O49  1  0.33829810  0.27070534  0.88452742  1
  O  O50  1  0.33829810  0.77070534  0.38452742  1
  O  O51  1  0.33829810  0.77070534  0.88452742  1
  O  O52  1  0.66170190  0.22929466  0.11547258  1
  O  O53  1  0.66170190  0.22929466  0.61547258  1
  O  O54  1  0.66170190  0.72929466  0.11547258  1
  O  O55  1  0.66170190  0.72929466  0.61547258  1
  O  O56  1  0.83829810  0.27070534  0.36547258  1
  O  O57  1  0.83829810  0.27070534  0.86547258  1
  O  O58  1  0.83829810  0.77070534  0.36547258  1
  O  O59  1  0.83829810  0.77070534  0.86547258  1
  O  O60  1  0.33829810  0.47929466  0.38452742  1
  O  O61  1  0.33829810  0.47929466  0.88452742  1
  O  O62  1  0.33829810  0.97929466  0.38452742  1
  O  O63  1  0.33829810  0.97929466  0.88452742  1
  O  O64  1  0.16170190  0.02070534  0.13452742  1
  O  O65  1  0.16170190  0.02070534  0.63452742  1
  O  O66  1  0.16170190  0.52070534  0.13452742  1
  O  O67  1  0.16170190  0.52070534  0.63452742  1
  O  O68  1  0.09520359  0.12500000  0.37734404  1
  O  O69  1  0.09520359  0.12500000  0.87734404  1
  O  O70  1  0.09520359  0.62500000  0.37734404  1
  O  O71  1  0.09520359  0.62500000  0.87734404  1
  O  O72  1  0.16170190  0.22929466  0.13452742  1
  O  O73  1  0.16170190  0.22929466  0.63452742  1
  O  O74  1  0.16170190  0.72929466  0.13452742  1
  O  O75  1  0.16170190  0.72929466  0.63452742  1
  O  O76  1  0.66170190  0.02070534  0.11547258  1
  O  O77  1  0.66170190  0.02070534  0.61547258  1
  O  O78  1  0.66170190  0.52070534  0.11547258  1
  O  O79  1  0.66170190  0.52070534  0.61547258  1
  O  O80  1  0.90479641  0.37500000  0.12265596  1
  O  O81  1  0.90479641  0.37500000  0.62265596  1
  O  O82  1  0.90479641  0.87500000  0.12265596  1
  O  O83  1  0.90479641  0.87500000  0.62265596  1
  O  O84  1  0.59520359  0.12500000  0.37265596  1
  O  O85  1  0.59520359  0.12500000  0.87265596  1
  O  O86  1  0.59520359  0.62500000  0.37265596  1
  O  O87  1  0.59520359  0.62500000  0.87265596  1
  O  O88  1  0.05422294  0.37500000  0.35566932  1
  O  O89  1  0.05422294  0.37500000  0.85566932  1
  O  O90  1  0.05422294  0.87500000  0.35566932  1
  O  O91  1  0.05422294  0.87500000  0.85566932  1
  O  O92  1  0.40479641  0.37500000  0.12734404  1
  O  O93  1  0.40479641  0.37500000  0.62734404  1
  O  O94  1  0.40479641  0.87500000  0.12734404  1
  O  O95  1  0.40479641  0.87500000  0.62734404  1
  O  O96  1  0.55422294  0.37500000  0.39433068  1
  O  O97  1  0.55422294  0.37500000  0.89433068  1
  O  O98  1  0.55422294  0.87500000  0.39433068  1
  O  O99  1  0.55422294  0.87500000  0.89433068  1
  O  O100  1  0.44577706  0.12500000  0.10566932  1
  O  O101  1  0.44577706  0.12500000  0.60566932  1
  O  O102  1  0.44577706  0.62500000  0.10566932  1
  O  O103  1  0.44577706  0.62500000  0.60566932  1
  O  O104  1  0.94577706  0.12500000  0.14433068  1
  O  O105  1  0.94577706  0.12500000  0.64433068  1
  O  O106  1  0.94577706  0.62500000  0.14433068  1
  O  O107  1  0.94577706  0.62500000  0.64433068  1
  O  O108  1  0.83829810  0.47929466  0.36547258  1
  O  O109  1  0.83829810  0.47929466  0.86547258  1
  O  O110  1  0.83829810  0.97929466  0.36547258  1
  O  O111  1  0.83829810  0.97929466  0.86547258  1
