# generated using pymatgen
data_Mg2SiO4
_symmetry_space_group_name_H-M   'P 1'
_cell_length_a   10.19307905
_cell_length_b   11.96012165
_cell_length_c   9.52525562
_cell_angle_alpha   90.00000000
_cell_angle_beta   90.00000000
_cell_angle_gamma   90.00000000
_symmetry_Int_Tables_number   1
_chemical_formula_structural   Mg2SiO4
_chemical_formula_sum   'Mg32 Si16 O64'
_cell_volume   1161.22834559
_cell_formula_units_Z   16
loop_
 _symmetry_equiv_pos_site_id
 _symmetry_equiv_pos_as_xyz
  1  'x, y, z'
loop_
 _atom_site_type_symbol
 _atom_site_label
 _atom_site_symmetry_multiplicity
 _atom_site_fract_x
 _atom_site_fract_y
 _atom_site_fract_z
 _atom_site_occupancy
  Mg  Mg0  1  0.00000000  0.00000000  0.00000000  1
  Mg  Mg1  1  0.00000000  0.00000000  0.50000000  1
  Mg  Mg2  1  0.00000000  0.50000000  0.00000000  1
  Mg  Mg3  1  0.00000000  0.50000000  0.50000000  1
  Mg  Mg4  1  0.50000000  0.00000000  0.25000000  1
  Mg  Mg5  1  0.50000000  0.00000000  0.75000000  1
  Mg  Mg6  1  0.50000000  0.50000000  0.25000000  1
  Mg  Mg7  1  0.50000000  0.50000000  0.75000000  1
  Mg  Mg8  1  0.00000000  0.25000000  0.00000000  1
  Mg  Mg9  1  0.00000000  0.25000000  0.50000000  1
  Mg  Mg10  1  0.00000000  0.75000000  0.00000000  1
  Mg  Mg11  1  0.00000000  0.75000000  0.50000000  1
  Mg  Mg12  1  0.50000000  0.25000000  0.25000000  1
  Mg  Mg13  1  0.50000000  0.25000000  0.75000000  1
  Mg  Mg14  1  0.50000000  0.75000000  0.25000000  1
  Mg  Mg15  1  0.50000000  0.75000000  0.75000000  1
  Mg  Mg16  1  0.27664085  0.37500000  0.00420708  1
  Mg  Mg17  1  0.27664085  0.37500000  0.50420708  1
  Mg  Mg18  1  0.27664085  0.87500000  0.00420708  1
  Mg  Mg19  1  0.27664085  0.87500000  0.50420708  1
  Mg  Mg20  1  0.22335915  0.12500000  0.25420708  1
  Mg  Mg21  1  0.22335915  0.12500000  0.75420708  1
  Mg  Mg22  1  0.22335915  0.62500000  0.25420708  1
  Mg  Mg23  1  0.22335915  0.62500000  0.75420708  1
  Mg  Mg24  1  0.72335915  0.12500000  0.49579292  1
  Mg  Mg25  1  0.72335915  0.12500000  0.99579292  1
  Mg  Mg26  1  0.72335915  0.62500000  0.49579292  1
  Mg  Mg27  1  0.72335915  0.62500000  0.99579292  1
  Mg  Mg28  1  0.77664085  0.37500000  0.24579292  1
  Mg  Mg29  1  0.77664085  0.37500000  0.74579292  1
  Mg  Mg30  1  0.77664085  0.87500000  0.24579292  1
  Mg  Mg31  1  0.77664085  0.87500000  0.74579292  1
  Si  Si32  1  0.59376421  0.37500000  0.46346599  1
  Si  Si33  1  0.59376421  0.37500000  0.96346599  1
  Si  Si34  1  0.59376421  0.87500000  0.46346599  1
  Si  Si35  1  0.59376421  0.87500000  0.96346599  1
  Si  Si36  1  0.90623579  0.12500000  0.21346599  1
  Si  Si37  1  0.90623579  0.12500000  0.71346599  1
  Si  Si38  1  0.90623579  0.62500000  0.21346599  1
  Si  Si39  1  0.90623579  0.62500000  0.71346599  1
  Si  Si40  1  0.40623579  0.12500000  0.03653401  1
  Si  Si41  1  0.40623579  0.12500000  0.53653401  1
  Si  Si42  1  0.40623579  0.62500000  0.03653401  1
  Si  Si43  1  0.40623579  0.62500000  0.53653401  1
  Si  Si44  1  0.09376421  0.37500000  0.28653401  1
  Si  Si45  1  0.09376421  0.37500000  0.78653401  1
  Si  Si46  1  0.09376421  0.87500000  0.28653401  1
  Si  Si47  1  0.09376421  0.87500000  0.78653401  1
  O  O48  1  0.83659548  0.23416257  0.13796446  1
  O  O49  1  0.83659548  0.23416257  0.63796446  1
  O  O50  1  0.83659548  0.73416257  0.13796446  1
  O  O51  1  0.83659548  0.73416257  0.63796446  1
  O  O52  1  0.66340452  0.26583743  0.38796446  1
  O  O53  1  0.66340452  0.26583743  0.88796446  1
  O  O54  1  0.66340452  0.76583743  0.38796446  1
  O  O55  1  0.66340452  0.76583743  0.88796446  1
  O  O56  1  0.16340452  0.48416257  0.36203554  1
  O  O57  1  0.16340452  0.48416257  0.86203554  1
  O  O58  1  0.16340452  0.98416257  0.36203554  1
  O  O59  1  0.16340452  0.98416257  0.86203554  1
  O  O60  1  0.33659548  0.01583743  0.11203554  1
  O  O61  1  0.33659548  0.01583743  0.61203554  1
  O  O62  1  0.33659548  0.51583743  0.11203554  1
  O  O63  1  0.33659548  0.51583743  0.61203554  1
  O  O64  1  0.16340452  0.26583743  0.36203554  1
  O  O65  1  0.16340452  0.26583743  0.86203554  1
  O  O66  1  0.16340452  0.76583743  0.36203554  1
  O  O67  1  0.16340452  0.76583743  0.86203554  1
  O  O68  1  0.33659548  0.23416257  0.11203554  1
  O  O69  1  0.33659548  0.23416257  0.61203554  1
  O  O70  1  0.33659548  0.73416257  0.11203554  1
  O  O71  1  0.33659548  0.73416257  0.61203554  1
  O  O72  1  0.83659548  0.01583743  0.13796446  1
  O  O73  1  0.83659548  0.01583743  0.63796446  1
  O  O74  1  0.83659548  0.51583743  0.13796446  1
  O  O75  1  0.83659548  0.51583743  0.63796446  1
  O  O76  1  0.66340452  0.48416257  0.38796446  1
  O  O77  1  0.66340452  0.48416257  0.88796446  1
  O  O78  1  0.66340452  0.98416257  0.38796446  1
  O  O79  1  0.66340452  0.98416257  0.88796446  1
  O  O80  1  0.44576759  0.37500000  0.38886675  1
  O  O81  1  0.44576759  0.37500000  0.88886675  1
  O  O82  1  0.44576759  0.87500000  0.38886675  1
  O  O83  1  0.44576759  0.87500000  0.88886675  1
  O  O84  1  0.05423241  0.12500000  0.13886675  1
  O  O85  1  0.05423241  0.12500000  0.63886675  1
  O  O86  1  0.05423241  0.62500000  0.13886675  1
  O  O87  1  0.05423241  0.62500000  0.63886675  1
  O  O88  1  0.55423241  0.12500000  0.11113325  1
  O  O89  1  0.55423241  0.12500000  0.61113325  1
  O  O90  1  0.55423241  0.62500000  0.11113325  1
  O  O91  1  0.55423241  0.62500000  0.61113325  1
  O  O92  1  0.94576759  0.37500000  0.36113325  1
  O  O93  1  0.94576759  0.37500000  0.86113325  1
  O  O94  1  0.94576759  0.87500000  0.36113325  1
  O  O95  1  0.94576759  0.87500000  0.86113325  1
  O  O96  1  0.59172046  0.37500000  0.13426661  1
  O  O97  1  0.59172046  0.37500000  0.63426661  1
  O  O98  1  0.59172046  0.87500000  0.13426661  1
  O  O99  1  0.59172046  0.87500000  0.63426661  1
  O  O100  1  0.90827954  0.12500000  0.38426661  1
  O  O101  1  0.90827954  0.12500000  0.88426661  1
  O  O102  1  0.90827954  0.62500000  0.38426661  1
  O  O103  1  0.90827954  0.62500000  0.88426661  1
  O  O104  1  0.40827954  0.12500000  0.36573339  1
  O  O105  1  0.40827954  0.12500000  0.86573339  1
  O  O106  1  0.40827954  0.62500000  0.36573339  1
  O  O107  1  0.40827954  0.62500000  0.86573339  1
  O  O108  1  0.09172046  0.37500000  0.11573339  1
  O  O109  1  0.09172046  0.37500000  0.61573339  1
  O  O110  1  0.09172046  0.87500000  0.11573339  1
  O  O111  1  0.09172046  0.87500000  0.61573339  1
