# generated using pymatgen
data_Li2ZnGeO4
_symmetry_space_group_name_H-M   'P 1'
_cell_length_a   15.07528379
_cell_length_b   16.22953089
_cell_length_c   16.22506312
_cell_angle_alpha   90.00000000
_cell_angle_beta   128.43790874
_cell_angle_gamma   90.00000000
_symmetry_Int_Tables_number   1
_chemical_formula_structural   Li2ZnGeO4
_chemical_formula_sum   'Li72 Zn36 Ge36 O144'
_cell_volume   3109.39702840
_cell_formula_units_Z   36
loop_
 _symmetry_equiv_pos_site_id
 _symmetry_equiv_pos_as_xyz
  1  'x, y, z'
loop_
 _atom_site_type_symbol
 _atom_site_label
 _atom_site_symmetry_multiplicity
 _atom_site_fract_x
 _atom_site_fract_y
 _atom_site_fract_z
 _atom_site_occupancy
  Li  Li0  1  0.16733767  0.05547333  0.00001933  1
  Li  Li1  1  0.16733767  0.05547333  0.50001933  1
  Li  Li2  1  0.16733767  0.38880666  0.00001933  1
  Li  Li3  1  0.16733767  0.38880666  0.50001933  1
  Li  Li4  1  0.16733767  0.72214000  0.00001933  1
  Li  Li5  1  0.16733767  0.72214000  0.50001933  1
  Li  Li6  1  0.50067100  0.05547333  0.00001933  1
  Li  Li7  1  0.50067100  0.05547333  0.50001933  1
  Li  Li8  1  0.50067100  0.38880666  0.00001933  1
  Li  Li9  1  0.50067100  0.38880666  0.50001933  1
  Li  Li10  1  0.50067100  0.72214000  0.00001933  1
  Li  Li11  1  0.50067100  0.72214000  0.50001933  1
  Li  Li12  1  0.83400433  0.05547333  0.00001933  1
  Li  Li13  1  0.83400433  0.05547333  0.50001933  1
  Li  Li14  1  0.83400433  0.38880666  0.00001933  1
  Li  Li15  1  0.83400433  0.38880666  0.50001933  1
  Li  Li16  1  0.83400433  0.72214000  0.00001933  1
  Li  Li17  1  0.83400433  0.72214000  0.50001933  1
  Li  Li18  1  0.08341508  0.11015679  0.12422573  1
  Li  Li19  1  0.08341508  0.11015679  0.62422573  1
  Li  Li20  1  0.08341508  0.44349012  0.12422573  1
  Li  Li21  1  0.08341508  0.44349012  0.62422573  1
  Li  Li22  1  0.08341508  0.77682346  0.12422573  1
  Li  Li23  1  0.08341508  0.77682346  0.62422573  1
  Li  Li24  1  0.41674841  0.11015679  0.12422573  1
  Li  Li25  1  0.41674841  0.11015679  0.62422573  1
  Li  Li26  1  0.41674841  0.44349012  0.12422573  1
  Li  Li27  1  0.41674841  0.44349012  0.62422573  1
  Li  Li28  1  0.41674841  0.77682346  0.12422573  1
  Li  Li29  1  0.41674841  0.77682346  0.62422573  1
  Li  Li30  1  0.75008174  0.11015679  0.12422573  1
  Li  Li31  1  0.75008174  0.11015679  0.62422573  1
  Li  Li32  1  0.75008174  0.44349012  0.12422573  1
  Li  Li33  1  0.75008174  0.44349012  0.62422573  1
  Li  Li34  1  0.75008174  0.77682346  0.12422573  1
  Li  Li35  1  0.75008174  0.77682346  0.62422573  1
  Li  Li36  1  0.08341508  0.22317654  0.37422573  1
  Li  Li37  1  0.08341508  0.22317654  0.87422573  1
  Li  Li38  1  0.08341508  0.55650988  0.37422573  1
  Li  Li39  1  0.08341508  0.55650988  0.87422573  1
  Li  Li40  1  0.08341508  0.88984321  0.37422573  1
  Li  Li41  1  0.08341508  0.88984321  0.87422573  1
  Li  Li42  1  0.41674841  0.22317654  0.37422573  1
  Li  Li43  1  0.41674841  0.22317654  0.87422573  1
  Li  Li44  1  0.41674841  0.55650988  0.37422573  1
  Li  Li45  1  0.41674841  0.55650988  0.87422573  1
  Li  Li46  1  0.41674841  0.88984321  0.37422573  1
  Li  Li47  1  0.41674841  0.88984321  0.87422573  1
  Li  Li48  1  0.75008174  0.22317654  0.37422573  1
  Li  Li49  1  0.75008174  0.22317654  0.87422573  1
  Li  Li50  1  0.75008174  0.55650988  0.37422573  1
  Li  Li51  1  0.75008174  0.55650988  0.87422573  1
  Li  Li52  1  0.75008174  0.88984321  0.37422573  1
  Li  Li53  1  0.75008174  0.88984321  0.87422573  1
  Li  Li54  1  0.16733767  0.27786000  0.25001933  1
  Li  Li55  1  0.16733767  0.27786000  0.75001933  1
  Li  Li56  1  0.16733767  0.61119334  0.25001933  1
  Li  Li57  1  0.16733767  0.61119334  0.75001933  1
  Li  Li58  1  0.16733767  0.94452667  0.25001933  1
  Li  Li59  1  0.16733767  0.94452667  0.75001933  1
  Li  Li60  1  0.50067100  0.27786000  0.25001933  1
  Li  Li61  1  0.50067100  0.27786000  0.75001933  1
  Li  Li62  1  0.50067100  0.61119334  0.25001933  1
  Li  Li63  1  0.50067100  0.61119334  0.75001933  1
  Li  Li64  1  0.50067100  0.94452667  0.25001933  1
  Li  Li65  1  0.50067100  0.94452667  0.75001933  1
  Li  Li66  1  0.83400433  0.27786000  0.25001933  1
  Li  Li67  1  0.83400433  0.27786000  0.75001933  1
  Li  Li68  1  0.83400433  0.61119334  0.25001933  1
  Li  Li69  1  0.83400433  0.61119334  0.75001933  1
  Li  Li70  1  0.83400433  0.94452667  0.25001933  1
  Li  Li71  1  0.83400433  0.94452667  0.75001933  1
  Zn  Zn72  1  0.25059114  0.11083207  0.37590819  1
  Zn  Zn73  1  0.25059114  0.11083207  0.87590819  1
  Zn  Zn74  1  0.25059114  0.44416540  0.37590819  1
  Zn  Zn75  1  0.25059114  0.44416540  0.87590819  1
  Zn  Zn76  1  0.25059114  0.77749873  0.37590819  1
  Zn  Zn77  1  0.25059114  0.77749873  0.87590819  1
  Zn  Zn78  1  0.58392447  0.11083207  0.37590819  1
  Zn  Zn79  1  0.58392447  0.11083207  0.87590819  1
  Zn  Zn80  1  0.58392447  0.44416540  0.37590819  1
  Zn  Zn81  1  0.58392447  0.44416540  0.87590819  1
  Zn  Zn82  1  0.58392447  0.77749873  0.37590819  1
  Zn  Zn83  1  0.58392447  0.77749873  0.87590819  1
  Zn  Zn84  1  0.91725780  0.11083207  0.37590819  1
  Zn  Zn85  1  0.91725780  0.11083207  0.87590819  1
  Zn  Zn86  1  0.91725780  0.44416540  0.37590819  1
  Zn  Zn87  1  0.91725780  0.44416540  0.87590819  1
  Zn  Zn88  1  0.91725780  0.77749873  0.37590819  1
  Zn  Zn89  1  0.91725780  0.77749873  0.87590819  1
  Zn  Zn90  1  0.25059114  0.22250127  0.12590819  1
  Zn  Zn91  1  0.25059114  0.22250127  0.62590819  1
  Zn  Zn92  1  0.25059114  0.55583460  0.12590819  1
  Zn  Zn93  1  0.25059114  0.55583460  0.62590819  1
  Zn  Zn94  1  0.25059114  0.88916793  0.12590819  1
  Zn  Zn95  1  0.25059114  0.88916793  0.62590819  1
  Zn  Zn96  1  0.58392447  0.22250127  0.12590819  1
  Zn  Zn97  1  0.58392447  0.22250127  0.62590819  1
  Zn  Zn98  1  0.58392447  0.55583460  0.12590819  1
  Zn  Zn99  1  0.58392447  0.55583460  0.62590819  1
  Zn  Zn100  1  0.58392447  0.88916793  0.12590819  1
  Zn  Zn101  1  0.58392447  0.88916793  0.62590819  1
  Zn  Zn102  1  0.91725780  0.22250127  0.12590819  1
  Zn  Zn103  1  0.91725780  0.22250127  0.62590819  1
  Zn  Zn104  1  0.91725780  0.55583460  0.12590819  1
  Zn  Zn105  1  0.91725780  0.55583460  0.62590819  1
  Zn  Zn106  1  0.91725780  0.88916793  0.12590819  1
  Zn  Zn107  1  0.91725780  0.88916793  0.62590819  1
  Ge  Ge108  1  0.33188642  0.05631526  0.24967436  1
  Ge  Ge109  1  0.33188642  0.05631526  0.74967436  1
  Ge  Ge110  1  0.33188642  0.38964860  0.24967436  1
  Ge  Ge111  1  0.33188642  0.38964860  0.74967436  1
  Ge  Ge112  1  0.33188642  0.72298193  0.24967436  1
  Ge  Ge113  1  0.33188642  0.72298193  0.74967436  1
  Ge  Ge114  1  0.66521975  0.05631526  0.24967436  1
  Ge  Ge115  1  0.66521975  0.05631526  0.74967436  1
  Ge  Ge116  1  0.66521975  0.38964860  0.24967436  1
  Ge  Ge117  1  0.66521975  0.38964860  0.74967436  1
  Ge  Ge118  1  0.66521975  0.72298193  0.24967436  1
  Ge  Ge119  1  0.66521975  0.72298193  0.74967436  1
  Ge  Ge120  1  0.99855308  0.05631526  0.24967436  1
  Ge  Ge121  1  0.99855308  0.05631526  0.74967436  1
  Ge  Ge122  1  0.99855308  0.38964860  0.24967436  1
  Ge  Ge123  1  0.99855308  0.38964860  0.74967436  1
  Ge  Ge124  1  0.99855308  0.72298193  0.24967436  1
  Ge  Ge125  1  0.99855308  0.72298193  0.74967436  1
  Ge  Ge126  1  0.33188642  0.27701807  0.49967436  1
  Ge  Ge127  1  0.33188642  0.27701807  0.99967436  1
  Ge  Ge128  1  0.33188642  0.61035140  0.49967436  1
  Ge  Ge129  1  0.33188642  0.61035140  0.99967436  1
  Ge  Ge130  1  0.33188642  0.94368474  0.49967436  1
  Ge  Ge131  1  0.33188642  0.94368474  0.99967436  1
  Ge  Ge132  1  0.66521975  0.27701807  0.49967436  1
  Ge  Ge133  1  0.66521975  0.27701807  0.99967436  1
  Ge  Ge134  1  0.66521975  0.61035140  0.49967436  1
  Ge  Ge135  1  0.66521975  0.61035140  0.99967436  1
  Ge  Ge136  1  0.66521975  0.94368474  0.49967436  1
  Ge  Ge137  1  0.66521975  0.94368474  0.99967436  1
  Ge  Ge138  1  0.99855308  0.27701807  0.49967436  1
  Ge  Ge139  1  0.99855308  0.27701807  0.99967436  1
  Ge  Ge140  1  0.99855308  0.61035140  0.49967436  1
  Ge  Ge141  1  0.99855308  0.61035140  0.99967436  1
  Ge  Ge142  1  0.99855308  0.94368474  0.49967436  1
  Ge  Ge143  1  0.99855308  0.94368474  0.99967436  1
  O  O144  1  0.21431008  0.27421131  0.00174731  1
  O  O145  1  0.21431008  0.27421131  0.50174731  1
  O  O146  1  0.21431008  0.60754465  0.00174731  1
  O  O147  1  0.21431008  0.60754465  0.50174731  1
  O  O148  1  0.21431008  0.94087798  0.00174731  1
  O  O149  1  0.21431008  0.94087798  0.50174731  1
  O  O150  1  0.54764341  0.27421131  0.00174731  1
  O  O151  1  0.54764341  0.27421131  0.50174731  1
  O  O152  1  0.54764341  0.60754465  0.00174731  1
  O  O153  1  0.54764341  0.60754465  0.50174731  1
  O  O154  1  0.54764341  0.94087798  0.00174731  1
  O  O155  1  0.54764341  0.94087798  0.50174731  1
  O  O156  1  0.88097675  0.27421131  0.00174731  1
  O  O157  1  0.88097675  0.27421131  0.50174731  1
  O  O158  1  0.88097675  0.60754465  0.00174731  1
  O  O159  1  0.88097675  0.60754465  0.50174731  1
  O  O160  1  0.88097675  0.94087798  0.00174731  1
  O  O161  1  0.88097675  0.94087798  0.50174731  1
  O  O162  1  0.11573669  0.10711282  0.36585650  1
  O  O163  1  0.11573669  0.10711282  0.86585650  1
  O  O164  1  0.11573669  0.44044615  0.36585650  1
  O  O165  1  0.11573669  0.44044615  0.86585650  1
  O  O166  1  0.11573669  0.77377949  0.36585650  1
  O  O167  1  0.11573669  0.77377949  0.86585650  1
  O  O168  1  0.44907002  0.10711282  0.36585650  1
  O  O169  1  0.44907002  0.10711282  0.86585650  1
  O  O170  1  0.44907002  0.44044615  0.36585650  1
  O  O171  1  0.44907002  0.44044615  0.86585650  1
  O  O172  1  0.44907002  0.77377949  0.36585650  1
  O  O173  1  0.44907002  0.77377949  0.86585650  1
  O  O174  1  0.78240336  0.10711282  0.36585650  1
  O  O175  1  0.78240336  0.10711282  0.86585650  1
  O  O176  1  0.78240336  0.44044615  0.36585650  1
  O  O177  1  0.78240336  0.44044615  0.86585650  1
  O  O178  1  0.78240336  0.77377949  0.36585650  1
  O  O179  1  0.78240336  0.77377949  0.86585650  1
  O  O180  1  0.21431008  0.05912202  0.25174731  1
  O  O181  1  0.21431008  0.05912202  0.75174731  1
  O  O182  1  0.21431008  0.39245535  0.25174731  1
  O  O183  1  0.21431008  0.39245535  0.75174731  1
  O  O184  1  0.21431008  0.72578869  0.25174731  1
  O  O185  1  0.21431008  0.72578869  0.75174731  1
  O  O186  1  0.54764341  0.05912202  0.25174731  1
  O  O187  1  0.54764341  0.05912202  0.75174731  1
  O  O188  1  0.54764341  0.39245535  0.25174731  1
  O  O189  1  0.54764341  0.39245535  0.75174731  1
  O  O190  1  0.54764341  0.72578869  0.25174731  1
  O  O191  1  0.54764341  0.72578869  0.75174731  1
  O  O192  1  0.88097675  0.05912202  0.25174731  1
  O  O193  1  0.88097675  0.05912202  0.75174731  1
  O  O194  1  0.88097675  0.39245535  0.25174731  1
  O  O195  1  0.88097675  0.39245535  0.75174731  1
  O  O196  1  0.88097675  0.72578869  0.25174731  1
  O  O197  1  0.88097675  0.72578869  0.75174731  1
  O  O198  1  0.11573669  0.22622051  0.11585650  1
  O  O199  1  0.11573669  0.22622051  0.61585650  1
  O  O200  1  0.11573669  0.55955385  0.11585650  1
  O  O201  1  0.11573669  0.55955385  0.61585650  1
  O  O202  1  0.11573669  0.89288718  0.11585650  1
  O  O203  1  0.11573669  0.89288718  0.61585650  1
  O  O204  1  0.44907002  0.22622051  0.11585650  1
  O  O205  1  0.44907002  0.22622051  0.61585650  1
  O  O206  1  0.44907002  0.55955385  0.11585650  1
  O  O207  1  0.44907002  0.55955385  0.61585650  1
  O  O208  1  0.44907002  0.89288718  0.11585650  1
  O  O209  1  0.44907002  0.89288718  0.61585650  1
  O  O210  1  0.78240336  0.22622051  0.11585650  1
  O  O211  1  0.78240336  0.22622051  0.61585650  1
  O  O212  1  0.78240336  0.55955385  0.11585650  1
  O  O213  1  0.78240336  0.55955385  0.61585650  1
  O  O214  1  0.78240336  0.89288718  0.11585650  1
  O  O215  1  0.78240336  0.89288718  0.61585650  1
  O  O216  1  0.03481067  0.28502043  0.24786858  1
  O  O217  1  0.03481067  0.28502043  0.74786858  1
  O  O218  1  0.03481067  0.61835377  0.24786858  1
  O  O219  1  0.03481067  0.61835377  0.74786858  1
  O  O220  1  0.03481067  0.95168710  0.24786858  1
  O  O221  1  0.03481067  0.95168710  0.74786858  1
  O  O222  1  0.36814400  0.28502043  0.24786858  1
  O  O223  1  0.36814400  0.28502043  0.74786858  1
  O  O224  1  0.36814400  0.61835377  0.24786858  1
  O  O225  1  0.36814400  0.61835377  0.74786858  1
  O  O226  1  0.36814400  0.95168710  0.24786858  1
  O  O227  1  0.36814400  0.95168710  0.74786858  1
  O  O228  1  0.70147734  0.28502043  0.24786858  1
  O  O229  1  0.70147734  0.28502043  0.74786858  1
  O  O230  1  0.70147734  0.61835377  0.24786858  1
  O  O231  1  0.70147734  0.61835377  0.74786858  1
  O  O232  1  0.70147734  0.95168710  0.24786858  1
  O  O233  1  0.70147734  0.95168710  0.74786858  1
  O  O234  1  0.03481067  0.04831290  0.49786858  1
  O  O235  1  0.03481067  0.04831290  0.99786858  1
  O  O236  1  0.03481067  0.38164623  0.49786858  1
  O  O237  1  0.03481067  0.38164623  0.99786858  1
  O  O238  1  0.03481067  0.71497957  0.49786858  1
  O  O239  1  0.03481067  0.71497957  0.99786858  1
  O  O240  1  0.36814400  0.04831290  0.49786858  1
  O  O241  1  0.36814400  0.04831290  0.99786858  1
  O  O242  1  0.36814400  0.38164623  0.49786858  1
  O  O243  1  0.36814400  0.38164623  0.99786858  1
  O  O244  1  0.36814400  0.71497957  0.49786858  1
  O  O245  1  0.36814400  0.71497957  0.99786858  1
  O  O246  1  0.70147734  0.04831290  0.49786858  1
  O  O247  1  0.70147734  0.04831290  0.99786858  1
  O  O248  1  0.70147734  0.38164623  0.49786858  1
  O  O249  1  0.70147734  0.38164623  0.99786858  1
  O  O250  1  0.70147734  0.71497957  0.49786858  1
  O  O251  1  0.70147734  0.71497957  0.99786858  1
  O  O252  1  0.29257826  0.10938668  0.13419951  1
  O  O253  1  0.29257826  0.10938668  0.63419951  1
  O  O254  1  0.29257826  0.44272001  0.13419951  1
  O  O255  1  0.29257826  0.44272001  0.63419951  1
  O  O256  1  0.29257826  0.77605334  0.13419951  1
  O  O257  1  0.29257826  0.77605334  0.63419951  1
  O  O258  1  0.62591160  0.10938668  0.13419951  1
  O  O259  1  0.62591160  0.10938668  0.63419951  1
  O  O260  1  0.62591160  0.44272001  0.13419951  1
  O  O261  1  0.62591160  0.44272001  0.63419951  1
  O  O262  1  0.62591160  0.77605334  0.13419951  1
  O  O263  1  0.62591160  0.77605334  0.63419951  1
  O  O264  1  0.95924493  0.10938668  0.13419951  1
  O  O265  1  0.95924493  0.10938668  0.63419951  1
  O  O266  1  0.95924493  0.44272001  0.13419951  1
  O  O267  1  0.95924493  0.44272001  0.63419951  1
  O  O268  1  0.95924493  0.77605334  0.13419951  1
  O  O269  1  0.95924493  0.77605334  0.63419951  1
  O  O270  1  0.29257826  0.22394666  0.38419951  1
  O  O271  1  0.29257826  0.22394666  0.88419951  1
  O  O272  1  0.29257826  0.55727999  0.38419951  1
  O  O273  1  0.29257826  0.55727999  0.88419951  1
  O  O274  1  0.29257826  0.89061332  0.38419951  1
  O  O275  1  0.29257826  0.89061332  0.88419951  1
  O  O276  1  0.62591160  0.22394666  0.38419951  1
  O  O277  1  0.62591160  0.22394666  0.88419951  1
  O  O278  1  0.62591160  0.55727999  0.38419951  1
  O  O279  1  0.62591160  0.55727999  0.88419951  1
  O  O280  1  0.62591160  0.89061332  0.38419951  1
  O  O281  1  0.62591160  0.89061332  0.88419951  1
  O  O282  1  0.95924493  0.22394666  0.38419951  1
  O  O283  1  0.95924493  0.22394666  0.88419951  1
  O  O284  1  0.95924493  0.55727999  0.38419951  1
  O  O285  1  0.95924493  0.55727999  0.88419951  1
  O  O286  1  0.95924493  0.89061332  0.38419951  1
  O  O287  1  0.95924493  0.89061332  0.88419951  1
