# generated using pymatgen
data_RbBO2
_symmetry_space_group_name_H-M   'P 1'
_cell_length_a   13.12156001
_cell_length_b   13.12156001
_cell_length_c   15.44884050
_cell_angle_alpha   90.00000000
_cell_angle_beta   90.00000000
_cell_angle_gamma   120.00000000
_symmetry_Int_Tables_number   1
_chemical_formula_structural   RbBO2
_chemical_formula_sum   'Rb36 B36 O72'
_cell_volume   2303.54904178
_cell_formula_units_Z   36
loop_
 _symmetry_equiv_pos_site_id
 _symmetry_equiv_pos_as_xyz
  1  'x, y, z'
loop_
 _atom_site_type_symbol
 _atom_site_label
 _atom_site_symmetry_multiplicity
 _atom_site_fract_x
 _atom_site_fract_y
 _atom_site_fract_z
 _atom_site_occupancy
  Rb  Rb0  1  -0.22730508  -0.33333333  0.20833333  1
  Rb  Rb1  1  -0.22730508  -0.33333333  0.70833333  1
  Rb  Rb2  1  0.43936159  -0.00000000  0.37500000  1
  Rb  Rb3  1  0.43936159  -0.00000000  0.87500000  1
  Rb  Rb4  1  0.10602825  0.33333333  0.54166667  1
  Rb  Rb5  1  0.10602825  0.33333333  1.04166667  1
  Rb  Rb6  1  0.33333333  0.10602825  0.20833333  1
  Rb  Rb7  1  0.33333333  0.10602825  0.70833333  1
  Rb  Rb8  1  1.00000000  0.43936159  0.37500000  1
  Rb  Rb9  1  1.00000000  0.43936159  0.87500000  1
  Rb  Rb10  1  0.66666667  0.77269492  0.54166667  1
  Rb  Rb11  1  0.66666667  0.77269492  1.04166667  1
  Rb  Rb12  1  -0.10602825  0.22730508  0.20833333  1
  Rb  Rb13  1  -0.10602825  0.22730508  0.70833333  1
  Rb  Rb14  1  0.56063841  0.56063841  0.37500000  1
  Rb  Rb15  1  0.56063841  0.56063841  0.87500000  1
  Rb  Rb16  1  0.22730508  0.89397175  0.54166667  1
  Rb  Rb17  1  0.22730508  0.89397175  1.04166667  1
  Rb  Rb18  1  0.22730508  0.33333333  0.29166667  1
  Rb  Rb19  1  0.22730508  0.33333333  0.79166667  1
  Rb  Rb20  1  0.89397175  0.66666667  0.45833333  1
  Rb  Rb21  1  0.89397175  0.66666667  0.95833333  1
  Rb  Rb22  1  0.56063841  1.00000000  0.62500000  1
  Rb  Rb23  1  0.56063841  1.00000000  1.12500000  1
  Rb  Rb24  1  -0.33333333  -0.10602825  0.29166667  1
  Rb  Rb25  1  -0.33333333  -0.10602825  0.79166667  1
  Rb  Rb26  1  0.33333333  0.22730508  0.45833333  1
  Rb  Rb27  1  0.33333333  0.22730508  0.95833333  1
  Rb  Rb28  1  -0.00000000  0.56063841  0.62500000  1
  Rb  Rb29  1  -0.00000000  0.56063841  1.12500000  1
  Rb  Rb30  1  0.10602825  -0.22730508  0.29166667  1
  Rb  Rb31  1  0.10602825  -0.22730508  0.79166667  1
  Rb  Rb32  1  0.77269492  0.10602825  0.45833333  1
  Rb  Rb33  1  0.77269492  0.10602825  0.95833333  1
  Rb  Rb34  1  0.43936159  0.43936159  0.62500000  1
  Rb  Rb35  1  0.43936159  0.43936159  1.12500000  1
  B  B36  1  0.11053760  -0.00000000  0.37500000  1
  B  B37  1  0.11053760  -0.00000000  0.87500000  1
  B  B38  1  0.77720427  0.33333333  0.54166667  1
  B  B39  1  0.77720427  0.33333333  1.04166667  1
  B  B40  1  0.44387094  0.66666667  0.70833333  1
  B  B41  1  0.44387094  0.66666667  1.20833333  1
  B  B42  1  0.00000000  0.11053760  0.37500000  1
  B  B43  1  0.00000000  0.11053760  0.87500000  1
  B  B44  1  0.66666667  0.44387094  0.54166667  1
  B  B45  1  0.66666667  0.44387094  1.04166667  1
  B  B46  1  0.33333333  0.77720427  0.70833333  1
  B  B47  1  0.33333333  0.77720427  1.20833333  1
  B  B48  1  -0.11053760  -0.11053760  0.37500000  1
  B  B49  1  -0.11053760  -0.11053760  0.87500000  1
  B  B50  1  0.55612906  0.22279573  0.54166667  1
  B  B51  1  0.55612906  0.22279573  1.04166667  1
  B  B52  1  0.22279573  0.55612906  0.70833333  1
  B  B53  1  0.22279573  0.55612906  1.20833333  1
  B  B54  1  -0.11053760  -0.00000000  0.12500000  1
  B  B55  1  -0.11053760  -0.00000000  0.62500000  1
  B  B56  1  0.55612906  0.33333333  0.29166667  1
  B  B57  1  0.55612906  0.33333333  0.79166667  1
  B  B58  1  0.22279573  0.66666667  0.45833333  1
  B  B59  1  0.22279573  0.66666667  0.95833333  1
  B  B60  1  -0.00000000  -0.11053760  0.12500000  1
  B  B61  1  -0.00000000  -0.11053760  0.62500000  1
  B  B62  1  0.66666667  0.22279573  0.29166667  1
  B  B63  1  0.66666667  0.22279573  0.79166667  1
  B  B64  1  0.33333333  0.55612906  0.45833333  1
  B  B65  1  0.33333333  0.55612906  0.95833333  1
  B  B66  1  0.11053760  0.11053760  0.12500000  1
  B  B67  1  0.11053760  0.11053760  0.62500000  1
  B  B68  1  0.77720427  0.44387094  0.29166667  1
  B  B69  1  0.77720427  0.44387094  0.79166667  1
  B  B70  1  0.44387094  0.77720427  0.45833333  1
  B  B71  1  0.44387094  0.77720427  0.95833333  1
  O  O72  1  0.21141909  0.21141909  0.12500000  1
  O  O73  1  0.21141909  0.21141909  0.62500000  1
  O  O74  1  0.87808575  0.54475242  0.29166667  1
  O  O75  1  0.87808575  0.54475242  0.79166667  1
  O  O76  1  0.54475242  0.87808575  0.45833333  1
  O  O77  1  0.54475242  0.87808575  0.95833333  1
  O  O78  1  -0.00000000  -0.21141909  0.12500000  1
  O  O79  1  -0.00000000  -0.21141909  0.62500000  1
  O  O80  1  0.66666667  0.12191425  0.29166667  1
  O  O81  1  0.66666667  0.12191425  0.79166667  1
  O  O82  1  0.33333333  0.45524758  0.45833333  1
  O  O83  1  0.33333333  0.45524758  0.95833333  1
  O  O84  1  -0.21141909  -0.00000000  0.12500000  1
  O  O85  1  -0.21141909  -0.00000000  0.62500000  1
  O  O86  1  0.45524758  0.33333333  0.29166667  1
  O  O87  1  0.45524758  0.33333333  0.79166667  1
  O  O88  1  0.12191425  0.66666667  0.45833333  1
  O  O89  1  0.12191425  0.66666667  0.95833333  1
  O  O90  1  -0.21141909  -0.21141909  0.37500000  1
  O  O91  1  -0.21141909  -0.21141909  0.87500000  1
  O  O92  1  0.45524758  0.12191425  0.54166667  1
  O  O93  1  0.45524758  0.12191425  1.04166667  1
  O  O94  1  0.12191425  0.45524758  0.70833333  1
  O  O95  1  0.12191425  0.45524758  1.20833333  1
  O  O96  1  -0.00000000  0.21141909  0.37500000  1
  O  O97  1  -0.00000000  0.21141909  0.87500000  1
  O  O98  1  0.66666667  0.54475242  0.54166667  1
  O  O99  1  0.66666667  0.54475242  1.04166667  1
  O  O100  1  0.33333333  0.87808575  0.70833333  1
  O  O101  1  0.33333333  0.87808575  1.20833333  1
  O  O102  1  0.21141909  -0.00000000  0.37500000  1
  O  O103  1  0.21141909  -0.00000000  0.87500000  1
  O  O104  1  0.87808575  0.33333333  0.54166667  1
  O  O105  1  0.87808575  0.33333333  1.04166667  1
  O  O106  1  0.54475242  0.66666667  0.70833333  1
  O  O107  1  0.54475242  0.66666667  1.20833333  1
  O  O108  1  0.10572927  -0.00000000  0.12500000  1
  O  O109  1  0.10572927  -0.00000000  0.62500000  1
  O  O110  1  0.77239594  0.33333333  0.29166667  1
  O  O111  1  0.77239594  0.33333333  0.79166667  1
  O  O112  1  0.43906260  0.66666667  0.45833333  1
  O  O113  1  0.43906260  0.66666667  0.95833333  1
  O  O114  1  -0.10572927  -0.10572927  0.12500000  1
  O  O115  1  -0.10572927  -0.10572927  0.62500000  1
  O  O116  1  0.56093740  0.22760406  0.29166667  1
  O  O117  1  0.56093740  0.22760406  0.79166667  1
  O  O118  1  0.22760406  0.56093740  0.45833333  1
  O  O119  1  0.22760406  0.56093740  0.95833333  1
  O  O120  1  -0.00000000  0.10572927  0.12500000  1
  O  O121  1  -0.00000000  0.10572927  0.62500000  1
  O  O122  1  0.66666667  0.43906260  0.29166667  1
  O  O123  1  0.66666667  0.43906260  0.79166667  1
  O  O124  1  0.33333333  0.77239594  0.45833333  1
  O  O125  1  0.33333333  0.77239594  0.95833333  1
  O  O126  1  -0.10572927  0.00000000  0.37500000  1
  O  O127  1  -0.10572927  0.00000000  0.87500000  1
  O  O128  1  0.56093740  0.33333333  0.54166667  1
  O  O129  1  0.56093740  0.33333333  1.04166667  1
  O  O130  1  0.22760406  0.66666667  0.70833333  1
  O  O131  1  0.22760406  0.66666667  1.20833333  1
  O  O132  1  0.10572927  0.10572927  0.37500000  1
  O  O133  1  0.10572927  0.10572927  0.87500000  1
  O  O134  1  0.77239594  0.43906260  0.54166667  1
  O  O135  1  0.77239594  0.43906260  1.04166667  1
  O  O136  1  0.43906260  0.77239594  0.70833333  1
  O  O137  1  0.43906260  0.77239594  1.20833333  1
  O  O138  1  -0.00000000  -0.10572927  0.37500000  1
  O  O139  1  -0.00000000  -0.10572927  0.87500000  1
  O  O140  1  0.66666667  0.22760406  0.54166667  1
  O  O141  1  0.66666667  0.22760406  1.04166667  1
  O  O142  1  0.33333333  0.56093740  0.70833333  1
  O  O143  1  0.33333333  0.56093740  1.20833333  1
