# generated using pymatgen
data_NaAlO2
_symmetry_space_group_name_H-M   'P 1'
_cell_length_a   16.20839714
_cell_length_b   13.92079279
_cell_length_c   15.59688979
_cell_angle_alpha   90.00000000
_cell_angle_beta   90.00000000
_cell_angle_gamma   90.00000000
_symmetry_Int_Tables_number   1
_chemical_formula_structural   NaAlO2
_chemical_formula_sum   'Na72 Al72 O144'
_cell_volume   3519.18454550
_cell_formula_units_Z   72
loop_
 _symmetry_equiv_pos_site_id
 _symmetry_equiv_pos_as_xyz
  1  'x, y, z'
loop_
 _atom_site_type_symbol
 _atom_site_label
 _atom_site_symmetry_multiplicity
 _atom_site_fract_x
 _atom_site_fract_y
 _atom_site_fract_z
 _atom_site_occupancy
  Na  Na0  1  0.14317913  0.06127510  0.16150754  1
  Na  Na1  1  0.14317913  0.06127510  0.49484087  1
  Na  Na2  1  0.14317913  0.06127510  0.82817421  1
  Na  Na3  1  0.14317913  0.56127510  0.16150754  1
  Na  Na4  1  0.14317913  0.56127510  0.49484087  1
  Na  Na5  1  0.14317913  0.56127510  0.82817421  1
  Na  Na6  1  0.47651247  0.06127510  0.16150754  1
  Na  Na7  1  0.47651247  0.06127510  0.49484087  1
  Na  Na8  1  0.47651247  0.06127510  0.82817421  1
  Na  Na9  1  0.47651247  0.56127510  0.16150754  1
  Na  Na10  1  0.47651247  0.56127510  0.49484087  1
  Na  Na11  1  0.47651247  0.56127510  0.82817421  1
  Na  Na12  1  0.80984580  0.06127510  0.16150754  1
  Na  Na13  1  0.80984580  0.06127510  0.49484087  1
  Na  Na14  1  0.80984580  0.06127510  0.82817421  1
  Na  Na15  1  0.80984580  0.56127510  0.16150754  1
  Na  Na16  1  0.80984580  0.56127510  0.49484087  1
  Na  Na17  1  0.80984580  0.56127510  0.82817421  1
  Na  Na18  1  0.02348753  0.31127510  0.32817421  1
  Na  Na19  1  0.02348753  0.31127510  0.66150754  1
  Na  Na20  1  0.02348753  0.31127510  0.99484087  1
  Na  Na21  1  0.02348753  0.81127510  0.32817421  1
  Na  Na22  1  0.02348753  0.81127510  0.66150754  1
  Na  Na23  1  0.02348753  0.81127510  0.99484087  1
  Na  Na24  1  0.35682087  0.31127510  0.32817421  1
  Na  Na25  1  0.35682087  0.31127510  0.66150754  1
  Na  Na26  1  0.35682087  0.31127510  0.99484087  1
  Na  Na27  1  0.35682087  0.81127510  0.32817421  1
  Na  Na28  1  0.35682087  0.81127510  0.66150754  1
  Na  Na29  1  0.35682087  0.81127510  0.99484087  1
  Na  Na30  1  0.69015420  0.31127510  0.32817421  1
  Na  Na31  1  0.69015420  0.31127510  0.66150754  1
  Na  Na32  1  0.69015420  0.31127510  0.99484087  1
  Na  Na33  1  0.69015420  0.81127510  0.32817421  1
  Na  Na34  1  0.69015420  0.81127510  0.66150754  1
  Na  Na35  1  0.69015420  0.81127510  0.99484087  1
  Na  Na36  1  0.19015420  0.43872490  0.32817421  1
  Na  Na37  1  0.19015420  0.43872490  0.66150754  1
  Na  Na38  1  0.19015420  0.43872490  0.99484087  1
  Na  Na39  1  0.19015420  0.93872490  0.32817421  1
  Na  Na40  1  0.19015420  0.93872490  0.66150754  1
  Na  Na41  1  0.19015420  0.93872490  0.99484087  1
  Na  Na42  1  0.52348753  0.43872490  0.32817421  1
  Na  Na43  1  0.52348753  0.43872490  0.66150754  1
  Na  Na44  1  0.52348753  0.43872490  0.99484087  1
  Na  Na45  1  0.52348753  0.93872490  0.32817421  1
  Na  Na46  1  0.52348753  0.93872490  0.66150754  1
  Na  Na47  1  0.52348753  0.93872490  0.99484087  1
  Na  Na48  1  0.85682087  0.43872490  0.32817421  1
  Na  Na49  1  0.85682087  0.43872490  0.66150754  1
  Na  Na50  1  0.85682087  0.43872490  0.99484087  1
  Na  Na51  1  0.85682087  0.93872490  0.32817421  1
  Na  Na52  1  0.85682087  0.93872490  0.66150754  1
  Na  Na53  1  0.85682087  0.93872490  0.99484087  1
  Na  Na54  1  0.30984580  0.18872490  0.16150754  1
  Na  Na55  1  0.30984580  0.18872490  0.49484087  1
  Na  Na56  1  0.30984580  0.18872490  0.82817421  1
  Na  Na57  1  0.30984580  0.68872490  0.16150754  1
  Na  Na58  1  0.30984580  0.68872490  0.49484087  1
  Na  Na59  1  0.30984580  0.68872490  0.82817421  1
  Na  Na60  1  0.64317913  0.18872490  0.16150754  1
  Na  Na61  1  0.64317913  0.18872490  0.49484087  1
  Na  Na62  1  0.64317913  0.18872490  0.82817421  1
  Na  Na63  1  0.64317913  0.68872490  0.16150754  1
  Na  Na64  1  0.64317913  0.68872490  0.49484087  1
  Na  Na65  1  0.64317913  0.68872490  0.82817421  1
  Na  Na66  1  0.97651247  0.18872490  0.16150754  1
  Na  Na67  1  0.97651247  0.18872490  0.49484087  1
  Na  Na68  1  0.97651247  0.18872490  0.82817421  1
  Na  Na69  1  0.97651247  0.68872490  0.16150754  1
  Na  Na70  1  0.97651247  0.68872490  0.49484087  1
  Na  Na71  1  0.97651247  0.68872490  0.82817421  1
  Al  Al72  1  0.18776786  0.18702392  0.00002783  1
  Al  Al73  1  0.18776786  0.18702392  0.33336116  1
  Al  Al74  1  0.18776786  0.18702392  0.66669450  1
  Al  Al75  1  0.18776786  0.68702392  0.00002783  1
  Al  Al76  1  0.18776786  0.68702392  0.33336116  1
  Al  Al77  1  0.18776786  0.68702392  0.66669450  1
  Al  Al78  1  0.52110120  0.18702392  0.00002783  1
  Al  Al79  1  0.52110120  0.18702392  0.33336116  1
  Al  Al80  1  0.52110120  0.18702392  0.66669450  1
  Al  Al81  1  0.52110120  0.68702392  0.00002783  1
  Al  Al82  1  0.52110120  0.68702392  0.33336116  1
  Al  Al83  1  0.52110120  0.68702392  0.66669450  1
  Al  Al84  1  0.85443453  0.18702392  0.00002783  1
  Al  Al85  1  0.85443453  0.18702392  0.33336116  1
  Al  Al86  1  0.85443453  0.18702392  0.66669450  1
  Al  Al87  1  0.85443453  0.68702392  0.00002783  1
  Al  Al88  1  0.85443453  0.68702392  0.33336116  1
  Al  Al89  1  0.85443453  0.68702392  0.66669450  1
  Al  Al90  1  0.14556547  0.31297608  0.16669450  1
  Al  Al91  1  0.14556547  0.31297608  0.50002783  1
  Al  Al92  1  0.14556547  0.31297608  0.83336116  1
  Al  Al93  1  0.14556547  0.81297608  0.16669450  1
  Al  Al94  1  0.14556547  0.81297608  0.50002783  1
  Al  Al95  1  0.14556547  0.81297608  0.83336116  1
  Al  Al96  1  0.47889880  0.31297608  0.16669450  1
  Al  Al97  1  0.47889880  0.31297608  0.50002783  1
  Al  Al98  1  0.47889880  0.31297608  0.83336116  1
  Al  Al99  1  0.47889880  0.81297608  0.16669450  1
  Al  Al100  1  0.47889880  0.81297608  0.50002783  1
  Al  Al101  1  0.47889880  0.81297608  0.83336116  1
  Al  Al102  1  0.81223214  0.31297608  0.16669450  1
  Al  Al103  1  0.81223214  0.31297608  0.50002783  1
  Al  Al104  1  0.81223214  0.31297608  0.83336116  1
  Al  Al105  1  0.81223214  0.81297608  0.16669450  1
  Al  Al106  1  0.81223214  0.81297608  0.50002783  1
  Al  Al107  1  0.81223214  0.81297608  0.83336116  1
  Al  Al108  1  0.31223214  0.43702392  0.16669450  1
  Al  Al109  1  0.31223214  0.43702392  0.50002783  1
  Al  Al110  1  0.31223214  0.43702392  0.83336116  1
  Al  Al111  1  0.31223214  0.93702392  0.16669450  1
  Al  Al112  1  0.31223214  0.93702392  0.50002783  1
  Al  Al113  1  0.31223214  0.93702392  0.83336116  1
  Al  Al114  1  0.64556547  0.43702392  0.16669450  1
  Al  Al115  1  0.64556547  0.43702392  0.50002783  1
  Al  Al116  1  0.64556547  0.43702392  0.83336116  1
  Al  Al117  1  0.64556547  0.93702392  0.16669450  1
  Al  Al118  1  0.64556547  0.93702392  0.50002783  1
  Al  Al119  1  0.64556547  0.93702392  0.83336116  1
  Al  Al120  1  0.97889880  0.43702392  0.16669450  1
  Al  Al121  1  0.97889880  0.43702392  0.50002783  1
  Al  Al122  1  0.97889880  0.43702392  0.83336116  1
  Al  Al123  1  0.97889880  0.93702392  0.16669450  1
  Al  Al124  1  0.97889880  0.93702392  0.50002783  1
  Al  Al125  1  0.97889880  0.93702392  0.83336116  1
  Al  Al126  1  0.02110120  0.06297608  0.00002783  1
  Al  Al127  1  0.02110120  0.06297608  0.33336116  1
  Al  Al128  1  0.02110120  0.06297608  0.66669450  1
  Al  Al129  1  0.02110120  0.56297608  0.00002783  1
  Al  Al130  1  0.02110120  0.56297608  0.33336116  1
  Al  Al131  1  0.02110120  0.56297608  0.66669450  1
  Al  Al132  1  0.35443453  0.06297608  0.00002783  1
  Al  Al133  1  0.35443453  0.06297608  0.33336116  1
  Al  Al134  1  0.35443453  0.06297608  0.66669450  1
  Al  Al135  1  0.35443453  0.56297608  0.00002783  1
  Al  Al136  1  0.35443453  0.56297608  0.33336116  1
  Al  Al137  1  0.35443453  0.56297608  0.66669450  1
  Al  Al138  1  0.68776786  0.06297608  0.00002783  1
  Al  Al139  1  0.68776786  0.06297608  0.33336116  1
  Al  Al140  1  0.68776786  0.06297608  0.66669450  1
  Al  Al141  1  0.68776786  0.56297608  0.00002783  1
  Al  Al142  1  0.68776786  0.56297608  0.33336116  1
  Al  Al143  1  0.68776786  0.56297608  0.66669450  1
  O  O144  1  0.29305858  0.16489460  0.30859264  1
  O  O145  1  0.29305858  0.16489460  0.64192597  1
  O  O146  1  0.29305858  0.16489460  0.97525930  1
  O  O147  1  0.29305858  0.66489460  0.30859264  1
  O  O148  1  0.29305858  0.66489460  0.64192597  1
  O  O149  1  0.29305858  0.66489460  0.97525930  1
  O  O150  1  0.62639191  0.16489460  0.30859264  1
  O  O151  1  0.62639191  0.16489460  0.64192597  1
  O  O152  1  0.62639191  0.16489460  0.97525930  1
  O  O153  1  0.62639191  0.66489460  0.30859264  1
  O  O154  1  0.62639191  0.66489460  0.64192597  1
  O  O155  1  0.62639191  0.66489460  0.97525930  1
  O  O156  1  0.95972524  0.16489460  0.30859264  1
  O  O157  1  0.95972524  0.16489460  0.64192597  1
  O  O158  1  0.95972524  0.16489460  0.97525930  1
  O  O159  1  0.95972524  0.66489460  0.30859264  1
  O  O160  1  0.95972524  0.66489460  0.64192597  1
  O  O161  1  0.95972524  0.66489460  0.97525930  1
  O  O162  1  0.04027476  0.33510540  0.14192597  1
  O  O163  1  0.04027476  0.33510540  0.47525930  1
  O  O164  1  0.04027476  0.33510540  0.80859264  1
  O  O165  1  0.04027476  0.83510540  0.14192597  1
  O  O166  1  0.04027476  0.83510540  0.47525930  1
  O  O167  1  0.04027476  0.83510540  0.80859264  1
  O  O168  1  0.37360809  0.33510540  0.14192597  1
  O  O169  1  0.37360809  0.33510540  0.47525930  1
  O  O170  1  0.37360809  0.33510540  0.80859264  1
  O  O171  1  0.37360809  0.83510540  0.14192597  1
  O  O172  1  0.37360809  0.83510540  0.47525930  1
  O  O173  1  0.37360809  0.83510540  0.80859264  1
  O  O174  1  0.70694142  0.33510540  0.14192597  1
  O  O175  1  0.70694142  0.33510540  0.47525930  1
  O  O176  1  0.70694142  0.33510540  0.80859264  1
  O  O177  1  0.70694142  0.83510540  0.14192597  1
  O  O178  1  0.70694142  0.83510540  0.47525930  1
  O  O179  1  0.70694142  0.83510540  0.80859264  1
  O  O180  1  0.20694142  0.41489460  0.14192597  1
  O  O181  1  0.20694142  0.41489460  0.47525930  1
  O  O182  1  0.20694142  0.41489460  0.80859264  1
  O  O183  1  0.20694142  0.91489460  0.14192597  1
  O  O184  1  0.20694142  0.91489460  0.47525930  1
  O  O185  1  0.20694142  0.91489460  0.80859264  1
  O  O186  1  0.54027476  0.41489460  0.14192597  1
  O  O187  1  0.54027476  0.41489460  0.47525930  1
  O  O188  1  0.54027476  0.41489460  0.80859264  1
  O  O189  1  0.54027476  0.91489460  0.14192597  1
  O  O190  1  0.54027476  0.91489460  0.47525930  1
  O  O191  1  0.54027476  0.91489460  0.80859264  1
  O  O192  1  0.87360809  0.41489460  0.14192597  1
  O  O193  1  0.87360809  0.41489460  0.47525930  1
  O  O194  1  0.87360809  0.41489460  0.80859264  1
  O  O195  1  0.87360809  0.91489460  0.14192597  1
  O  O196  1  0.87360809  0.91489460  0.47525930  1
  O  O197  1  0.87360809  0.91489460  0.80859264  1
  O  O198  1  0.12639191  0.08510540  0.30859264  1
  O  O199  1  0.12639191  0.08510540  0.64192597  1
  O  O200  1  0.12639191  0.08510540  0.97525930  1
  O  O201  1  0.12639191  0.58510540  0.30859264  1
  O  O202  1  0.12639191  0.58510540  0.64192597  1
  O  O203  1  0.12639191  0.58510540  0.97525930  1
  O  O204  1  0.45972524  0.08510540  0.30859264  1
  O  O205  1  0.45972524  0.08510540  0.64192597  1
  O  O206  1  0.45972524  0.08510540  0.97525930  1
  O  O207  1  0.45972524  0.58510540  0.30859264  1
  O  O208  1  0.45972524  0.58510540  0.64192597  1
  O  O209  1  0.45972524  0.58510540  0.97525930  1
  O  O210  1  0.79305858  0.08510540  0.30859264  1
  O  O211  1  0.79305858  0.08510540  0.64192597  1
  O  O212  1  0.79305858  0.08510540  0.97525930  1
  O  O213  1  0.79305858  0.58510540  0.30859264  1
  O  O214  1  0.79305858  0.58510540  0.64192597  1
  O  O215  1  0.79305858  0.58510540  0.97525930  1
  O  O216  1  0.17851539  0.20937125  0.11133866  1
  O  O217  1  0.17851539  0.20937125  0.44467199  1
  O  O218  1  0.17851539  0.20937125  0.77800532  1
  O  O219  1  0.17851539  0.70937125  0.11133866  1
  O  O220  1  0.17851539  0.70937125  0.44467199  1
  O  O221  1  0.17851539  0.70937125  0.77800532  1
  O  O222  1  0.51184872  0.20937125  0.11133866  1
  O  O223  1  0.51184872  0.20937125  0.44467199  1
  O  O224  1  0.51184872  0.20937125  0.77800532  1
  O  O225  1  0.51184872  0.70937125  0.11133866  1
  O  O226  1  0.51184872  0.70937125  0.44467199  1
  O  O227  1  0.51184872  0.70937125  0.77800532  1
  O  O228  1  0.84518205  0.20937125  0.11133866  1
  O  O229  1  0.84518205  0.20937125  0.44467199  1
  O  O230  1  0.84518205  0.20937125  0.77800532  1
  O  O231  1  0.84518205  0.70937125  0.11133866  1
  O  O232  1  0.84518205  0.70937125  0.44467199  1
  O  O233  1  0.84518205  0.70937125  0.77800532  1
  O  O234  1  0.01184872  0.04062875  0.11133866  1
  O  O235  1  0.01184872  0.04062875  0.44467199  1
  O  O236  1  0.01184872  0.04062875  0.77800532  1
  O  O237  1  0.01184872  0.54062875  0.11133866  1
  O  O238  1  0.01184872  0.54062875  0.44467199  1
  O  O239  1  0.01184872  0.54062875  0.77800532  1
  O  O240  1  0.34518205  0.04062875  0.11133866  1
  O  O241  1  0.34518205  0.04062875  0.44467199  1
  O  O242  1  0.34518205  0.04062875  0.77800532  1
  O  O243  1  0.34518205  0.54062875  0.11133866  1
  O  O244  1  0.34518205  0.54062875  0.44467199  1
  O  O245  1  0.34518205  0.54062875  0.77800532  1
  O  O246  1  0.67851539  0.04062875  0.11133866  1
  O  O247  1  0.67851539  0.04062875  0.44467199  1
  O  O248  1  0.67851539  0.04062875  0.77800532  1
  O  O249  1  0.67851539  0.54062875  0.11133866  1
  O  O250  1  0.67851539  0.54062875  0.44467199  1
  O  O251  1  0.67851539  0.54062875  0.77800532  1
  O  O252  1  0.32148461  0.45937125  0.27800532  1
  O  O253  1  0.32148461  0.45937125  0.61133866  1
  O  O254  1  0.32148461  0.45937125  0.94467199  1
  O  O255  1  0.32148461  0.95937125  0.27800532  1
  O  O256  1  0.32148461  0.95937125  0.61133866  1
  O  O257  1  0.32148461  0.95937125  0.94467199  1
  O  O258  1  0.65481795  0.45937125  0.27800532  1
  O  O259  1  0.65481795  0.45937125  0.61133866  1
  O  O260  1  0.65481795  0.45937125  0.94467199  1
  O  O261  1  0.65481795  0.95937125  0.27800532  1
  O  O262  1  0.65481795  0.95937125  0.61133866  1
  O  O263  1  0.65481795  0.95937125  0.94467199  1
  O  O264  1  0.98815128  0.45937125  0.27800532  1
  O  O265  1  0.98815128  0.45937125  0.61133866  1
  O  O266  1  0.98815128  0.45937125  0.94467199  1
  O  O267  1  0.98815128  0.95937125  0.27800532  1
  O  O268  1  0.98815128  0.95937125  0.61133866  1
  O  O269  1  0.98815128  0.95937125  0.94467199  1
  O  O270  1  0.15481795  0.29062875  0.27800532  1
  O  O271  1  0.15481795  0.29062875  0.61133866  1
  O  O272  1  0.15481795  0.29062875  0.94467199  1
  O  O273  1  0.15481795  0.79062875  0.27800532  1
  O  O274  1  0.15481795  0.79062875  0.61133866  1
  O  O275  1  0.15481795  0.79062875  0.94467199  1
  O  O276  1  0.48815128  0.29062875  0.27800532  1
  O  O277  1  0.48815128  0.29062875  0.61133866  1
  O  O278  1  0.48815128  0.29062875  0.94467199  1
  O  O279  1  0.48815128  0.79062875  0.27800532  1
  O  O280  1  0.48815128  0.79062875  0.61133866  1
  O  O281  1  0.48815128  0.79062875  0.94467199  1
  O  O282  1  0.82148461  0.29062875  0.27800532  1
  O  O283  1  0.82148461  0.29062875  0.61133866  1
  O  O284  1  0.82148461  0.29062875  0.94467199  1
  O  O285  1  0.82148461  0.79062875  0.27800532  1
  O  O286  1  0.82148461  0.79062875  0.61133866  1
  O  O287  1  0.82148461  0.79062875  0.94467199  1
