# generated using pymatgen
data_Ga2PbO4
_symmetry_space_group_name_H-M   'P 1'
_cell_length_a   17.07534166
_cell_length_b   18.69444835
_cell_length_c   15.74191378
_cell_angle_alpha   90.00000000
_cell_angle_beta   90.00000000
_cell_angle_gamma   90.00000000
_symmetry_Int_Tables_number   1
_chemical_formula_structural   Ga2PbO4
_chemical_formula_sum   'Ga96 Pb48 O192'
_cell_volume   5025.04072444
_cell_formula_units_Z   48
loop_
 _symmetry_equiv_pos_site_id
 _symmetry_equiv_pos_as_xyz
  1  'x, y, z'
loop_
 _atom_site_type_symbol
 _atom_site_label
 _atom_site_symmetry_multiplicity
 _atom_site_fract_x
 _atom_site_fract_y
 _atom_site_fract_z
 _atom_site_occupancy
  Ga  Ga0  1  0.27603113  -0.08669935  0.17894842  1
  Ga  Ga1  1  0.27603113  -0.08669935  0.51228175  1
  Ga  Ga2  1  0.27603113  -0.08669935  0.84561508  1
  Ga  Ga3  1  0.27603113  0.41330065  0.17894842  1
  Ga  Ga4  1  0.27603113  0.41330065  0.51228175  1
  Ga  Ga5  1  0.27603113  0.41330065  0.84561508  1
  Ga  Ga6  1  0.77603113  -0.08669935  0.17894842  1
  Ga  Ga7  1  0.77603113  -0.08669935  0.51228175  1
  Ga  Ga8  1  0.77603113  -0.08669935  0.84561508  1
  Ga  Ga9  1  0.77603113  0.41330065  0.17894842  1
  Ga  Ga10  1  0.77603113  0.41330065  0.51228175  1
  Ga  Ga11  1  0.77603113  0.41330065  0.84561508  1
  Ga  Ga12  1  0.27603113  0.16330065  0.34561508  1
  Ga  Ga13  1  0.27603113  0.16330065  0.67894842  1
  Ga  Ga14  1  0.27603113  0.16330065  1.01228175  1
  Ga  Ga15  1  0.27603113  0.66330065  0.34561508  1
  Ga  Ga16  1  0.27603113  0.66330065  0.67894842  1
  Ga  Ga17  1  0.27603113  0.66330065  1.01228175  1
  Ga  Ga18  1  0.77603113  0.16330065  0.34561508  1
  Ga  Ga19  1  0.77603113  0.16330065  0.67894842  1
  Ga  Ga20  1  0.77603113  0.16330065  1.01228175  1
  Ga  Ga21  1  0.77603113  0.66330065  0.34561508  1
  Ga  Ga22  1  0.77603113  0.66330065  0.67894842  1
  Ga  Ga23  1  0.77603113  0.66330065  1.01228175  1
  Ga  Ga24  1  0.22396887  0.08669935  0.17894842  1
  Ga  Ga25  1  0.22396887  0.08669935  0.51228175  1
  Ga  Ga26  1  0.22396887  0.08669935  0.84561508  1
  Ga  Ga27  1  0.22396887  0.58669935  0.17894842  1
  Ga  Ga28  1  0.22396887  0.58669935  0.51228175  1
  Ga  Ga29  1  0.22396887  0.58669935  0.84561508  1
  Ga  Ga30  1  0.72396887  0.08669935  0.17894842  1
  Ga  Ga31  1  0.72396887  0.08669935  0.51228175  1
  Ga  Ga32  1  0.72396887  0.08669935  0.84561508  1
  Ga  Ga33  1  0.72396887  0.58669935  0.17894842  1
  Ga  Ga34  1  0.72396887  0.58669935  0.51228175  1
  Ga  Ga35  1  0.72396887  0.58669935  0.84561508  1
  Ga  Ga36  1  0.22396887  0.33669935  0.34561508  1
  Ga  Ga37  1  0.22396887  0.33669935  0.67894842  1
  Ga  Ga38  1  0.22396887  0.33669935  1.01228175  1
  Ga  Ga39  1  0.22396887  0.83669935  0.34561508  1
  Ga  Ga40  1  0.22396887  0.83669935  0.67894842  1
  Ga  Ga41  1  0.22396887  0.83669935  1.01228175  1
  Ga  Ga42  1  0.72396887  0.33669935  0.34561508  1
  Ga  Ga43  1  0.72396887  0.33669935  0.67894842  1
  Ga  Ga44  1  0.72396887  0.33669935  1.01228175  1
  Ga  Ga45  1  0.72396887  0.83669935  0.34561508  1
  Ga  Ga46  1  0.72396887  0.83669935  0.67894842  1
  Ga  Ga47  1  0.72396887  0.83669935  1.01228175  1
  Ga  Ga48  1  0.47396887  -0.08669935  0.17894842  1
  Ga  Ga49  1  0.47396887  -0.08669935  0.51228175  1
  Ga  Ga50  1  0.47396887  -0.08669935  0.84561508  1
  Ga  Ga51  1  0.47396887  0.41330065  0.17894842  1
  Ga  Ga52  1  0.47396887  0.41330065  0.51228175  1
  Ga  Ga53  1  0.47396887  0.41330065  0.84561508  1
  Ga  Ga54  1  0.97396887  -0.08669935  0.17894842  1
  Ga  Ga55  1  0.97396887  -0.08669935  0.51228175  1
  Ga  Ga56  1  0.97396887  -0.08669935  0.84561508  1
  Ga  Ga57  1  0.97396887  0.41330065  0.17894842  1
  Ga  Ga58  1  0.97396887  0.41330065  0.51228175  1
  Ga  Ga59  1  0.97396887  0.41330065  0.84561508  1
  Ga  Ga60  1  0.47396887  0.16330065  0.34561508  1
  Ga  Ga61  1  0.47396887  0.16330065  0.67894842  1
  Ga  Ga62  1  0.47396887  0.16330065  1.01228175  1
  Ga  Ga63  1  0.47396887  0.66330065  0.34561508  1
  Ga  Ga64  1  0.47396887  0.66330065  0.67894842  1
  Ga  Ga65  1  0.47396887  0.66330065  1.01228175  1
  Ga  Ga66  1  0.97396887  0.16330065  0.34561508  1
  Ga  Ga67  1  0.97396887  0.16330065  0.67894842  1
  Ga  Ga68  1  0.97396887  0.16330065  1.01228175  1
  Ga  Ga69  1  0.97396887  0.66330065  0.34561508  1
  Ga  Ga70  1  0.97396887  0.66330065  0.67894842  1
  Ga  Ga71  1  0.97396887  0.66330065  1.01228175  1
  Ga  Ga72  1  0.02603113  0.08669935  0.17894842  1
  Ga  Ga73  1  0.02603113  0.08669935  0.51228175  1
  Ga  Ga74  1  0.02603113  0.08669935  0.84561508  1
  Ga  Ga75  1  0.02603113  0.58669935  0.17894842  1
  Ga  Ga76  1  0.02603113  0.58669935  0.51228175  1
  Ga  Ga77  1  0.02603113  0.58669935  0.84561508  1
  Ga  Ga78  1  0.52603113  0.08669935  0.17894842  1
  Ga  Ga79  1  0.52603113  0.08669935  0.51228175  1
  Ga  Ga80  1  0.52603113  0.08669935  0.84561508  1
  Ga  Ga81  1  0.52603113  0.58669935  0.17894842  1
  Ga  Ga82  1  0.52603113  0.58669935  0.51228175  1
  Ga  Ga83  1  0.52603113  0.58669935  0.84561508  1
  Ga  Ga84  1  0.02603113  0.33669935  0.34561508  1
  Ga  Ga85  1  0.02603113  0.33669935  0.67894842  1
  Ga  Ga86  1  0.02603113  0.33669935  1.01228175  1
  Ga  Ga87  1  0.02603113  0.83669935  0.34561508  1
  Ga  Ga88  1  0.02603113  0.83669935  0.67894842  1
  Ga  Ga89  1  0.02603113  0.83669935  1.01228175  1
  Ga  Ga90  1  0.52603113  0.33669935  0.34561508  1
  Ga  Ga91  1  0.52603113  0.33669935  0.67894842  1
  Ga  Ga92  1  0.52603113  0.33669935  1.01228175  1
  Ga  Ga93  1  0.52603113  0.83669935  0.34561508  1
  Ga  Ga94  1  0.52603113  0.83669935  0.67894842  1
  Ga  Ga95  1  0.52603113  0.83669935  1.01228175  1
  Pb  Pb96  1  0.37500000  0.23778937  0.16542516  1
  Pb  Pb97  1  0.37500000  0.23778937  0.49875850  1
  Pb  Pb98  1  0.37500000  0.23778937  0.83209183  1
  Pb  Pb99  1  0.37500000  0.73778937  0.16542516  1
  Pb  Pb100  1  0.37500000  0.73778937  0.49875850  1
  Pb  Pb101  1  0.37500000  0.73778937  0.83209183  1
  Pb  Pb102  1  0.87500000  0.23778937  0.16542516  1
  Pb  Pb103  1  0.87500000  0.23778937  0.49875850  1
  Pb  Pb104  1  0.87500000  0.23778937  0.83209183  1
  Pb  Pb105  1  0.87500000  0.73778937  0.16542516  1
  Pb  Pb106  1  0.87500000  0.73778937  0.49875850  1
  Pb  Pb107  1  0.87500000  0.73778937  0.83209183  1
  Pb  Pb108  1  0.37500000  0.48778937  0.33209183  1
  Pb  Pb109  1  0.37500000  0.48778937  0.66542516  1
  Pb  Pb110  1  0.37500000  0.48778937  0.99875850  1
  Pb  Pb111  1  0.37500000  0.98778937  0.33209183  1
  Pb  Pb112  1  0.37500000  0.98778937  0.66542516  1
  Pb  Pb113  1  0.37500000  0.98778937  0.99875850  1
  Pb  Pb114  1  0.87500000  0.48778937  0.33209183  1
  Pb  Pb115  1  0.87500000  0.48778937  0.66542516  1
  Pb  Pb116  1  0.87500000  0.48778937  0.99875850  1
  Pb  Pb117  1  0.87500000  0.98778937  0.33209183  1
  Pb  Pb118  1  0.87500000  0.98778937  0.66542516  1
  Pb  Pb119  1  0.87500000  0.98778937  0.99875850  1
  Pb  Pb120  1  0.12500000  -0.23778937  0.16542516  1
  Pb  Pb121  1  0.12500000  -0.23778937  0.49875850  1
  Pb  Pb122  1  0.12500000  -0.23778937  0.83209183  1
  Pb  Pb123  1  0.12500000  0.26221063  0.16542516  1
  Pb  Pb124  1  0.12500000  0.26221063  0.49875850  1
  Pb  Pb125  1  0.12500000  0.26221063  0.83209183  1
  Pb  Pb126  1  0.62500000  -0.23778937  0.16542516  1
  Pb  Pb127  1  0.62500000  -0.23778937  0.49875850  1
  Pb  Pb128  1  0.62500000  -0.23778937  0.83209183  1
  Pb  Pb129  1  0.62500000  0.26221063  0.16542516  1
  Pb  Pb130  1  0.62500000  0.26221063  0.49875850  1
  Pb  Pb131  1  0.62500000  0.26221063  0.83209183  1
  Pb  Pb132  1  0.12500000  0.01221063  0.33209183  1
  Pb  Pb133  1  0.12500000  0.01221063  0.66542516  1
  Pb  Pb134  1  0.12500000  0.01221063  0.99875850  1
  Pb  Pb135  1  0.12500000  0.51221063  0.33209183  1
  Pb  Pb136  1  0.12500000  0.51221063  0.66542516  1
  Pb  Pb137  1  0.12500000  0.51221063  0.99875850  1
  Pb  Pb138  1  0.62500000  0.01221063  0.33209183  1
  Pb  Pb139  1  0.62500000  0.01221063  0.66542516  1
  Pb  Pb140  1  0.62500000  0.01221063  0.99875850  1
  Pb  Pb141  1  0.62500000  0.51221063  0.33209183  1
  Pb  Pb142  1  0.62500000  0.51221063  0.66542516  1
  Pb  Pb143  1  0.62500000  0.51221063  0.99875850  1
  O  O144  1  0.37500000  -0.09701763  0.22691029  1
  O  O145  1  0.37500000  -0.09701763  0.56024362  1
  O  O146  1  0.37500000  -0.09701763  0.89357695  1
  O  O147  1  0.37500000  0.40298237  0.22691029  1
  O  O148  1  0.37500000  0.40298237  0.56024362  1
  O  O149  1  0.37500000  0.40298237  0.89357695  1
  O  O150  1  0.87500000  -0.09701763  0.22691029  1
  O  O151  1  0.87500000  -0.09701763  0.56024362  1
  O  O152  1  0.87500000  -0.09701763  0.89357695  1
  O  O153  1  0.87500000  0.40298237  0.22691029  1
  O  O154  1  0.87500000  0.40298237  0.56024362  1
  O  O155  1  0.87500000  0.40298237  0.89357695  1
  O  O156  1  0.37500000  0.15298237  0.39357695  1
  O  O157  1  0.37500000  0.15298237  0.72691029  1
  O  O158  1  0.37500000  0.15298237  1.06024362  1
  O  O159  1  0.37500000  0.65298237  0.39357695  1
  O  O160  1  0.37500000  0.65298237  0.72691029  1
  O  O161  1  0.37500000  0.65298237  1.06024362  1
  O  O162  1  0.87500000  0.15298237  0.39357695  1
  O  O163  1  0.87500000  0.15298237  0.72691029  1
  O  O164  1  0.87500000  0.15298237  1.06024362  1
  O  O165  1  0.87500000  0.65298237  0.39357695  1
  O  O166  1  0.87500000  0.65298237  0.72691029  1
  O  O167  1  0.87500000  0.65298237  1.06024362  1
  O  O168  1  0.12500000  0.09701763  0.22691029  1
  O  O169  1  0.12500000  0.09701763  0.56024362  1
  O  O170  1  0.12500000  0.09701763  0.89357695  1
  O  O171  1  0.12500000  0.59701763  0.22691029  1
  O  O172  1  0.12500000  0.59701763  0.56024362  1
  O  O173  1  0.12500000  0.59701763  0.89357695  1
  O  O174  1  0.62500000  0.09701763  0.22691029  1
  O  O175  1  0.62500000  0.09701763  0.56024362  1
  O  O176  1  0.62500000  0.09701763  0.89357695  1
  O  O177  1  0.62500000  0.59701763  0.22691029  1
  O  O178  1  0.62500000  0.59701763  0.56024362  1
  O  O179  1  0.62500000  0.59701763  0.89357695  1
  O  O180  1  0.12500000  0.34701763  0.39357695  1
  O  O181  1  0.12500000  0.34701763  0.72691029  1
  O  O182  1  0.12500000  0.34701763  1.06024362  1
  O  O183  1  0.12500000  0.84701763  0.39357695  1
  O  O184  1  0.12500000  0.84701763  0.72691029  1
  O  O185  1  0.12500000  0.84701763  1.06024362  1
  O  O186  1  0.62500000  0.34701763  0.39357695  1
  O  O187  1  0.62500000  0.34701763  0.72691029  1
  O  O188  1  0.62500000  0.34701763  1.06024362  1
  O  O189  1  0.62500000  0.84701763  0.39357695  1
  O  O190  1  0.62500000  0.84701763  0.72691029  1
  O  O191  1  0.62500000  0.84701763  1.06024362  1
  O  O192  1  0.25000000  0.00000000  0.22740263  1
  O  O193  1  0.25000000  0.00000000  0.56073596  1
  O  O194  1  0.25000000  0.00000000  0.89406930  1
  O  O195  1  0.25000000  0.50000000  0.22740263  1
  O  O196  1  0.25000000  0.50000000  0.56073596  1
  O  O197  1  0.25000000  0.50000000  0.89406930  1
  O  O198  1  0.75000000  0.00000000  0.22740263  1
  O  O199  1  0.75000000  0.00000000  0.56073596  1
  O  O200  1  0.75000000  0.00000000  0.89406930  1
  O  O201  1  0.75000000  0.50000000  0.22740263  1
  O  O202  1  0.75000000  0.50000000  0.56073596  1
  O  O203  1  0.75000000  0.50000000  0.89406930  1
  O  O204  1  0.25000000  0.25000000  0.39406930  1
  O  O205  1  0.25000000  0.25000000  0.72740263  1
  O  O206  1  0.25000000  0.25000000  1.06073596  1
  O  O207  1  0.25000000  0.75000000  0.39406930  1
  O  O208  1  0.25000000  0.75000000  0.72740263  1
  O  O209  1  0.25000000  0.75000000  1.06073596  1
  O  O210  1  0.75000000  0.25000000  0.39406930  1
  O  O211  1  0.75000000  0.25000000  0.72740263  1
  O  O212  1  0.75000000  0.25000000  1.06073596  1
  O  O213  1  0.75000000  0.75000000  0.39406930  1
  O  O214  1  0.75000000  0.75000000  0.72740263  1
  O  O215  1  0.75000000  0.75000000  1.06073596  1
  O  O216  1  0.00000000  0.00000000  0.22740263  1
  O  O217  1  0.00000000  0.00000000  0.56073596  1
  O  O218  1  0.00000000  0.00000000  0.89406930  1
  O  O219  1  0.00000000  0.50000000  0.22740263  1
  O  O220  1  0.00000000  0.50000000  0.56073596  1
  O  O221  1  0.00000000  0.50000000  0.89406930  1
  O  O222  1  0.50000000  0.00000000  0.22740263  1
  O  O223  1  0.50000000  0.00000000  0.56073596  1
  O  O224  1  0.50000000  0.00000000  0.89406930  1
  O  O225  1  0.50000000  0.50000000  0.22740263  1
  O  O226  1  0.50000000  0.50000000  0.56073596  1
  O  O227  1  0.50000000  0.50000000  0.89406930  1
  O  O228  1  0.00000000  0.25000000  0.39406930  1
  O  O229  1  0.00000000  0.25000000  0.72740263  1
  O  O230  1  0.00000000  0.25000000  1.06073596  1
  O  O231  1  0.00000000  0.75000000  0.39406930  1
  O  O232  1  0.00000000  0.75000000  0.72740263  1
  O  O233  1  0.00000000  0.75000000  1.06073596  1
  O  O234  1  0.50000000  0.25000000  0.39406930  1
  O  O235  1  0.50000000  0.25000000  0.72740263  1
  O  O236  1  0.50000000  0.25000000  1.06073596  1
  O  O237  1  0.50000000  0.75000000  0.39406930  1
  O  O238  1  0.50000000  0.75000000  0.72740263  1
  O  O239  1  0.50000000  0.75000000  1.06073596  1
  O  O240  1  0.28050539  -0.09025125  0.06256596  1
  O  O241  1  0.28050539  -0.09025125  0.39589929  1
  O  O242  1  0.28050539  -0.09025125  0.72923263  1
  O  O243  1  0.28050539  0.40974875  0.06256596  1
  O  O244  1  0.28050539  0.40974875  0.39589929  1
  O  O245  1  0.28050539  0.40974875  0.72923263  1
  O  O246  1  0.78050539  -0.09025125  0.06256596  1
  O  O247  1  0.78050539  -0.09025125  0.39589929  1
  O  O248  1  0.78050539  -0.09025125  0.72923263  1
  O  O249  1  0.78050539  0.40974875  0.06256596  1
  O  O250  1  0.78050539  0.40974875  0.39589929  1
  O  O251  1  0.78050539  0.40974875  0.72923263  1
  O  O252  1  0.28050539  0.15974875  0.22923263  1
  O  O253  1  0.28050539  0.15974875  0.56256596  1
  O  O254  1  0.28050539  0.15974875  0.89589929  1
  O  O255  1  0.28050539  0.65974875  0.22923263  1
  O  O256  1  0.28050539  0.65974875  0.56256596  1
  O  O257  1  0.28050539  0.65974875  0.89589929  1
  O  O258  1  0.78050539  0.15974875  0.22923263  1
  O  O259  1  0.78050539  0.15974875  0.56256596  1
  O  O260  1  0.78050539  0.15974875  0.89589929  1
  O  O261  1  0.78050539  0.65974875  0.22923263  1
  O  O262  1  0.78050539  0.65974875  0.56256596  1
  O  O263  1  0.78050539  0.65974875  0.89589929  1
  O  O264  1  0.21949461  0.09025125  0.06256596  1
  O  O265  1  0.21949461  0.09025125  0.39589929  1
  O  O266  1  0.21949461  0.09025125  0.72923263  1
  O  O267  1  0.21949461  0.59025125  0.06256596  1
  O  O268  1  0.21949461  0.59025125  0.39589929  1
  O  O269  1  0.21949461  0.59025125  0.72923263  1
  O  O270  1  0.71949461  0.09025125  0.06256596  1
  O  O271  1  0.71949461  0.09025125  0.39589929  1
  O  O272  1  0.71949461  0.09025125  0.72923263  1
  O  O273  1  0.71949461  0.59025125  0.06256596  1
  O  O274  1  0.71949461  0.59025125  0.39589929  1
  O  O275  1  0.71949461  0.59025125  0.72923263  1
  O  O276  1  0.21949461  0.34025125  0.22923263  1
  O  O277  1  0.21949461  0.34025125  0.56256596  1
  O  O278  1  0.21949461  0.34025125  0.89589929  1
  O  O279  1  0.21949461  0.84025125  0.22923263  1
  O  O280  1  0.21949461  0.84025125  0.56256596  1
  O  O281  1  0.21949461  0.84025125  0.89589929  1
  O  O282  1  0.71949461  0.34025125  0.22923263  1
  O  O283  1  0.71949461  0.34025125  0.56256596  1
  O  O284  1  0.71949461  0.34025125  0.89589929  1
  O  O285  1  0.71949461  0.84025125  0.22923263  1
  O  O286  1  0.71949461  0.84025125  0.56256596  1
  O  O287  1  0.71949461  0.84025125  0.89589929  1
  O  O288  1  0.03050539  0.09025125  0.06256596  1
  O  O289  1  0.03050539  0.09025125  0.39589929  1
  O  O290  1  0.03050539  0.09025125  0.72923263  1
  O  O291  1  0.03050539  0.59025125  0.06256596  1
  O  O292  1  0.03050539  0.59025125  0.39589929  1
  O  O293  1  0.03050539  0.59025125  0.72923263  1
  O  O294  1  0.53050539  0.09025125  0.06256596  1
  O  O295  1  0.53050539  0.09025125  0.39589929  1
  O  O296  1  0.53050539  0.09025125  0.72923263  1
  O  O297  1  0.53050539  0.59025125  0.06256596  1
  O  O298  1  0.53050539  0.59025125  0.39589929  1
  O  O299  1  0.53050539  0.59025125  0.72923263  1
  O  O300  1  0.03050539  0.34025125  0.22923263  1
  O  O301  1  0.03050539  0.34025125  0.56256596  1
  O  O302  1  0.03050539  0.34025125  0.89589929  1
  O  O303  1  0.03050539  0.84025125  0.22923263  1
  O  O304  1  0.03050539  0.84025125  0.56256596  1
  O  O305  1  0.03050539  0.84025125  0.89589929  1
  O  O306  1  0.53050539  0.34025125  0.22923263  1
  O  O307  1  0.53050539  0.34025125  0.56256596  1
  O  O308  1  0.53050539  0.34025125  0.89589929  1
  O  O309  1  0.53050539  0.84025125  0.22923263  1
  O  O310  1  0.53050539  0.84025125  0.56256596  1
  O  O311  1  0.53050539  0.84025125  0.89589929  1
  O  O312  1  0.46949461  -0.09025125  0.06256596  1
  O  O313  1  0.46949461  -0.09025125  0.39589929  1
  O  O314  1  0.46949461  -0.09025125  0.72923263  1
  O  O315  1  0.46949461  0.40974875  0.06256596  1
  O  O316  1  0.46949461  0.40974875  0.39589929  1
  O  O317  1  0.46949461  0.40974875  0.72923263  1
  O  O318  1  0.96949461  -0.09025125  0.06256596  1
  O  O319  1  0.96949461  -0.09025125  0.39589929  1
  O  O320  1  0.96949461  -0.09025125  0.72923263  1
  O  O321  1  0.96949461  0.40974875  0.06256596  1
  O  O322  1  0.96949461  0.40974875  0.39589929  1
  O  O323  1  0.96949461  0.40974875  0.72923263  1
  O  O324  1  0.46949461  0.15974875  0.22923263  1
  O  O325  1  0.46949461  0.15974875  0.56256596  1
  O  O326  1  0.46949461  0.15974875  0.89589929  1
  O  O327  1  0.46949461  0.65974875  0.22923263  1
  O  O328  1  0.46949461  0.65974875  0.56256596  1
  O  O329  1  0.46949461  0.65974875  0.89589929  1
  O  O330  1  0.96949461  0.15974875  0.22923263  1
  O  O331  1  0.96949461  0.15974875  0.56256596  1
  O  O332  1  0.96949461  0.15974875  0.89589929  1
  O  O333  1  0.96949461  0.65974875  0.22923263  1
  O  O334  1  0.96949461  0.65974875  0.56256596  1
  O  O335  1  0.96949461  0.65974875  0.89589929  1
