# generated using pymatgen
data_BaSr2Mg(SiO4)2
_symmetry_space_group_name_H-M   'P 1'
_cell_length_a   16.45664350
_cell_length_b   16.45664350
_cell_length_c   14.01365021
_cell_angle_alpha   90.00000000
_cell_angle_beta   90.00000000
_cell_angle_gamma   120.00000000
_symmetry_Int_Tables_number   1
_chemical_formula_structural   BaSr2Mg(SiO4)2
_chemical_formula_sum   'Ba18 Sr36 Mg18 Si36 O144'
_cell_volume   3286.73301177
_cell_formula_units_Z   18
loop_
 _symmetry_equiv_pos_site_id
 _symmetry_equiv_pos_as_xyz
  1  'x, y, z'
loop_
 _atom_site_type_symbol
 _atom_site_label
 _atom_site_symmetry_multiplicity
 _atom_site_fract_x
 _atom_site_fract_y
 _atom_site_fract_z
 _atom_site_occupancy
  Ba  Ba0  1  0.00000000  0.00000000  0.25000000  1
  Ba  Ba1  1  0.00000000  0.00000000  0.75000000  1
  Ba  Ba2  1  0.00000000  0.33333333  0.25000000  1
  Ba  Ba3  1  0.00000000  0.33333333  0.75000000  1
  Ba  Ba4  1  0.00000000  0.66666667  0.25000000  1
  Ba  Ba5  1  0.00000000  0.66666667  0.75000000  1
  Ba  Ba6  1  0.33333333  0.00000000  0.25000000  1
  Ba  Ba7  1  0.33333333  0.00000000  0.75000000  1
  Ba  Ba8  1  0.33333333  0.33333333  0.25000000  1
  Ba  Ba9  1  0.33333333  0.33333333  0.75000000  1
  Ba  Ba10  1  0.33333333  0.66666667  0.25000000  1
  Ba  Ba11  1  0.33333333  0.66666667  0.75000000  1
  Ba  Ba12  1  0.66666667  0.00000000  0.25000000  1
  Ba  Ba13  1  0.66666667  0.00000000  0.75000000  1
  Ba  Ba14  1  0.66666667  0.33333333  0.25000000  1
  Ba  Ba15  1  0.66666667  0.33333333  0.75000000  1
  Ba  Ba16  1  0.66666667  0.66666667  0.25000000  1
  Ba  Ba17  1  0.66666667  0.66666667  0.75000000  1
  Sr  Sr18  1  0.22222222  0.11111111  0.08004991  1
  Sr  Sr19  1  0.22222222  0.11111111  0.58004991  1
  Sr  Sr20  1  0.22222222  0.44444444  0.08004991  1
  Sr  Sr21  1  0.22222222  0.44444444  0.58004991  1
  Sr  Sr22  1  0.22222222  0.77777778  0.08004991  1
  Sr  Sr23  1  0.22222222  0.77777778  0.58004991  1
  Sr  Sr24  1  0.55555556  0.11111111  0.08004991  1
  Sr  Sr25  1  0.55555556  0.11111111  0.58004991  1
  Sr  Sr26  1  0.55555556  0.44444444  0.08004991  1
  Sr  Sr27  1  0.55555556  0.44444444  0.58004991  1
  Sr  Sr28  1  0.55555556  0.77777778  0.08004991  1
  Sr  Sr29  1  0.55555556  0.77777778  0.58004991  1
  Sr  Sr30  1  0.88888889  0.11111111  0.08004991  1
  Sr  Sr31  1  0.88888889  0.11111111  0.58004991  1
  Sr  Sr32  1  0.88888889  0.44444444  0.08004991  1
  Sr  Sr33  1  0.88888889  0.44444444  0.58004991  1
  Sr  Sr34  1  0.88888889  0.77777778  0.08004991  1
  Sr  Sr35  1  0.88888889  0.77777778  0.58004991  1
  Sr  Sr36  1  0.11111111  0.22222222  0.41995009  1
  Sr  Sr37  1  0.11111111  0.22222222  0.91995009  1
  Sr  Sr38  1  0.11111111  0.55555556  0.41995009  1
  Sr  Sr39  1  0.11111111  0.55555556  0.91995009  1
  Sr  Sr40  1  0.11111111  0.88888889  0.41995009  1
  Sr  Sr41  1  0.11111111  0.88888889  0.91995009  1
  Sr  Sr42  1  0.44444444  0.22222222  0.41995009  1
  Sr  Sr43  1  0.44444444  0.22222222  0.91995009  1
  Sr  Sr44  1  0.44444444  0.55555556  0.41995009  1
  Sr  Sr45  1  0.44444444  0.55555556  0.91995009  1
  Sr  Sr46  1  0.44444444  0.88888889  0.41995009  1
  Sr  Sr47  1  0.44444444  0.88888889  0.91995009  1
  Sr  Sr48  1  0.77777778  0.22222222  0.41995009  1
  Sr  Sr49  1  0.77777778  0.22222222  0.91995009  1
  Sr  Sr50  1  0.77777778  0.55555556  0.41995009  1
  Sr  Sr51  1  0.77777778  0.55555556  0.91995009  1
  Sr  Sr52  1  0.77777778  0.88888889  0.41995009  1
  Sr  Sr53  1  0.77777778  0.88888889  0.91995009  1
  Mg  Mg54  1  0.00000000  0.00000000  0.00000000  1
  Mg  Mg55  1  0.00000000  0.00000000  0.50000000  1
  Mg  Mg56  1  0.00000000  0.33333333  0.00000000  1
  Mg  Mg57  1  0.00000000  0.33333333  0.50000000  1
  Mg  Mg58  1  0.00000000  0.66666667  0.00000000  1
  Mg  Mg59  1  0.00000000  0.66666667  0.50000000  1
  Mg  Mg60  1  0.33333333  0.00000000  0.00000000  1
  Mg  Mg61  1  0.33333333  0.00000000  0.50000000  1
  Mg  Mg62  1  0.33333333  0.33333333  0.00000000  1
  Mg  Mg63  1  0.33333333  0.33333333  0.50000000  1
  Mg  Mg64  1  0.33333333  0.66666667  0.00000000  1
  Mg  Mg65  1  0.33333333  0.66666667  0.50000000  1
  Mg  Mg66  1  0.66666667  0.00000000  0.00000000  1
  Mg  Mg67  1  0.66666667  0.00000000  0.50000000  1
  Mg  Mg68  1  0.66666667  0.33333333  0.00000000  1
  Mg  Mg69  1  0.66666667  0.33333333  0.50000000  1
  Mg  Mg70  1  0.66666667  0.66666667  0.00000000  1
  Mg  Mg71  1  0.66666667  0.66666667  0.50000000  1
  Si  Si72  1  0.22222222  0.11111111  0.36393417  1
  Si  Si73  1  0.22222222  0.11111111  0.86393417  1
  Si  Si74  1  0.22222222  0.44444444  0.36393417  1
  Si  Si75  1  0.22222222  0.44444444  0.86393417  1
  Si  Si76  1  0.22222222  0.77777778  0.36393417  1
  Si  Si77  1  0.22222222  0.77777778  0.86393417  1
  Si  Si78  1  0.55555556  0.11111111  0.36393417  1
  Si  Si79  1  0.55555556  0.11111111  0.86393417  1
  Si  Si80  1  0.55555556  0.44444444  0.36393417  1
  Si  Si81  1  0.55555556  0.44444444  0.86393417  1
  Si  Si82  1  0.55555556  0.77777778  0.36393417  1
  Si  Si83  1  0.55555556  0.77777778  0.86393417  1
  Si  Si84  1  0.88888889  0.11111111  0.36393417  1
  Si  Si85  1  0.88888889  0.11111111  0.86393417  1
  Si  Si86  1  0.88888889  0.44444444  0.36393417  1
  Si  Si87  1  0.88888889  0.44444444  0.86393417  1
  Si  Si88  1  0.88888889  0.77777778  0.36393417  1
  Si  Si89  1  0.88888889  0.77777778  0.86393417  1
  Si  Si90  1  0.11111111  0.22222222  0.13606583  1
  Si  Si91  1  0.11111111  0.22222222  0.63606583  1
  Si  Si92  1  0.11111111  0.55555556  0.13606583  1
  Si  Si93  1  0.11111111  0.55555556  0.63606583  1
  Si  Si94  1  0.11111111  0.88888889  0.13606583  1
  Si  Si95  1  0.11111111  0.88888889  0.63606583  1
  Si  Si96  1  0.44444444  0.22222222  0.13606583  1
  Si  Si97  1  0.44444444  0.22222222  0.63606583  1
  Si  Si98  1  0.44444444  0.55555556  0.13606583  1
  Si  Si99  1  0.44444444  0.55555556  0.63606583  1
  Si  Si100  1  0.44444444  0.88888889  0.13606583  1
  Si  Si101  1  0.44444444  0.88888889  0.63606583  1
  Si  Si102  1  0.77777778  0.22222222  0.13606583  1
  Si  Si103  1  0.77777778  0.22222222  0.63606583  1
  Si  Si104  1  0.77777778  0.55555556  0.13606583  1
  Si  Si105  1  0.77777778  0.55555556  0.63606583  1
  Si  Si106  1  0.77777778  0.88888889  0.13606583  1
  Si  Si107  1  0.77777778  0.88888889  0.63606583  1
  O  O108  1  0.22222222  0.11111111  0.24887718  1
  O  O109  1  0.22222222  0.11111111  0.74887718  1
  O  O110  1  0.22222222  0.44444444  0.24887718  1
  O  O111  1  0.22222222  0.44444444  0.74887718  1
  O  O112  1  0.22222222  0.77777778  0.24887718  1
  O  O113  1  0.22222222  0.77777778  0.74887718  1
  O  O114  1  0.55555556  0.11111111  0.24887718  1
  O  O115  1  0.55555556  0.11111111  0.74887718  1
  O  O116  1  0.55555556  0.44444444  0.24887718  1
  O  O117  1  0.55555556  0.44444444  0.74887718  1
  O  O118  1  0.55555556  0.77777778  0.24887718  1
  O  O119  1  0.55555556  0.77777778  0.74887718  1
  O  O120  1  0.88888889  0.11111111  0.24887718  1
  O  O121  1  0.88888889  0.11111111  0.74887718  1
  O  O122  1  0.88888889  0.44444444  0.24887718  1
  O  O123  1  0.88888889  0.44444444  0.74887718  1
  O  O124  1  0.88888889  0.77777778  0.24887718  1
  O  O125  1  0.88888889  0.77777778  0.74887718  1
  O  O126  1  0.11111111  0.22222222  0.25112282  1
  O  O127  1  0.11111111  0.22222222  0.75112282  1
  O  O128  1  0.11111111  0.55555556  0.25112282  1
  O  O129  1  0.11111111  0.55555556  0.75112282  1
  O  O130  1  0.11111111  0.88888889  0.25112282  1
  O  O131  1  0.11111111  0.88888889  0.75112282  1
  O  O132  1  0.44444444  0.22222222  0.25112282  1
  O  O133  1  0.44444444  0.22222222  0.75112282  1
  O  O134  1  0.44444444  0.55555556  0.25112282  1
  O  O135  1  0.44444444  0.55555556  0.75112282  1
  O  O136  1  0.44444444  0.88888889  0.25112282  1
  O  O137  1  0.44444444  0.88888889  0.75112282  1
  O  O138  1  0.77777778  0.22222222  0.25112282  1
  O  O139  1  0.77777778  0.22222222  0.75112282  1
  O  O140  1  0.77777778  0.55555556  0.25112282  1
  O  O141  1  0.77777778  0.55555556  0.75112282  1
  O  O142  1  0.77777778  0.88888889  0.25112282  1
  O  O143  1  0.77777778  0.88888889  0.75112282  1
  O  O144  1  0.11609808  0.05804904  0.41136475  1
  O  O145  1  0.11609808  0.05804904  0.91136475  1
  O  O146  1  0.11609808  0.39138238  0.41136475  1
  O  O147  1  0.11609808  0.39138238  0.91136475  1
  O  O148  1  0.11609808  0.72471571  0.41136475  1
  O  O149  1  0.11609808  0.72471571  0.91136475  1
  O  O150  1  0.44943142  0.05804904  0.41136475  1
  O  O151  1  0.44943142  0.05804904  0.91136475  1
  O  O152  1  0.44943142  0.39138238  0.41136475  1
  O  O153  1  0.44943142  0.39138238  0.91136475  1
  O  O154  1  0.44943142  0.72471571  0.41136475  1
  O  O155  1  0.44943142  0.72471571  0.91136475  1
  O  O156  1  0.78276475  0.05804904  0.41136475  1
  O  O157  1  0.78276475  0.05804904  0.91136475  1
  O  O158  1  0.78276475  0.39138238  0.41136475  1
  O  O159  1  0.78276475  0.39138238  0.91136475  1
  O  O160  1  0.78276475  0.72471571  0.41136475  1
  O  O161  1  0.78276475  0.72471571  0.91136475  1
  O  O162  1  0.27528429  0.21723525  0.41136475  1
  O  O163  1  0.27528429  0.21723525  0.91136475  1
  O  O164  1  0.27528429  0.55056858  0.41136475  1
  O  O165  1  0.27528429  0.55056858  0.91136475  1
  O  O166  1  0.27528429  0.88390192  0.41136475  1
  O  O167  1  0.27528429  0.88390192  0.91136475  1
  O  O168  1  0.60861762  0.21723525  0.41136475  1
  O  O169  1  0.60861762  0.21723525  0.91136475  1
  O  O170  1  0.60861762  0.55056858  0.41136475  1
  O  O171  1  0.60861762  0.55056858  0.91136475  1
  O  O172  1  0.60861762  0.88390192  0.41136475  1
  O  O173  1  0.60861762  0.88390192  0.91136475  1
  O  O174  1  0.94195096  0.21723525  0.41136475  1
  O  O175  1  0.94195096  0.21723525  0.91136475  1
  O  O176  1  0.94195096  0.55056858  0.41136475  1
  O  O177  1  0.94195096  0.55056858  0.91136475  1
  O  O178  1  0.94195096  0.88390192  0.41136475  1
  O  O179  1  0.94195096  0.88390192  0.91136475  1
  O  O180  1  0.27528429  0.05804904  0.41136475  1
  O  O181  1  0.27528429  0.05804904  0.91136475  1
  O  O182  1  0.27528429  0.39138238  0.41136475  1
  O  O183  1  0.27528429  0.39138238  0.91136475  1
  O  O184  1  0.27528429  0.72471571  0.41136475  1
  O  O185  1  0.27528429  0.72471571  0.91136475  1
  O  O186  1  0.60861762  0.05804904  0.41136475  1
  O  O187  1  0.60861762  0.05804904  0.91136475  1
  O  O188  1  0.60861762  0.39138238  0.41136475  1
  O  O189  1  0.60861762  0.39138238  0.91136475  1
  O  O190  1  0.60861762  0.72471571  0.41136475  1
  O  O191  1  0.60861762  0.72471571  0.91136475  1
  O  O192  1  0.94195096  0.05804904  0.41136475  1
  O  O193  1  0.94195096  0.05804904  0.91136475  1
  O  O194  1  0.94195096  0.39138238  0.41136475  1
  O  O195  1  0.94195096  0.39138238  0.91136475  1
  O  O196  1  0.94195096  0.72471571  0.41136475  1
  O  O197  1  0.94195096  0.72471571  0.91136475  1
  O  O198  1  0.21723525  0.27528429  0.08863525  1
  O  O199  1  0.21723525  0.27528429  0.58863525  1
  O  O200  1  0.21723525  0.60861762  0.08863525  1
  O  O201  1  0.21723525  0.60861762  0.58863525  1
  O  O202  1  0.21723525  0.94195096  0.08863525  1
  O  O203  1  0.21723525  0.94195096  0.58863525  1
  O  O204  1  0.55056858  0.27528429  0.08863525  1
  O  O205  1  0.55056858  0.27528429  0.58863525  1
  O  O206  1  0.55056858  0.60861762  0.08863525  1
  O  O207  1  0.55056858  0.60861762  0.58863525  1
  O  O208  1  0.55056858  0.94195096  0.08863525  1
  O  O209  1  0.55056858  0.94195096  0.58863525  1
  O  O210  1  0.88390192  0.27528429  0.08863525  1
  O  O211  1  0.88390192  0.27528429  0.58863525  1
  O  O212  1  0.88390192  0.60861762  0.08863525  1
  O  O213  1  0.88390192  0.60861762  0.58863525  1
  O  O214  1  0.88390192  0.94195096  0.08863525  1
  O  O215  1  0.88390192  0.94195096  0.58863525  1
  O  O216  1  0.05804904  0.11609808  0.08863525  1
  O  O217  1  0.05804904  0.11609808  0.58863525  1
  O  O218  1  0.05804904  0.44943142  0.08863525  1
  O  O219  1  0.05804904  0.44943142  0.58863525  1
  O  O220  1  0.05804904  0.78276475  0.08863525  1
  O  O221  1  0.05804904  0.78276475  0.58863525  1
  O  O222  1  0.39138238  0.11609808  0.08863525  1
  O  O223  1  0.39138238  0.11609808  0.58863525  1
  O  O224  1  0.39138238  0.44943142  0.08863525  1
  O  O225  1  0.39138238  0.44943142  0.58863525  1
  O  O226  1  0.39138238  0.78276475  0.08863525  1
  O  O227  1  0.39138238  0.78276475  0.58863525  1
  O  O228  1  0.72471571  0.11609808  0.08863525  1
  O  O229  1  0.72471571  0.11609808  0.58863525  1
  O  O230  1  0.72471571  0.44943142  0.08863525  1
  O  O231  1  0.72471571  0.44943142  0.58863525  1
  O  O232  1  0.72471571  0.78276475  0.08863525  1
  O  O233  1  0.72471571  0.78276475  0.58863525  1
  O  O234  1  0.05804904  0.27528429  0.08863525  1
  O  O235  1  0.05804904  0.27528429  0.58863525  1
  O  O236  1  0.05804904  0.60861762  0.08863525  1
  O  O237  1  0.05804904  0.60861762  0.58863525  1
  O  O238  1  0.05804904  0.94195096  0.08863525  1
  O  O239  1  0.05804904  0.94195096  0.58863525  1
  O  O240  1  0.39138238  0.27528429  0.08863525  1
  O  O241  1  0.39138238  0.27528429  0.58863525  1
  O  O242  1  0.39138238  0.60861762  0.08863525  1
  O  O243  1  0.39138238  0.60861762  0.58863525  1
  O  O244  1  0.39138238  0.94195096  0.08863525  1
  O  O245  1  0.39138238  0.94195096  0.58863525  1
  O  O246  1  0.72471571  0.27528429  0.08863525  1
  O  O247  1  0.72471571  0.27528429  0.58863525  1
  O  O248  1  0.72471571  0.60861762  0.08863525  1
  O  O249  1  0.72471571  0.60861762  0.58863525  1
  O  O250  1  0.72471571  0.94195096  0.08863525  1
  O  O251  1  0.72471571  0.94195096  0.58863525  1
