# generated using pymatgen
data_SrAl4O7
_symmetry_space_group_name_H-M   'P 1'
_cell_length_a   13.09235418
_cell_length_b   18.10053960
_cell_length_c   16.64770016
_cell_angle_alpha   90.00000000
_cell_angle_beta   106.56627032
_cell_angle_gamma   90.00000000
_symmetry_Int_Tables_number   1
_chemical_formula_structural   SrAl4O7
_chemical_formula_sum   'Sr24 Al96 O168'
_cell_volume   3781.38908994
_cell_formula_units_Z   24
loop_
 _symmetry_equiv_pos_site_id
 _symmetry_equiv_pos_as_xyz
  1  'x, y, z'
loop_
 _atom_site_type_symbol
 _atom_site_label
 _atom_site_symmetry_multiplicity
 _atom_site_fract_x
 _atom_site_fract_y
 _atom_site_fract_z
 _atom_site_occupancy
  Sr  Sr0  1  0.50000000  0.15648313  0.25000000  1
  Sr  Sr1  1  0.50000000  0.15648313  0.58333333  1
  Sr  Sr2  1  0.50000000  0.15648313  0.91666667  1
  Sr  Sr3  1  0.50000000  0.65648313  0.25000000  1
  Sr  Sr4  1  0.50000000  0.65648313  0.58333333  1
  Sr  Sr5  1  0.50000000  0.65648313  0.91666667  1
  Sr  Sr6  1  1.00000000  0.40648313  0.25000000  1
  Sr  Sr7  1  1.00000000  0.40648313  0.58333333  1
  Sr  Sr8  1  1.00000000  0.40648313  0.91666667  1
  Sr  Sr9  1  1.00000000  0.90648313  0.25000000  1
  Sr  Sr10  1  1.00000000  0.90648313  0.58333333  1
  Sr  Sr11  1  1.00000000  0.90648313  0.91666667  1
  Sr  Sr12  1  0.50000000  -0.15648313  0.08333333  1
  Sr  Sr13  1  0.50000000  -0.15648313  0.41666667  1
  Sr  Sr14  1  0.50000000  -0.15648313  0.75000000  1
  Sr  Sr15  1  0.50000000  0.34351687  0.08333333  1
  Sr  Sr16  1  0.50000000  0.34351687  0.41666667  1
  Sr  Sr17  1  0.50000000  0.34351687  0.75000000  1
  Sr  Sr18  1  1.00000000  0.09351687  0.08333333  1
  Sr  Sr19  1  1.00000000  0.09351687  0.41666667  1
  Sr  Sr20  1  1.00000000  0.09351687  0.75000000  1
  Sr  Sr21  1  1.00000000  0.59351687  0.08333333  1
  Sr  Sr22  1  1.00000000  0.59351687  0.41666667  1
  Sr  Sr23  1  1.00000000  0.59351687  0.75000000  1
  Al  Al24  1  0.37937516  -0.02965253  0.24711106  1
  Al  Al25  1  0.37937516  -0.02965253  0.58044440  1
  Al  Al26  1  0.37937516  -0.02965253  0.91377773  1
  Al  Al27  1  0.37937516  0.47034747  0.24711106  1
  Al  Al28  1  0.37937516  0.47034747  0.58044440  1
  Al  Al29  1  0.37937516  0.47034747  0.91377773  1
  Al  Al30  1  0.87937516  0.22034747  0.24711106  1
  Al  Al31  1  0.87937516  0.22034747  0.58044440  1
  Al  Al32  1  0.87937516  0.22034747  0.91377773  1
  Al  Al33  1  0.87937516  0.72034747  0.24711106  1
  Al  Al34  1  0.87937516  0.72034747  0.58044440  1
  Al  Al35  1  0.87937516  0.72034747  0.91377773  1
  Al  Al36  1  0.62062484  -0.02965253  0.25288894  1
  Al  Al37  1  0.62062484  -0.02965253  0.58622227  1
  Al  Al38  1  0.62062484  -0.02965253  0.91955560  1
  Al  Al39  1  0.62062484  0.47034747  0.25288894  1
  Al  Al40  1  0.62062484  0.47034747  0.58622227  1
  Al  Al41  1  0.62062484  0.47034747  0.91955560  1
  Al  Al42  1  1.12062484  0.22034747  0.25288894  1
  Al  Al43  1  1.12062484  0.22034747  0.58622227  1
  Al  Al44  1  1.12062484  0.22034747  0.91955560  1
  Al  Al45  1  1.12062484  0.72034747  0.25288894  1
  Al  Al46  1  1.12062484  0.72034747  0.58622227  1
  Al  Al47  1  1.12062484  0.72034747  0.91955560  1
  Al  Al48  1  0.62062484  0.02965253  0.08622227  1
  Al  Al49  1  0.62062484  0.02965253  0.41955560  1
  Al  Al50  1  0.62062484  0.02965253  0.75288894  1
  Al  Al51  1  0.62062484  0.52965253  0.08622227  1
  Al  Al52  1  0.62062484  0.52965253  0.41955560  1
  Al  Al53  1  0.62062484  0.52965253  0.75288894  1
  Al  Al54  1  1.12062484  0.27965253  0.08622227  1
  Al  Al55  1  1.12062484  0.27965253  0.41955560  1
  Al  Al56  1  1.12062484  0.27965253  0.75288894  1
  Al  Al57  1  1.12062484  0.77965253  0.08622227  1
  Al  Al58  1  1.12062484  0.77965253  0.41955560  1
  Al  Al59  1  1.12062484  0.77965253  0.75288894  1
  Al  Al60  1  0.37937516  0.02965253  0.08044440  1
  Al  Al61  1  0.37937516  0.02965253  0.41377773  1
  Al  Al62  1  0.37937516  0.02965253  0.74711106  1
  Al  Al63  1  0.37937516  0.52965253  0.08044440  1
  Al  Al64  1  0.37937516  0.52965253  0.41377773  1
  Al  Al65  1  0.37937516  0.52965253  0.74711106  1
  Al  Al66  1  0.87937516  0.27965253  0.08044440  1
  Al  Al67  1  0.87937516  0.27965253  0.41377773  1
  Al  Al68  1  0.87937516  0.27965253  0.74711106  1
  Al  Al69  1  0.87937516  0.77965253  0.08044440  1
  Al  Al70  1  0.87937516  0.77965253  0.41377773  1
  Al  Al71  1  0.87937516  0.77965253  0.74711106  1
  Al  Al72  1  0.83182922  0.04351909  0.23472791  1
  Al  Al73  1  0.83182922  0.04351909  0.56806125  1
  Al  Al74  1  0.83182922  0.04351909  0.90139458  1
  Al  Al75  1  0.83182922  0.54351909  0.23472791  1
  Al  Al76  1  0.83182922  0.54351909  0.56806125  1
  Al  Al77  1  0.83182922  0.54351909  0.90139458  1
  Al  Al78  1  1.33182922  0.29351909  0.23472791  1
  Al  Al79  1  1.33182922  0.29351909  0.56806125  1
  Al  Al80  1  1.33182922  0.29351909  0.90139458  1
  Al  Al81  1  1.33182922  0.79351909  0.23472791  1
  Al  Al82  1  1.33182922  0.79351909  0.56806125  1
  Al  Al83  1  1.33182922  0.79351909  0.90139458  1
  Al  Al84  1  0.16817078  0.04351909  0.26527209  1
  Al  Al85  1  0.16817078  0.04351909  0.59860542  1
  Al  Al86  1  0.16817078  0.04351909  0.93193875  1
  Al  Al87  1  0.16817078  0.54351909  0.26527209  1
  Al  Al88  1  0.16817078  0.54351909  0.59860542  1
  Al  Al89  1  0.16817078  0.54351909  0.93193875  1
  Al  Al90  1  0.66817078  0.29351909  0.26527209  1
  Al  Al91  1  0.66817078  0.29351909  0.59860542  1
  Al  Al92  1  0.66817078  0.29351909  0.93193875  1
  Al  Al93  1  0.66817078  0.79351909  0.26527209  1
  Al  Al94  1  0.66817078  0.79351909  0.59860542  1
  Al  Al95  1  0.66817078  0.79351909  0.93193875  1
  Al  Al96  1  0.16817078  -0.04351909  0.09860542  1
  Al  Al97  1  0.16817078  -0.04351909  0.43193875  1
  Al  Al98  1  0.16817078  -0.04351909  0.76527209  1
  Al  Al99  1  0.16817078  0.45648091  0.09860542  1
  Al  Al100  1  0.16817078  0.45648091  0.43193875  1
  Al  Al101  1  0.16817078  0.45648091  0.76527209  1
  Al  Al102  1  0.66817078  0.20648091  0.09860542  1
  Al  Al103  1  0.66817078  0.20648091  0.43193875  1
  Al  Al104  1  0.66817078  0.20648091  0.76527209  1
  Al  Al105  1  0.66817078  0.70648091  0.09860542  1
  Al  Al106  1  0.66817078  0.70648091  0.43193875  1
  Al  Al107  1  0.66817078  0.70648091  0.76527209  1
  Al  Al108  1  0.83182922  -0.04351909  0.06806125  1
  Al  Al109  1  0.83182922  -0.04351909  0.40139458  1
  Al  Al110  1  0.83182922  -0.04351909  0.73472791  1
  Al  Al111  1  0.83182922  0.45648091  0.06806125  1
  Al  Al112  1  0.83182922  0.45648091  0.40139458  1
  Al  Al113  1  0.83182922  0.45648091  0.73472791  1
  Al  Al114  1  1.33182922  0.20648091  0.06806125  1
  Al  Al115  1  1.33182922  0.20648091  0.40139458  1
  Al  Al116  1  1.33182922  0.20648091  0.73472791  1
  Al  Al117  1  1.33182922  0.70648091  0.06806125  1
  Al  Al118  1  1.33182922  0.70648091  0.40139458  1
  Al  Al119  1  1.33182922  0.70648091  0.73472791  1
  O  O120  1  0.30959385  -0.02756415  0.13582218  1
  O  O121  1  0.30959385  -0.02756415  0.46915551  1
  O  O122  1  0.30959385  -0.02756415  0.80248884  1
  O  O123  1  0.30959385  0.47243585  0.13582218  1
  O  O124  1  0.30959385  0.47243585  0.46915551  1
  O  O125  1  0.30959385  0.47243585  0.80248884  1
  O  O126  1  0.80959385  0.22243585  0.13582218  1
  O  O127  1  0.80959385  0.22243585  0.46915551  1
  O  O128  1  0.80959385  0.22243585  0.80248884  1
  O  O129  1  0.80959385  0.72243585  0.13582218  1
  O  O130  1  0.80959385  0.72243585  0.46915551  1
  O  O131  1  0.80959385  0.72243585  0.80248884  1
  O  O132  1  0.69040615  -0.02756415  0.03084449  1
  O  O133  1  0.69040615  -0.02756415  0.36417782  1
  O  O134  1  0.69040615  -0.02756415  0.69751116  1
  O  O135  1  0.69040615  0.47243585  0.03084449  1
  O  O136  1  0.69040615  0.47243585  0.36417782  1
  O  O137  1  0.69040615  0.47243585  0.69751116  1
  O  O138  1  1.19040615  0.22243585  0.03084449  1
  O  O139  1  1.19040615  0.22243585  0.36417782  1
  O  O140  1  1.19040615  0.22243585  0.69751116  1
  O  O141  1  1.19040615  0.72243585  0.03084449  1
  O  O142  1  1.19040615  0.72243585  0.36417782  1
  O  O143  1  1.19040615  0.72243585  0.69751116  1
  O  O144  1  0.69040615  0.02756415  0.19751116  1
  O  O145  1  0.69040615  0.02756415  0.53084449  1
  O  O146  1  0.69040615  0.02756415  0.86417782  1
  O  O147  1  0.69040615  0.52756415  0.19751116  1
  O  O148  1  0.69040615  0.52756415  0.53084449  1
  O  O149  1  0.69040615  0.52756415  0.86417782  1
  O  O150  1  1.19040615  0.27756415  0.19751116  1
  O  O151  1  1.19040615  0.27756415  0.53084449  1
  O  O152  1  1.19040615  0.27756415  0.86417782  1
  O  O153  1  1.19040615  0.77756415  0.19751116  1
  O  O154  1  1.19040615  0.77756415  0.53084449  1
  O  O155  1  1.19040615  0.77756415  0.86417782  1
  O  O156  1  0.30959385  0.02756415  0.30248884  1
  O  O157  1  0.30959385  0.02756415  0.63582218  1
  O  O158  1  0.30959385  0.02756415  0.96915551  1
  O  O159  1  0.30959385  0.52756415  0.30248884  1
  O  O160  1  0.30959385  0.52756415  0.63582218  1
  O  O161  1  0.30959385  0.52756415  0.96915551  1
  O  O162  1  0.80959385  0.27756415  0.30248884  1
  O  O163  1  0.80959385  0.27756415  0.63582218  1
  O  O164  1  0.80959385  0.27756415  0.96915551  1
  O  O165  1  0.80959385  0.77756415  0.30248884  1
  O  O166  1  0.80959385  0.77756415  0.63582218  1
  O  O167  1  0.80959385  0.77756415  0.96915551  1
  O  O168  1  0.37622124  -0.12074282  0.27785859  1
  O  O169  1  0.37622124  -0.12074282  0.61119192  1
  O  O170  1  0.37622124  -0.12074282  0.94452526  1
  O  O171  1  0.37622124  0.37925718  0.27785859  1
  O  O172  1  0.37622124  0.37925718  0.61119192  1
  O  O173  1  0.37622124  0.37925718  0.94452526  1
  O  O174  1  0.87622124  0.12925718  0.27785859  1
  O  O175  1  0.87622124  0.12925718  0.61119192  1
  O  O176  1  0.87622124  0.12925718  0.94452526  1
  O  O177  1  0.87622124  0.62925718  0.27785859  1
  O  O178  1  0.87622124  0.62925718  0.61119192  1
  O  O179  1  0.87622124  0.62925718  0.94452526  1
  O  O180  1  0.62377876  -0.12074282  0.22214141  1
  O  O181  1  0.62377876  -0.12074282  0.55547474  1
  O  O182  1  0.62377876  -0.12074282  0.88880808  1
  O  O183  1  0.62377876  0.37925718  0.22214141  1
  O  O184  1  0.62377876  0.37925718  0.55547474  1
  O  O185  1  0.62377876  0.37925718  0.88880808  1
  O  O186  1  1.12377876  0.12925718  0.22214141  1
  O  O187  1  1.12377876  0.12925718  0.55547474  1
  O  O188  1  1.12377876  0.12925718  0.88880808  1
  O  O189  1  1.12377876  0.62925718  0.22214141  1
  O  O190  1  1.12377876  0.62925718  0.55547474  1
  O  O191  1  1.12377876  0.62925718  0.88880808  1
  O  O192  1  0.62377876  0.12074282  0.05547474  1
  O  O193  1  0.62377876  0.12074282  0.38880808  1
  O  O194  1  0.62377876  0.12074282  0.72214141  1
  O  O195  1  0.62377876  0.62074282  0.05547474  1
  O  O196  1  0.62377876  0.62074282  0.38880808  1
  O  O197  1  0.62377876  0.62074282  0.72214141  1
  O  O198  1  1.12377876  0.37074282  0.05547474  1
  O  O199  1  1.12377876  0.37074282  0.38880808  1
  O  O200  1  1.12377876  0.37074282  0.72214141  1
  O  O201  1  1.12377876  0.87074282  0.05547474  1
  O  O202  1  1.12377876  0.87074282  0.38880808  1
  O  O203  1  1.12377876  0.87074282  0.72214141  1
  O  O204  1  0.37622124  0.12074282  0.11119192  1
  O  O205  1  0.37622124  0.12074282  0.44452526  1
  O  O206  1  0.37622124  0.12074282  0.77785859  1
  O  O207  1  0.37622124  0.62074282  0.11119192  1
  O  O208  1  0.37622124  0.62074282  0.44452526  1
  O  O209  1  0.37622124  0.62074282  0.77785859  1
  O  O210  1  0.87622124  0.37074282  0.11119192  1
  O  O211  1  0.87622124  0.37074282  0.44452526  1
  O  O212  1  0.87622124  0.37074282  0.77785859  1
  O  O213  1  0.87622124  0.87074282  0.11119192  1
  O  O214  1  0.87622124  0.87074282  0.44452526  1
  O  O215  1  0.87622124  0.87074282  0.77785859  1
  O  O216  1  0.88201979  0.01942004  0.15112777  1
  O  O217  1  0.88201979  0.01942004  0.48446110  1
  O  O218  1  0.88201979  0.01942004  0.81779444  1
  O  O219  1  0.88201979  0.51942004  0.15112777  1
  O  O220  1  0.88201979  0.51942004  0.48446110  1
  O  O221  1  0.88201979  0.51942004  0.81779444  1
  O  O222  1  1.38201979  0.26942004  0.15112777  1
  O  O223  1  1.38201979  0.26942004  0.48446110  1
  O  O224  1  1.38201979  0.26942004  0.81779444  1
  O  O225  1  1.38201979  0.76942004  0.15112777  1
  O  O226  1  1.38201979  0.76942004  0.48446110  1
  O  O227  1  1.38201979  0.76942004  0.81779444  1
  O  O228  1  0.11798021  0.01942004  0.01553890  1
  O  O229  1  0.11798021  0.01942004  0.34887223  1
  O  O230  1  0.11798021  0.01942004  0.68220556  1
  O  O231  1  0.11798021  0.51942004  0.01553890  1
  O  O232  1  0.11798021  0.51942004  0.34887223  1
  O  O233  1  0.11798021  0.51942004  0.68220556  1
  O  O234  1  0.61798021  0.26942004  0.01553890  1
  O  O235  1  0.61798021  0.26942004  0.34887223  1
  O  O236  1  0.61798021  0.26942004  0.68220556  1
  O  O237  1  0.61798021  0.76942004  0.01553890  1
  O  O238  1  0.61798021  0.76942004  0.34887223  1
  O  O239  1  0.61798021  0.76942004  0.68220556  1
  O  O240  1  0.50000000  -0.01409224  0.08333333  1
  O  O241  1  0.50000000  -0.01409224  0.41666667  1
  O  O242  1  0.50000000  -0.01409224  0.75000000  1
  O  O243  1  0.50000000  0.48590776  0.08333333  1
  O  O244  1  0.50000000  0.48590776  0.41666667  1
  O  O245  1  0.50000000  0.48590776  0.75000000  1
  O  O246  1  1.00000000  0.23590776  0.08333333  1
  O  O247  1  1.00000000  0.23590776  0.41666667  1
  O  O248  1  1.00000000  0.23590776  0.75000000  1
  O  O249  1  1.00000000  0.73590776  0.08333333  1
  O  O250  1  1.00000000  0.73590776  0.41666667  1
  O  O251  1  1.00000000  0.73590776  0.75000000  1
  O  O252  1  0.50000000  0.01409224  0.25000000  1
  O  O253  1  0.50000000  0.01409224  0.58333333  1
  O  O254  1  0.50000000  0.01409224  0.91666667  1
  O  O255  1  0.50000000  0.51409224  0.25000000  1
  O  O256  1  0.50000000  0.51409224  0.58333333  1
  O  O257  1  0.50000000  0.51409224  0.91666667  1
  O  O258  1  1.00000000  0.26409224  0.25000000  1
  O  O259  1  1.00000000  0.26409224  0.58333333  1
  O  O260  1  1.00000000  0.26409224  0.91666667  1
  O  O261  1  1.00000000  0.76409224  0.25000000  1
  O  O262  1  1.00000000  0.76409224  0.58333333  1
  O  O263  1  1.00000000  0.76409224  0.91666667  1
  O  O264  1  0.88201979  -0.01942004  0.31779444  1
  O  O265  1  0.88201979  -0.01942004  0.65112777  1
  O  O266  1  0.88201979  -0.01942004  0.98446110  1
  O  O267  1  0.88201979  0.48057996  0.31779444  1
  O  O268  1  0.88201979  0.48057996  0.65112777  1
  O  O269  1  0.88201979  0.48057996  0.98446110  1
  O  O270  1  1.38201979  0.23057996  0.31779444  1
  O  O271  1  1.38201979  0.23057996  0.65112777  1
  O  O272  1  1.38201979  0.23057996  0.98446110  1
  O  O273  1  1.38201979  0.73057996  0.31779444  1
  O  O274  1  1.38201979  0.73057996  0.65112777  1
  O  O275  1  1.38201979  0.73057996  0.98446110  1
  O  O276  1  0.11798021  -0.01942004  0.18220556  1
  O  O277  1  0.11798021  -0.01942004  0.51553890  1
  O  O278  1  0.11798021  -0.01942004  0.84887223  1
  O  O279  1  0.11798021  0.48057996  0.18220556  1
  O  O280  1  0.11798021  0.48057996  0.51553890  1
  O  O281  1  0.11798021  0.48057996  0.84887223  1
  O  O282  1  0.61798021  0.23057996  0.18220556  1
  O  O283  1  0.61798021  0.23057996  0.51553890  1
  O  O284  1  0.61798021  0.23057996  0.84887223  1
  O  O285  1  0.61798021  0.73057996  0.18220556  1
  O  O286  1  0.61798021  0.73057996  0.51553890  1
  O  O287  1  0.61798021  0.73057996  0.84887223  1
