# generated using pymatgen
data_Sr3LiSbO6
_symmetry_space_group_name_H-M   'P 1'
_cell_length_a   9.74999950
_cell_length_b   9.74999950
_cell_length_c   11.19951116
_cell_angle_alpha   90.00000000
_cell_angle_beta   90.00000000
_cell_angle_gamma   120.00000000
_symmetry_Int_Tables_number   1
_chemical_formula_structural   Sr3LiSbO6
_chemical_formula_sum   'Sr18 Li6 Sb6 O36'
_cell_volume   922.01690756
_cell_formula_units_Z   6
loop_
 _symmetry_equiv_pos_site_id
 _symmetry_equiv_pos_as_xyz
  1  'x, y, z'
loop_
 _atom_site_type_symbol
 _atom_site_label
 _atom_site_symmetry_multiplicity
 _atom_site_fract_x
 _atom_site_fract_y
 _atom_site_fract_z
 _atom_site_occupancy
  Sr  Sr0  1  0.31451535  -0.01881799  0.58333333  1
  Sr  Sr1  1  0.98118201  0.31451535  0.91666667  1
  Sr  Sr2  1  0.64784868  0.64784868  1.25000000  1
  Sr  Sr3  1  0.01881799  0.33333333  0.58333333  1
  Sr  Sr4  1  0.68548465  0.66666667  0.91666667  1
  Sr  Sr5  1  0.35215132  1.00000000  1.25000000  1
  Sr  Sr6  1  -0.33333333  -0.31451535  0.58333333  1
  Sr  Sr7  1  0.33333333  0.01881799  0.91666667  1
  Sr  Sr8  1  -0.00000000  0.35215132  1.25000000  1
  Sr  Sr9  1  -0.01881799  -0.33333333  0.41666667  1
  Sr  Sr10  1  0.64784868  0.00000000  0.75000000  1
  Sr  Sr11  1  0.31451535  0.33333333  1.08333333  1
  Sr  Sr12  1  0.33333333  0.31451535  0.41666667  1
  Sr  Sr13  1  1.00000000  0.64784868  0.75000000  1
  Sr  Sr14  1  0.66666667  0.98118201  1.08333333  1
  Sr  Sr15  1  -0.31451535  0.01881799  0.41666667  1
  Sr  Sr16  1  0.35215132  0.35215132  0.75000000  1
  Sr  Sr17  1  0.01881799  0.68548465  1.08333333  1
  Li  Li18  1  -0.00000000  -0.00000000  0.25000000  1
  Li  Li19  1  0.66666667  0.33333333  0.58333333  1
  Li  Li20  1  0.33333333  0.66666667  0.91666667  1
  Li  Li21  1  -0.00000000  0.00000000  0.75000000  1
  Li  Li22  1  0.66666667  0.33333333  1.08333333  1
  Li  Li23  1  0.33333333  0.66666667  1.41666667  1
  Sb  Sb24  1  -0.00000000  -0.00000000  -0.00000000  1
  Sb  Sb25  1  0.66666667  0.33333333  0.33333333  1
  Sb  Sb26  1  0.33333333  0.66666667  0.66666667  1
  Sb  Sb27  1  -0.00000000  -0.00000000  0.50000000  1
  Sb  Sb28  1  0.66666667  0.33333333  0.83333333  1
  Sb  Sb29  1  0.33333333  0.66666667  1.16666667  1
  O  O30  1  0.51344703  0.15611642  0.43860806  1
  O  O31  1  1.18011370  0.48944975  0.77194139  1
  O  O32  1  0.84678037  0.82278309  1.10527472  1
  O  O33  1  -0.15611642  0.35733061  0.43860806  1
  O  O34  1  0.51055025  0.69066395  0.77194139  1
  O  O35  1  0.17721691  1.02399728  1.10527472  1
  O  O36  1  -0.35733061  -0.51344703  0.43860806  1
  O  O37  1  0.30933605  -0.18011370  0.77194139  1
  O  O38  1  -0.02399728  0.15321963  1.10527472  1
  O  O39  1  -0.15321963  0.02399728  0.60527472  1
  O  O40  1  0.51344703  0.35733061  0.93860806  1
  O  O41  1  0.18011370  0.69066395  1.27194139  1
  O  O42  1  -0.02399728  -0.17721691  0.60527472  1
  O  O43  1  0.64266939  0.15611642  0.93860806  1
  O  O44  1  0.30933605  0.48944975  1.27194139  1
  O  O45  1  0.17721691  0.15321963  0.60527472  1
  O  O46  1  0.84388358  0.48655297  0.93860806  1
  O  O47  1  0.51055025  0.81988630  1.27194139  1
  O  O48  1  -0.51344703  -0.15611642  0.56139194  1
  O  O49  1  0.15321963  0.17721691  0.89472528  1
  O  O50  1  -0.18011370  0.51055025  1.22805861  1
  O  O51  1  0.15611642  -0.35733061  0.56139194  1
  O  O52  1  0.82278309  -0.02399728  0.89472528  1
  O  O53  1  0.48944975  0.30933605  1.22805861  1
  O  O54  1  0.35733061  0.51344703  0.56139194  1
  O  O55  1  1.02399728  0.84678037  0.89472528  1
  O  O56  1  0.69066395  1.18011370  1.22805861  1
  O  O57  1  0.15321963  -0.02399728  0.39472528  1
  O  O58  1  0.81988630  0.30933605  0.72805861  1
  O  O59  1  0.48655297  0.64266939  1.06139194  1
  O  O60  1  0.02399728  0.17721691  0.39472528  1
  O  O61  1  0.69066395  0.51055025  0.72805861  1
  O  O62  1  0.35733061  0.84388358  1.06139194  1
  O  O63  1  -0.17721691  -0.15321963  0.39472528  1
  O  O64  1  0.48944975  0.18011370  0.72805861  1
  O  O65  1  0.15611642  0.51344703  1.06139194  1
