# generated using pymatgen
data_Ba2InCuO4
_symmetry_space_group_name_H-M   'P 1'
_cell_length_a   16.82003789
_cell_length_b   16.82003789
_cell_length_c   16.19675406
_cell_angle_alpha   90.00000000
_cell_angle_beta   90.00000000
_cell_angle_gamma   90.00000000
_symmetry_Int_Tables_number   1
_chemical_formula_structural   Ba2InCuO4
_chemical_formula_sum   'Ba64 In32 Cu32 O128'
_cell_volume   4582.28321125
_cell_formula_units_Z   32
loop_
 _symmetry_equiv_pos_site_id
 _symmetry_equiv_pos_as_xyz
  1  'x, y, z'
loop_
 _atom_site_type_symbol
 _atom_site_label
 _atom_site_symmetry_multiplicity
 _atom_site_fract_x
 _atom_site_fract_y
 _atom_site_fract_z
 _atom_site_occupancy
  Ba  Ba0  1  0.62500000  0.62500000  0.38451587  1
  Ba  Ba1  1  0.62500000  0.62500000  0.88451587  1
  Ba  Ba2  1  0.62500000  0.37500000  0.38451587  1
  Ba  Ba3  1  0.62500000  0.37500000  0.88451587  1
  Ba  Ba4  1  0.62500000  0.12500000  0.38451587  1
  Ba  Ba5  1  0.62500000  0.12500000  0.88451587  1
  Ba  Ba6  1  0.62500000  -0.12500000  0.38451587  1
  Ba  Ba7  1  0.62500000  -0.12500000  0.88451587  1
  Ba  Ba8  1  0.37500000  0.62500000  0.38451587  1
  Ba  Ba9  1  0.37500000  0.62500000  0.88451587  1
  Ba  Ba10  1  0.37500000  0.37500000  0.38451587  1
  Ba  Ba11  1  0.37500000  0.37500000  0.88451587  1
  Ba  Ba12  1  0.37500000  0.12500000  0.38451587  1
  Ba  Ba13  1  0.37500000  0.12500000  0.88451587  1
  Ba  Ba14  1  0.37500000  -0.12500000  0.38451587  1
  Ba  Ba15  1  0.37500000  -0.12500000  0.88451587  1
  Ba  Ba16  1  0.12500000  0.62500000  0.38451587  1
  Ba  Ba17  1  0.12500000  0.62500000  0.88451587  1
  Ba  Ba18  1  0.12500000  0.37500000  0.38451587  1
  Ba  Ba19  1  0.12500000  0.37500000  0.88451587  1
  Ba  Ba20  1  0.12500000  0.12500000  0.38451587  1
  Ba  Ba21  1  0.12500000  0.12500000  0.88451587  1
  Ba  Ba22  1  0.12500000  -0.12500000  0.38451587  1
  Ba  Ba23  1  0.12500000  -0.12500000  0.88451587  1
  Ba  Ba24  1  -0.12500000  0.62500000  0.38451587  1
  Ba  Ba25  1  -0.12500000  0.62500000  0.88451587  1
  Ba  Ba26  1  -0.12500000  0.37500000  0.38451587  1
  Ba  Ba27  1  -0.12500000  0.37500000  0.88451587  1
  Ba  Ba28  1  -0.12500000  0.12500000  0.38451587  1
  Ba  Ba29  1  -0.12500000  0.12500000  0.88451587  1
  Ba  Ba30  1  -0.12500000  -0.12500000  0.38451587  1
  Ba  Ba31  1  -0.12500000  -0.12500000  0.88451587  1
  Ba  Ba32  1  0.62500000  0.62500000  0.11548413  1
  Ba  Ba33  1  0.62500000  0.62500000  0.61548413  1
  Ba  Ba34  1  0.62500000  0.37500000  0.11548413  1
  Ba  Ba35  1  0.62500000  0.37500000  0.61548413  1
  Ba  Ba36  1  0.62500000  0.12500000  0.11548413  1
  Ba  Ba37  1  0.62500000  0.12500000  0.61548413  1
  Ba  Ba38  1  0.62500000  -0.12500000  0.11548413  1
  Ba  Ba39  1  0.62500000  -0.12500000  0.61548413  1
  Ba  Ba40  1  0.37500000  0.62500000  0.11548413  1
  Ba  Ba41  1  0.37500000  0.62500000  0.61548413  1
  Ba  Ba42  1  0.37500000  0.37500000  0.11548413  1
  Ba  Ba43  1  0.37500000  0.37500000  0.61548413  1
  Ba  Ba44  1  0.37500000  0.12500000  0.11548413  1
  Ba  Ba45  1  0.37500000  0.12500000  0.61548413  1
  Ba  Ba46  1  0.37500000  -0.12500000  0.11548413  1
  Ba  Ba47  1  0.37500000  -0.12500000  0.61548413  1
  Ba  Ba48  1  0.12500000  0.62500000  0.11548413  1
  Ba  Ba49  1  0.12500000  0.62500000  0.61548413  1
  Ba  Ba50  1  0.12500000  0.37500000  0.11548413  1
  Ba  Ba51  1  0.12500000  0.37500000  0.61548413  1
  Ba  Ba52  1  0.12500000  0.12500000  0.11548413  1
  Ba  Ba53  1  0.12500000  0.12500000  0.61548413  1
  Ba  Ba54  1  0.12500000  -0.12500000  0.11548413  1
  Ba  Ba55  1  0.12500000  -0.12500000  0.61548413  1
  Ba  Ba56  1  -0.12500000  0.62500000  0.11548413  1
  Ba  Ba57  1  -0.12500000  0.62500000  0.61548413  1
  Ba  Ba58  1  -0.12500000  0.37500000  0.11548413  1
  Ba  Ba59  1  -0.12500000  0.37500000  0.61548413  1
  Ba  Ba60  1  -0.12500000  0.12500000  0.11548413  1
  Ba  Ba61  1  -0.12500000  0.12500000  0.61548413  1
  Ba  Ba62  1  -0.12500000  -0.12500000  0.11548413  1
  Ba  Ba63  1  -0.12500000  -0.12500000  0.61548413  1
  In  In64  1  0.75000000  0.75000000  0.00000000  1
  In  In65  1  0.75000000  0.75000000  0.50000000  1
  In  In66  1  0.75000000  0.50000000  0.00000000  1
  In  In67  1  0.75000000  0.50000000  0.50000000  1
  In  In68  1  0.75000000  0.25000000  0.00000000  1
  In  In69  1  0.75000000  0.25000000  0.50000000  1
  In  In70  1  0.75000000  0.00000000  0.00000000  1
  In  In71  1  0.75000000  0.00000000  0.50000000  1
  In  In72  1  0.50000000  0.75000000  0.00000000  1
  In  In73  1  0.50000000  0.75000000  0.50000000  1
  In  In74  1  0.50000000  0.50000000  0.00000000  1
  In  In75  1  0.50000000  0.50000000  0.50000000  1
  In  In76  1  0.50000000  0.25000000  0.00000000  1
  In  In77  1  0.50000000  0.25000000  0.50000000  1
  In  In78  1  0.50000000  0.00000000  0.00000000  1
  In  In79  1  0.50000000  0.00000000  0.50000000  1
  In  In80  1  0.25000000  0.75000000  0.00000000  1
  In  In81  1  0.25000000  0.75000000  0.50000000  1
  In  In82  1  0.25000000  0.50000000  0.00000000  1
  In  In83  1  0.25000000  0.50000000  0.50000000  1
  In  In84  1  0.25000000  0.25000000  0.00000000  1
  In  In85  1  0.25000000  0.25000000  0.50000000  1
  In  In86  1  0.25000000  0.00000000  0.00000000  1
  In  In87  1  0.25000000  0.00000000  0.50000000  1
  In  In88  1  0.00000000  0.75000000  0.00000000  1
  In  In89  1  0.00000000  0.75000000  0.50000000  1
  In  In90  1  0.00000000  0.50000000  0.00000000  1
  In  In91  1  0.00000000  0.50000000  0.50000000  1
  In  In92  1  0.00000000  0.25000000  0.00000000  1
  In  In93  1  0.00000000  0.25000000  0.50000000  1
  In  In94  1  0.00000000  0.00000000  0.00000000  1
  In  In95  1  0.00000000  0.00000000  0.50000000  1
  Cu  Cu96  1  0.75000000  0.75000000  0.25000000  1
  Cu  Cu97  1  0.75000000  0.75000000  0.75000000  1
  Cu  Cu98  1  0.75000000  0.50000000  0.25000000  1
  Cu  Cu99  1  0.75000000  0.50000000  0.75000000  1
  Cu  Cu100  1  0.75000000  0.25000000  0.25000000  1
  Cu  Cu101  1  0.75000000  0.25000000  0.75000000  1
  Cu  Cu102  1  0.75000000  0.00000000  0.25000000  1
  Cu  Cu103  1  0.75000000  0.00000000  0.75000000  1
  Cu  Cu104  1  0.50000000  0.75000000  0.25000000  1
  Cu  Cu105  1  0.50000000  0.75000000  0.75000000  1
  Cu  Cu106  1  0.50000000  0.50000000  0.25000000  1
  Cu  Cu107  1  0.50000000  0.50000000  0.75000000  1
  Cu  Cu108  1  0.50000000  0.25000000  0.25000000  1
  Cu  Cu109  1  0.50000000  0.25000000  0.75000000  1
  Cu  Cu110  1  0.50000000  0.00000000  0.25000000  1
  Cu  Cu111  1  0.50000000  0.00000000  0.75000000  1
  Cu  Cu112  1  0.25000000  0.75000000  0.25000000  1
  Cu  Cu113  1  0.25000000  0.75000000  0.75000000  1
  Cu  Cu114  1  0.25000000  0.50000000  0.25000000  1
  Cu  Cu115  1  0.25000000  0.50000000  0.75000000  1
  Cu  Cu116  1  0.25000000  0.25000000  0.25000000  1
  Cu  Cu117  1  0.25000000  0.25000000  0.75000000  1
  Cu  Cu118  1  0.25000000  0.00000000  0.25000000  1
  Cu  Cu119  1  0.25000000  0.00000000  0.75000000  1
  Cu  Cu120  1  0.00000000  0.75000000  0.25000000  1
  Cu  Cu121  1  0.00000000  0.75000000  0.75000000  1
  Cu  Cu122  1  0.00000000  0.50000000  0.25000000  1
  Cu  Cu123  1  0.00000000  0.50000000  0.75000000  1
  Cu  Cu124  1  0.00000000  0.25000000  0.25000000  1
  Cu  Cu125  1  0.00000000  0.25000000  0.75000000  1
  Cu  Cu126  1  0.00000000  0.00000000  0.25000000  1
  Cu  Cu127  1  0.00000000  0.00000000  0.75000000  1
  O  O128  1  0.75000000  0.62500000  0.00000000  1
  O  O129  1  0.75000000  0.62500000  0.50000000  1
  O  O130  1  0.75000000  0.37500000  0.00000000  1
  O  O131  1  0.75000000  0.37500000  0.50000000  1
  O  O132  1  0.75000000  0.12500000  0.00000000  1
  O  O133  1  0.75000000  0.12500000  0.50000000  1
  O  O134  1  0.75000000  -0.12500000  0.00000000  1
  O  O135  1  0.75000000  -0.12500000  0.50000000  1
  O  O136  1  0.50000000  0.62500000  0.00000000  1
  O  O137  1  0.50000000  0.62500000  0.50000000  1
  O  O138  1  0.50000000  0.37500000  0.00000000  1
  O  O139  1  0.50000000  0.37500000  0.50000000  1
  O  O140  1  0.50000000  0.12500000  0.00000000  1
  O  O141  1  0.50000000  0.12500000  0.50000000  1
  O  O142  1  0.50000000  -0.12500000  0.00000000  1
  O  O143  1  0.50000000  -0.12500000  0.50000000  1
  O  O144  1  0.25000000  0.62500000  0.00000000  1
  O  O145  1  0.25000000  0.62500000  0.50000000  1
  O  O146  1  0.25000000  0.37500000  0.00000000  1
  O  O147  1  0.25000000  0.37500000  0.50000000  1
  O  O148  1  0.25000000  0.12500000  0.00000000  1
  O  O149  1  0.25000000  0.12500000  0.50000000  1
  O  O150  1  0.25000000  -0.12500000  0.00000000  1
  O  O151  1  0.25000000  -0.12500000  0.50000000  1
  O  O152  1  0.00000000  0.62500000  0.00000000  1
  O  O153  1  0.00000000  0.62500000  0.50000000  1
  O  O154  1  0.00000000  0.37500000  0.00000000  1
  O  O155  1  0.00000000  0.37500000  0.50000000  1
  O  O156  1  0.00000000  0.12500000  0.00000000  1
  O  O157  1  0.00000000  0.12500000  0.50000000  1
  O  O158  1  0.00000000  -0.12500000  0.00000000  1
  O  O159  1  0.00000000  -0.12500000  0.50000000  1
  O  O160  1  0.62500000  0.75000000  0.00000000  1
  O  O161  1  0.62500000  0.75000000  0.50000000  1
  O  O162  1  0.62500000  0.50000000  0.00000000  1
  O  O163  1  0.62500000  0.50000000  0.50000000  1
  O  O164  1  0.62500000  0.25000000  0.00000000  1
  O  O165  1  0.62500000  0.25000000  0.50000000  1
  O  O166  1  0.62500000  0.00000000  0.00000000  1
  O  O167  1  0.62500000  0.00000000  0.50000000  1
  O  O168  1  0.37500000  0.75000000  0.00000000  1
  O  O169  1  0.37500000  0.75000000  0.50000000  1
  O  O170  1  0.37500000  0.50000000  0.00000000  1
  O  O171  1  0.37500000  0.50000000  0.50000000  1
  O  O172  1  0.37500000  0.25000000  0.00000000  1
  O  O173  1  0.37500000  0.25000000  0.50000000  1
  O  O174  1  0.37500000  0.00000000  0.00000000  1
  O  O175  1  0.37500000  0.00000000  0.50000000  1
  O  O176  1  0.12500000  0.75000000  0.00000000  1
  O  O177  1  0.12500000  0.75000000  0.50000000  1
  O  O178  1  0.12500000  0.50000000  0.00000000  1
  O  O179  1  0.12500000  0.50000000  0.50000000  1
  O  O180  1  0.12500000  0.25000000  0.00000000  1
  O  O181  1  0.12500000  0.25000000  0.50000000  1
  O  O182  1  0.12500000  0.00000000  0.00000000  1
  O  O183  1  0.12500000  0.00000000  0.50000000  1
  O  O184  1  -0.12500000  0.75000000  0.00000000  1
  O  O185  1  -0.12500000  0.75000000  0.50000000  1
  O  O186  1  -0.12500000  0.50000000  0.00000000  1
  O  O187  1  -0.12500000  0.50000000  0.50000000  1
  O  O188  1  -0.12500000  0.25000000  0.00000000  1
  O  O189  1  -0.12500000  0.25000000  0.50000000  1
  O  O190  1  -0.12500000  0.00000000  0.00000000  1
  O  O191  1  -0.12500000  0.00000000  0.50000000  1
  O  O192  1  0.75000000  0.75000000  0.35948809  1
  O  O193  1  0.75000000  0.75000000  0.85948809  1
  O  O194  1  0.75000000  0.50000000  0.35948809  1
  O  O195  1  0.75000000  0.50000000  0.85948809  1
  O  O196  1  0.75000000  0.25000000  0.35948809  1
  O  O197  1  0.75000000  0.25000000  0.85948809  1
  O  O198  1  0.75000000  0.00000000  0.35948809  1
  O  O199  1  0.75000000  0.00000000  0.85948809  1
  O  O200  1  0.50000000  0.75000000  0.35948809  1
  O  O201  1  0.50000000  0.75000000  0.85948809  1
  O  O202  1  0.50000000  0.50000000  0.35948809  1
  O  O203  1  0.50000000  0.50000000  0.85948809  1
  O  O204  1  0.50000000  0.25000000  0.35948809  1
  O  O205  1  0.50000000  0.25000000  0.85948809  1
  O  O206  1  0.50000000  0.00000000  0.35948809  1
  O  O207  1  0.50000000  0.00000000  0.85948809  1
  O  O208  1  0.25000000  0.75000000  0.35948809  1
  O  O209  1  0.25000000  0.75000000  0.85948809  1
  O  O210  1  0.25000000  0.50000000  0.35948809  1
  O  O211  1  0.25000000  0.50000000  0.85948809  1
  O  O212  1  0.25000000  0.25000000  0.35948809  1
  O  O213  1  0.25000000  0.25000000  0.85948809  1
  O  O214  1  0.25000000  0.00000000  0.35948809  1
  O  O215  1  0.25000000  0.00000000  0.85948809  1
  O  O216  1  0.00000000  0.75000000  0.35948809  1
  O  O217  1  0.00000000  0.75000000  0.85948809  1
  O  O218  1  0.00000000  0.50000000  0.35948809  1
  O  O219  1  0.00000000  0.50000000  0.85948809  1
  O  O220  1  0.00000000  0.25000000  0.35948809  1
  O  O221  1  0.00000000  0.25000000  0.85948809  1
  O  O222  1  0.00000000  0.00000000  0.35948809  1
  O  O223  1  0.00000000  0.00000000  0.85948809  1
  O  O224  1  0.75000000  0.75000000  0.14051191  1
  O  O225  1  0.75000000  0.75000000  0.64051191  1
  O  O226  1  0.75000000  0.50000000  0.14051191  1
  O  O227  1  0.75000000  0.50000000  0.64051191  1
  O  O228  1  0.75000000  0.25000000  0.14051191  1
  O  O229  1  0.75000000  0.25000000  0.64051191  1
  O  O230  1  0.75000000  0.00000000  0.14051191  1
  O  O231  1  0.75000000  0.00000000  0.64051191  1
  O  O232  1  0.50000000  0.75000000  0.14051191  1
  O  O233  1  0.50000000  0.75000000  0.64051191  1
  O  O234  1  0.50000000  0.50000000  0.14051191  1
  O  O235  1  0.50000000  0.50000000  0.64051191  1
  O  O236  1  0.50000000  0.25000000  0.14051191  1
  O  O237  1  0.50000000  0.25000000  0.64051191  1
  O  O238  1  0.50000000  0.00000000  0.14051191  1
  O  O239  1  0.50000000  0.00000000  0.64051191  1
  O  O240  1  0.25000000  0.75000000  0.14051191  1
  O  O241  1  0.25000000  0.75000000  0.64051191  1
  O  O242  1  0.25000000  0.50000000  0.14051191  1
  O  O243  1  0.25000000  0.50000000  0.64051191  1
  O  O244  1  0.25000000  0.25000000  0.14051191  1
  O  O245  1  0.25000000  0.25000000  0.64051191  1
  O  O246  1  0.25000000  0.00000000  0.14051191  1
  O  O247  1  0.25000000  0.00000000  0.64051191  1
  O  O248  1  0.00000000  0.75000000  0.14051191  1
  O  O249  1  0.00000000  0.75000000  0.64051191  1
  O  O250  1  0.00000000  0.50000000  0.14051191  1
  O  O251  1  0.00000000  0.50000000  0.64051191  1
  O  O252  1  0.00000000  0.25000000  0.14051191  1
  O  O253  1  0.00000000  0.25000000  0.64051191  1
  O  O254  1  0.00000000  0.00000000  0.14051191  1
  O  O255  1  0.00000000  0.00000000  0.64051191  1
