# generated using pymatgen
data_RbAl(MoO4)2
_symmetry_space_group_name_H-M   'P 1'
_cell_length_a   16.77735397
_cell_length_b   16.77735397
_cell_length_c   14.91181055
_cell_angle_alpha   90.00000000
_cell_angle_beta   90.00000000
_cell_angle_gamma   120.00000000
_symmetry_Int_Tables_number   1
_chemical_formula_structural   RbAl(MoO4)2
_chemical_formula_sum   'Rb18 Al18 Mo36 O144'
_cell_volume   3635.02953318
_cell_formula_units_Z   18
loop_
 _symmetry_equiv_pos_site_id
 _symmetry_equiv_pos_as_xyz
  1  'x, y, z'
loop_
 _atom_site_type_symbol
 _atom_site_label
 _atom_site_symmetry_multiplicity
 _atom_site_fract_x
 _atom_site_fract_y
 _atom_site_fract_z
 _atom_site_occupancy
  Rb  Rb0  1  0.00000000  0.00000000  0.00000000  1
  Rb  Rb1  1  0.00000000  0.00000000  0.50000000  1
  Rb  Rb2  1  -0.00000000  0.33333333  0.00000000  1
  Rb  Rb3  1  -0.00000000  0.33333333  0.50000000  1
  Rb  Rb4  1  -0.00000000  0.66666667  0.00000000  1
  Rb  Rb5  1  -0.00000000  0.66666667  0.50000000  1
  Rb  Rb6  1  0.33333333  0.00000000  0.00000000  1
  Rb  Rb7  1  0.33333333  0.00000000  0.50000000  1
  Rb  Rb8  1  0.33333333  0.33333333  0.00000000  1
  Rb  Rb9  1  0.33333333  0.33333333  0.50000000  1
  Rb  Rb10  1  0.33333333  0.66666667  0.00000000  1
  Rb  Rb11  1  0.33333333  0.66666667  0.50000000  1
  Rb  Rb12  1  0.66666667  0.00000000  0.00000000  1
  Rb  Rb13  1  0.66666667  0.00000000  0.50000000  1
  Rb  Rb14  1  0.66666667  0.33333333  0.00000000  1
  Rb  Rb15  1  0.66666667  0.33333333  0.50000000  1
  Rb  Rb16  1  0.66666667  0.66666667  0.00000000  1
  Rb  Rb17  1  0.66666667  0.66666667  0.50000000  1
  Al  Al18  1  0.00000000  0.00000000  0.25000000  1
  Al  Al19  1  0.00000000  0.00000000  0.75000000  1
  Al  Al20  1  -0.00000000  0.33333333  0.25000000  1
  Al  Al21  1  -0.00000000  0.33333333  0.75000000  1
  Al  Al22  1  -0.00000000  0.66666667  0.25000000  1
  Al  Al23  1  -0.00000000  0.66666667  0.75000000  1
  Al  Al24  1  0.33333333  0.00000000  0.25000000  1
  Al  Al25  1  0.33333333  0.00000000  0.75000000  1
  Al  Al26  1  0.33333333  0.33333333  0.25000000  1
  Al  Al27  1  0.33333333  0.33333333  0.75000000  1
  Al  Al28  1  0.33333333  0.66666667  0.25000000  1
  Al  Al29  1  0.33333333  0.66666667  0.75000000  1
  Al  Al30  1  0.66666667  0.00000000  0.25000000  1
  Al  Al31  1  0.66666667  0.00000000  0.75000000  1
  Al  Al32  1  0.66666667  0.33333333  0.25000000  1
  Al  Al33  1  0.66666667  0.33333333  0.75000000  1
  Al  Al34  1  0.66666667  0.66666667  0.25000000  1
  Al  Al35  1  0.66666667  0.66666667  0.75000000  1
  Mo  Mo36  1  0.11111111  0.22222222  0.13820391  1
  Mo  Mo37  1  0.11111111  0.22222222  0.63820391  1
  Mo  Mo38  1  0.11111111  0.55555556  0.13820391  1
  Mo  Mo39  1  0.11111111  0.55555556  0.63820391  1
  Mo  Mo40  1  0.11111111  0.88888889  0.13820391  1
  Mo  Mo41  1  0.11111111  0.88888889  0.63820391  1
  Mo  Mo42  1  0.44444444  0.22222222  0.13820391  1
  Mo  Mo43  1  0.44444444  0.22222222  0.63820391  1
  Mo  Mo44  1  0.44444444  0.55555556  0.13820391  1
  Mo  Mo45  1  0.44444444  0.55555556  0.63820391  1
  Mo  Mo46  1  0.44444444  0.88888889  0.13820391  1
  Mo  Mo47  1  0.44444444  0.88888889  0.63820391  1
  Mo  Mo48  1  0.77777778  0.22222222  0.13820391  1
  Mo  Mo49  1  0.77777778  0.22222222  0.63820391  1
  Mo  Mo50  1  0.77777778  0.55555556  0.13820391  1
  Mo  Mo51  1  0.77777778  0.55555556  0.63820391  1
  Mo  Mo52  1  0.77777778  0.88888889  0.13820391  1
  Mo  Mo53  1  0.77777778  0.88888889  0.63820391  1
  Mo  Mo54  1  0.22222222  0.11111111  0.36179609  1
  Mo  Mo55  1  0.22222222  0.11111111  0.86179609  1
  Mo  Mo56  1  0.22222222  0.44444444  0.36179609  1
  Mo  Mo57  1  0.22222222  0.44444444  0.86179609  1
  Mo  Mo58  1  0.22222222  0.77777778  0.36179609  1
  Mo  Mo59  1  0.22222222  0.77777778  0.86179609  1
  Mo  Mo60  1  0.55555556  0.11111111  0.36179609  1
  Mo  Mo61  1  0.55555556  0.11111111  0.86179609  1
  Mo  Mo62  1  0.55555556  0.44444444  0.36179609  1
  Mo  Mo63  1  0.55555556  0.44444444  0.86179609  1
  Mo  Mo64  1  0.55555556  0.77777778  0.36179609  1
  Mo  Mo65  1  0.55555556  0.77777778  0.86179609  1
  Mo  Mo66  1  0.88888889  0.11111111  0.36179609  1
  Mo  Mo67  1  0.88888889  0.11111111  0.86179609  1
  Mo  Mo68  1  0.88888889  0.44444444  0.36179609  1
  Mo  Mo69  1  0.88888889  0.44444444  0.86179609  1
  Mo  Mo70  1  0.88888889  0.77777778  0.36179609  1
  Mo  Mo71  1  0.88888889  0.77777778  0.86179609  1
  O  O72  1  0.05232621  0.28100713  0.17510874  1
  O  O73  1  0.05232621  0.28100713  0.67510874  1
  O  O74  1  0.05232621  0.61434046  0.17510874  1
  O  O75  1  0.05232621  0.61434046  0.67510874  1
  O  O76  1  0.05232621  0.94767379  0.17510874  1
  O  O77  1  0.05232621  0.94767379  0.67510874  1
  O  O78  1  0.38565954  0.28100713  0.17510874  1
  O  O79  1  0.38565954  0.28100713  0.67510874  1
  O  O80  1  0.38565954  0.61434046  0.17510874  1
  O  O81  1  0.38565954  0.61434046  0.67510874  1
  O  O82  1  0.38565954  0.94767379  0.17510874  1
  O  O83  1  0.38565954  0.94767379  0.67510874  1
  O  O84  1  0.71899287  0.28100713  0.17510874  1
  O  O85  1  0.71899287  0.28100713  0.67510874  1
  O  O86  1  0.71899287  0.61434046  0.17510874  1
  O  O87  1  0.71899287  0.61434046  0.67510874  1
  O  O88  1  0.71899287  0.94767379  0.17510874  1
  O  O89  1  0.71899287  0.94767379  0.67510874  1
  O  O90  1  0.28100713  0.05232621  0.32489126  1
  O  O91  1  0.28100713  0.05232621  0.82489126  1
  O  O92  1  0.28100713  0.38565954  0.32489126  1
  O  O93  1  0.28100713  0.38565954  0.82489126  1
  O  O94  1  0.28100713  0.71899287  0.32489126  1
  O  O95  1  0.28100713  0.71899287  0.82489126  1
  O  O96  1  0.61434046  0.05232621  0.32489126  1
  O  O97  1  0.61434046  0.05232621  0.82489126  1
  O  O98  1  0.61434046  0.38565954  0.32489126  1
  O  O99  1  0.61434046  0.38565954  0.82489126  1
  O  O100  1  0.61434046  0.71899287  0.32489126  1
  O  O101  1  0.61434046  0.71899287  0.82489126  1
  O  O102  1  0.94767379  0.05232621  0.32489126  1
  O  O103  1  0.94767379  0.05232621  0.82489126  1
  O  O104  1  0.94767379  0.38565954  0.32489126  1
  O  O105  1  0.94767379  0.38565954  0.82489126  1
  O  O106  1  0.94767379  0.71899287  0.32489126  1
  O  O107  1  0.94767379  0.71899287  0.82489126  1
  O  O108  1  0.05232621  0.10465242  0.17510874  1
  O  O109  1  0.05232621  0.10465242  0.67510874  1
  O  O110  1  0.05232621  0.43798575  0.17510874  1
  O  O111  1  0.05232621  0.43798575  0.67510874  1
  O  O112  1  0.05232621  0.77131908  0.17510874  1
  O  O113  1  0.05232621  0.77131908  0.67510874  1
  O  O114  1  0.38565954  0.10465242  0.17510874  1
  O  O115  1  0.38565954  0.10465242  0.67510874  1
  O  O116  1  0.38565954  0.43798575  0.17510874  1
  O  O117  1  0.38565954  0.43798575  0.67510874  1
  O  O118  1  0.38565954  0.77131908  0.17510874  1
  O  O119  1  0.38565954  0.77131908  0.67510874  1
  O  O120  1  0.71899287  0.10465242  0.17510874  1
  O  O121  1  0.71899287  0.10465242  0.67510874  1
  O  O122  1  0.71899287  0.43798575  0.17510874  1
  O  O123  1  0.71899287  0.43798575  0.67510874  1
  O  O124  1  0.71899287  0.77131908  0.17510874  1
  O  O125  1  0.71899287  0.77131908  0.67510874  1
  O  O126  1  0.28100713  0.22868092  0.32489126  1
  O  O127  1  0.28100713  0.22868092  0.82489126  1
  O  O128  1  0.28100713  0.56201425  0.32489126  1
  O  O129  1  0.28100713  0.56201425  0.82489126  1
  O  O130  1  0.28100713  0.89534758  0.32489126  1
  O  O131  1  0.28100713  0.89534758  0.82489126  1
  O  O132  1  0.61434046  0.22868092  0.32489126  1
  O  O133  1  0.61434046  0.22868092  0.82489126  1
  O  O134  1  0.61434046  0.56201425  0.32489126  1
  O  O135  1  0.61434046  0.56201425  0.82489126  1
  O  O136  1  0.61434046  0.89534758  0.32489126  1
  O  O137  1  0.61434046  0.89534758  0.82489126  1
  O  O138  1  0.94767379  0.22868092  0.32489126  1
  O  O139  1  0.94767379  0.22868092  0.82489126  1
  O  O140  1  0.94767379  0.56201425  0.32489126  1
  O  O141  1  0.94767379  0.56201425  0.82489126  1
  O  O142  1  0.94767379  0.89534758  0.32489126  1
  O  O143  1  0.94767379  0.89534758  0.82489126  1
  O  O144  1  0.22868092  0.28100713  0.17510874  1
  O  O145  1  0.22868092  0.28100713  0.67510874  1
  O  O146  1  0.22868092  0.61434046  0.17510874  1
  O  O147  1  0.22868092  0.61434046  0.67510874  1
  O  O148  1  0.22868092  0.94767379  0.17510874  1
  O  O149  1  0.22868092  0.94767379  0.67510874  1
  O  O150  1  0.56201425  0.28100713  0.17510874  1
  O  O151  1  0.56201425  0.28100713  0.67510874  1
  O  O152  1  0.56201425  0.61434046  0.17510874  1
  O  O153  1  0.56201425  0.61434046  0.67510874  1
  O  O154  1  0.56201425  0.94767379  0.17510874  1
  O  O155  1  0.56201425  0.94767379  0.67510874  1
  O  O156  1  0.89534758  0.28100713  0.17510874  1
  O  O157  1  0.89534758  0.28100713  0.67510874  1
  O  O158  1  0.89534758  0.61434046  0.17510874  1
  O  O159  1  0.89534758  0.61434046  0.67510874  1
  O  O160  1  0.89534758  0.94767379  0.17510874  1
  O  O161  1  0.89534758  0.94767379  0.67510874  1
  O  O162  1  0.10465242  0.05232621  0.32489126  1
  O  O163  1  0.10465242  0.05232621  0.82489126  1
  O  O164  1  0.10465242  0.38565954  0.32489126  1
  O  O165  1  0.10465242  0.38565954  0.82489126  1
  O  O166  1  0.10465242  0.71899287  0.32489126  1
  O  O167  1  0.10465242  0.71899287  0.82489126  1
  O  O168  1  0.43798575  0.05232621  0.32489126  1
  O  O169  1  0.43798575  0.05232621  0.82489126  1
  O  O170  1  0.43798575  0.38565954  0.32489126  1
  O  O171  1  0.43798575  0.38565954  0.82489126  1
  O  O172  1  0.43798575  0.71899287  0.32489126  1
  O  O173  1  0.43798575  0.71899287  0.82489126  1
  O  O174  1  0.77131908  0.05232621  0.32489126  1
  O  O175  1  0.77131908  0.05232621  0.82489126  1
  O  O176  1  0.77131908  0.38565954  0.32489126  1
  O  O177  1  0.77131908  0.38565954  0.82489126  1
  O  O178  1  0.77131908  0.71899287  0.32489126  1
  O  O179  1  0.77131908  0.71899287  0.82489126  1
  O  O180  1  0.11111111  0.22222222  0.02114148  1
  O  O181  1  0.11111111  0.22222222  0.52114148  1
  O  O182  1  0.11111111  0.55555556  0.02114148  1
  O  O183  1  0.11111111  0.55555556  0.52114148  1
  O  O184  1  0.11111111  0.88888889  0.02114148  1
  O  O185  1  0.11111111  0.88888889  0.52114148  1
  O  O186  1  0.44444444  0.22222222  0.02114148  1
  O  O187  1  0.44444444  0.22222222  0.52114148  1
  O  O188  1  0.44444444  0.55555556  0.02114148  1
  O  O189  1  0.44444444  0.55555556  0.52114148  1
  O  O190  1  0.44444444  0.88888889  0.02114148  1
  O  O191  1  0.44444444  0.88888889  0.52114148  1
  O  O192  1  0.77777778  0.22222222  0.02114148  1
  O  O193  1  0.77777778  0.22222222  0.52114148  1
  O  O194  1  0.77777778  0.55555556  0.02114148  1
  O  O195  1  0.77777778  0.55555556  0.52114148  1
  O  O196  1  0.77777778  0.88888889  0.02114148  1
  O  O197  1  0.77777778  0.88888889  0.52114148  1
  O  O198  1  0.22222222  0.11111111  0.47885852  1
  O  O199  1  0.22222222  0.11111111  0.97885852  1
  O  O200  1  0.22222222  0.44444444  0.47885852  1
  O  O201  1  0.22222222  0.44444444  0.97885852  1
  O  O202  1  0.22222222  0.77777778  0.47885852  1
  O  O203  1  0.22222222  0.77777778  0.97885852  1
  O  O204  1  0.55555556  0.11111111  0.47885852  1
  O  O205  1  0.55555556  0.11111111  0.97885852  1
  O  O206  1  0.55555556  0.44444444  0.47885852  1
  O  O207  1  0.55555556  0.44444444  0.97885852  1
  O  O208  1  0.55555556  0.77777778  0.47885852  1
  O  O209  1  0.55555556  0.77777778  0.97885852  1
  O  O210  1  0.88888889  0.11111111  0.47885852  1
  O  O211  1  0.88888889  0.11111111  0.97885852  1
  O  O212  1  0.88888889  0.44444444  0.47885852  1
  O  O213  1  0.88888889  0.44444444  0.97885852  1
  O  O214  1  0.88888889  0.77777778  0.47885852  1
  O  O215  1  0.88888889  0.77777778  0.97885852  1
