# generated using pymatgen
data_Sr2SnO4
_symmetry_space_group_name_H-M   'P 1'
_cell_length_a   11.60308693
_cell_length_b   11.60308693
_cell_length_c   12.38418764
_cell_angle_alpha   90.00000000
_cell_angle_beta   90.00000000
_cell_angle_gamma   90.00000000
_symmetry_Int_Tables_number   1
_chemical_formula_structural   Sr2SnO4
_chemical_formula_sum   'Sr32 Sn16 O64'
_cell_volume   1667.30332162
_cell_formula_units_Z   16
loop_
 _symmetry_equiv_pos_site_id
 _symmetry_equiv_pos_as_xyz
  1  'x, y, z'
loop_
 _atom_site_type_symbol
 _atom_site_label
 _atom_site_symmetry_multiplicity
 _atom_site_fract_x
 _atom_site_fract_y
 _atom_site_fract_z
 _atom_site_occupancy
  Sr  Sr0  1  0.13228630  0.11771370  0.39664243  1
  Sr  Sr1  1  0.63228630  0.11771370  0.39664243  1
  Sr  Sr2  1  0.13228630  -0.38228630  0.39664243  1
  Sr  Sr3  1  0.63228630  -0.38228630  0.39664243  1
  Sr  Sr4  1  0.11771370  0.36771370  0.60335757  1
  Sr  Sr5  1  0.61771370  0.36771370  0.60335757  1
  Sr  Sr6  1  0.11771370  -0.13228630  0.60335757  1
  Sr  Sr7  1  0.61771370  -0.13228630  0.60335757  1
  Sr  Sr8  1  0.38228630  0.13228630  0.60335757  1
  Sr  Sr9  1  0.88228630  0.13228630  0.60335757  1
  Sr  Sr10  1  0.38228630  -0.36771370  0.60335757  1
  Sr  Sr11  1  0.88228630  -0.36771370  0.60335757  1
  Sr  Sr12  1  0.36771370  0.38228630  0.39664243  1
  Sr  Sr13  1  0.86771370  0.38228630  0.39664243  1
  Sr  Sr14  1  0.36771370  -0.11771370  0.39664243  1
  Sr  Sr15  1  0.86771370  -0.11771370  0.39664243  1
  Sr  Sr16  1  0.11771370  0.13228630  0.10335757  1
  Sr  Sr17  1  0.61771370  0.13228630  0.10335757  1
  Sr  Sr18  1  0.11771370  -0.36771370  0.10335757  1
  Sr  Sr19  1  0.61771370  -0.36771370  0.10335757  1
  Sr  Sr20  1  0.13228630  0.38228630  0.89664243  1
  Sr  Sr21  1  0.63228630  0.38228630  0.89664243  1
  Sr  Sr22  1  0.13228630  -0.11771370  0.89664243  1
  Sr  Sr23  1  0.63228630  -0.11771370  0.89664243  1
  Sr  Sr24  1  0.36771370  0.11771370  0.89664243  1
  Sr  Sr25  1  0.86771370  0.11771370  0.89664243  1
  Sr  Sr26  1  0.36771370  -0.38228630  0.89664243  1
  Sr  Sr27  1  0.86771370  -0.38228630  0.89664243  1
  Sr  Sr28  1  0.38228630  0.36771370  0.10335757  1
  Sr  Sr29  1  0.88228630  0.36771370  0.10335757  1
  Sr  Sr30  1  0.38228630  -0.13228630  0.10335757  1
  Sr  Sr31  1  0.88228630  -0.13228630  0.10335757  1
  Sn  Sn32  1  0.12500000  0.12500000  0.75000000  1
  Sn  Sn33  1  0.62500000  0.12500000  0.75000000  1
  Sn  Sn34  1  0.12500000  -0.37500000  0.75000000  1
  Sn  Sn35  1  0.62500000  -0.37500000  0.75000000  1
  Sn  Sn36  1  0.12500000  0.37500000  0.25000000  1
  Sn  Sn37  1  0.62500000  0.37500000  0.25000000  1
  Sn  Sn38  1  0.12500000  -0.12500000  0.25000000  1
  Sn  Sn39  1  0.62500000  -0.12500000  0.25000000  1
  Sn  Sn40  1  0.37500000  0.12500000  0.25000000  1
  Sn  Sn41  1  0.87500000  0.12500000  0.25000000  1
  Sn  Sn42  1  0.37500000  -0.37500000  0.25000000  1
  Sn  Sn43  1  0.87500000  -0.37500000  0.25000000  1
  Sn  Sn44  1  0.37500000  0.37500000  0.75000000  1
  Sn  Sn45  1  0.87500000  0.37500000  0.75000000  1
  Sn  Sn46  1  0.37500000  -0.12500000  0.75000000  1
  Sn  Sn47  1  0.87500000  -0.12500000  0.75000000  1
  O  O48  1  0.10318504  0.14681496  0.58609201  1
  O  O49  1  0.60318504  0.14681496  0.58609201  1
  O  O50  1  0.10318504  -0.35318504  0.58609201  1
  O  O51  1  0.60318504  -0.35318504  0.58609201  1
  O  O52  1  0.14681496  0.39681496  0.41390799  1
  O  O53  1  0.64681496  0.39681496  0.41390799  1
  O  O54  1  0.14681496  -0.10318504  0.41390799  1
  O  O55  1  0.64681496  -0.10318504  0.41390799  1
  O  O56  1  0.35318504  0.10318504  0.41390799  1
  O  O57  1  0.85318504  0.10318504  0.41390799  1
  O  O58  1  0.35318504  -0.39681496  0.41390799  1
  O  O59  1  0.85318504  -0.39681496  0.41390799  1
  O  O60  1  0.39681496  0.35318504  0.58609201  1
  O  O61  1  0.89681496  0.35318504  0.58609201  1
  O  O62  1  0.39681496  -0.14681496  0.58609201  1
  O  O63  1  0.89681496  -0.14681496  0.58609201  1
  O  O64  1  0.14681496  0.10318504  0.91390799  1
  O  O65  1  0.64681496  0.10318504  0.91390799  1
  O  O66  1  0.14681496  -0.39681496  0.91390799  1
  O  O67  1  0.64681496  -0.39681496  0.91390799  1
  O  O68  1  0.10318504  0.35318504  0.08609201  1
  O  O69  1  0.60318504  0.35318504  0.08609201  1
  O  O70  1  0.10318504  -0.14681496  0.08609201  1
  O  O71  1  0.60318504  -0.14681496  0.08609201  1
  O  O72  1  0.39681496  0.14681496  0.08609201  1
  O  O73  1  0.89681496  0.14681496  0.08609201  1
  O  O74  1  0.39681496  -0.35318504  0.08609201  1
  O  O75  1  0.89681496  -0.35318504  0.08609201  1
  O  O76  1  0.35318504  0.39681496  0.91390799  1
  O  O77  1  0.85318504  0.39681496  0.91390799  1
  O  O78  1  0.35318504  -0.10318504  0.91390799  1
  O  O79  1  0.85318504  -0.10318504  0.91390799  1
  O  O80  1  0.00000000  0.50000000  0.25000000  1
  O  O81  1  0.50000000  0.50000000  0.25000000  1
  O  O82  1  0.00000000  0.00000000  0.25000000  1
  O  O83  1  0.50000000  0.00000000  0.25000000  1
  O  O84  1  0.25000000  0.25000000  0.75000000  1
  O  O85  1  0.75000000  0.25000000  0.75000000  1
  O  O86  1  0.25000000  -0.25000000  0.75000000  1
  O  O87  1  0.75000000  -0.25000000  0.75000000  1
  O  O88  1  0.25000000  0.25000000  0.25000000  1
  O  O89  1  0.75000000  0.25000000  0.25000000  1
  O  O90  1  0.25000000  -0.25000000  0.25000000  1
  O  O91  1  0.75000000  -0.25000000  0.25000000  1
  O  O92  1  0.00000000  0.50000000  0.75000000  1
  O  O93  1  0.50000000  0.50000000  0.75000000  1
  O  O94  1  0.00000000  0.00000000  0.75000000  1
  O  O95  1  0.50000000  0.00000000  0.75000000  1
  O  O96  1  0.00000000  0.25000000  0.78027700  1
  O  O97  1  0.50000000  0.25000000  0.78027700  1
  O  O98  1  0.00000000  -0.25000000  0.78027700  1
  O  O99  1  0.50000000  -0.25000000  0.78027700  1
  O  O100  1  0.25000000  0.50000000  0.21972300  1
  O  O101  1  0.75000000  0.50000000  0.21972300  1
  O  O102  1  0.25000000  0.00000000  0.21972300  1
  O  O103  1  0.75000000  0.00000000  0.21972300  1
  O  O104  1  0.25000000  0.50000000  0.71972300  1
  O  O105  1  0.75000000  0.50000000  0.71972300  1
  O  O106  1  0.25000000  0.00000000  0.71972300  1
  O  O107  1  0.75000000  0.00000000  0.71972300  1
  O  O108  1  0.00000000  0.25000000  0.28027700  1
  O  O109  1  0.50000000  0.25000000  0.28027700  1
  O  O110  1  0.00000000  -0.25000000  0.28027700  1
  O  O111  1  0.50000000  -0.25000000  0.28027700  1
