# generated using pymatgen
data_Na2ZnO2
_symmetry_space_group_name_H-M   'P 1'
_cell_length_a   15.16418877
_cell_length_b   17.60375914
_cell_length_c   16.89985579
_cell_angle_alpha   90.00000000
_cell_angle_beta   95.26474286
_cell_angle_gamma   90.00000000
_symmetry_Int_Tables_number   1
_chemical_formula_structural   Na2ZnO2
_chemical_formula_sum   'Na144 Zn72 O144'
_cell_volume   4492.32933292
_cell_formula_units_Z   72
loop_
 _symmetry_equiv_pos_site_id
 _symmetry_equiv_pos_as_xyz
  1  'x, y, z'
loop_
 _atom_site_type_symbol
 _atom_site_label
 _atom_site_symmetry_multiplicity
 _atom_site_fract_x
 _atom_site_fract_y
 _atom_site_fract_z
 _atom_site_occupancy
  Na  Na0  1  0.48522409  0.08629486  0.33048494  1
  Na  Na1  1  0.48522409  0.08629486  0.66381828  1
  Na  Na2  1  0.48522409  0.08629486  0.99715161  1
  Na  Na3  1  0.48522409  0.41962819  0.33048494  1
  Na  Na4  1  0.48522409  0.41962819  0.66381828  1
  Na  Na5  1  0.48522409  0.41962819  0.99715161  1
  Na  Na6  1  0.48522409  0.75296152  0.33048494  1
  Na  Na7  1  0.48522409  0.75296152  0.66381828  1
  Na  Na8  1  0.48522409  0.75296152  0.99715161  1
  Na  Na9  1  0.98522409  0.08629486  0.33048494  1
  Na  Na10  1  0.98522409  0.08629486  0.66381828  1
  Na  Na11  1  0.98522409  0.08629486  0.99715161  1
  Na  Na12  1  0.98522409  0.41962819  0.33048494  1
  Na  Na13  1  0.98522409  0.41962819  0.66381828  1
  Na  Na14  1  0.98522409  0.41962819  0.99715161  1
  Na  Na15  1  0.98522409  0.75296152  0.33048494  1
  Na  Na16  1  0.98522409  0.75296152  0.66381828  1
  Na  Na17  1  0.98522409  0.75296152  0.99715161  1
  Na  Na18  1  0.01477591  0.25296152  0.16951506  1
  Na  Na19  1  0.01477591  0.25296152  0.50284839  1
  Na  Na20  1  0.01477591  0.25296152  0.83618172  1
  Na  Na21  1  0.01477591  0.58629486  0.16951506  1
  Na  Na22  1  0.01477591  0.58629486  0.50284839  1
  Na  Na23  1  0.01477591  0.58629486  0.83618172  1
  Na  Na24  1  0.01477591  0.91962819  0.16951506  1
  Na  Na25  1  0.01477591  0.91962819  0.50284839  1
  Na  Na26  1  0.01477591  0.91962819  0.83618172  1
  Na  Na27  1  0.51477591  0.25296152  0.16951506  1
  Na  Na28  1  0.51477591  0.25296152  0.50284839  1
  Na  Na29  1  0.51477591  0.25296152  0.83618172  1
  Na  Na30  1  0.51477591  0.58629486  0.16951506  1
  Na  Na31  1  0.51477591  0.58629486  0.50284839  1
  Na  Na32  1  0.51477591  0.58629486  0.83618172  1
  Na  Na33  1  0.51477591  0.91962819  0.16951506  1
  Na  Na34  1  0.51477591  0.91962819  0.50284839  1
  Na  Na35  1  0.51477591  0.91962819  0.83618172  1
  Na  Na36  1  0.01477591  0.24703848  0.00284839  1
  Na  Na37  1  0.01477591  0.24703848  0.33618172  1
  Na  Na38  1  0.01477591  0.24703848  0.66951506  1
  Na  Na39  1  0.01477591  0.58037181  0.00284839  1
  Na  Na40  1  0.01477591  0.58037181  0.33618172  1
  Na  Na41  1  0.01477591  0.58037181  0.66951506  1
  Na  Na42  1  0.01477591  0.91370514  0.00284839  1
  Na  Na43  1  0.01477591  0.91370514  0.33618172  1
  Na  Na44  1  0.01477591  0.91370514  0.66951506  1
  Na  Na45  1  0.51477591  0.24703848  0.00284839  1
  Na  Na46  1  0.51477591  0.24703848  0.33618172  1
  Na  Na47  1  0.51477591  0.24703848  0.66951506  1
  Na  Na48  1  0.51477591  0.58037181  0.00284839  1
  Na  Na49  1  0.51477591  0.58037181  0.33618172  1
  Na  Na50  1  0.51477591  0.58037181  0.66951506  1
  Na  Na51  1  0.51477591  0.91370514  0.00284839  1
  Na  Na52  1  0.51477591  0.91370514  0.33618172  1
  Na  Na53  1  0.51477591  0.91370514  0.66951506  1
  Na  Na54  1  0.48522409  0.08037181  0.16381828  1
  Na  Na55  1  0.48522409  0.08037181  0.49715161  1
  Na  Na56  1  0.48522409  0.08037181  0.83048494  1
  Na  Na57  1  0.48522409  0.41370514  0.16381828  1
  Na  Na58  1  0.48522409  0.41370514  0.49715161  1
  Na  Na59  1  0.48522409  0.41370514  0.83048494  1
  Na  Na60  1  0.48522409  0.74703848  0.16381828  1
  Na  Na61  1  0.48522409  0.74703848  0.49715161  1
  Na  Na62  1  0.48522409  0.74703848  0.83048494  1
  Na  Na63  1  0.98522409  0.08037181  0.16381828  1
  Na  Na64  1  0.98522409  0.08037181  0.49715161  1
  Na  Na65  1  0.98522409  0.08037181  0.83048494  1
  Na  Na66  1  0.98522409  0.41370514  0.16381828  1
  Na  Na67  1  0.98522409  0.41370514  0.49715161  1
  Na  Na68  1  0.98522409  0.41370514  0.83048494  1
  Na  Na69  1  0.98522409  0.74703848  0.16381828  1
  Na  Na70  1  0.98522409  0.74703848  0.49715161  1
  Na  Na71  1  0.98522409  0.74703848  0.83048494  1
  Na  Na72  1  0.33851760  0.21465811  0.19053386  1
  Na  Na73  1  0.33851760  0.21465811  0.52386719  1
  Na  Na74  1  0.33851760  0.21465811  0.85720053  1
  Na  Na75  1  0.33851760  0.54799144  0.19053386  1
  Na  Na76  1  0.33851760  0.54799144  0.52386719  1
  Na  Na77  1  0.33851760  0.54799144  0.85720053  1
  Na  Na78  1  0.33851760  0.88132478  0.19053386  1
  Na  Na79  1  0.33851760  0.88132478  0.52386719  1
  Na  Na80  1  0.33851760  0.88132478  0.85720053  1
  Na  Na81  1  0.83851760  0.21465811  0.19053386  1
  Na  Na82  1  0.83851760  0.21465811  0.52386719  1
  Na  Na83  1  0.83851760  0.21465811  0.85720053  1
  Na  Na84  1  0.83851760  0.54799144  0.19053386  1
  Na  Na85  1  0.83851760  0.54799144  0.52386719  1
  Na  Na86  1  0.83851760  0.54799144  0.85720053  1
  Na  Na87  1  0.83851760  0.88132478  0.19053386  1
  Na  Na88  1  0.83851760  0.88132478  0.52386719  1
  Na  Na89  1  0.83851760  0.88132478  0.85720053  1
  Na  Na90  1  0.16148240  0.04799144  0.30946614  1
  Na  Na91  1  0.16148240  0.04799144  0.64279947  1
  Na  Na92  1  0.16148240  0.04799144  0.97613281  1
  Na  Na93  1  0.16148240  0.38132478  0.30946614  1
  Na  Na94  1  0.16148240  0.38132478  0.64279947  1
  Na  Na95  1  0.16148240  0.38132478  0.97613281  1
  Na  Na96  1  0.16148240  0.71465811  0.30946614  1
  Na  Na97  1  0.16148240  0.71465811  0.64279947  1
  Na  Na98  1  0.16148240  0.71465811  0.97613281  1
  Na  Na99  1  0.66148240  0.04799144  0.30946614  1
  Na  Na100  1  0.66148240  0.04799144  0.64279947  1
  Na  Na101  1  0.66148240  0.04799144  0.97613281  1
  Na  Na102  1  0.66148240  0.38132478  0.30946614  1
  Na  Na103  1  0.66148240  0.38132478  0.64279947  1
  Na  Na104  1  0.66148240  0.38132478  0.97613281  1
  Na  Na105  1  0.66148240  0.71465811  0.30946614  1
  Na  Na106  1  0.66148240  0.71465811  0.64279947  1
  Na  Na107  1  0.66148240  0.71465811  0.97613281  1
  Na  Na108  1  0.16148240  0.11867522  0.14279947  1
  Na  Na109  1  0.16148240  0.11867522  0.47613281  1
  Na  Na110  1  0.16148240  0.11867522  0.80946614  1
  Na  Na111  1  0.16148240  0.45200856  0.14279947  1
  Na  Na112  1  0.16148240  0.45200856  0.47613281  1
  Na  Na113  1  0.16148240  0.45200856  0.80946614  1
  Na  Na114  1  0.16148240  0.78534189  0.14279947  1
  Na  Na115  1  0.16148240  0.78534189  0.47613281  1
  Na  Na116  1  0.16148240  0.78534189  0.80946614  1
  Na  Na117  1  0.66148240  0.11867522  0.14279947  1
  Na  Na118  1  0.66148240  0.11867522  0.47613281  1
  Na  Na119  1  0.66148240  0.11867522  0.80946614  1
  Na  Na120  1  0.66148240  0.45200856  0.14279947  1
  Na  Na121  1  0.66148240  0.45200856  0.47613281  1
  Na  Na122  1  0.66148240  0.45200856  0.80946614  1
  Na  Na123  1  0.66148240  0.78534189  0.14279947  1
  Na  Na124  1  0.66148240  0.78534189  0.47613281  1
  Na  Na125  1  0.66148240  0.78534189  0.80946614  1
  Na  Na126  1  0.33851760  0.28534189  0.02386719  1
  Na  Na127  1  0.33851760  0.28534189  0.35720053  1
  Na  Na128  1  0.33851760  0.28534189  0.69053386  1
  Na  Na129  1  0.33851760  0.61867522  0.02386719  1
  Na  Na130  1  0.33851760  0.61867522  0.35720053  1
  Na  Na131  1  0.33851760  0.61867522  0.69053386  1
  Na  Na132  1  0.33851760  0.95200856  0.02386719  1
  Na  Na133  1  0.33851760  0.95200856  0.35720053  1
  Na  Na134  1  0.33851760  0.95200856  0.69053386  1
  Na  Na135  1  0.83851760  0.28534189  0.02386719  1
  Na  Na136  1  0.83851760  0.28534189  0.35720053  1
  Na  Na137  1  0.83851760  0.28534189  0.69053386  1
  Na  Na138  1  0.83851760  0.61867522  0.02386719  1
  Na  Na139  1  0.83851760  0.61867522  0.35720053  1
  Na  Na140  1  0.83851760  0.61867522  0.69053386  1
  Na  Na141  1  0.83851760  0.95200856  0.02386719  1
  Na  Na142  1  0.83851760  0.95200856  0.35720053  1
  Na  Na143  1  0.83851760  0.95200856  0.69053386  1
  Zn  Zn144  1  0.31597007  0.13172150  0.04855749  1
  Zn  Zn145  1  0.31597007  0.13172150  0.38189083  1
  Zn  Zn146  1  0.31597007  0.13172150  0.71522416  1
  Zn  Zn147  1  0.31597007  0.46505484  0.04855749  1
  Zn  Zn148  1  0.31597007  0.46505484  0.38189083  1
  Zn  Zn149  1  0.31597007  0.46505484  0.71522416  1
  Zn  Zn150  1  0.31597007  0.79838817  0.04855749  1
  Zn  Zn151  1  0.31597007  0.79838817  0.38189083  1
  Zn  Zn152  1  0.31597007  0.79838817  0.71522416  1
  Zn  Zn153  1  0.81597007  0.13172150  0.04855749  1
  Zn  Zn154  1  0.81597007  0.13172150  0.38189083  1
  Zn  Zn155  1  0.81597007  0.13172150  0.71522416  1
  Zn  Zn156  1  0.81597007  0.46505484  0.04855749  1
  Zn  Zn157  1  0.81597007  0.46505484  0.38189083  1
  Zn  Zn158  1  0.81597007  0.46505484  0.71522416  1
  Zn  Zn159  1  0.81597007  0.79838817  0.04855749  1
  Zn  Zn160  1  0.81597007  0.79838817  0.38189083  1
  Zn  Zn161  1  0.81597007  0.79838817  0.71522416  1
  Zn  Zn162  1  0.18402993  0.29838817  0.11810917  1
  Zn  Zn163  1  0.18402993  0.29838817  0.45144251  1
  Zn  Zn164  1  0.18402993  0.29838817  0.78477584  1
  Zn  Zn165  1  0.18402993  0.63172150  0.11810917  1
  Zn  Zn166  1  0.18402993  0.63172150  0.45144251  1
  Zn  Zn167  1  0.18402993  0.63172150  0.78477584  1
  Zn  Zn168  1  0.18402993  0.96505484  0.11810917  1
  Zn  Zn169  1  0.18402993  0.96505484  0.45144251  1
  Zn  Zn170  1  0.18402993  0.96505484  0.78477584  1
  Zn  Zn171  1  0.68402993  0.29838817  0.11810917  1
  Zn  Zn172  1  0.68402993  0.29838817  0.45144251  1
  Zn  Zn173  1  0.68402993  0.29838817  0.78477584  1
  Zn  Zn174  1  0.68402993  0.63172150  0.11810917  1
  Zn  Zn175  1  0.68402993  0.63172150  0.45144251  1
  Zn  Zn176  1  0.68402993  0.63172150  0.78477584  1
  Zn  Zn177  1  0.68402993  0.96505484  0.11810917  1
  Zn  Zn178  1  0.68402993  0.96505484  0.45144251  1
  Zn  Zn179  1  0.68402993  0.96505484  0.78477584  1
  Zn  Zn180  1  0.18402993  0.20161183  0.28477584  1
  Zn  Zn181  1  0.18402993  0.20161183  0.61810917  1
  Zn  Zn182  1  0.18402993  0.20161183  0.95144251  1
  Zn  Zn183  1  0.18402993  0.53494516  0.28477584  1
  Zn  Zn184  1  0.18402993  0.53494516  0.61810917  1
  Zn  Zn185  1  0.18402993  0.53494516  0.95144251  1
  Zn  Zn186  1  0.18402993  0.86827850  0.28477584  1
  Zn  Zn187  1  0.18402993  0.86827850  0.61810917  1
  Zn  Zn188  1  0.18402993  0.86827850  0.95144251  1
  Zn  Zn189  1  0.68402993  0.20161183  0.28477584  1
  Zn  Zn190  1  0.68402993  0.20161183  0.61810917  1
  Zn  Zn191  1  0.68402993  0.20161183  0.95144251  1
  Zn  Zn192  1  0.68402993  0.53494516  0.28477584  1
  Zn  Zn193  1  0.68402993  0.53494516  0.61810917  1
  Zn  Zn194  1  0.68402993  0.53494516  0.95144251  1
  Zn  Zn195  1  0.68402993  0.86827850  0.28477584  1
  Zn  Zn196  1  0.68402993  0.86827850  0.61810917  1
  Zn  Zn197  1  0.68402993  0.86827850  0.95144251  1
  Zn  Zn198  1  0.31597007  0.03494516  0.21522416  1
  Zn  Zn199  1  0.31597007  0.03494516  0.54855749  1
  Zn  Zn200  1  0.31597007  0.03494516  0.88189083  1
  Zn  Zn201  1  0.31597007  0.36827850  0.21522416  1
  Zn  Zn202  1  0.31597007  0.36827850  0.54855749  1
  Zn  Zn203  1  0.31597007  0.36827850  0.88189083  1
  Zn  Zn204  1  0.31597007  0.70161183  0.21522416  1
  Zn  Zn205  1  0.31597007  0.70161183  0.54855749  1
  Zn  Zn206  1  0.31597007  0.70161183  0.88189083  1
  Zn  Zn207  1  0.81597007  0.03494516  0.21522416  1
  Zn  Zn208  1  0.81597007  0.03494516  0.54855749  1
  Zn  Zn209  1  0.81597007  0.03494516  0.88189083  1
  Zn  Zn210  1  0.81597007  0.36827850  0.21522416  1
  Zn  Zn211  1  0.81597007  0.36827850  0.54855749  1
  Zn  Zn212  1  0.81597007  0.36827850  0.88189083  1
  Zn  Zn213  1  0.81597007  0.70161183  0.21522416  1
  Zn  Zn214  1  0.81597007  0.70161183  0.54855749  1
  Zn  Zn215  1  0.81597007  0.70161183  0.88189083  1
  O  O216  1  0.42473851  0.32194225  0.24910146  1
  O  O217  1  0.42473851  0.32194225  0.58243480  1
  O  O218  1  0.42473851  0.32194225  0.91576813  1
  O  O219  1  0.42473851  0.65527558  0.24910146  1
  O  O220  1  0.42473851  0.65527558  0.58243480  1
  O  O221  1  0.42473851  0.65527558  0.91576813  1
  O  O222  1  0.42473851  0.98860892  0.24910146  1
  O  O223  1  0.42473851  0.98860892  0.58243480  1
  O  O224  1  0.42473851  0.98860892  0.91576813  1
  O  O225  1  0.92473851  0.32194225  0.24910146  1
  O  O226  1  0.92473851  0.32194225  0.58243480  1
  O  O227  1  0.92473851  0.32194225  0.91576813  1
  O  O228  1  0.92473851  0.65527558  0.24910146  1
  O  O229  1  0.92473851  0.65527558  0.58243480  1
  O  O230  1  0.92473851  0.65527558  0.91576813  1
  O  O231  1  0.92473851  0.98860892  0.24910146  1
  O  O232  1  0.92473851  0.98860892  0.58243480  1
  O  O233  1  0.92473851  0.98860892  0.91576813  1
  O  O234  1  0.07526149  0.15527558  0.25089854  1
  O  O235  1  0.07526149  0.15527558  0.58423187  1
  O  O236  1  0.07526149  0.15527558  0.91756520  1
  O  O237  1  0.07526149  0.48860892  0.25089854  1
  O  O238  1  0.07526149  0.48860892  0.58423187  1
  O  O239  1  0.07526149  0.48860892  0.91756520  1
  O  O240  1  0.07526149  0.82194225  0.25089854  1
  O  O241  1  0.07526149  0.82194225  0.58423187  1
  O  O242  1  0.07526149  0.82194225  0.91756520  1
  O  O243  1  0.57526149  0.15527558  0.25089854  1
  O  O244  1  0.57526149  0.15527558  0.58423187  1
  O  O245  1  0.57526149  0.15527558  0.91756520  1
  O  O246  1  0.57526149  0.48860892  0.25089854  1
  O  O247  1  0.57526149  0.48860892  0.58423187  1
  O  O248  1  0.57526149  0.48860892  0.91756520  1
  O  O249  1  0.57526149  0.82194225  0.25089854  1
  O  O250  1  0.57526149  0.82194225  0.58423187  1
  O  O251  1  0.57526149  0.82194225  0.91756520  1
  O  O252  1  0.07526149  0.01139108  0.08423187  1
  O  O253  1  0.07526149  0.01139108  0.41756520  1
  O  O254  1  0.07526149  0.01139108  0.75089854  1
  O  O255  1  0.07526149  0.34472442  0.08423187  1
  O  O256  1  0.07526149  0.34472442  0.41756520  1
  O  O257  1  0.07526149  0.34472442  0.75089854  1
  O  O258  1  0.07526149  0.67805775  0.08423187  1
  O  O259  1  0.07526149  0.67805775  0.41756520  1
  O  O260  1  0.07526149  0.67805775  0.75089854  1
  O  O261  1  0.57526149  0.01139108  0.08423187  1
  O  O262  1  0.57526149  0.01139108  0.41756520  1
  O  O263  1  0.57526149  0.01139108  0.75089854  1
  O  O264  1  0.57526149  0.34472442  0.08423187  1
  O  O265  1  0.57526149  0.34472442  0.41756520  1
  O  O266  1  0.57526149  0.34472442  0.75089854  1
  O  O267  1  0.57526149  0.67805775  0.08423187  1
  O  O268  1  0.57526149  0.67805775  0.41756520  1
  O  O269  1  0.57526149  0.67805775  0.75089854  1
  O  O270  1  0.42473851  0.17805775  0.08243480  1
  O  O271  1  0.42473851  0.17805775  0.41576813  1
  O  O272  1  0.42473851  0.17805775  0.74910146  1
  O  O273  1  0.42473851  0.51139108  0.08243480  1
  O  O274  1  0.42473851  0.51139108  0.41576813  1
  O  O275  1  0.42473851  0.51139108  0.74910146  1
  O  O276  1  0.42473851  0.84472442  0.08243480  1
  O  O277  1  0.42473851  0.84472442  0.41576813  1
  O  O278  1  0.42473851  0.84472442  0.74910146  1
  O  O279  1  0.92473851  0.17805775  0.08243480  1
  O  O280  1  0.92473851  0.17805775  0.41576813  1
  O  O281  1  0.92473851  0.17805775  0.74910146  1
  O  O282  1  0.92473851  0.51139108  0.08243480  1
  O  O283  1  0.92473851  0.51139108  0.41576813  1
  O  O284  1  0.92473851  0.51139108  0.74910146  1
  O  O285  1  0.92473851  0.84472442  0.08243480  1
  O  O286  1  0.92473851  0.84472442  0.41576813  1
  O  O287  1  0.92473851  0.84472442  0.74910146  1
  O  O288  1  0.28102829  0.04162581  0.10113970  1
  O  O289  1  0.28102829  0.04162581  0.43447304  1
  O  O290  1  0.28102829  0.04162581  0.76780637  1
  O  O291  1  0.28102829  0.37495915  0.10113970  1
  O  O292  1  0.28102829  0.37495915  0.43447304  1
  O  O293  1  0.28102829  0.37495915  0.76780637  1
  O  O294  1  0.28102829  0.70829248  0.10113970  1
  O  O295  1  0.28102829  0.70829248  0.43447304  1
  O  O296  1  0.28102829  0.70829248  0.76780637  1
  O  O297  1  0.78102829  0.04162581  0.10113970  1
  O  O298  1  0.78102829  0.04162581  0.43447304  1
  O  O299  1  0.78102829  0.04162581  0.76780637  1
  O  O300  1  0.78102829  0.37495915  0.10113970  1
  O  O301  1  0.78102829  0.37495915  0.43447304  1
  O  O302  1  0.78102829  0.37495915  0.76780637  1
  O  O303  1  0.78102829  0.70829248  0.10113970  1
  O  O304  1  0.78102829  0.70829248  0.43447304  1
  O  O305  1  0.78102829  0.70829248  0.76780637  1
  O  O306  1  0.21897171  0.20829248  0.06552696  1
  O  O307  1  0.21897171  0.20829248  0.39886030  1
  O  O308  1  0.21897171  0.20829248  0.73219363  1
  O  O309  1  0.21897171  0.54162581  0.06552696  1
  O  O310  1  0.21897171  0.54162581  0.39886030  1
  O  O311  1  0.21897171  0.54162581  0.73219363  1
  O  O312  1  0.21897171  0.87495915  0.06552696  1
  O  O313  1  0.21897171  0.87495915  0.39886030  1
  O  O314  1  0.21897171  0.87495915  0.73219363  1
  O  O315  1  0.71897171  0.20829248  0.06552696  1
  O  O316  1  0.71897171  0.20829248  0.39886030  1
  O  O317  1  0.71897171  0.20829248  0.73219363  1
  O  O318  1  0.71897171  0.54162581  0.06552696  1
  O  O319  1  0.71897171  0.54162581  0.39886030  1
  O  O320  1  0.71897171  0.54162581  0.73219363  1
  O  O321  1  0.71897171  0.87495915  0.06552696  1
  O  O322  1  0.71897171  0.87495915  0.39886030  1
  O  O323  1  0.71897171  0.87495915  0.73219363  1
  O  O324  1  0.21897171  0.29170752  0.23219363  1
  O  O325  1  0.21897171  0.29170752  0.56552696  1
  O  O326  1  0.21897171  0.29170752  0.89886030  1
  O  O327  1  0.21897171  0.62504085  0.23219363  1
  O  O328  1  0.21897171  0.62504085  0.56552696  1
  O  O329  1  0.21897171  0.62504085  0.89886030  1
  O  O330  1  0.21897171  0.95837419  0.23219363  1
  O  O331  1  0.21897171  0.95837419  0.56552696  1
  O  O332  1  0.21897171  0.95837419  0.89886030  1
  O  O333  1  0.71897171  0.29170752  0.23219363  1
  O  O334  1  0.71897171  0.29170752  0.56552696  1
  O  O335  1  0.71897171  0.29170752  0.89886030  1
  O  O336  1  0.71897171  0.62504085  0.23219363  1
  O  O337  1  0.71897171  0.62504085  0.56552696  1
  O  O338  1  0.71897171  0.62504085  0.89886030  1
  O  O339  1  0.71897171  0.95837419  0.23219363  1
  O  O340  1  0.71897171  0.95837419  0.56552696  1
  O  O341  1  0.71897171  0.95837419  0.89886030  1
  O  O342  1  0.28102829  0.12504085  0.26780637  1
  O  O343  1  0.28102829  0.12504085  0.60113970  1
  O  O344  1  0.28102829  0.12504085  0.93447304  1
  O  O345  1  0.28102829  0.45837419  0.26780637  1
  O  O346  1  0.28102829  0.45837419  0.60113970  1
  O  O347  1  0.28102829  0.45837419  0.93447304  1
  O  O348  1  0.28102829  0.79170752  0.26780637  1
  O  O349  1  0.28102829  0.79170752  0.60113970  1
  O  O350  1  0.28102829  0.79170752  0.93447304  1
  O  O351  1  0.78102829  0.12504085  0.26780637  1
  O  O352  1  0.78102829  0.12504085  0.60113970  1
  O  O353  1  0.78102829  0.12504085  0.93447304  1
  O  O354  1  0.78102829  0.45837419  0.26780637  1
  O  O355  1  0.78102829  0.45837419  0.60113970  1
  O  O356  1  0.78102829  0.45837419  0.93447304  1
  O  O357  1  0.78102829  0.79170752  0.26780637  1
  O  O358  1  0.78102829  0.79170752  0.60113970  1
  O  O359  1  0.78102829  0.79170752  0.93447304  1
