# generated using pymatgen
data_CaSc2O4
_symmetry_space_group_name_H-M   'P 1'
_cell_length_a   9.34955821
_cell_length_b   9.34825478
_cell_length_c   11.02389273
_cell_angle_alpha   90.00000000
_cell_angle_beta   90.00000000
_cell_angle_gamma   90.00000000
_symmetry_Int_Tables_number   1
_chemical_formula_structural   CaSc2O4
_chemical_formula_sum   'Ca12 Sc24 O48'
_cell_volume   963.51084809
_cell_formula_units_Z   12
loop_
 _symmetry_equiv_pos_site_id
 _symmetry_equiv_pos_as_xyz
  1  'x, y, z'
loop_
 _atom_site_type_symbol
 _atom_site_label
 _atom_site_symmetry_multiplicity
 _atom_site_fract_x
 _atom_site_fract_y
 _atom_site_fract_z
 _atom_site_occupancy
  Ca  Ca0  1  0.75534094  0.25000000  0.34665888  1
  Ca  Ca1  1  0.75534094  0.58333333  0.34665888  1
  Ca  Ca2  1  0.75534094  0.91666667  0.34665888  1
  Ca  Ca3  1  0.24465906  0.08333333  0.65334112  1
  Ca  Ca4  1  0.24465906  0.41666667  0.65334112  1
  Ca  Ca5  1  0.24465906  0.75000000  0.65334112  1
  Ca  Ca6  1  0.25534094  0.25000000  0.15334112  1
  Ca  Ca7  1  0.25534094  0.58333333  0.15334112  1
  Ca  Ca8  1  0.25534094  0.91666667  0.15334112  1
  Ca  Ca9  1  0.74465906  0.08333333  0.84665888  1
  Ca  Ca10  1  0.74465906  0.41666667  0.84665888  1
  Ca  Ca11  1  0.74465906  0.75000000  0.84665888  1
  Sc  Sc12  1  0.07982920  0.08333333  0.39322146  1
  Sc  Sc13  1  0.07982920  0.41666667  0.39322146  1
  Sc  Sc14  1  0.07982920  0.75000000  0.39322146  1
  Sc  Sc15  1  0.92017080  0.25000000  0.60677854  1
  Sc  Sc16  1  0.92017080  0.58333333  0.60677854  1
  Sc  Sc17  1  0.92017080  0.91666667  0.60677854  1
  Sc  Sc18  1  0.57982920  0.08333333  0.10677854  1
  Sc  Sc19  1  0.57982920  0.41666667  0.10677854  1
  Sc  Sc20  1  0.57982920  0.75000000  0.10677854  1
  Sc  Sc21  1  0.42017080  0.25000000  0.89322146  1
  Sc  Sc22  1  0.42017080  0.58333333  0.89322146  1
  Sc  Sc23  1  0.42017080  0.91666667  0.89322146  1
  Sc  Sc24  1  0.42865439  0.25000000  0.38824775  1
  Sc  Sc25  1  0.42865439  0.58333333  0.38824775  1
  Sc  Sc26  1  0.42865439  0.91666667  0.38824775  1
  Sc  Sc27  1  0.57134561  0.08333333  0.61175225  1
  Sc  Sc28  1  0.57134561  0.41666667  0.61175225  1
  Sc  Sc29  1  0.57134561  0.75000000  0.61175225  1
  Sc  Sc30  1  0.92865439  0.25000000  0.11175225  1
  Sc  Sc31  1  0.92865439  0.58333333  0.11175225  1
  Sc  Sc32  1  0.92865439  0.91666667  0.11175225  1
  Sc  Sc33  1  0.07134561  0.08333333  0.88824775  1
  Sc  Sc34  1  0.07134561  0.41666667  0.88824775  1
  Sc  Sc35  1  0.07134561  0.75000000  0.88824775  1
  O  O36  1  0.07938352  0.08333333  0.07642019  1
  O  O37  1  0.07938352  0.41666667  0.07642019  1
  O  O38  1  0.07938352  0.75000000  0.07642019  1
  O  O39  1  0.92061648  0.25000000  0.92357981  1
  O  O40  1  0.92061648  0.58333333  0.92357981  1
  O  O41  1  0.92061648  0.91666667  0.92357981  1
  O  O42  1  0.57938352  0.08333333  0.42357981  1
  O  O43  1  0.57938352  0.41666667  0.42357981  1
  O  O44  1  0.57938352  0.75000000  0.42357981  1
  O  O45  1  0.42061648  0.25000000  0.57642019  1
  O  O46  1  0.42061648  0.58333333  0.57642019  1
  O  O47  1  0.42061648  0.91666667  0.57642019  1
  O  O48  1  0.97896874  0.08333333  0.71610954  1
  O  O49  1  0.97896874  0.41666667  0.71610954  1
  O  O50  1  0.97896874  0.75000000  0.71610954  1
  O  O51  1  0.02103126  0.25000000  0.28389046  1
  O  O52  1  0.02103126  0.58333333  0.28389046  1
  O  O53  1  0.02103126  0.91666667  0.28389046  1
  O  O54  1  0.47896874  0.08333333  0.78389046  1
  O  O55  1  0.47896874  0.41666667  0.78389046  1
  O  O56  1  0.47896874  0.75000000  0.78389046  1
  O  O57  1  0.52103126  0.25000000  0.21610954  1
  O  O58  1  0.52103126  0.58333333  0.21610954  1
  O  O59  1  0.52103126  0.91666667  0.21610954  1
  O  O60  1  0.37549106  0.08333333  0.02353820  1
  O  O61  1  0.37549106  0.41666667  0.02353820  1
  O  O62  1  0.37549106  0.75000000  0.02353820  1
  O  O63  1  0.62450894  0.25000000  0.97646180  1
  O  O64  1  0.62450894  0.58333333  0.97646180  1
  O  O65  1  0.62450894  0.91666667  0.97646180  1
  O  O66  1  0.87549106  0.08333333  0.47646180  1
  O  O67  1  0.87549106  0.41666667  0.47646180  1
  O  O68  1  0.87549106  0.75000000  0.47646180  1
  O  O69  1  0.12450894  0.25000000  0.52353820  1
  O  O70  1  0.12450894  0.58333333  0.52353820  1
  O  O71  1  0.12450894  0.91666667  0.52353820  1
  O  O72  1  0.20814082  0.25000000  0.82738081  1
  O  O73  1  0.20814082  0.58333333  0.82738081  1
  O  O74  1  0.20814082  0.91666667  0.82738081  1
  O  O75  1  0.79185918  0.08333333  0.17261919  1
  O  O76  1  0.79185918  0.41666667  0.17261919  1
  O  O77  1  0.79185918  0.75000000  0.17261919  1
  O  O78  1  0.70814082  0.25000000  0.67261919  1
  O  O79  1  0.70814082  0.58333333  0.67261919  1
  O  O80  1  0.70814082  0.91666667  0.67261919  1
  O  O81  1  0.29185918  0.08333333  0.32738081  1
  O  O82  1  0.29185918  0.41666667  0.32738081  1
  O  O83  1  0.29185918  0.75000000  0.32738081  1
