# generated using pymatgen
data_Cs6Si2O7
_symmetry_space_group_name_H-M   'P 1'
_cell_length_a   21.26505690
_cell_length_b   18.99552248
_cell_length_c   23.73650997
_cell_angle_alpha   90.00000000
_cell_angle_beta   126.18451148
_cell_angle_gamma   90.00000000
_symmetry_Int_Tables_number   1
_chemical_formula_structural   Cs6Si2O7
_chemical_formula_sum   'Cs144 Si48 O168'
_cell_volume   7738.78413261
_cell_formula_units_Z   24
loop_
 _symmetry_equiv_pos_site_id
 _symmetry_equiv_pos_as_xyz
  1  'x, y, z'
loop_
 _atom_site_type_symbol
 _atom_site_label
 _atom_site_symmetry_multiplicity
 _atom_site_fract_x
 _atom_site_fract_y
 _atom_site_fract_z
 _atom_site_occupancy
  Cs  Cs0  1  0.17243731  0.17708960  0.20211197  1
  Cs  Cs1  1  0.17243731  0.17708960  0.70211197  1
  Cs  Cs2  1  0.17243731  0.67708960  0.20211197  1
  Cs  Cs3  1  0.17243731  0.67708960  0.70211197  1
  Cs  Cs4  1  0.50577065  0.17708960  0.20211197  1
  Cs  Cs5  1  0.50577065  0.17708960  0.70211197  1
  Cs  Cs6  1  0.50577065  0.67708960  0.20211197  1
  Cs  Cs7  1  0.50577065  0.67708960  0.70211197  1
  Cs  Cs8  1  0.83910398  0.17708960  0.20211197  1
  Cs  Cs9  1  0.83910398  0.17708960  0.70211197  1
  Cs  Cs10  1  0.83910398  0.67708960  0.20211197  1
  Cs  Cs11  1  0.83910398  0.67708960  0.70211197  1
  Cs  Cs12  1  0.17243731  0.07291040  0.45211197  1
  Cs  Cs13  1  0.17243731  0.07291040  0.95211197  1
  Cs  Cs14  1  0.17243731  0.57291040  0.45211197  1
  Cs  Cs15  1  0.17243731  0.57291040  0.95211197  1
  Cs  Cs16  1  0.50577065  0.07291040  0.45211197  1
  Cs  Cs17  1  0.50577065  0.07291040  0.95211197  1
  Cs  Cs18  1  0.50577065  0.57291040  0.45211197  1
  Cs  Cs19  1  0.50577065  0.57291040  0.95211197  1
  Cs  Cs20  1  0.83910398  0.07291040  0.45211197  1
  Cs  Cs21  1  0.83910398  0.07291040  0.95211197  1
  Cs  Cs22  1  0.83910398  0.57291040  0.45211197  1
  Cs  Cs23  1  0.83910398  0.57291040  0.95211197  1
  Cs  Cs24  1  0.16089602  0.32291040  0.29788803  1
  Cs  Cs25  1  0.16089602  0.32291040  0.79788803  1
  Cs  Cs26  1  0.16089602  0.82291040  0.29788803  1
  Cs  Cs27  1  0.16089602  0.82291040  0.79788803  1
  Cs  Cs28  1  0.49422935  0.32291040  0.29788803  1
  Cs  Cs29  1  0.49422935  0.32291040  0.79788803  1
  Cs  Cs30  1  0.49422935  0.82291040  0.29788803  1
  Cs  Cs31  1  0.49422935  0.82291040  0.79788803  1
  Cs  Cs32  1  0.82756269  0.32291040  0.29788803  1
  Cs  Cs33  1  0.82756269  0.32291040  0.79788803  1
  Cs  Cs34  1  0.82756269  0.82291040  0.29788803  1
  Cs  Cs35  1  0.82756269  0.82291040  0.79788803  1
  Cs  Cs36  1  0.23550294  0.48696470  0.22779750  1
  Cs  Cs37  1  0.23550294  0.48696470  0.72779750  1
  Cs  Cs38  1  0.23550294  0.98696470  0.22779750  1
  Cs  Cs39  1  0.23550294  0.98696470  0.72779750  1
  Cs  Cs40  1  0.56883627  0.48696470  0.22779750  1
  Cs  Cs41  1  0.56883627  0.48696470  0.72779750  1
  Cs  Cs42  1  0.56883627  0.98696470  0.22779750  1
  Cs  Cs43  1  0.56883627  0.98696470  0.72779750  1
  Cs  Cs44  1  0.90216960  0.48696470  0.22779750  1
  Cs  Cs45  1  0.90216960  0.48696470  0.72779750  1
  Cs  Cs46  1  0.90216960  0.98696470  0.22779750  1
  Cs  Cs47  1  0.90216960  0.98696470  0.72779750  1
  Cs  Cs48  1  0.09783040  0.23696470  0.02220250  1
  Cs  Cs49  1  0.09783040  0.23696470  0.52220250  1
  Cs  Cs50  1  0.09783040  0.73696470  0.02220250  1
  Cs  Cs51  1  0.09783040  0.73696470  0.52220250  1
  Cs  Cs52  1  0.43116373  0.23696470  0.02220250  1
  Cs  Cs53  1  0.43116373  0.23696470  0.52220250  1
  Cs  Cs54  1  0.43116373  0.73696470  0.02220250  1
  Cs  Cs55  1  0.43116373  0.73696470  0.52220250  1
  Cs  Cs56  1  0.76449706  0.23696470  0.02220250  1
  Cs  Cs57  1  0.76449706  0.23696470  0.52220250  1
  Cs  Cs58  1  0.76449706  0.73696470  0.02220250  1
  Cs  Cs59  1  0.76449706  0.73696470  0.52220250  1
  Cs  Cs60  1  0.09783040  0.01303530  0.27220250  1
  Cs  Cs61  1  0.09783040  0.01303530  0.77220250  1
  Cs  Cs62  1  0.09783040  0.51303530  0.27220250  1
  Cs  Cs63  1  0.09783040  0.51303530  0.77220250  1
  Cs  Cs64  1  0.43116373  0.01303530  0.27220250  1
  Cs  Cs65  1  0.43116373  0.01303530  0.77220250  1
  Cs  Cs66  1  0.43116373  0.51303530  0.27220250  1
  Cs  Cs67  1  0.43116373  0.51303530  0.77220250  1
  Cs  Cs68  1  0.76449706  0.01303530  0.27220250  1
  Cs  Cs69  1  0.76449706  0.01303530  0.77220250  1
  Cs  Cs70  1  0.76449706  0.51303530  0.27220250  1
  Cs  Cs71  1  0.76449706  0.51303530  0.77220250  1
  Cs  Cs72  1  0.23550294  0.26303530  0.47779750  1
  Cs  Cs73  1  0.23550294  0.26303530  0.97779750  1
  Cs  Cs74  1  0.23550294  0.76303530  0.47779750  1
  Cs  Cs75  1  0.23550294  0.76303530  0.97779750  1
  Cs  Cs76  1  0.56883627  0.26303530  0.47779750  1
  Cs  Cs77  1  0.56883627  0.26303530  0.97779750  1
  Cs  Cs78  1  0.56883627  0.76303530  0.47779750  1
  Cs  Cs79  1  0.56883627  0.76303530  0.97779750  1
  Cs  Cs80  1  0.90216960  0.26303530  0.47779750  1
  Cs  Cs81  1  0.90216960  0.26303530  0.97779750  1
  Cs  Cs82  1  0.90216960  0.76303530  0.47779750  1
  Cs  Cs83  1  0.90216960  0.76303530  0.97779750  1
  Cs  Cs84  1  0.29483560  0.13730347  0.13633561  1
  Cs  Cs85  1  0.29483560  0.13730347  0.63633561  1
  Cs  Cs86  1  0.29483560  0.63730347  0.13633561  1
  Cs  Cs87  1  0.29483560  0.63730347  0.63633561  1
  Cs  Cs88  1  0.62816893  0.13730347  0.13633561  1
  Cs  Cs89  1  0.62816893  0.13730347  0.63633561  1
  Cs  Cs90  1  0.62816893  0.63730347  0.13633561  1
  Cs  Cs91  1  0.62816893  0.63730347  0.63633561  1
  Cs  Cs92  1  0.96150226  0.13730347  0.13633561  1
  Cs  Cs93  1  0.96150226  0.13730347  0.63633561  1
  Cs  Cs94  1  0.96150226  0.63730347  0.13633561  1
  Cs  Cs95  1  0.96150226  0.63730347  0.63633561  1
  Cs  Cs96  1  0.03849774  0.38730347  0.11366439  1
  Cs  Cs97  1  0.03849774  0.38730347  0.61366439  1
  Cs  Cs98  1  0.03849774  0.88730347  0.11366439  1
  Cs  Cs99  1  0.03849774  0.88730347  0.61366439  1
  Cs  Cs100  1  0.37183107  0.38730347  0.11366439  1
  Cs  Cs101  1  0.37183107  0.38730347  0.61366439  1
  Cs  Cs102  1  0.37183107  0.88730347  0.11366439  1
  Cs  Cs103  1  0.37183107  0.88730347  0.61366439  1
  Cs  Cs104  1  0.70516440  0.38730347  0.11366439  1
  Cs  Cs105  1  0.70516440  0.38730347  0.61366439  1
  Cs  Cs106  1  0.70516440  0.88730347  0.11366439  1
  Cs  Cs107  1  0.70516440  0.88730347  0.61366439  1
  Cs  Cs108  1  0.03849774  0.36269653  0.36366439  1
  Cs  Cs109  1  0.03849774  0.36269653  0.86366439  1
  Cs  Cs110  1  0.03849774  0.86269653  0.36366439  1
  Cs  Cs111  1  0.03849774  0.86269653  0.86366439  1
  Cs  Cs112  1  0.37183107  0.36269653  0.36366439  1
  Cs  Cs113  1  0.37183107  0.36269653  0.86366439  1
  Cs  Cs114  1  0.37183107  0.86269653  0.36366439  1
  Cs  Cs115  1  0.37183107  0.86269653  0.86366439  1
  Cs  Cs116  1  0.70516440  0.36269653  0.36366439  1
  Cs  Cs117  1  0.70516440  0.36269653  0.86366439  1
  Cs  Cs118  1  0.70516440  0.86269653  0.36366439  1
  Cs  Cs119  1  0.70516440  0.86269653  0.86366439  1
  Cs  Cs120  1  0.29483560  0.11269653  0.38633561  1
  Cs  Cs121  1  0.29483560  0.11269653  0.88633561  1
  Cs  Cs122  1  0.29483560  0.61269653  0.38633561  1
  Cs  Cs123  1  0.29483560  0.61269653  0.88633561  1
  Cs  Cs124  1  0.62816893  0.11269653  0.38633561  1
  Cs  Cs125  1  0.62816893  0.11269653  0.88633561  1
  Cs  Cs126  1  0.62816893  0.61269653  0.38633561  1
  Cs  Cs127  1  0.62816893  0.61269653  0.88633561  1
  Cs  Cs128  1  0.96150226  0.11269653  0.38633561  1
  Cs  Cs129  1  0.96150226  0.11269653  0.88633561  1
  Cs  Cs130  1  0.96150226  0.61269653  0.38633561  1
  Cs  Cs131  1  0.96150226  0.61269653  0.88633561  1
  Cs  Cs132  1  0.16089602  0.42708960  0.04788803  1
  Cs  Cs133  1  0.16089602  0.42708960  0.54788803  1
  Cs  Cs134  1  0.16089602  0.92708960  0.04788803  1
  Cs  Cs135  1  0.16089602  0.92708960  0.54788803  1
  Cs  Cs136  1  0.49422935  0.42708960  0.04788803  1
  Cs  Cs137  1  0.49422935  0.42708960  0.54788803  1
  Cs  Cs138  1  0.49422935  0.92708960  0.04788803  1
  Cs  Cs139  1  0.49422935  0.92708960  0.54788803  1
  Cs  Cs140  1  0.82756269  0.42708960  0.04788803  1
  Cs  Cs141  1  0.82756269  0.42708960  0.54788803  1
  Cs  Cs142  1  0.82756269  0.92708960  0.04788803  1
  Cs  Cs143  1  0.82756269  0.92708960  0.54788803  1
  Si  Si144  1  0.27964567  0.31443415  0.18995978  1
  Si  Si145  1  0.27964567  0.31443415  0.68995978  1
  Si  Si146  1  0.27964567  0.81443415  0.18995978  1
  Si  Si147  1  0.27964567  0.81443415  0.68995978  1
  Si  Si148  1  0.61297900  0.31443415  0.18995978  1
  Si  Si149  1  0.61297900  0.31443415  0.68995978  1
  Si  Si150  1  0.61297900  0.81443415  0.18995978  1
  Si  Si151  1  0.61297900  0.81443415  0.68995978  1
  Si  Si152  1  0.94631233  0.31443415  0.18995978  1
  Si  Si153  1  0.94631233  0.31443415  0.68995978  1
  Si  Si154  1  0.94631233  0.81443415  0.18995978  1
  Si  Si155  1  0.94631233  0.81443415  0.68995978  1
  Si  Si156  1  0.27964567  0.43556585  0.43995978  1
  Si  Si157  1  0.27964567  0.43556585  0.93995978  1
  Si  Si158  1  0.27964567  0.93556585  0.43995978  1
  Si  Si159  1  0.27964567  0.93556585  0.93995978  1
  Si  Si160  1  0.61297900  0.43556585  0.43995978  1
  Si  Si161  1  0.61297900  0.43556585  0.93995978  1
  Si  Si162  1  0.61297900  0.93556585  0.43995978  1
  Si  Si163  1  0.61297900  0.93556585  0.93995978  1
  Si  Si164  1  0.94631233  0.43556585  0.43995978  1
  Si  Si165  1  0.94631233  0.43556585  0.93995978  1
  Si  Si166  1  0.94631233  0.93556585  0.43995978  1
  Si  Si167  1  0.94631233  0.93556585  0.93995978  1
  Si  Si168  1  0.05368767  0.18556585  0.31004022  1
  Si  Si169  1  0.05368767  0.18556585  0.81004022  1
  Si  Si170  1  0.05368767  0.68556585  0.31004022  1
  Si  Si171  1  0.05368767  0.68556585  0.81004022  1
  Si  Si172  1  0.38702100  0.18556585  0.31004022  1
  Si  Si173  1  0.38702100  0.18556585  0.81004022  1
  Si  Si174  1  0.38702100  0.68556585  0.31004022  1
  Si  Si175  1  0.38702100  0.68556585  0.81004022  1
  Si  Si176  1  0.72035433  0.18556585  0.31004022  1
  Si  Si177  1  0.72035433  0.18556585  0.81004022  1
  Si  Si178  1  0.72035433  0.68556585  0.31004022  1
  Si  Si179  1  0.72035433  0.68556585  0.81004022  1
  Si  Si180  1  0.05368767  0.06443415  0.06004022  1
  Si  Si181  1  0.05368767  0.06443415  0.56004022  1
  Si  Si182  1  0.05368767  0.56443415  0.06004022  1
  Si  Si183  1  0.05368767  0.56443415  0.56004022  1
  Si  Si184  1  0.38702100  0.06443415  0.06004022  1
  Si  Si185  1  0.38702100  0.06443415  0.56004022  1
  Si  Si186  1  0.38702100  0.56443415  0.06004022  1
  Si  Si187  1  0.38702100  0.56443415  0.56004022  1
  Si  Si188  1  0.72035433  0.06443415  0.06004022  1
  Si  Si189  1  0.72035433  0.06443415  0.56004022  1
  Si  Si190  1  0.72035433  0.56443415  0.06004022  1
  Si  Si191  1  0.72035433  0.56443415  0.56004022  1
  O  O192  1  0.33214121  0.13554187  0.03186920  1
  O  O193  1  0.33214121  0.13554187  0.53186920  1
  O  O194  1  0.33214121  0.63554187  0.03186920  1
  O  O195  1  0.33214121  0.63554187  0.53186920  1
  O  O196  1  0.66547454  0.13554187  0.03186920  1
  O  O197  1  0.66547454  0.13554187  0.53186920  1
  O  O198  1  0.66547454  0.63554187  0.03186920  1
  O  O199  1  0.66547454  0.63554187  0.53186920  1
  O  O200  1  0.99880788  0.13554187  0.03186920  1
  O  O201  1  0.99880788  0.13554187  0.53186920  1
  O  O202  1  0.99880788  0.63554187  0.03186920  1
  O  O203  1  0.99880788  0.63554187  0.53186920  1
  O  O204  1  0.00000000  0.00000000  0.00000000  1
  O  O205  1  0.00000000  0.00000000  0.50000000  1
  O  O206  1  0.00000000  0.50000000  0.00000000  1
  O  O207  1  0.00000000  0.50000000  0.50000000  1
  O  O208  1  0.33333333  0.00000000  0.00000000  1
  O  O209  1  0.33333333  0.00000000  0.50000000  1
  O  O210  1  0.33333333  0.50000000  0.00000000  1
  O  O211  1  0.33333333  0.50000000  0.50000000  1
  O  O212  1  0.66666667  0.00000000  0.00000000  1
  O  O213  1  0.66666667  0.00000000  0.50000000  1
  O  O214  1  0.66666667  0.50000000  0.00000000  1
  O  O215  1  0.66666667  0.50000000  0.50000000  1
  O  O216  1  0.00000000  0.25000000  0.25000000  1
  O  O217  1  -0.00000000  0.25000000  0.75000000  1
  O  O218  1  0.00000000  0.75000000  0.25000000  1
  O  O219  1  -0.00000000  0.75000000  0.75000000  1
  O  O220  1  0.33333333  0.25000000  0.25000000  1
  O  O221  1  0.33333333  0.25000000  0.75000000  1
  O  O222  1  0.33333333  0.75000000  0.25000000  1
  O  O223  1  0.33333333  0.75000000  0.75000000  1
  O  O224  1  0.66666667  0.25000000  0.25000000  1
  O  O225  1  0.66666667  0.25000000  0.75000000  1
  O  O226  1  0.66666667  0.75000000  0.25000000  1
  O  O227  1  0.66666667  0.75000000  0.75000000  1
  O  O228  1  0.25913730  0.46218410  0.36492142  1
  O  O229  1  0.25913730  0.46218410  0.86492142  1
  O  O230  1  0.25913730  0.96218410  0.36492142  1
  O  O231  1  0.25913730  0.96218410  0.86492142  1
  O  O232  1  0.59247064  0.46218410  0.36492142  1
  O  O233  1  0.59247064  0.46218410  0.86492142  1
  O  O234  1  0.59247064  0.96218410  0.36492142  1
  O  O235  1  0.59247064  0.96218410  0.86492142  1
  O  O236  1  0.92580397  0.46218410  0.36492142  1
  O  O237  1  0.92580397  0.46218410  0.86492142  1
  O  O238  1  0.92580397  0.96218410  0.36492142  1
  O  O239  1  0.92580397  0.96218410  0.86492142  1
  O  O240  1  0.00119212  0.38554187  0.21813080  1
  O  O241  1  0.00119212  0.38554187  0.71813080  1
  O  O242  1  0.00119212  0.88554187  0.21813080  1
  O  O243  1  0.00119212  0.88554187  0.71813080  1
  O  O244  1  0.33452546  0.38554187  0.21813080  1
  O  O245  1  0.33452546  0.38554187  0.71813080  1
  O  O246  1  0.33452546  0.88554187  0.21813080  1
  O  O247  1  0.33452546  0.88554187  0.71813080  1
  O  O248  1  0.66785879  0.38554187  0.21813080  1
  O  O249  1  0.66785879  0.38554187  0.71813080  1
  O  O250  1  0.66785879  0.88554187  0.21813080  1
  O  O251  1  0.66785879  0.88554187  0.71813080  1
  O  O252  1  0.00119212  0.36445813  0.46813080  1
  O  O253  1  0.00119212  0.36445813  0.96813080  1
  O  O254  1  0.00119212  0.86445813  0.46813080  1
  O  O255  1  0.00119212  0.86445813  0.96813080  1
  O  O256  1  0.33452546  0.36445813  0.46813080  1
  O  O257  1  0.33452546  0.36445813  0.96813080  1
  O  O258  1  0.33452546  0.86445813  0.46813080  1
  O  O259  1  0.33452546  0.86445813  0.96813080  1
  O  O260  1  0.66785879  0.36445813  0.46813080  1
  O  O261  1  0.66785879  0.36445813  0.96813080  1
  O  O262  1  0.66785879  0.86445813  0.46813080  1
  O  O263  1  0.66785879  0.86445813  0.96813080  1
  O  O264  1  0.33214121  0.11445813  0.28186920  1
  O  O265  1  0.33214121  0.11445813  0.78186920  1
  O  O266  1  0.33214121  0.61445813  0.28186920  1
  O  O267  1  0.33214121  0.61445813  0.78186920  1
  O  O268  1  0.66547454  0.11445813  0.28186920  1
  O  O269  1  0.66547454  0.11445813  0.78186920  1
  O  O270  1  0.66547454  0.61445813  0.28186920  1
  O  O271  1  0.66547454  0.61445813  0.78186920  1
  O  O272  1  0.99880788  0.11445813  0.28186920  1
  O  O273  1  0.99880788  0.11445813  0.78186920  1
  O  O274  1  0.99880788  0.61445813  0.28186920  1
  O  O275  1  0.99880788  0.61445813  0.78186920  1
  O  O276  1  0.20059940  0.32680177  0.18625315  1
  O  O277  1  0.20059940  0.32680177  0.68625315  1
  O  O278  1  0.20059940  0.82680177  0.18625315  1
  O  O279  1  0.20059940  0.82680177  0.68625315  1
  O  O280  1  0.53393273  0.32680177  0.18625315  1
  O  O281  1  0.53393273  0.32680177  0.68625315  1
  O  O282  1  0.53393273  0.82680177  0.18625315  1
  O  O283  1  0.53393273  0.82680177  0.68625315  1
  O  O284  1  0.86726606  0.32680177  0.18625315  1
  O  O285  1  0.86726606  0.32680177  0.68625315  1
  O  O286  1  0.86726606  0.82680177  0.18625315  1
  O  O287  1  0.86726606  0.82680177  0.68625315  1
  O  O288  1  0.13273394  0.07680177  0.06374685  1
  O  O289  1  0.13273394  0.07680177  0.56374685  1
  O  O290  1  0.13273394  0.57680177  0.06374685  1
  O  O291  1  0.13273394  0.57680177  0.56374685  1
  O  O292  1  0.46606727  0.07680177  0.06374685  1
  O  O293  1  0.46606727  0.07680177  0.56374685  1
  O  O294  1  0.46606727  0.57680177  0.06374685  1
  O  O295  1  0.46606727  0.57680177  0.56374685  1
  O  O296  1  0.79940060  0.07680177  0.06374685  1
  O  O297  1  0.79940060  0.07680177  0.56374685  1
  O  O298  1  0.79940060  0.57680177  0.06374685  1
  O  O299  1  0.79940060  0.57680177  0.56374685  1
  O  O300  1  0.13273394  0.17319823  0.31374685  1
  O  O301  1  0.13273394  0.17319823  0.81374685  1
  O  O302  1  0.13273394  0.67319823  0.31374685  1
  O  O303  1  0.13273394  0.67319823  0.81374685  1
  O  O304  1  0.46606727  0.17319823  0.31374685  1
  O  O305  1  0.46606727  0.17319823  0.81374685  1
  O  O306  1  0.46606727  0.67319823  0.31374685  1
  O  O307  1  0.46606727  0.67319823  0.81374685  1
  O  O308  1  0.79940060  0.17319823  0.31374685  1
  O  O309  1  0.79940060  0.17319823  0.81374685  1
  O  O310  1  0.79940060  0.67319823  0.31374685  1
  O  O311  1  0.79940060  0.67319823  0.81374685  1
  O  O312  1  0.20059940  0.42319823  0.43625315  1
  O  O313  1  0.20059940  0.42319823  0.93625315  1
  O  O314  1  0.20059940  0.92319823  0.43625315  1
  O  O315  1  0.20059940  0.92319823  0.93625315  1
  O  O316  1  0.53393273  0.42319823  0.43625315  1
  O  O317  1  0.53393273  0.42319823  0.93625315  1
  O  O318  1  0.53393273  0.92319823  0.43625315  1
  O  O319  1  0.53393273  0.92319823  0.93625315  1
  O  O320  1  0.86726606  0.42319823  0.43625315  1
  O  O321  1  0.86726606  0.42319823  0.93625315  1
  O  O322  1  0.86726606  0.92319823  0.43625315  1
  O  O323  1  0.86726606  0.92319823  0.93625315  1
  O  O324  1  0.25913730  0.28781590  0.11492142  1
  O  O325  1  0.25913730  0.28781590  0.61492142  1
  O  O326  1  0.25913730  0.78781590  0.11492142  1
  O  O327  1  0.25913730  0.78781590  0.61492142  1
  O  O328  1  0.59247064  0.28781590  0.11492142  1
  O  O329  1  0.59247064  0.28781590  0.61492142  1
  O  O330  1  0.59247064  0.78781590  0.11492142  1
  O  O331  1  0.59247064  0.78781590  0.61492142  1
  O  O332  1  0.92580397  0.28781590  0.11492142  1
  O  O333  1  0.92580397  0.28781590  0.61492142  1
  O  O334  1  0.92580397  0.78781590  0.11492142  1
  O  O335  1  0.92580397  0.78781590  0.61492142  1
  O  O336  1  0.07419603  0.03781590  0.13507858  1
  O  O337  1  0.07419603  0.03781590  0.63507858  1
  O  O338  1  0.07419603  0.53781590  0.13507858  1
  O  O339  1  0.07419603  0.53781590  0.63507858  1
  O  O340  1  0.40752936  0.03781590  0.13507858  1
  O  O341  1  0.40752936  0.03781590  0.63507858  1
  O  O342  1  0.40752936  0.53781590  0.13507858  1
  O  O343  1  0.40752936  0.53781590  0.63507858  1
  O  O344  1  0.74086270  0.03781590  0.13507858  1
  O  O345  1  0.74086270  0.03781590  0.63507858  1
  O  O346  1  0.74086270  0.53781590  0.13507858  1
  O  O347  1  0.74086270  0.53781590  0.63507858  1
  O  O348  1  0.07419603  0.21218410  0.38507858  1
  O  O349  1  0.07419603  0.21218410  0.88507858  1
  O  O350  1  0.07419603  0.71218410  0.38507858  1
  O  O351  1  0.07419603  0.71218410  0.88507858  1
  O  O352  1  0.40752936  0.21218410  0.38507858  1
  O  O353  1  0.40752936  0.21218410  0.88507858  1
  O  O354  1  0.40752936  0.71218410  0.38507858  1
  O  O355  1  0.40752936  0.71218410  0.88507858  1
  O  O356  1  0.74086270  0.21218410  0.38507858  1
  O  O357  1  0.74086270  0.21218410  0.88507858  1
  O  O358  1  0.74086270  0.71218410  0.38507858  1
  O  O359  1  0.74086270  0.71218410  0.88507858  1
