# generated using pymatgen
data_Sr2CdWO6
_symmetry_space_group_name_H-M   'P 1'
_cell_length_a   17.12731362
_cell_length_b   17.60108567
_cell_length_c   19.84603875
_cell_angle_alpha   90.00000000
_cell_angle_beta   125.15734859
_cell_angle_gamma   90.00000000
_symmetry_Int_Tables_number   1
_chemical_formula_structural   Sr2CdWO6
_chemical_formula_sum   'Sr72 Cd36 W36 O216'
_cell_volume   4891.35848288
_cell_formula_units_Z   36
loop_
 _symmetry_equiv_pos_site_id
 _symmetry_equiv_pos_as_xyz
  1  'x, y, z'
loop_
 _atom_site_type_symbol
 _atom_site_label
 _atom_site_symmetry_multiplicity
 _atom_site_fract_x
 _atom_site_fract_y
 _atom_site_fract_z
 _atom_site_occupancy
  Sr  Sr0  1  0.08032063  0.31732671  0.37593404  1
  Sr  Sr1  1  0.08032063  0.31732671  0.87593404  1
  Sr  Sr2  1  0.08032063  0.65066004  0.37593404  1
  Sr  Sr3  1  0.08032063  0.65066004  0.87593404  1
  Sr  Sr4  1  0.08032063  0.98399337  0.37593404  1
  Sr  Sr5  1  0.08032063  0.98399337  0.87593404  1
  Sr  Sr6  1  0.41365397  0.31732671  0.37593404  1
  Sr  Sr7  1  0.41365397  0.31732671  0.87593404  1
  Sr  Sr8  1  0.41365397  0.65066004  0.37593404  1
  Sr  Sr9  1  0.41365397  0.65066004  0.87593404  1
  Sr  Sr10  1  0.41365397  0.98399337  0.37593404  1
  Sr  Sr11  1  0.41365397  0.98399337  0.87593404  1
  Sr  Sr12  1  0.74698730  0.31732671  0.37593404  1
  Sr  Sr13  1  0.74698730  0.31732671  0.87593404  1
  Sr  Sr14  1  0.74698730  0.65066004  0.37593404  1
  Sr  Sr15  1  0.74698730  0.65066004  0.87593404  1
  Sr  Sr16  1  0.74698730  0.98399337  0.37593404  1
  Sr  Sr17  1  0.74698730  0.98399337  0.87593404  1
  Sr  Sr18  1  0.25301270  0.15066004  0.37406596  1
  Sr  Sr19  1  0.25301270  0.15066004  0.87406596  1
  Sr  Sr20  1  0.25301270  0.48399337  0.37406596  1
  Sr  Sr21  1  0.25301270  0.48399337  0.87406596  1
  Sr  Sr22  1  0.25301270  0.81732671  0.37406596  1
  Sr  Sr23  1  0.25301270  0.81732671  0.87406596  1
  Sr  Sr24  1  0.58634603  0.15066004  0.37406596  1
  Sr  Sr25  1  0.58634603  0.15066004  0.87406596  1
  Sr  Sr26  1  0.58634603  0.48399337  0.37406596  1
  Sr  Sr27  1  0.58634603  0.48399337  0.87406596  1
  Sr  Sr28  1  0.58634603  0.81732671  0.37406596  1
  Sr  Sr29  1  0.58634603  0.81732671  0.87406596  1
  Sr  Sr30  1  0.91967937  0.15066004  0.37406596  1
  Sr  Sr31  1  0.91967937  0.15066004  0.87406596  1
  Sr  Sr32  1  0.91967937  0.48399337  0.37406596  1
  Sr  Sr33  1  0.91967937  0.48399337  0.87406596  1
  Sr  Sr34  1  0.91967937  0.81732671  0.37406596  1
  Sr  Sr35  1  0.91967937  0.81732671  0.87406596  1
  Sr  Sr36  1  0.25301270  0.01600663  0.12406596  1
  Sr  Sr37  1  0.25301270  0.01600663  0.62406596  1
  Sr  Sr38  1  0.25301270  0.34933996  0.12406596  1
  Sr  Sr39  1  0.25301270  0.34933996  0.62406596  1
  Sr  Sr40  1  0.25301270  0.68267329  0.12406596  1
  Sr  Sr41  1  0.25301270  0.68267329  0.62406596  1
  Sr  Sr42  1  0.58634603  0.01600663  0.12406596  1
  Sr  Sr43  1  0.58634603  0.01600663  0.62406596  1
  Sr  Sr44  1  0.58634603  0.34933996  0.12406596  1
  Sr  Sr45  1  0.58634603  0.34933996  0.62406596  1
  Sr  Sr46  1  0.58634603  0.68267329  0.12406596  1
  Sr  Sr47  1  0.58634603  0.68267329  0.62406596  1
  Sr  Sr48  1  0.91967937  0.01600663  0.12406596  1
  Sr  Sr49  1  0.91967937  0.01600663  0.62406596  1
  Sr  Sr50  1  0.91967937  0.34933996  0.12406596  1
  Sr  Sr51  1  0.91967937  0.34933996  0.62406596  1
  Sr  Sr52  1  0.91967937  0.68267329  0.12406596  1
  Sr  Sr53  1  0.91967937  0.68267329  0.62406596  1
  Sr  Sr54  1  0.08032063  0.18267329  0.12593404  1
  Sr  Sr55  1  0.08032063  0.18267329  0.62593404  1
  Sr  Sr56  1  0.08032063  0.51600663  0.12593404  1
  Sr  Sr57  1  0.08032063  0.51600663  0.62593404  1
  Sr  Sr58  1  0.08032063  0.84933996  0.12593404  1
  Sr  Sr59  1  0.08032063  0.84933996  0.62593404  1
  Sr  Sr60  1  0.41365397  0.18267329  0.12593404  1
  Sr  Sr61  1  0.41365397  0.18267329  0.62593404  1
  Sr  Sr62  1  0.41365397  0.51600663  0.12593404  1
  Sr  Sr63  1  0.41365397  0.51600663  0.62593404  1
  Sr  Sr64  1  0.41365397  0.84933996  0.12593404  1
  Sr  Sr65  1  0.41365397  0.84933996  0.62593404  1
  Sr  Sr66  1  0.74698730  0.18267329  0.12593404  1
  Sr  Sr67  1  0.74698730  0.18267329  0.62593404  1
  Sr  Sr68  1  0.74698730  0.51600663  0.12593404  1
  Sr  Sr69  1  0.74698730  0.51600663  0.62593404  1
  Sr  Sr70  1  0.74698730  0.84933996  0.12593404  1
  Sr  Sr71  1  0.74698730  0.84933996  0.62593404  1
  Cd  Cd72  1  0.16666667  0.00000000  0.25000000  1
  Cd  Cd73  1  0.16666667  0.00000000  0.75000000  1
  Cd  Cd74  1  0.16666667  0.33333333  0.25000000  1
  Cd  Cd75  1  0.16666667  0.33333333  0.75000000  1
  Cd  Cd76  1  0.16666667  0.66666667  0.25000000  1
  Cd  Cd77  1  0.16666667  0.66666667  0.75000000  1
  Cd  Cd78  1  0.50000000  0.00000000  0.25000000  1
  Cd  Cd79  1  0.50000000  0.00000000  0.75000000  1
  Cd  Cd80  1  0.50000000  0.33333333  0.25000000  1
  Cd  Cd81  1  0.50000000  0.33333333  0.75000000  1
  Cd  Cd82  1  0.50000000  0.66666667  0.25000000  1
  Cd  Cd83  1  0.50000000  0.66666667  0.75000000  1
  Cd  Cd84  1  0.83333333  0.00000000  0.25000000  1
  Cd  Cd85  1  0.83333333  0.00000000  0.75000000  1
  Cd  Cd86  1  0.83333333  0.33333333  0.25000000  1
  Cd  Cd87  1  0.83333333  0.33333333  0.75000000  1
  Cd  Cd88  1  0.83333333  0.66666667  0.25000000  1
  Cd  Cd89  1  0.83333333  0.66666667  0.75000000  1
  Cd  Cd90  1  0.16666667  0.16666667  0.00000000  1
  Cd  Cd91  1  0.16666667  0.16666667  0.50000000  1
  Cd  Cd92  1  0.16666667  0.50000000  0.00000000  1
  Cd  Cd93  1  0.16666667  0.50000000  0.50000000  1
  Cd  Cd94  1  0.16666667  0.83333333  0.00000000  1
  Cd  Cd95  1  0.16666667  0.83333333  0.50000000  1
  Cd  Cd96  1  0.50000000  0.16666667  0.00000000  1
  Cd  Cd97  1  0.50000000  0.16666667  0.50000000  1
  Cd  Cd98  1  0.50000000  0.50000000  0.00000000  1
  Cd  Cd99  1  0.50000000  0.50000000  0.50000000  1
  Cd  Cd100  1  0.50000000  0.83333333  0.00000000  1
  Cd  Cd101  1  0.50000000  0.83333333  0.50000000  1
  Cd  Cd102  1  0.83333333  0.16666667  0.00000000  1
  Cd  Cd103  1  0.83333333  0.16666667  0.50000000  1
  Cd  Cd104  1  0.83333333  0.50000000  0.00000000  1
  Cd  Cd105  1  0.83333333  0.50000000  0.50000000  1
  Cd  Cd106  1  0.83333333  0.83333333  0.00000000  1
  Cd  Cd107  1  0.83333333  0.83333333  0.50000000  1
  W  W108  1  0.00000000  0.16666667  0.25000000  1
  W  W109  1  0.00000000  0.16666667  0.75000000  1
  W  W110  1  0.00000000  0.50000000  0.25000000  1
  W  W111  1  0.00000000  0.50000000  0.75000000  1
  W  W112  1  0.00000000  0.83333333  0.25000000  1
  W  W113  1  0.00000000  0.83333333  0.75000000  1
  W  W114  1  0.33333333  0.16666667  0.25000000  1
  W  W115  1  0.33333333  0.16666667  0.75000000  1
  W  W116  1  0.33333333  0.50000000  0.25000000  1
  W  W117  1  0.33333333  0.50000000  0.75000000  1
  W  W118  1  0.33333333  0.83333333  0.25000000  1
  W  W119  1  0.33333333  0.83333333  0.75000000  1
  W  W120  1  0.66666667  0.16666667  0.25000000  1
  W  W121  1  0.66666667  0.16666667  0.75000000  1
  W  W122  1  0.66666667  0.50000000  0.25000000  1
  W  W123  1  0.66666667  0.50000000  0.75000000  1
  W  W124  1  0.66666667  0.83333333  0.25000000  1
  W  W125  1  0.66666667  0.83333333  0.75000000  1
  W  W126  1  0.00000000  0.00000000  0.00000000  1
  W  W127  1  0.00000000  0.00000000  0.50000000  1
  W  W128  1  0.00000000  0.33333333  0.00000000  1
  W  W129  1  0.00000000  0.33333333  0.50000000  1
  W  W130  1  0.00000000  0.66666667  0.00000000  1
  W  W131  1  0.00000000  0.66666667  0.50000000  1
  W  W132  1  0.33333333  0.00000000  0.00000000  1
  W  W133  1  0.33333333  0.00000000  0.50000000  1
  W  W134  1  0.33333333  0.33333333  0.00000000  1
  W  W135  1  0.33333333  0.33333333  0.50000000  1
  W  W136  1  0.33333333  0.66666667  0.00000000  1
  W  W137  1  0.33333333  0.66666667  0.50000000  1
  W  W138  1  0.66666667  0.00000000  0.00000000  1
  W  W139  1  0.66666667  0.00000000  0.50000000  1
  W  W140  1  0.66666667  0.33333333  0.00000000  1
  W  W141  1  0.66666667  0.33333333  0.50000000  1
  W  W142  1  0.66666667  0.66666667  0.00000000  1
  W  W143  1  0.66666667  0.66666667  0.50000000  1
  O  O144  1  0.28977885  0.07670669  0.27522287  1
  O  O145  1  0.28977885  0.07670669  0.77522287  1
  O  O146  1  0.28977885  0.41004002  0.27522287  1
  O  O147  1  0.28977885  0.41004002  0.77522287  1
  O  O148  1  0.28977885  0.74337336  0.27522287  1
  O  O149  1  0.28977885  0.74337336  0.77522287  1
  O  O150  1  0.62311218  0.07670669  0.27522287  1
  O  O151  1  0.62311218  0.07670669  0.77522287  1
  O  O152  1  0.62311218  0.41004002  0.27522287  1
  O  O153  1  0.62311218  0.41004002  0.77522287  1
  O  O154  1  0.62311218  0.74337336  0.27522287  1
  O  O155  1  0.62311218  0.74337336  0.77522287  1
  O  O156  1  0.95644551  0.07670669  0.27522287  1
  O  O157  1  0.95644551  0.07670669  0.77522287  1
  O  O158  1  0.95644551  0.41004002  0.27522287  1
  O  O159  1  0.95644551  0.41004002  0.77522287  1
  O  O160  1  0.95644551  0.74337336  0.27522287  1
  O  O161  1  0.95644551  0.74337336  0.77522287  1
  O  O162  1  0.04355449  0.24337336  0.47477713  1
  O  O163  1  0.04355449  0.24337336  0.97477713  1
  O  O164  1  0.04355449  0.57670669  0.47477713  1
  O  O165  1  0.04355449  0.57670669  0.97477713  1
  O  O166  1  0.04355449  0.91004002  0.47477713  1
  O  O167  1  0.04355449  0.91004002  0.97477713  1
  O  O168  1  0.37688782  0.24337336  0.47477713  1
  O  O169  1  0.37688782  0.24337336  0.97477713  1
  O  O170  1  0.37688782  0.57670669  0.47477713  1
  O  O171  1  0.37688782  0.57670669  0.97477713  1
  O  O172  1  0.37688782  0.91004002  0.47477713  1
  O  O173  1  0.37688782  0.91004002  0.97477713  1
  O  O174  1  0.71022115  0.24337336  0.47477713  1
  O  O175  1  0.71022115  0.24337336  0.97477713  1
  O  O176  1  0.71022115  0.57670669  0.47477713  1
  O  O177  1  0.71022115  0.57670669  0.97477713  1
  O  O178  1  0.71022115  0.91004002  0.47477713  1
  O  O179  1  0.71022115  0.91004002  0.97477713  1
  O  O180  1  0.04355449  0.25662664  0.22477713  1
  O  O181  1  0.04355449  0.25662664  0.72477713  1
  O  O182  1  0.04355449  0.58995998  0.22477713  1
  O  O183  1  0.04355449  0.58995998  0.72477713  1
  O  O184  1  0.04355449  0.92329331  0.22477713  1
  O  O185  1  0.04355449  0.92329331  0.72477713  1
  O  O186  1  0.37688782  0.25662664  0.22477713  1
  O  O187  1  0.37688782  0.25662664  0.72477713  1
  O  O188  1  0.37688782  0.58995998  0.22477713  1
  O  O189  1  0.37688782  0.58995998  0.72477713  1
  O  O190  1  0.37688782  0.92329331  0.22477713  1
  O  O191  1  0.37688782  0.92329331  0.72477713  1
  O  O192  1  0.71022115  0.25662664  0.22477713  1
  O  O193  1  0.71022115  0.25662664  0.72477713  1
  O  O194  1  0.71022115  0.58995998  0.22477713  1
  O  O195  1  0.71022115  0.58995998  0.72477713  1
  O  O196  1  0.71022115  0.92329331  0.22477713  1
  O  O197  1  0.71022115  0.92329331  0.72477713  1
  O  O198  1  0.28977885  0.08995998  0.02522287  1
  O  O199  1  0.28977885  0.08995998  0.52522287  1
  O  O200  1  0.28977885  0.42329331  0.02522287  1
  O  O201  1  0.28977885  0.42329331  0.52522287  1
  O  O202  1  0.28977885  0.75662664  0.02522287  1
  O  O203  1  0.28977885  0.75662664  0.52522287  1
  O  O204  1  0.62311218  0.08995998  0.02522287  1
  O  O205  1  0.62311218  0.08995998  0.52522287  1
  O  O206  1  0.62311218  0.42329331  0.02522287  1
  O  O207  1  0.62311218  0.42329331  0.52522287  1
  O  O208  1  0.62311218  0.75662664  0.02522287  1
  O  O209  1  0.62311218  0.75662664  0.52522287  1
  O  O210  1  0.95644551  0.08995998  0.02522287  1
  O  O211  1  0.95644551  0.08995998  0.52522287  1
  O  O212  1  0.95644551  0.42329331  0.02522287  1
  O  O213  1  0.95644551  0.42329331  0.52522287  1
  O  O214  1  0.95644551  0.75662664  0.02522287  1
  O  O215  1  0.95644551  0.75662664  0.52522287  1
  O  O216  1  0.25591938  0.22853090  0.27039377  1
  O  O217  1  0.25591938  0.22853090  0.77039377  1
  O  O218  1  0.25591938  0.56186424  0.27039377  1
  O  O219  1  0.25591938  0.56186424  0.77039377  1
  O  O220  1  0.25591938  0.89519757  0.27039377  1
  O  O221  1  0.25591938  0.89519757  0.77039377  1
  O  O222  1  0.58925271  0.22853090  0.27039377  1
  O  O223  1  0.58925271  0.22853090  0.77039377  1
  O  O224  1  0.58925271  0.56186424  0.27039377  1
  O  O225  1  0.58925271  0.56186424  0.77039377  1
  O  O226  1  0.58925271  0.89519757  0.27039377  1
  O  O227  1  0.58925271  0.89519757  0.77039377  1
  O  O228  1  0.92258604  0.22853090  0.27039377  1
  O  O229  1  0.92258604  0.22853090  0.77039377  1
  O  O230  1  0.92258604  0.56186424  0.27039377  1
  O  O231  1  0.92258604  0.56186424  0.77039377  1
  O  O232  1  0.92258604  0.89519757  0.27039377  1
  O  O233  1  0.92258604  0.89519757  0.77039377  1
  O  O234  1  0.07741396  0.06186424  0.47960623  1
  O  O235  1  0.07741396  0.06186424  0.97960623  1
  O  O236  1  0.07741396  0.39519757  0.47960623  1
  O  O237  1  0.07741396  0.39519757  0.97960623  1
  O  O238  1  0.07741396  0.72853090  0.47960623  1
  O  O239  1  0.07741396  0.72853090  0.97960623  1
  O  O240  1  0.41074729  0.06186424  0.47960623  1
  O  O241  1  0.41074729  0.06186424  0.97960623  1
  O  O242  1  0.41074729  0.39519757  0.47960623  1
  O  O243  1  0.41074729  0.39519757  0.97960623  1
  O  O244  1  0.41074729  0.72853090  0.47960623  1
  O  O245  1  0.41074729  0.72853090  0.97960623  1
  O  O246  1  0.74408062  0.06186424  0.47960623  1
  O  O247  1  0.74408062  0.06186424  0.97960623  1
  O  O248  1  0.74408062  0.39519757  0.47960623  1
  O  O249  1  0.74408062  0.39519757  0.97960623  1
  O  O250  1  0.74408062  0.72853090  0.47960623  1
  O  O251  1  0.74408062  0.72853090  0.97960623  1
  O  O252  1  0.07741396  0.10480243  0.22960623  1
  O  O253  1  0.07741396  0.10480243  0.72960623  1
  O  O254  1  0.07741396  0.43813576  0.22960623  1
  O  O255  1  0.07741396  0.43813576  0.72960623  1
  O  O256  1  0.07741396  0.77146910  0.22960623  1
  O  O257  1  0.07741396  0.77146910  0.72960623  1
  O  O258  1  0.41074729  0.10480243  0.22960623  1
  O  O259  1  0.41074729  0.10480243  0.72960623  1
  O  O260  1  0.41074729  0.43813576  0.22960623  1
  O  O261  1  0.41074729  0.43813576  0.72960623  1
  O  O262  1  0.41074729  0.77146910  0.22960623  1
  O  O263  1  0.41074729  0.77146910  0.72960623  1
  O  O264  1  0.74408062  0.10480243  0.22960623  1
  O  O265  1  0.74408062  0.10480243  0.72960623  1
  O  O266  1  0.74408062  0.43813576  0.22960623  1
  O  O267  1  0.74408062  0.43813576  0.72960623  1
  O  O268  1  0.74408062  0.77146910  0.22960623  1
  O  O269  1  0.74408062  0.77146910  0.72960623  1
  O  O270  1  0.25591938  0.27146910  0.02039377  1
  O  O271  1  0.25591938  0.27146910  0.52039377  1
  O  O272  1  0.25591938  0.60480243  0.02039377  1
  O  O273  1  0.25591938  0.60480243  0.52039377  1
  O  O274  1  0.25591938  0.93813576  0.02039377  1
  O  O275  1  0.25591938  0.93813576  0.52039377  1
  O  O276  1  0.58925271  0.27146910  0.02039377  1
  O  O277  1  0.58925271  0.27146910  0.52039377  1
  O  O278  1  0.58925271  0.60480243  0.02039377  1
  O  O279  1  0.58925271  0.60480243  0.52039377  1
  O  O280  1  0.58925271  0.93813576  0.02039377  1
  O  O281  1  0.58925271  0.93813576  0.52039377  1
  O  O282  1  0.92258604  0.27146910  0.02039377  1
  O  O283  1  0.92258604  0.27146910  0.52039377  1
  O  O284  1  0.92258604  0.60480243  0.02039377  1
  O  O285  1  0.92258604  0.60480243  0.52039377  1
  O  O286  1  0.92258604  0.93813576  0.02039377  1
  O  O287  1  0.92258604  0.93813576  0.52039377  1
  O  O288  1  0.22816369  0.00999690  0.38562556  1
  O  O289  1  0.22816369  0.00999690  0.88562556  1
  O  O290  1  0.22816369  0.34333023  0.38562556  1
  O  O291  1  0.22816369  0.34333023  0.88562556  1
  O  O292  1  0.22816369  0.67666357  0.38562556  1
  O  O293  1  0.22816369  0.67666357  0.88562556  1
  O  O294  1  0.56149702  0.00999690  0.38562556  1
  O  O295  1  0.56149702  0.00999690  0.88562556  1
  O  O296  1  0.56149702  0.34333023  0.38562556  1
  O  O297  1  0.56149702  0.34333023  0.88562556  1
  O  O298  1  0.56149702  0.67666357  0.38562556  1
  O  O299  1  0.56149702  0.67666357  0.88562556  1
  O  O300  1  0.89483035  0.00999690  0.38562556  1
  O  O301  1  0.89483035  0.00999690  0.88562556  1
  O  O302  1  0.89483035  0.34333023  0.38562556  1
  O  O303  1  0.89483035  0.34333023  0.88562556  1
  O  O304  1  0.89483035  0.67666357  0.38562556  1
  O  O305  1  0.89483035  0.67666357  0.88562556  1
  O  O306  1  0.10516965  0.17666357  0.36437444  1
  O  O307  1  0.10516965  0.17666357  0.86437444  1
  O  O308  1  0.10516965  0.50999690  0.36437444  1
  O  O309  1  0.10516965  0.50999690  0.86437444  1
  O  O310  1  0.10516965  0.84333023  0.36437444  1
  O  O311  1  0.10516965  0.84333023  0.86437444  1
  O  O312  1  0.43850298  0.17666357  0.36437444  1
  O  O313  1  0.43850298  0.17666357  0.86437444  1
  O  O314  1  0.43850298  0.50999690  0.36437444  1
  O  O315  1  0.43850298  0.50999690  0.86437444  1
  O  O316  1  0.43850298  0.84333023  0.36437444  1
  O  O317  1  0.43850298  0.84333023  0.86437444  1
  O  O318  1  0.77183631  0.17666357  0.36437444  1
  O  O319  1  0.77183631  0.17666357  0.86437444  1
  O  O320  1  0.77183631  0.50999690  0.36437444  1
  O  O321  1  0.77183631  0.50999690  0.86437444  1
  O  O322  1  0.77183631  0.84333023  0.36437444  1
  O  O323  1  0.77183631  0.84333023  0.86437444  1
  O  O324  1  0.10516965  0.32333643  0.11437444  1
  O  O325  1  0.10516965  0.32333643  0.61437444  1
  O  O326  1  0.10516965  0.65666977  0.11437444  1
  O  O327  1  0.10516965  0.65666977  0.61437444  1
  O  O328  1  0.10516965  0.99000310  0.11437444  1
  O  O329  1  0.10516965  0.99000310  0.61437444  1
  O  O330  1  0.43850298  0.32333643  0.11437444  1
  O  O331  1  0.43850298  0.32333643  0.61437444  1
  O  O332  1  0.43850298  0.65666977  0.11437444  1
  O  O333  1  0.43850298  0.65666977  0.61437444  1
  O  O334  1  0.43850298  0.99000310  0.11437444  1
  O  O335  1  0.43850298  0.99000310  0.61437444  1
  O  O336  1  0.77183631  0.32333643  0.11437444  1
  O  O337  1  0.77183631  0.32333643  0.61437444  1
  O  O338  1  0.77183631  0.65666977  0.11437444  1
  O  O339  1  0.77183631  0.65666977  0.61437444  1
  O  O340  1  0.77183631  0.99000310  0.11437444  1
  O  O341  1  0.77183631  0.99000310  0.61437444  1
  O  O342  1  0.22816369  0.15666977  0.13562556  1
  O  O343  1  0.22816369  0.15666977  0.63562556  1
  O  O344  1  0.22816369  0.49000310  0.13562556  1
  O  O345  1  0.22816369  0.49000310  0.63562556  1
  O  O346  1  0.22816369  0.82333643  0.13562556  1
  O  O347  1  0.22816369  0.82333643  0.63562556  1
  O  O348  1  0.56149702  0.15666977  0.13562556  1
  O  O349  1  0.56149702  0.15666977  0.63562556  1
  O  O350  1  0.56149702  0.49000310  0.13562556  1
  O  O351  1  0.56149702  0.49000310  0.63562556  1
  O  O352  1  0.56149702  0.82333643  0.13562556  1
  O  O353  1  0.56149702  0.82333643  0.63562556  1
  O  O354  1  0.89483035  0.15666977  0.13562556  1
  O  O355  1  0.89483035  0.15666977  0.63562556  1
  O  O356  1  0.89483035  0.49000310  0.13562556  1
  O  O357  1  0.89483035  0.49000310  0.63562556  1
  O  O358  1  0.89483035  0.82333643  0.13562556  1
  O  O359  1  0.89483035  0.82333643  0.63562556  1
