# generated using pymatgen
data_Li5AuO4
_symmetry_space_group_name_H-M   'P 1'
_cell_length_a   9.42908058
_cell_length_b   9.41608700
_cell_length_c   9.42275479
_cell_angle_alpha   90.00000000
_cell_angle_beta   103.02829887
_cell_angle_gamma   90.00000000
_symmetry_Int_Tables_number   1
_chemical_formula_structural   Li5AuO4
_chemical_formula_sum   'Li40 Au8 O32'
_cell_volume   815.06464389
_cell_formula_units_Z   8
loop_
 _symmetry_equiv_pos_site_id
 _symmetry_equiv_pos_as_xyz
  1  'x, y, z'
loop_
 _atom_site_type_symbol
 _atom_site_label
 _atom_site_symmetry_multiplicity
 _atom_site_fract_x
 _atom_site_fract_y
 _atom_site_fract_z
 _atom_site_occupancy
  Li  Li0  1  0.25000000  0.29280655  0.25000000  1
  Li  Li1  1  0.25000000  0.29280655  0.75000000  1
  Li  Li2  1  0.75000000  0.29280655  0.25000000  1
  Li  Li3  1  0.75000000  0.29280655  0.75000000  1
  Li  Li4  1  0.50000000  0.79280655  0.25000000  1
  Li  Li5  1  0.50000000  0.79280655  0.75000000  1
  Li  Li6  1  1.00000000  0.79280655  0.25000000  1
  Li  Li7  1  1.00000000  0.79280655  0.75000000  1
  Li  Li8  1  0.25000000  -0.21688258  0.00000000  1
  Li  Li9  1  0.25000000  -0.21688258  0.50000000  1
  Li  Li10  1  0.75000000  -0.21688258  0.00000000  1
  Li  Li11  1  0.75000000  -0.21688258  0.50000000  1
  Li  Li12  1  0.50000000  0.28311742  0.00000000  1
  Li  Li13  1  0.50000000  0.28311742  0.50000000  1
  Li  Li14  1  1.00000000  0.28311742  0.00000000  1
  Li  Li15  1  1.00000000  0.28311742  0.50000000  1
  Li  Li16  1  0.25000000  0.21688258  0.00000000  1
  Li  Li17  1  0.25000000  0.21688258  0.50000000  1
  Li  Li18  1  0.75000000  0.21688258  0.00000000  1
  Li  Li19  1  0.75000000  0.21688258  0.50000000  1
  Li  Li20  1  0.50000000  0.71688258  0.00000000  1
  Li  Li21  1  0.50000000  0.71688258  0.50000000  1
  Li  Li22  1  1.00000000  0.71688258  0.00000000  1
  Li  Li23  1  1.00000000  0.71688258  0.50000000  1
  Li  Li24  1  0.25000000  -0.29280655  0.25000000  1
  Li  Li25  1  0.25000000  -0.29280655  0.75000000  1
  Li  Li26  1  0.75000000  -0.29280655  0.25000000  1
  Li  Li27  1  0.75000000  -0.29280655  0.75000000  1
  Li  Li28  1  0.50000000  0.20719345  0.25000000  1
  Li  Li29  1  0.50000000  0.20719345  0.75000000  1
  Li  Li30  1  1.00000000  0.20719345  0.25000000  1
  Li  Li31  1  1.00000000  0.20719345  0.75000000  1
  Li  Li32  1  0.00000000  0.00000000  0.00000000  1
  Li  Li33  1  -0.00000000  0.00000000  0.50000000  1
  Li  Li34  1  0.50000000  0.00000000  0.00000000  1
  Li  Li35  1  0.50000000  0.00000000  0.50000000  1
  Li  Li36  1  0.25000000  0.50000000  0.00000000  1
  Li  Li37  1  0.25000000  0.50000000  0.50000000  1
  Li  Li38  1  0.75000000  0.50000000  0.00000000  1
  Li  Li39  1  0.75000000  0.50000000  0.50000000  1
  Au  Au40  1  0.25000000  0.00000000  0.25000000  1
  Au  Au41  1  0.25000000  0.00000000  0.75000000  1
  Au  Au42  1  0.75000000  0.00000000  0.25000000  1
  Au  Au43  1  0.75000000  0.00000000  0.75000000  1
  Au  Au44  1  0.50000000  0.50000000  0.25000000  1
  Au  Au45  1  0.50000000  0.50000000  0.75000000  1
  Au  Au46  1  1.00000000  0.50000000  0.25000000  1
  Au  Au47  1  1.00000000  0.50000000  0.75000000  1
  O  O48  1  0.37213075  -0.14733493  0.37491660  1
  O  O49  1  0.37213075  -0.14733493  0.87491660  1
  O  O50  1  0.87213075  -0.14733493  0.37491660  1
  O  O51  1  0.87213075  -0.14733493  0.87491660  1
  O  O52  1  0.62213075  0.35266507  0.37491660  1
  O  O53  1  0.62213075  0.35266507  0.87491660  1
  O  O54  1  1.12213075  0.35266507  0.37491660  1
  O  O55  1  1.12213075  0.35266507  0.87491660  1
  O  O56  1  0.12786925  -0.14733493  0.12508340  1
  O  O57  1  0.12786925  -0.14733493  0.62508340  1
  O  O58  1  0.62786925  -0.14733493  0.12508340  1
  O  O59  1  0.62786925  -0.14733493  0.62508340  1
  O  O60  1  0.37786925  0.35266507  0.12508340  1
  O  O61  1  0.37786925  0.35266507  0.62508340  1
  O  O62  1  0.87786925  0.35266507  0.12508340  1
  O  O63  1  0.87786925  0.35266507  0.62508340  1
  O  O64  1  0.37213075  0.14733493  0.37491660  1
  O  O65  1  0.37213075  0.14733493  0.87491660  1
  O  O66  1  0.87213075  0.14733493  0.37491660  1
  O  O67  1  0.87213075  0.14733493  0.87491660  1
  O  O68  1  0.62213075  0.64733493  0.37491660  1
  O  O69  1  0.62213075  0.64733493  0.87491660  1
  O  O70  1  1.12213075  0.64733493  0.37491660  1
  O  O71  1  1.12213075  0.64733493  0.87491660  1
  O  O72  1  0.12786925  0.14733493  0.12508340  1
  O  O73  1  0.12786925  0.14733493  0.62508340  1
  O  O74  1  0.62786925  0.14733493  0.12508340  1
  O  O75  1  0.62786925  0.14733493  0.62508340  1
  O  O76  1  0.37786925  0.64733493  0.12508340  1
  O  O77  1  0.37786925  0.64733493  0.62508340  1
  O  O78  1  0.87786925  0.64733493  0.12508340  1
  O  O79  1  0.87786925  0.64733493  0.62508340  1
