# generated using pymatgen
data_LiSbO3
_symmetry_space_group_name_H-M   'P 1'
_cell_length_a   15.65830958
_cell_length_b   14.75916476
_cell_length_c   17.05552706
_cell_angle_alpha   90.00000000
_cell_angle_beta   90.00000000
_cell_angle_gamma   90.00000000
_symmetry_Int_Tables_number   1
_chemical_formula_structural   LiSbO3
_chemical_formula_sum   'Li72 Sb72 O216'
_cell_volume   3941.59320579
_cell_formula_units_Z   72
loop_
 _symmetry_equiv_pos_site_id
 _symmetry_equiv_pos_as_xyz
  1  'x, y, z'
loop_
 _atom_site_type_symbol
 _atom_site_label
 _atom_site_symmetry_multiplicity
 _atom_site_fract_x
 _atom_site_fract_y
 _atom_site_fract_z
 _atom_site_occupancy
  Li  Li0  1  0.25000000  0.00000000  0.15312927  1
  Li  Li1  1  0.25000000  0.00000000  0.65312927  1
  Li  Li2  1  0.25000000  0.33333333  0.15312927  1
  Li  Li3  1  0.25000000  0.33333333  0.65312927  1
  Li  Li4  1  0.25000000  0.66666667  0.15312927  1
  Li  Li5  1  0.25000000  0.66666667  0.65312927  1
  Li  Li6  1  0.58333333  0.00000000  0.15312927  1
  Li  Li7  1  0.58333333  0.00000000  0.65312927  1
  Li  Li8  1  0.58333333  0.33333333  0.15312927  1
  Li  Li9  1  0.58333333  0.33333333  0.65312927  1
  Li  Li10  1  0.58333333  0.66666667  0.15312927  1
  Li  Li11  1  0.58333333  0.66666667  0.65312927  1
  Li  Li12  1  0.91666667  0.00000000  0.15312927  1
  Li  Li13  1  0.91666667  0.00000000  0.65312927  1
  Li  Li14  1  0.91666667  0.33333333  0.15312927  1
  Li  Li15  1  0.91666667  0.33333333  0.65312927  1
  Li  Li16  1  0.91666667  0.66666667  0.15312927  1
  Li  Li17  1  0.91666667  0.66666667  0.65312927  1
  Li  Li18  1  0.25000000  0.16666667  0.09687073  1
  Li  Li19  1  0.25000000  0.16666667  0.59687073  1
  Li  Li20  1  0.25000000  0.50000000  0.09687073  1
  Li  Li21  1  0.25000000  0.50000000  0.59687073  1
  Li  Li22  1  0.25000000  0.83333333  0.09687073  1
  Li  Li23  1  0.25000000  0.83333333  0.59687073  1
  Li  Li24  1  0.58333333  0.16666667  0.09687073  1
  Li  Li25  1  0.58333333  0.16666667  0.59687073  1
  Li  Li26  1  0.58333333  0.50000000  0.09687073  1
  Li  Li27  1  0.58333333  0.50000000  0.59687073  1
  Li  Li28  1  0.58333333  0.83333333  0.09687073  1
  Li  Li29  1  0.58333333  0.83333333  0.59687073  1
  Li  Li30  1  0.91666667  0.16666667  0.09687073  1
  Li  Li31  1  0.91666667  0.16666667  0.59687073  1
  Li  Li32  1  0.91666667  0.50000000  0.09687073  1
  Li  Li33  1  0.91666667  0.50000000  0.59687073  1
  Li  Li34  1  0.91666667  0.83333333  0.09687073  1
  Li  Li35  1  0.91666667  0.83333333  0.59687073  1
  Li  Li36  1  0.08333333  0.00000000  0.34687073  1
  Li  Li37  1  0.08333333  0.00000000  0.84687073  1
  Li  Li38  1  0.08333333  0.33333333  0.34687073  1
  Li  Li39  1  0.08333333  0.33333333  0.84687073  1
  Li  Li40  1  0.08333333  0.66666667  0.34687073  1
  Li  Li41  1  0.08333333  0.66666667  0.84687073  1
  Li  Li42  1  0.41666667  0.00000000  0.34687073  1
  Li  Li43  1  0.41666667  0.00000000  0.84687073  1
  Li  Li44  1  0.41666667  0.33333333  0.34687073  1
  Li  Li45  1  0.41666667  0.33333333  0.84687073  1
  Li  Li46  1  0.41666667  0.66666667  0.34687073  1
  Li  Li47  1  0.41666667  0.66666667  0.84687073  1
  Li  Li48  1  0.75000000  0.00000000  0.34687073  1
  Li  Li49  1  0.75000000  0.00000000  0.84687073  1
  Li  Li50  1  0.75000000  0.33333333  0.34687073  1
  Li  Li51  1  0.75000000  0.33333333  0.84687073  1
  Li  Li52  1  0.75000000  0.66666667  0.34687073  1
  Li  Li53  1  0.75000000  0.66666667  0.84687073  1
  Li  Li54  1  0.08333333  0.16666667  0.40312927  1
  Li  Li55  1  0.08333333  0.16666667  0.90312927  1
  Li  Li56  1  0.08333333  0.50000000  0.40312927  1
  Li  Li57  1  0.08333333  0.50000000  0.90312927  1
  Li  Li58  1  0.08333333  0.83333333  0.40312927  1
  Li  Li59  1  0.08333333  0.83333333  0.90312927  1
  Li  Li60  1  0.41666667  0.16666667  0.40312927  1
  Li  Li61  1  0.41666667  0.16666667  0.90312927  1
  Li  Li62  1  0.41666667  0.50000000  0.40312927  1
  Li  Li63  1  0.41666667  0.50000000  0.90312927  1
  Li  Li64  1  0.41666667  0.83333333  0.40312927  1
  Li  Li65  1  0.41666667  0.83333333  0.90312927  1
  Li  Li66  1  0.75000000  0.16666667  0.40312927  1
  Li  Li67  1  0.75000000  0.16666667  0.90312927  1
  Li  Li68  1  0.75000000  0.50000000  0.40312927  1
  Li  Li69  1  0.75000000  0.50000000  0.90312927  1
  Li  Li70  1  0.75000000  0.83333333  0.40312927  1
  Li  Li71  1  0.75000000  0.83333333  0.90312927  1
  Sb  Sb72  1  0.25000000  0.00000000  0.45271456  1
  Sb  Sb73  1  0.25000000  0.00000000  0.95271456  1
  Sb  Sb74  1  0.25000000  0.33333333  0.45271456  1
  Sb  Sb75  1  0.25000000  0.33333333  0.95271456  1
  Sb  Sb76  1  0.25000000  0.66666667  0.45271456  1
  Sb  Sb77  1  0.25000000  0.66666667  0.95271456  1
  Sb  Sb78  1  0.58333333  0.00000000  0.45271456  1
  Sb  Sb79  1  0.58333333  0.00000000  0.95271456  1
  Sb  Sb80  1  0.58333333  0.33333333  0.45271456  1
  Sb  Sb81  1  0.58333333  0.33333333  0.95271456  1
  Sb  Sb82  1  0.58333333  0.66666667  0.45271456  1
  Sb  Sb83  1  0.58333333  0.66666667  0.95271456  1
  Sb  Sb84  1  0.91666667  0.00000000  0.45271456  1
  Sb  Sb85  1  0.91666667  0.00000000  0.95271456  1
  Sb  Sb86  1  0.91666667  0.33333333  0.45271456  1
  Sb  Sb87  1  0.91666667  0.33333333  0.95271456  1
  Sb  Sb88  1  0.91666667  0.66666667  0.45271456  1
  Sb  Sb89  1  0.91666667  0.66666667  0.95271456  1
  Sb  Sb90  1  0.08333333  0.16666667  0.20271456  1
  Sb  Sb91  1  0.08333333  0.16666667  0.70271456  1
  Sb  Sb92  1  0.08333333  0.50000000  0.20271456  1
  Sb  Sb93  1  0.08333333  0.50000000  0.70271456  1
  Sb  Sb94  1  0.08333333  0.83333333  0.20271456  1
  Sb  Sb95  1  0.08333333  0.83333333  0.70271456  1
  Sb  Sb96  1  0.41666667  0.16666667  0.20271456  1
  Sb  Sb97  1  0.41666667  0.16666667  0.70271456  1
  Sb  Sb98  1  0.41666667  0.50000000  0.20271456  1
  Sb  Sb99  1  0.41666667  0.50000000  0.70271456  1
  Sb  Sb100  1  0.41666667  0.83333333  0.20271456  1
  Sb  Sb101  1  0.41666667  0.83333333  0.70271456  1
  Sb  Sb102  1  0.75000000  0.16666667  0.20271456  1
  Sb  Sb103  1  0.75000000  0.16666667  0.70271456  1
  Sb  Sb104  1  0.75000000  0.50000000  0.20271456  1
  Sb  Sb105  1  0.75000000  0.50000000  0.70271456  1
  Sb  Sb106  1  0.75000000  0.83333333  0.20271456  1
  Sb  Sb107  1  0.75000000  0.83333333  0.70271456  1
  Sb  Sb108  1  0.08333333  0.00000000  0.04728544  1
  Sb  Sb109  1  0.08333333  0.00000000  0.54728544  1
  Sb  Sb110  1  0.08333333  0.33333333  0.04728544  1
  Sb  Sb111  1  0.08333333  0.33333333  0.54728544  1
  Sb  Sb112  1  0.08333333  0.66666667  0.04728544  1
  Sb  Sb113  1  0.08333333  0.66666667  0.54728544  1
  Sb  Sb114  1  0.41666667  0.00000000  0.04728544  1
  Sb  Sb115  1  0.41666667  0.00000000  0.54728544  1
  Sb  Sb116  1  0.41666667  0.33333333  0.04728544  1
  Sb  Sb117  1  0.41666667  0.33333333  0.54728544  1
  Sb  Sb118  1  0.41666667  0.66666667  0.04728544  1
  Sb  Sb119  1  0.41666667  0.66666667  0.54728544  1
  Sb  Sb120  1  0.75000000  0.00000000  0.04728544  1
  Sb  Sb121  1  0.75000000  0.00000000  0.54728544  1
  Sb  Sb122  1  0.75000000  0.33333333  0.04728544  1
  Sb  Sb123  1  0.75000000  0.33333333  0.54728544  1
  Sb  Sb124  1  0.75000000  0.66666667  0.04728544  1
  Sb  Sb125  1  0.75000000  0.66666667  0.54728544  1
  Sb  Sb126  1  0.25000000  0.16666667  0.29728544  1
  Sb  Sb127  1  0.25000000  0.16666667  0.79728544  1
  Sb  Sb128  1  0.25000000  0.50000000  0.29728544  1
  Sb  Sb129  1  0.25000000  0.50000000  0.79728544  1
  Sb  Sb130  1  0.25000000  0.83333333  0.29728544  1
  Sb  Sb131  1  0.25000000  0.83333333  0.79728544  1
  Sb  Sb132  1  0.58333333  0.16666667  0.29728544  1
  Sb  Sb133  1  0.58333333  0.16666667  0.79728544  1
  Sb  Sb134  1  0.58333333  0.50000000  0.29728544  1
  Sb  Sb135  1  0.58333333  0.50000000  0.79728544  1
  Sb  Sb136  1  0.58333333  0.83333333  0.29728544  1
  Sb  Sb137  1  0.58333333  0.83333333  0.79728544  1
  Sb  Sb138  1  0.91666667  0.16666667  0.29728544  1
  Sb  Sb139  1  0.91666667  0.16666667  0.79728544  1
  Sb  Sb140  1  0.91666667  0.50000000  0.29728544  1
  Sb  Sb141  1  0.91666667  0.50000000  0.79728544  1
  Sb  Sb142  1  0.91666667  0.83333333  0.29728544  1
  Sb  Sb143  1  0.91666667  0.83333333  0.79728544  1
  O  O144  1  0.19202141  0.23579230  0.20903596  1
  O  O145  1  0.19202141  0.23579230  0.70903596  1
  O  O146  1  0.19202141  0.56912564  0.20903596  1
  O  O147  1  0.19202141  0.56912564  0.70903596  1
  O  O148  1  0.19202141  0.90245897  0.20903596  1
  O  O149  1  0.19202141  0.90245897  0.70903596  1
  O  O150  1  0.52535475  0.23579230  0.20903596  1
  O  O151  1  0.52535475  0.23579230  0.70903596  1
  O  O152  1  0.52535475  0.56912564  0.20903596  1
  O  O153  1  0.52535475  0.56912564  0.70903596  1
  O  O154  1  0.52535475  0.90245897  0.20903596  1
  O  O155  1  0.52535475  0.90245897  0.70903596  1
  O  O156  1  0.85868808  0.23579230  0.20903596  1
  O  O157  1  0.85868808  0.23579230  0.70903596  1
  O  O158  1  0.85868808  0.56912564  0.20903596  1
  O  O159  1  0.85868808  0.56912564  0.70903596  1
  O  O160  1  0.85868808  0.90245897  0.20903596  1
  O  O161  1  0.85868808  0.90245897  0.70903596  1
  O  O162  1  0.19202141  0.26420770  0.04096404  1
  O  O163  1  0.19202141  0.26420770  0.54096404  1
  O  O164  1  0.19202141  0.59754103  0.04096404  1
  O  O165  1  0.19202141  0.59754103  0.54096404  1
  O  O166  1  0.19202141  0.93087436  0.04096404  1
  O  O167  1  0.19202141  0.93087436  0.54096404  1
  O  O168  1  0.52535475  0.26420770  0.04096404  1
  O  O169  1  0.52535475  0.26420770  0.54096404  1
  O  O170  1  0.52535475  0.59754103  0.04096404  1
  O  O171  1  0.52535475  0.59754103  0.54096404  1
  O  O172  1  0.52535475  0.93087436  0.04096404  1
  O  O173  1  0.52535475  0.93087436  0.54096404  1
  O  O174  1  0.85868808  0.26420770  0.04096404  1
  O  O175  1  0.85868808  0.26420770  0.54096404  1
  O  O176  1  0.85868808  0.59754103  0.04096404  1
  O  O177  1  0.85868808  0.59754103  0.54096404  1
  O  O178  1  0.85868808  0.93087436  0.04096404  1
  O  O179  1  0.85868808  0.93087436  0.54096404  1
  O  O180  1  0.30797859  0.09754103  0.20903596  1
  O  O181  1  0.30797859  0.09754103  0.70903596  1
  O  O182  1  0.30797859  0.43087436  0.20903596  1
  O  O183  1  0.30797859  0.43087436  0.70903596  1
  O  O184  1  0.30797859  0.76420770  0.20903596  1
  O  O185  1  0.30797859  0.76420770  0.70903596  1
  O  O186  1  0.64131192  0.09754103  0.20903596  1
  O  O187  1  0.64131192  0.09754103  0.70903596  1
  O  O188  1  0.64131192  0.43087436  0.20903596  1
  O  O189  1  0.64131192  0.43087436  0.70903596  1
  O  O190  1  0.64131192  0.76420770  0.20903596  1
  O  O191  1  0.64131192  0.76420770  0.70903596  1
  O  O192  1  0.97464525  0.09754103  0.20903596  1
  O  O193  1  0.97464525  0.09754103  0.70903596  1
  O  O194  1  0.97464525  0.43087436  0.20903596  1
  O  O195  1  0.97464525  0.43087436  0.70903596  1
  O  O196  1  0.97464525  0.76420770  0.20903596  1
  O  O197  1  0.97464525  0.76420770  0.70903596  1
  O  O198  1  0.13713487  0.08333333  0.12500000  1
  O  O199  1  0.13713487  0.08333333  0.62500000  1
  O  O200  1  0.13713487  0.41666667  0.12500000  1
  O  O201  1  0.13713487  0.41666667  0.62500000  1
  O  O202  1  0.13713487  0.75000000  0.12500000  1
  O  O203  1  0.13713487  0.75000000  0.62500000  1
  O  O204  1  0.47046820  0.08333333  0.12500000  1
  O  O205  1  0.47046820  0.08333333  0.62500000  1
  O  O206  1  0.47046820  0.41666667  0.12500000  1
  O  O207  1  0.47046820  0.41666667  0.62500000  1
  O  O208  1  0.47046820  0.75000000  0.12500000  1
  O  O209  1  0.47046820  0.75000000  0.62500000  1
  O  O210  1  0.80380153  0.08333333  0.12500000  1
  O  O211  1  0.80380153  0.08333333  0.62500000  1
  O  O212  1  0.80380153  0.41666667  0.12500000  1
  O  O213  1  0.80380153  0.41666667  0.62500000  1
  O  O214  1  0.80380153  0.75000000  0.12500000  1
  O  O215  1  0.80380153  0.75000000  0.62500000  1
  O  O216  1  0.19619847  0.25000000  0.37500000  1
  O  O217  1  0.19619847  0.25000000  0.87500000  1
  O  O218  1  0.19619847  0.58333333  0.37500000  1
  O  O219  1  0.19619847  0.58333333  0.87500000  1
  O  O220  1  0.19619847  0.91666667  0.37500000  1
  O  O221  1  0.19619847  0.91666667  0.87500000  1
  O  O222  1  0.52953180  0.25000000  0.37500000  1
  O  O223  1  0.52953180  0.25000000  0.87500000  1
  O  O224  1  0.52953180  0.58333333  0.37500000  1
  O  O225  1  0.52953180  0.58333333  0.87500000  1
  O  O226  1  0.52953180  0.91666667  0.37500000  1
  O  O227  1  0.52953180  0.91666667  0.87500000  1
  O  O228  1  0.86286513  0.25000000  0.37500000  1
  O  O229  1  0.86286513  0.25000000  0.87500000  1
  O  O230  1  0.86286513  0.58333333  0.37500000  1
  O  O231  1  0.86286513  0.58333333  0.87500000  1
  O  O232  1  0.86286513  0.91666667  0.37500000  1
  O  O233  1  0.86286513  0.91666667  0.87500000  1
  O  O234  1  0.30380153  0.08333333  0.37500000  1
  O  O235  1  0.30380153  0.08333333  0.87500000  1
  O  O236  1  0.30380153  0.41666667  0.37500000  1
  O  O237  1  0.30380153  0.41666667  0.87500000  1
  O  O238  1  0.30380153  0.75000000  0.37500000  1
  O  O239  1  0.30380153  0.75000000  0.87500000  1
  O  O240  1  0.63713487  0.08333333  0.37500000  1
  O  O241  1  0.63713487  0.08333333  0.87500000  1
  O  O242  1  0.63713487  0.41666667  0.37500000  1
  O  O243  1  0.63713487  0.41666667  0.87500000  1
  O  O244  1  0.63713487  0.75000000  0.37500000  1
  O  O245  1  0.63713487  0.75000000  0.87500000  1
  O  O246  1  0.97046820  0.08333333  0.37500000  1
  O  O247  1  0.97046820  0.08333333  0.87500000  1
  O  O248  1  0.97046820  0.41666667  0.37500000  1
  O  O249  1  0.97046820  0.41666667  0.87500000  1
  O  O250  1  0.97046820  0.75000000  0.37500000  1
  O  O251  1  0.97046820  0.75000000  0.87500000  1
  O  O252  1  0.02535475  0.26420770  0.45903596  1
  O  O253  1  0.02535475  0.26420770  0.95903596  1
  O  O254  1  0.02535475  0.59754103  0.45903596  1
  O  O255  1  0.02535475  0.59754103  0.95903596  1
  O  O256  1  0.02535475  0.93087436  0.45903596  1
  O  O257  1  0.02535475  0.93087436  0.95903596  1
  O  O258  1  0.35868808  0.26420770  0.45903596  1
  O  O259  1  0.35868808  0.26420770  0.95903596  1
  O  O260  1  0.35868808  0.59754103  0.45903596  1
  O  O261  1  0.35868808  0.59754103  0.95903596  1
  O  O262  1  0.35868808  0.93087436  0.45903596  1
  O  O263  1  0.35868808  0.93087436  0.95903596  1
  O  O264  1  0.69202141  0.26420770  0.45903596  1
  O  O265  1  0.69202141  0.26420770  0.95903596  1
  O  O266  1  0.69202141  0.59754103  0.45903596  1
  O  O267  1  0.69202141  0.59754103  0.95903596  1
  O  O268  1  0.69202141  0.93087436  0.45903596  1
  O  O269  1  0.69202141  0.93087436  0.95903596  1
  O  O270  1  0.02953180  0.25000000  0.12500000  1
  O  O271  1  0.02953180  0.25000000  0.62500000  1
  O  O272  1  0.02953180  0.58333333  0.12500000  1
  O  O273  1  0.02953180  0.58333333  0.62500000  1
  O  O274  1  0.02953180  0.91666667  0.12500000  1
  O  O275  1  0.02953180  0.91666667  0.62500000  1
  O  O276  1  0.36286513  0.25000000  0.12500000  1
  O  O277  1  0.36286513  0.25000000  0.62500000  1
  O  O278  1  0.36286513  0.58333333  0.12500000  1
  O  O279  1  0.36286513  0.58333333  0.62500000  1
  O  O280  1  0.36286513  0.91666667  0.12500000  1
  O  O281  1  0.36286513  0.91666667  0.62500000  1
  O  O282  1  0.69619847  0.25000000  0.12500000  1
  O  O283  1  0.69619847  0.25000000  0.62500000  1
  O  O284  1  0.69619847  0.58333333  0.12500000  1
  O  O285  1  0.69619847  0.58333333  0.62500000  1
  O  O286  1  0.69619847  0.91666667  0.12500000  1
  O  O287  1  0.69619847  0.91666667  0.62500000  1
  O  O288  1  0.14131192  0.06912564  0.45903596  1
  O  O289  1  0.14131192  0.06912564  0.95903596  1
  O  O290  1  0.14131192  0.40245897  0.45903596  1
  O  O291  1  0.14131192  0.40245897  0.95903596  1
  O  O292  1  0.14131192  0.73579230  0.45903596  1
  O  O293  1  0.14131192  0.73579230  0.95903596  1
  O  O294  1  0.47464525  0.06912564  0.45903596  1
  O  O295  1  0.47464525  0.06912564  0.95903596  1
  O  O296  1  0.47464525  0.40245897  0.45903596  1
  O  O297  1  0.47464525  0.40245897  0.95903596  1
  O  O298  1  0.47464525  0.73579230  0.45903596  1
  O  O299  1  0.47464525  0.73579230  0.95903596  1
  O  O300  1  0.80797859  0.06912564  0.45903596  1
  O  O301  1  0.80797859  0.06912564  0.95903596  1
  O  O302  1  0.80797859  0.40245897  0.45903596  1
  O  O303  1  0.80797859  0.40245897  0.95903596  1
  O  O304  1  0.80797859  0.73579230  0.45903596  1
  O  O305  1  0.80797859  0.73579230  0.95903596  1
  O  O306  1  0.14131192  0.09754103  0.29096404  1
  O  O307  1  0.14131192  0.09754103  0.79096404  1
  O  O308  1  0.14131192  0.43087436  0.29096404  1
  O  O309  1  0.14131192  0.43087436  0.79096404  1
  O  O310  1  0.14131192  0.76420770  0.29096404  1
  O  O311  1  0.14131192  0.76420770  0.79096404  1
  O  O312  1  0.47464525  0.09754103  0.29096404  1
  O  O313  1  0.47464525  0.09754103  0.79096404  1
  O  O314  1  0.47464525  0.43087436  0.29096404  1
  O  O315  1  0.47464525  0.43087436  0.79096404  1
  O  O316  1  0.47464525  0.76420770  0.29096404  1
  O  O317  1  0.47464525  0.76420770  0.79096404  1
  O  O318  1  0.80797859  0.09754103  0.29096404  1
  O  O319  1  0.80797859  0.09754103  0.79096404  1
  O  O320  1  0.80797859  0.43087436  0.29096404  1
  O  O321  1  0.80797859  0.43087436  0.79096404  1
  O  O322  1  0.80797859  0.76420770  0.29096404  1
  O  O323  1  0.80797859  0.76420770  0.79096404  1
  O  O324  1  0.02535475  0.23579230  0.29096404  1
  O  O325  1  0.02535475  0.23579230  0.79096404  1
  O  O326  1  0.02535475  0.56912564  0.29096404  1
  O  O327  1  0.02535475  0.56912564  0.79096404  1
  O  O328  1  0.02535475  0.90245897  0.29096404  1
  O  O329  1  0.02535475  0.90245897  0.79096404  1
  O  O330  1  0.35868808  0.23579230  0.29096404  1
  O  O331  1  0.35868808  0.23579230  0.79096404  1
  O  O332  1  0.35868808  0.56912564  0.29096404  1
  O  O333  1  0.35868808  0.56912564  0.79096404  1
  O  O334  1  0.35868808  0.90245897  0.29096404  1
  O  O335  1  0.35868808  0.90245897  0.79096404  1
  O  O336  1  0.69202141  0.23579230  0.29096404  1
  O  O337  1  0.69202141  0.23579230  0.79096404  1
  O  O338  1  0.69202141  0.56912564  0.29096404  1
  O  O339  1  0.69202141  0.56912564  0.79096404  1
  O  O340  1  0.69202141  0.90245897  0.29096404  1
  O  O341  1  0.69202141  0.90245897  0.79096404  1
  O  O342  1  0.30797859  0.06912564  0.04096404  1
  O  O343  1  0.30797859  0.06912564  0.54096404  1
  O  O344  1  0.30797859  0.40245897  0.04096404  1
  O  O345  1  0.30797859  0.40245897  0.54096404  1
  O  O346  1  0.30797859  0.73579230  0.04096404  1
  O  O347  1  0.30797859  0.73579230  0.54096404  1
  O  O348  1  0.64131192  0.06912564  0.04096404  1
  O  O349  1  0.64131192  0.06912564  0.54096404  1
  O  O350  1  0.64131192  0.40245897  0.04096404  1
  O  O351  1  0.64131192  0.40245897  0.54096404  1
  O  O352  1  0.64131192  0.73579230  0.04096404  1
  O  O353  1  0.64131192  0.73579230  0.54096404  1
  O  O354  1  0.97464525  0.06912564  0.04096404  1
  O  O355  1  0.97464525  0.06912564  0.54096404  1
  O  O356  1  0.97464525  0.40245897  0.04096404  1
  O  O357  1  0.97464525  0.40245897  0.54096404  1
  O  O358  1  0.97464525  0.73579230  0.04096404  1
  O  O359  1  0.97464525  0.73579230  0.54096404  1
