# generated using pymatgen
data_CdAuO2
_symmetry_space_group_name_H-M   'P 1'
_cell_length_a   12.15559146
_cell_length_b   10.96444490
_cell_length_c   11.95120326
_cell_angle_alpha   64.10222677
_cell_angle_beta   74.08363928
_cell_angle_gamma   86.66006748
_symmetry_Int_Tables_number   1
_chemical_formula_structural   CdAuO2
_chemical_formula_sum   'Cd24 Au24 O48'
_cell_volume   1374.46517750
_cell_formula_units_Z   24
loop_
 _symmetry_equiv_pos_site_id
 _symmetry_equiv_pos_as_xyz
  1  'x, y, z'
loop_
 _atom_site_type_symbol
 _atom_site_label
 _atom_site_symmetry_multiplicity
 _atom_site_fract_x
 _atom_site_fract_y
 _atom_site_fract_z
 _atom_site_occupancy
  Cd  Cd0  1  0.24254053  0.36451774  0.26720719  1
  Cd  Cd1  1  0.24254053  0.36451774  0.76720719  1
  Cd  Cd2  1  0.24254053  0.86451774  0.26720719  1
  Cd  Cd3  1  0.24254053  0.86451774  0.76720719  1
  Cd  Cd4  1  0.57587386  0.36451774  0.26720719  1
  Cd  Cd5  1  0.57587386  0.36451774  0.76720719  1
  Cd  Cd6  1  0.57587386  0.86451774  0.26720719  1
  Cd  Cd7  1  0.57587386  0.86451774  0.76720719  1
  Cd  Cd8  1  0.90920719  0.36451774  0.26720719  1
  Cd  Cd9  1  0.90920719  0.36451774  0.76720719  1
  Cd  Cd10  1  0.90920719  0.86451774  0.26720719  1
  Cd  Cd11  1  0.90920719  0.86451774  0.76720719  1
  Cd  Cd12  1  0.09079281  0.13548226  0.23279281  1
  Cd  Cd13  1  0.09079281  0.13548226  0.73279281  1
  Cd  Cd14  1  0.09079281  0.63548226  0.23279281  1
  Cd  Cd15  1  0.09079281  0.63548226  0.73279281  1
  Cd  Cd16  1  0.42412614  0.13548226  0.23279281  1
  Cd  Cd17  1  0.42412614  0.13548226  0.73279281  1
  Cd  Cd18  1  0.42412614  0.63548226  0.23279281  1
  Cd  Cd19  1  0.42412614  0.63548226  0.73279281  1
  Cd  Cd20  1  0.75745947  0.13548226  0.23279281  1
  Cd  Cd21  1  0.75745947  0.13548226  0.73279281  1
  Cd  Cd22  1  0.75745947  0.63548226  0.23279281  1
  Cd  Cd23  1  0.75745947  0.63548226  0.73279281  1
  Au  Au24  1  0.16666667  0.00000000  0.00000000  1
  Au  Au25  1  0.16666667  0.00000000  0.50000000  1
  Au  Au26  1  0.16666667  0.50000000  0.00000000  1
  Au  Au27  1  0.16666667  0.50000000  0.50000000  1
  Au  Au28  1  0.50000000  0.00000000  0.00000000  1
  Au  Au29  1  0.50000000  0.00000000  0.50000000  1
  Au  Au30  1  0.50000000  0.50000000  0.00000000  1
  Au  Au31  1  0.50000000  0.50000000  0.50000000  1
  Au  Au32  1  0.83333333  0.00000000  0.00000000  1
  Au  Au33  1  0.83333333  0.00000000  0.50000000  1
  Au  Au34  1  0.83333333  0.50000000  0.00000000  1
  Au  Au35  1  0.83333333  0.50000000  0.50000000  1
  Au  Au36  1  0.00000000  0.25000000  0.00000000  1
  Au  Au37  1  0.00000000  0.25000000  0.50000000  1
  Au  Au38  1  0.00000000  0.75000000  0.00000000  1
  Au  Au39  1  0.00000000  0.75000000  0.50000000  1
  Au  Au40  1  0.33333333  0.25000000  0.00000000  1
  Au  Au41  1  0.33333333  0.25000000  0.50000000  1
  Au  Au42  1  0.33333333  0.75000000  0.00000000  1
  Au  Au43  1  0.33333333  0.75000000  0.50000000  1
  Au  Au44  1  0.66666667  0.25000000  0.00000000  1
  Au  Au45  1  0.66666667  0.25000000  0.50000000  1
  Au  Au46  1  0.66666667  0.75000000  0.00000000  1
  Au  Au47  1  0.66666667  0.75000000  0.50000000  1
  O  O48  1  0.10581927  0.41912480  0.40492691  1
  O  O49  1  0.10581927  0.41912480  0.90492691  1
  O  O50  1  0.10581927  0.91912480  0.40492691  1
  O  O51  1  0.10581927  0.91912480  0.90492691  1
  O  O52  1  0.43915260  0.41912480  0.40492691  1
  O  O53  1  0.43915260  0.41912480  0.90492691  1
  O  O54  1  0.43915260  0.91912480  0.40492691  1
  O  O55  1  0.43915260  0.91912480  0.90492691  1
  O  O56  1  0.77248593  0.41912480  0.40492691  1
  O  O57  1  0.77248593  0.41912480  0.90492691  1
  O  O58  1  0.77248593  0.91912480  0.40492691  1
  O  O59  1  0.77248593  0.91912480  0.90492691  1
  O  O60  1  0.22751407  0.08087520  0.09507309  1
  O  O61  1  0.22751407  0.08087520  0.59507309  1
  O  O62  1  0.22751407  0.58087520  0.09507309  1
  O  O63  1  0.22751407  0.58087520  0.59507309  1
  O  O64  1  0.56084740  0.08087520  0.09507309  1
  O  O65  1  0.56084740  0.08087520  0.59507309  1
  O  O66  1  0.56084740  0.58087520  0.09507309  1
  O  O67  1  0.56084740  0.58087520  0.59507309  1
  O  O68  1  0.89418073  0.08087520  0.09507309  1
  O  O69  1  0.89418073  0.08087520  0.59507309  1
  O  O70  1  0.89418073  0.58087520  0.09507309  1
  O  O71  1  0.89418073  0.58087520  0.59507309  1
  O  O72  1  0.09413860  0.36041271  0.18009918  1
  O  O73  1  0.09413860  0.36041271  0.68009918  1
  O  O74  1  0.09413860  0.86041271  0.18009918  1
  O  O75  1  0.09413860  0.86041271  0.68009918  1
  O  O76  1  0.42747193  0.36041271  0.18009918  1
  O  O77  1  0.42747193  0.36041271  0.68009918  1
  O  O78  1  0.42747193  0.86041271  0.18009918  1
  O  O79  1  0.42747193  0.86041271  0.68009918  1
  O  O80  1  0.76080526  0.36041271  0.18009918  1
  O  O81  1  0.76080526  0.36041271  0.68009918  1
  O  O82  1  0.76080526  0.86041271  0.18009918  1
  O  O83  1  0.76080526  0.86041271  0.68009918  1
  O  O84  1  0.23919474  0.13958729  0.31990082  1
  O  O85  1  0.23919474  0.13958729  0.81990082  1
  O  O86  1  0.23919474  0.63958729  0.31990082  1
  O  O87  1  0.23919474  0.63958729  0.81990082  1
  O  O88  1  0.57252807  0.13958729  0.31990082  1
  O  O89  1  0.57252807  0.13958729  0.81990082  1
  O  O90  1  0.57252807  0.63958729  0.31990082  1
  O  O91  1  0.57252807  0.63958729  0.81990082  1
  O  O92  1  0.90586140  0.13958729  0.31990082  1
  O  O93  1  0.90586140  0.13958729  0.81990082  1
  O  O94  1  0.90586140  0.63958729  0.31990082  1
  O  O95  1  0.90586140  0.63958729  0.81990082  1
