# generated using pymatgen
data_Na3SbO3
_symmetry_space_group_name_H-M   'P 1'
_cell_length_a   18.78789069
_cell_length_b   18.78789069
_cell_length_c   18.78789069
_cell_angle_alpha   90.00000000
_cell_angle_beta   90.00000000
_cell_angle_gamma   90.00000000
_symmetry_Int_Tables_number   1
_chemical_formula_structural   Na3SbO3
_chemical_formula_sum   'Na192 Sb64 O192'
_cell_volume   6631.84052503
_cell_formula_units_Z   64
loop_
 _symmetry_equiv_pos_site_id
 _symmetry_equiv_pos_as_xyz
  1  'x, y, z'
loop_
 _atom_site_type_symbol
 _atom_site_label
 _atom_site_symmetry_multiplicity
 _atom_site_fract_x
 _atom_site_fract_y
 _atom_site_fract_z
 _atom_site_occupancy
  Na  Na0  1  0.30120534  0.06128180  0.06128180  1
  Na  Na1  1  0.30120534  0.06128180  0.56128180  1
  Na  Na2  1  0.30120534  0.56128180  0.06128180  1
  Na  Na3  1  0.30120534  0.56128180  0.56128180  1
  Na  Na4  1  0.80120534  0.06128180  0.06128180  1
  Na  Na5  1  0.80120534  0.06128180  0.56128180  1
  Na  Na6  1  0.80120534  0.56128180  0.06128180  1
  Na  Na7  1  0.80120534  0.56128180  0.56128180  1
  Na  Na8  1  0.55120534  0.31128180  0.31128180  1
  Na  Na9  1  0.55120534  0.31128180  0.81128180  1
  Na  Na10  1  0.55120534  0.81128180  0.31128180  1
  Na  Na11  1  0.55120534  0.81128180  0.81128180  1
  Na  Na12  1  1.05120534  0.31128180  0.31128180  1
  Na  Na13  1  1.05120534  0.31128180  0.81128180  1
  Na  Na14  1  1.05120534  0.81128180  0.31128180  1
  Na  Na15  1  1.05120534  0.81128180  0.81128180  1
  Na  Na16  1  0.06128180  0.06128180  0.30120534  1
  Na  Na17  1  0.06128180  0.06128180  0.80120534  1
  Na  Na18  1  0.06128180  0.56128180  0.30120534  1
  Na  Na19  1  0.06128180  0.56128180  0.80120534  1
  Na  Na20  1  0.56128180  0.06128180  0.30120534  1
  Na  Na21  1  0.56128180  0.06128180  0.80120534  1
  Na  Na22  1  0.56128180  0.56128180  0.30120534  1
  Na  Na23  1  0.56128180  0.56128180  0.80120534  1
  Na  Na24  1  0.31128180  0.31128180  0.55120534  1
  Na  Na25  1  0.31128180  0.31128180  1.05120534  1
  Na  Na26  1  0.31128180  0.81128180  0.55120534  1
  Na  Na27  1  0.31128180  0.81128180  1.05120534  1
  Na  Na28  1  0.81128180  0.31128180  0.55120534  1
  Na  Na29  1  0.81128180  0.31128180  1.05120534  1
  Na  Na30  1  0.81128180  0.81128180  0.55120534  1
  Na  Na31  1  0.81128180  0.81128180  1.05120534  1
  Na  Na32  1  0.06128180  0.30120534  0.06128180  1
  Na  Na33  1  0.06128180  0.30120534  0.56128180  1
  Na  Na34  1  0.06128180  0.80120534  0.06128180  1
  Na  Na35  1  0.06128180  0.80120534  0.56128180  1
  Na  Na36  1  0.56128180  0.30120534  0.06128180  1
  Na  Na37  1  0.56128180  0.30120534  0.56128180  1
  Na  Na38  1  0.56128180  0.80120534  0.06128180  1
  Na  Na39  1  0.56128180  0.80120534  0.56128180  1
  Na  Na40  1  0.31128180  0.55120534  0.31128180  1
  Na  Na41  1  0.31128180  0.55120534  0.81128180  1
  Na  Na42  1  0.31128180  1.05120534  0.31128180  1
  Na  Na43  1  0.31128180  1.05120534  0.81128180  1
  Na  Na44  1  0.81128180  0.55120534  0.31128180  1
  Na  Na45  1  0.81128180  0.55120534  0.81128180  1
  Na  Na46  1  0.81128180  1.05120534  0.31128180  1
  Na  Na47  1  0.81128180  1.05120534  0.81128180  1
  Na  Na48  1  0.19879466  -0.06128180  0.06128180  1
  Na  Na49  1  0.19879466  -0.06128180  0.56128180  1
  Na  Na50  1  0.19879466  0.43871820  0.06128180  1
  Na  Na51  1  0.19879466  0.43871820  0.56128180  1
  Na  Na52  1  0.69879466  -0.06128180  0.06128180  1
  Na  Na53  1  0.69879466  -0.06128180  0.56128180  1
  Na  Na54  1  0.69879466  0.43871820  0.06128180  1
  Na  Na55  1  0.69879466  0.43871820  0.56128180  1
  Na  Na56  1  0.44879466  0.18871820  0.31128180  1
  Na  Na57  1  0.44879466  0.18871820  0.81128180  1
  Na  Na58  1  0.44879466  0.68871820  0.31128180  1
  Na  Na59  1  0.44879466  0.68871820  0.81128180  1
  Na  Na60  1  0.94879466  0.18871820  0.31128180  1
  Na  Na61  1  0.94879466  0.18871820  0.81128180  1
  Na  Na62  1  0.94879466  0.68871820  0.31128180  1
  Na  Na63  1  0.94879466  0.68871820  0.81128180  1
  Na  Na64  1  0.19879466  0.06128180  -0.06128180  1
  Na  Na65  1  0.19879466  0.06128180  0.43871820  1
  Na  Na66  1  0.19879466  0.56128180  -0.06128180  1
  Na  Na67  1  0.19879466  0.56128180  0.43871820  1
  Na  Na68  1  0.69879466  0.06128180  -0.06128180  1
  Na  Na69  1  0.69879466  0.06128180  0.43871820  1
  Na  Na70  1  0.69879466  0.56128180  -0.06128180  1
  Na  Na71  1  0.69879466  0.56128180  0.43871820  1
  Na  Na72  1  0.44879466  0.31128180  0.18871820  1
  Na  Na73  1  0.44879466  0.31128180  0.68871820  1
  Na  Na74  1  0.44879466  0.81128180  0.18871820  1
  Na  Na75  1  0.44879466  0.81128180  0.68871820  1
  Na  Na76  1  0.94879466  0.31128180  0.18871820  1
  Na  Na77  1  0.94879466  0.31128180  0.68871820  1
  Na  Na78  1  0.94879466  0.81128180  0.18871820  1
  Na  Na79  1  0.94879466  0.81128180  0.68871820  1
  Na  Na80  1  0.05120534  0.18871820  0.18871820  1
  Na  Na81  1  0.05120534  0.18871820  0.68871820  1
  Na  Na82  1  0.05120534  0.68871820  0.18871820  1
  Na  Na83  1  0.05120534  0.68871820  0.68871820  1
  Na  Na84  1  0.55120534  0.18871820  0.18871820  1
  Na  Na85  1  0.55120534  0.18871820  0.68871820  1
  Na  Na86  1  0.55120534  0.68871820  0.18871820  1
  Na  Na87  1  0.55120534  0.68871820  0.68871820  1
  Na  Na88  1  0.30120534  0.43871820  0.43871820  1
  Na  Na89  1  0.30120534  0.43871820  0.93871820  1
  Na  Na90  1  0.30120534  0.93871820  0.43871820  1
  Na  Na91  1  0.30120534  0.93871820  0.93871820  1
  Na  Na92  1  0.80120534  0.43871820  0.43871820  1
  Na  Na93  1  0.80120534  0.43871820  0.93871820  1
  Na  Na94  1  0.80120534  0.93871820  0.43871820  1
  Na  Na95  1  0.80120534  0.93871820  0.93871820  1
  Na  Na96  1  0.18871820  0.18871820  0.05120534  1
  Na  Na97  1  0.18871820  0.18871820  0.55120534  1
  Na  Na98  1  0.18871820  0.68871820  0.05120534  1
  Na  Na99  1  0.18871820  0.68871820  0.55120534  1
  Na  Na100  1  0.68871820  0.18871820  0.05120534  1
  Na  Na101  1  0.68871820  0.18871820  0.55120534  1
  Na  Na102  1  0.68871820  0.68871820  0.05120534  1
  Na  Na103  1  0.68871820  0.68871820  0.55120534  1
  Na  Na104  1  0.43871820  0.43871820  0.30120534  1
  Na  Na105  1  0.43871820  0.43871820  0.80120534  1
  Na  Na106  1  0.43871820  0.93871820  0.30120534  1
  Na  Na107  1  0.43871820  0.93871820  0.80120534  1
  Na  Na108  1  0.93871820  0.43871820  0.30120534  1
  Na  Na109  1  0.93871820  0.43871820  0.80120534  1
  Na  Na110  1  0.93871820  0.93871820  0.30120534  1
  Na  Na111  1  0.93871820  0.93871820  0.80120534  1
  Na  Na112  1  -0.06128180  0.06128180  0.19879466  1
  Na  Na113  1  -0.06128180  0.06128180  0.69879466  1
  Na  Na114  1  -0.06128180  0.56128180  0.19879466  1
  Na  Na115  1  -0.06128180  0.56128180  0.69879466  1
  Na  Na116  1  0.43871820  0.06128180  0.19879466  1
  Na  Na117  1  0.43871820  0.06128180  0.69879466  1
  Na  Na118  1  0.43871820  0.56128180  0.19879466  1
  Na  Na119  1  0.43871820  0.56128180  0.69879466  1
  Na  Na120  1  0.18871820  0.31128180  0.44879466  1
  Na  Na121  1  0.18871820  0.31128180  0.94879466  1
  Na  Na122  1  0.18871820  0.81128180  0.44879466  1
  Na  Na123  1  0.18871820  0.81128180  0.94879466  1
  Na  Na124  1  0.68871820  0.31128180  0.44879466  1
  Na  Na125  1  0.68871820  0.31128180  0.94879466  1
  Na  Na126  1  0.68871820  0.81128180  0.44879466  1
  Na  Na127  1  0.68871820  0.81128180  0.94879466  1
  Na  Na128  1  0.06128180  0.19879466  -0.06128180  1
  Na  Na129  1  0.06128180  0.19879466  0.43871820  1
  Na  Na130  1  0.06128180  0.69879466  -0.06128180  1
  Na  Na131  1  0.06128180  0.69879466  0.43871820  1
  Na  Na132  1  0.56128180  0.19879466  -0.06128180  1
  Na  Na133  1  0.56128180  0.19879466  0.43871820  1
  Na  Na134  1  0.56128180  0.69879466  -0.06128180  1
  Na  Na135  1  0.56128180  0.69879466  0.43871820  1
  Na  Na136  1  0.31128180  0.44879466  0.18871820  1
  Na  Na137  1  0.31128180  0.44879466  0.68871820  1
  Na  Na138  1  0.31128180  0.94879466  0.18871820  1
  Na  Na139  1  0.31128180  0.94879466  0.68871820  1
  Na  Na140  1  0.81128180  0.44879466  0.18871820  1
  Na  Na141  1  0.81128180  0.44879466  0.68871820  1
  Na  Na142  1  0.81128180  0.94879466  0.18871820  1
  Na  Na143  1  0.81128180  0.94879466  0.68871820  1
  Na  Na144  1  -0.06128180  0.19879466  0.06128180  1
  Na  Na145  1  -0.06128180  0.19879466  0.56128180  1
  Na  Na146  1  -0.06128180  0.69879466  0.06128180  1
  Na  Na147  1  -0.06128180  0.69879466  0.56128180  1
  Na  Na148  1  0.43871820  0.19879466  0.06128180  1
  Na  Na149  1  0.43871820  0.19879466  0.56128180  1
  Na  Na150  1  0.43871820  0.69879466  0.06128180  1
  Na  Na151  1  0.43871820  0.69879466  0.56128180  1
  Na  Na152  1  0.18871820  0.44879466  0.31128180  1
  Na  Na153  1  0.18871820  0.44879466  0.81128180  1
  Na  Na154  1  0.18871820  0.94879466  0.31128180  1
  Na  Na155  1  0.18871820  0.94879466  0.81128180  1
  Na  Na156  1  0.68871820  0.44879466  0.31128180  1
  Na  Na157  1  0.68871820  0.44879466  0.81128180  1
  Na  Na158  1  0.68871820  0.94879466  0.31128180  1
  Na  Na159  1  0.68871820  0.94879466  0.81128180  1
  Na  Na160  1  0.18871820  0.05120534  0.18871820  1
  Na  Na161  1  0.18871820  0.05120534  0.68871820  1
  Na  Na162  1  0.18871820  0.55120534  0.18871820  1
  Na  Na163  1  0.18871820  0.55120534  0.68871820  1
  Na  Na164  1  0.68871820  0.05120534  0.18871820  1
  Na  Na165  1  0.68871820  0.05120534  0.68871820  1
  Na  Na166  1  0.68871820  0.55120534  0.18871820  1
  Na  Na167  1  0.68871820  0.55120534  0.68871820  1
  Na  Na168  1  0.43871820  0.30120534  0.43871820  1
  Na  Na169  1  0.43871820  0.30120534  0.93871820  1
  Na  Na170  1  0.43871820  0.80120534  0.43871820  1
  Na  Na171  1  0.43871820  0.80120534  0.93871820  1
  Na  Na172  1  0.93871820  0.30120534  0.43871820  1
  Na  Na173  1  0.93871820  0.30120534  0.93871820  1
  Na  Na174  1  0.93871820  0.80120534  0.43871820  1
  Na  Na175  1  0.93871820  0.80120534  0.93871820  1
  Na  Na176  1  0.06128180  -0.06128180  0.19879466  1
  Na  Na177  1  0.06128180  -0.06128180  0.69879466  1
  Na  Na178  1  0.06128180  0.43871820  0.19879466  1
  Na  Na179  1  0.06128180  0.43871820  0.69879466  1
  Na  Na180  1  0.56128180  -0.06128180  0.19879466  1
  Na  Na181  1  0.56128180  -0.06128180  0.69879466  1
  Na  Na182  1  0.56128180  0.43871820  0.19879466  1
  Na  Na183  1  0.56128180  0.43871820  0.69879466  1
  Na  Na184  1  0.31128180  0.18871820  0.44879466  1
  Na  Na185  1  0.31128180  0.18871820  0.94879466  1
  Na  Na186  1  0.31128180  0.68871820  0.44879466  1
  Na  Na187  1  0.31128180  0.68871820  0.94879466  1
  Na  Na188  1  0.81128180  0.18871820  0.44879466  1
  Na  Na189  1  0.81128180  0.18871820  0.94879466  1
  Na  Na190  1  0.81128180  0.68871820  0.44879466  1
  Na  Na191  1  0.81128180  0.68871820  0.94879466  1
  Sb  Sb192  1  0.17861026  -0.17861026  0.17861026  1
  Sb  Sb193  1  0.17861026  -0.17861026  0.67861026  1
  Sb  Sb194  1  0.17861026  0.32138974  0.17861026  1
  Sb  Sb195  1  0.17861026  0.32138974  0.67861026  1
  Sb  Sb196  1  0.67861026  -0.17861026  0.17861026  1
  Sb  Sb197  1  0.67861026  -0.17861026  0.67861026  1
  Sb  Sb198  1  0.67861026  0.32138974  0.17861026  1
  Sb  Sb199  1  0.67861026  0.32138974  0.67861026  1
  Sb  Sb200  1  0.42861026  0.07138974  0.42861026  1
  Sb  Sb201  1  0.42861026  0.07138974  0.92861026  1
  Sb  Sb202  1  0.42861026  0.57138974  0.42861026  1
  Sb  Sb203  1  0.42861026  0.57138974  0.92861026  1
  Sb  Sb204  1  0.92861026  0.07138974  0.42861026  1
  Sb  Sb205  1  0.92861026  0.07138974  0.92861026  1
  Sb  Sb206  1  0.92861026  0.57138974  0.42861026  1
  Sb  Sb207  1  0.92861026  0.57138974  0.92861026  1
  Sb  Sb208  1  0.17861026  0.17861026  -0.17861026  1
  Sb  Sb209  1  0.17861026  0.17861026  0.32138974  1
  Sb  Sb210  1  0.17861026  0.67861026  -0.17861026  1
  Sb  Sb211  1  0.17861026  0.67861026  0.32138974  1
  Sb  Sb212  1  0.67861026  0.17861026  -0.17861026  1
  Sb  Sb213  1  0.67861026  0.17861026  0.32138974  1
  Sb  Sb214  1  0.67861026  0.67861026  -0.17861026  1
  Sb  Sb215  1  0.67861026  0.67861026  0.32138974  1
  Sb  Sb216  1  0.42861026  0.42861026  0.07138974  1
  Sb  Sb217  1  0.42861026  0.42861026  0.57138974  1
  Sb  Sb218  1  0.42861026  0.92861026  0.07138974  1
  Sb  Sb219  1  0.42861026  0.92861026  0.57138974  1
  Sb  Sb220  1  0.92861026  0.42861026  0.07138974  1
  Sb  Sb221  1  0.92861026  0.42861026  0.57138974  1
  Sb  Sb222  1  0.92861026  0.92861026  0.07138974  1
  Sb  Sb223  1  0.92861026  0.92861026  0.57138974  1
  Sb  Sb224  1  0.07138974  0.07138974  0.07138974  1
  Sb  Sb225  1  0.07138974  0.07138974  0.57138974  1
  Sb  Sb226  1  0.07138974  0.57138974  0.07138974  1
  Sb  Sb227  1  0.07138974  0.57138974  0.57138974  1
  Sb  Sb228  1  0.57138974  0.07138974  0.07138974  1
  Sb  Sb229  1  0.57138974  0.07138974  0.57138974  1
  Sb  Sb230  1  0.57138974  0.57138974  0.07138974  1
  Sb  Sb231  1  0.57138974  0.57138974  0.57138974  1
  Sb  Sb232  1  0.32138974  0.32138974  0.32138974  1
  Sb  Sb233  1  0.32138974  0.32138974  0.82138974  1
  Sb  Sb234  1  0.32138974  0.82138974  0.32138974  1
  Sb  Sb235  1  0.32138974  0.82138974  0.82138974  1
  Sb  Sb236  1  0.82138974  0.32138974  0.32138974  1
  Sb  Sb237  1  0.82138974  0.32138974  0.82138974  1
  Sb  Sb238  1  0.82138974  0.82138974  0.32138974  1
  Sb  Sb239  1  0.82138974  0.82138974  0.82138974  1
  Sb  Sb240  1  -0.17861026  0.17861026  0.17861026  1
  Sb  Sb241  1  -0.17861026  0.17861026  0.67861026  1
  Sb  Sb242  1  -0.17861026  0.67861026  0.17861026  1
  Sb  Sb243  1  -0.17861026  0.67861026  0.67861026  1
  Sb  Sb244  1  0.32138974  0.17861026  0.17861026  1
  Sb  Sb245  1  0.32138974  0.17861026  0.67861026  1
  Sb  Sb246  1  0.32138974  0.67861026  0.17861026  1
  Sb  Sb247  1  0.32138974  0.67861026  0.67861026  1
  Sb  Sb248  1  0.07138974  0.42861026  0.42861026  1
  Sb  Sb249  1  0.07138974  0.42861026  0.92861026  1
  Sb  Sb250  1  0.07138974  0.92861026  0.42861026  1
  Sb  Sb251  1  0.07138974  0.92861026  0.92861026  1
  Sb  Sb252  1  0.57138974  0.42861026  0.42861026  1
  Sb  Sb253  1  0.57138974  0.42861026  0.92861026  1
  Sb  Sb254  1  0.57138974  0.92861026  0.42861026  1
  Sb  Sb255  1  0.57138974  0.92861026  0.92861026  1
  O  O256  1  0.06427489  0.17590810  0.06427489  1
  O  O257  1  0.06427489  0.17590810  0.56427489  1
  O  O258  1  0.06427489  0.67590810  0.06427489  1
  O  O259  1  0.06427489  0.67590810  0.56427489  1
  O  O260  1  0.56427489  0.17590810  0.06427489  1
  O  O261  1  0.56427489  0.17590810  0.56427489  1
  O  O262  1  0.56427489  0.67590810  0.06427489  1
  O  O263  1  0.56427489  0.67590810  0.56427489  1
  O  O264  1  0.31427489  0.42590810  0.31427489  1
  O  O265  1  0.31427489  0.42590810  0.81427489  1
  O  O266  1  0.31427489  0.92590810  0.31427489  1
  O  O267  1  0.31427489  0.92590810  0.81427489  1
  O  O268  1  0.81427489  0.42590810  0.31427489  1
  O  O269  1  0.81427489  0.42590810  0.81427489  1
  O  O270  1  0.81427489  0.92590810  0.31427489  1
  O  O271  1  0.81427489  0.92590810  0.81427489  1
  O  O272  1  0.17590810  0.06427489  0.06427489  1
  O  O273  1  0.17590810  0.06427489  0.56427489  1
  O  O274  1  0.17590810  0.56427489  0.06427489  1
  O  O275  1  0.17590810  0.56427489  0.56427489  1
  O  O276  1  0.67590810  0.06427489  0.06427489  1
  O  O277  1  0.67590810  0.06427489  0.56427489  1
  O  O278  1  0.67590810  0.56427489  0.06427489  1
  O  O279  1  0.67590810  0.56427489  0.56427489  1
  O  O280  1  0.42590810  0.31427489  0.31427489  1
  O  O281  1  0.42590810  0.31427489  0.81427489  1
  O  O282  1  0.42590810  0.81427489  0.31427489  1
  O  O283  1  0.42590810  0.81427489  0.81427489  1
  O  O284  1  0.92590810  0.31427489  0.31427489  1
  O  O285  1  0.92590810  0.31427489  0.81427489  1
  O  O286  1  0.92590810  0.81427489  0.31427489  1
  O  O287  1  0.92590810  0.81427489  0.81427489  1
  O  O288  1  0.06427489  0.06427489  0.17590810  1
  O  O289  1  0.06427489  0.06427489  0.67590810  1
  O  O290  1  0.06427489  0.56427489  0.17590810  1
  O  O291  1  0.06427489  0.56427489  0.67590810  1
  O  O292  1  0.56427489  0.06427489  0.17590810  1
  O  O293  1  0.56427489  0.06427489  0.67590810  1
  O  O294  1  0.56427489  0.56427489  0.17590810  1
  O  O295  1  0.56427489  0.56427489  0.67590810  1
  O  O296  1  0.31427489  0.31427489  0.42590810  1
  O  O297  1  0.31427489  0.31427489  0.92590810  1
  O  O298  1  0.31427489  0.81427489  0.42590810  1
  O  O299  1  0.31427489  0.81427489  0.92590810  1
  O  O300  1  0.81427489  0.31427489  0.42590810  1
  O  O301  1  0.81427489  0.31427489  0.92590810  1
  O  O302  1  0.81427489  0.81427489  0.42590810  1
  O  O303  1  0.81427489  0.81427489  0.92590810  1
  O  O304  1  0.06427489  -0.06427489  0.32409190  1
  O  O305  1  0.06427489  -0.06427489  0.82409190  1
  O  O306  1  0.06427489  0.43572511  0.32409190  1
  O  O307  1  0.06427489  0.43572511  0.82409190  1
  O  O308  1  0.56427489  -0.06427489  0.32409190  1
  O  O309  1  0.56427489  -0.06427489  0.82409190  1
  O  O310  1  0.56427489  0.43572511  0.32409190  1
  O  O311  1  0.56427489  0.43572511  0.82409190  1
  O  O312  1  0.31427489  0.18572511  0.57409190  1
  O  O313  1  0.31427489  0.18572511  1.07409190  1
  O  O314  1  0.31427489  0.68572511  0.57409190  1
  O  O315  1  0.31427489  0.68572511  1.07409190  1
  O  O316  1  0.81427489  0.18572511  0.57409190  1
  O  O317  1  0.81427489  0.18572511  1.07409190  1
  O  O318  1  0.81427489  0.68572511  0.57409190  1
  O  O319  1  0.81427489  0.68572511  1.07409190  1
  O  O320  1  -0.06427489  0.32409190  0.06427489  1
  O  O321  1  -0.06427489  0.32409190  0.56427489  1
  O  O322  1  -0.06427489  0.82409190  0.06427489  1
  O  O323  1  -0.06427489  0.82409190  0.56427489  1
  O  O324  1  0.43572511  0.32409190  0.06427489  1
  O  O325  1  0.43572511  0.32409190  0.56427489  1
  O  O326  1  0.43572511  0.82409190  0.06427489  1
  O  O327  1  0.43572511  0.82409190  0.56427489  1
  O  O328  1  0.18572511  0.57409190  0.31427489  1
  O  O329  1  0.18572511  0.57409190  0.81427489  1
  O  O330  1  0.18572511  1.07409190  0.31427489  1
  O  O331  1  0.18572511  1.07409190  0.81427489  1
  O  O332  1  0.68572511  0.57409190  0.31427489  1
  O  O333  1  0.68572511  0.57409190  0.81427489  1
  O  O334  1  0.68572511  1.07409190  0.31427489  1
  O  O335  1  0.68572511  1.07409190  0.81427489  1
  O  O336  1  0.06427489  0.32409190  -0.06427489  1
  O  O337  1  0.06427489  0.32409190  0.43572511  1
  O  O338  1  0.06427489  0.82409190  -0.06427489  1
  O  O339  1  0.06427489  0.82409190  0.43572511  1
  O  O340  1  0.56427489  0.32409190  -0.06427489  1
  O  O341  1  0.56427489  0.32409190  0.43572511  1
  O  O342  1  0.56427489  0.82409190  -0.06427489  1
  O  O343  1  0.56427489  0.82409190  0.43572511  1
  O  O344  1  0.31427489  0.57409190  0.18572511  1
  O  O345  1  0.31427489  0.57409190  0.68572511  1
  O  O346  1  0.31427489  1.07409190  0.18572511  1
  O  O347  1  0.31427489  1.07409190  0.68572511  1
  O  O348  1  0.81427489  0.57409190  0.18572511  1
  O  O349  1  0.81427489  0.57409190  0.68572511  1
  O  O350  1  0.81427489  1.07409190  0.18572511  1
  O  O351  1  0.81427489  1.07409190  0.68572511  1
  O  O352  1  0.18572511  -0.07409190  0.18572511  1
  O  O353  1  0.18572511  -0.07409190  0.68572511  1
  O  O354  1  0.18572511  0.42590810  0.18572511  1
  O  O355  1  0.18572511  0.42590810  0.68572511  1
  O  O356  1  0.68572511  -0.07409190  0.18572511  1
  O  O357  1  0.68572511  -0.07409190  0.68572511  1
  O  O358  1  0.68572511  0.42590810  0.18572511  1
  O  O359  1  0.68572511  0.42590810  0.68572511  1
  O  O360  1  0.43572511  0.17590810  0.43572511  1
  O  O361  1  0.43572511  0.17590810  0.93572511  1
  O  O362  1  0.43572511  0.67590810  0.43572511  1
  O  O363  1  0.43572511  0.67590810  0.93572511  1
  O  O364  1  0.93572511  0.17590810  0.43572511  1
  O  O365  1  0.93572511  0.17590810  0.93572511  1
  O  O366  1  0.93572511  0.67590810  0.43572511  1
  O  O367  1  0.93572511  0.67590810  0.93572511  1
  O  O368  1  -0.06427489  0.06427489  0.32409190  1
  O  O369  1  -0.06427489  0.06427489  0.82409190  1
  O  O370  1  -0.06427489  0.56427489  0.32409190  1
  O  O371  1  -0.06427489  0.56427489  0.82409190  1
  O  O372  1  0.43572511  0.06427489  0.32409190  1
  O  O373  1  0.43572511  0.06427489  0.82409190  1
  O  O374  1  0.43572511  0.56427489  0.32409190  1
  O  O375  1  0.43572511  0.56427489  0.82409190  1
  O  O376  1  0.18572511  0.31427489  0.57409190  1
  O  O377  1  0.18572511  0.31427489  1.07409190  1
  O  O378  1  0.18572511  0.81427489  0.57409190  1
  O  O379  1  0.18572511  0.81427489  1.07409190  1
  O  O380  1  0.68572511  0.31427489  0.57409190  1
  O  O381  1  0.68572511  0.31427489  1.07409190  1
  O  O382  1  0.68572511  0.81427489  0.57409190  1
  O  O383  1  0.68572511  0.81427489  1.07409190  1
  O  O384  1  0.32409190  0.06427489  -0.06427489  1
  O  O385  1  0.32409190  0.06427489  0.43572511  1
  O  O386  1  0.32409190  0.56427489  -0.06427489  1
  O  O387  1  0.32409190  0.56427489  0.43572511  1
  O  O388  1  0.82409190  0.06427489  -0.06427489  1
  O  O389  1  0.82409190  0.06427489  0.43572511  1
  O  O390  1  0.82409190  0.56427489  -0.06427489  1
  O  O391  1  0.82409190  0.56427489  0.43572511  1
  O  O392  1  0.57409190  0.31427489  0.18572511  1
  O  O393  1  0.57409190  0.31427489  0.68572511  1
  O  O394  1  0.57409190  0.81427489  0.18572511  1
  O  O395  1  0.57409190  0.81427489  0.68572511  1
  O  O396  1  1.07409190  0.31427489  0.18572511  1
  O  O397  1  1.07409190  0.31427489  0.68572511  1
  O  O398  1  1.07409190  0.81427489  0.18572511  1
  O  O399  1  1.07409190  0.81427489  0.68572511  1
  O  O400  1  0.18572511  0.18572511  -0.07409190  1
  O  O401  1  0.18572511  0.18572511  0.42590810  1
  O  O402  1  0.18572511  0.68572511  -0.07409190  1
  O  O403  1  0.18572511  0.68572511  0.42590810  1
  O  O404  1  0.68572511  0.18572511  -0.07409190  1
  O  O405  1  0.68572511  0.18572511  0.42590810  1
  O  O406  1  0.68572511  0.68572511  -0.07409190  1
  O  O407  1  0.68572511  0.68572511  0.42590810  1
  O  O408  1  0.43572511  0.43572511  0.17590810  1
  O  O409  1  0.43572511  0.43572511  0.67590810  1
  O  O410  1  0.43572511  0.93572511  0.17590810  1
  O  O411  1  0.43572511  0.93572511  0.67590810  1
  O  O412  1  0.93572511  0.43572511  0.17590810  1
  O  O413  1  0.93572511  0.43572511  0.67590810  1
  O  O414  1  0.93572511  0.93572511  0.17590810  1
  O  O415  1  0.93572511  0.93572511  0.67590810  1
  O  O416  1  -0.07409190  0.18572511  0.18572511  1
  O  O417  1  -0.07409190  0.18572511  0.68572511  1
  O  O418  1  -0.07409190  0.68572511  0.18572511  1
  O  O419  1  -0.07409190  0.68572511  0.68572511  1
  O  O420  1  0.42590810  0.18572511  0.18572511  1
  O  O421  1  0.42590810  0.18572511  0.68572511  1
  O  O422  1  0.42590810  0.68572511  0.18572511  1
  O  O423  1  0.42590810  0.68572511  0.68572511  1
  O  O424  1  0.17590810  0.43572511  0.43572511  1
  O  O425  1  0.17590810  0.43572511  0.93572511  1
  O  O426  1  0.17590810  0.93572511  0.43572511  1
  O  O427  1  0.17590810  0.93572511  0.93572511  1
  O  O428  1  0.67590810  0.43572511  0.43572511  1
  O  O429  1  0.67590810  0.43572511  0.93572511  1
  O  O430  1  0.67590810  0.93572511  0.43572511  1
  O  O431  1  0.67590810  0.93572511  0.93572511  1
  O  O432  1  0.32409190  -0.06427489  0.06427489  1
  O  O433  1  0.32409190  -0.06427489  0.56427489  1
  O  O434  1  0.32409190  0.43572511  0.06427489  1
  O  O435  1  0.32409190  0.43572511  0.56427489  1
  O  O436  1  0.82409190  -0.06427489  0.06427489  1
  O  O437  1  0.82409190  -0.06427489  0.56427489  1
  O  O438  1  0.82409190  0.43572511  0.06427489  1
  O  O439  1  0.82409190  0.43572511  0.56427489  1
  O  O440  1  0.57409190  0.18572511  0.31427489  1
  O  O441  1  0.57409190  0.18572511  0.81427489  1
  O  O442  1  0.57409190  0.68572511  0.31427489  1
  O  O443  1  0.57409190  0.68572511  0.81427489  1
  O  O444  1  1.07409190  0.18572511  0.31427489  1
  O  O445  1  1.07409190  0.18572511  0.81427489  1
  O  O446  1  1.07409190  0.68572511  0.31427489  1
  O  O447  1  1.07409190  0.68572511  0.81427489  1
