# generated using pymatgen
data_RbLiCrO4
_symmetry_space_group_name_H-M   'P 1'
_cell_length_a   16.10876361
_cell_length_b   16.10876361
_cell_length_c   18.37560901
_cell_angle_alpha   90.00000000
_cell_angle_beta   90.00000000
_cell_angle_gamma   120.00000000
_symmetry_Int_Tables_number   1
_chemical_formula_structural   RbLiCrO4
_chemical_formula_sum   'Rb36 Li36 Cr36 O144'
_cell_volume   4129.49352989
_cell_formula_units_Z   36
loop_
 _symmetry_equiv_pos_site_id
 _symmetry_equiv_pos_as_xyz
  1  'x, y, z'
loop_
 _atom_site_type_symbol
 _atom_site_label
 _atom_site_symmetry_multiplicity
 _atom_site_fract_x
 _atom_site_fract_y
 _atom_site_fract_z
 _atom_site_occupancy
  Rb  Rb0  1  0.00000000  0.00000000  0.24715579  1
  Rb  Rb1  1  0.00000000  0.00000000  0.74715579  1
  Rb  Rb2  1  0.00000000  0.33333333  0.24715579  1
  Rb  Rb3  1  0.00000000  0.33333333  0.74715579  1
  Rb  Rb4  1  0.00000000  0.66666667  0.24715579  1
  Rb  Rb5  1  0.00000000  0.66666667  0.74715579  1
  Rb  Rb6  1  0.33333333  0.00000000  0.24715579  1
  Rb  Rb7  1  0.33333333  0.00000000  0.74715579  1
  Rb  Rb8  1  0.33333333  0.33333333  0.24715579  1
  Rb  Rb9  1  0.33333333  0.33333333  0.74715579  1
  Rb  Rb10  1  0.33333333  0.66666667  0.24715579  1
  Rb  Rb11  1  0.33333333  0.66666667  0.74715579  1
  Rb  Rb12  1  0.66666667  0.00000000  0.24715579  1
  Rb  Rb13  1  0.66666667  0.00000000  0.74715579  1
  Rb  Rb14  1  0.66666667  0.33333333  0.24715579  1
  Rb  Rb15  1  0.66666667  0.33333333  0.74715579  1
  Rb  Rb16  1  0.66666667  0.66666667  0.24715579  1
  Rb  Rb17  1  0.66666667  0.66666667  0.74715579  1
  Rb  Rb18  1  0.00000000  0.00000000  0.49715579  1
  Rb  Rb19  1  0.00000000  0.00000000  0.99715579  1
  Rb  Rb20  1  0.00000000  0.33333333  0.49715579  1
  Rb  Rb21  1  0.00000000  0.33333333  0.99715579  1
  Rb  Rb22  1  0.00000000  0.66666667  0.49715579  1
  Rb  Rb23  1  0.00000000  0.66666667  0.99715579  1
  Rb  Rb24  1  0.33333333  0.00000000  0.49715579  1
  Rb  Rb25  1  0.33333333  0.00000000  0.99715579  1
  Rb  Rb26  1  0.33333333  0.33333333  0.49715579  1
  Rb  Rb27  1  0.33333333  0.33333333  0.99715579  1
  Rb  Rb28  1  0.33333333  0.66666667  0.49715579  1
  Rb  Rb29  1  0.33333333  0.66666667  0.99715579  1
  Rb  Rb30  1  0.66666667  0.00000000  0.49715579  1
  Rb  Rb31  1  0.66666667  0.00000000  0.99715579  1
  Rb  Rb32  1  0.66666667  0.33333333  0.49715579  1
  Rb  Rb33  1  0.66666667  0.33333333  0.99715579  1
  Rb  Rb34  1  0.66666667  0.66666667  0.49715579  1
  Rb  Rb35  1  0.66666667  0.66666667  0.99715579  1
  Li  Li36  1  0.22222222  0.11111111  0.34055354  1
  Li  Li37  1  0.22222222  0.11111111  0.84055354  1
  Li  Li38  1  0.22222222  0.44444444  0.34055354  1
  Li  Li39  1  0.22222222  0.44444444  0.84055354  1
  Li  Li40  1  0.22222222  0.77777778  0.34055354  1
  Li  Li41  1  0.22222222  0.77777778  0.84055354  1
  Li  Li42  1  0.55555556  0.11111111  0.34055354  1
  Li  Li43  1  0.55555556  0.11111111  0.84055354  1
  Li  Li44  1  0.55555556  0.44444444  0.34055354  1
  Li  Li45  1  0.55555556  0.44444444  0.84055354  1
  Li  Li46  1  0.55555556  0.77777778  0.34055354  1
  Li  Li47  1  0.55555556  0.77777778  0.84055354  1
  Li  Li48  1  0.88888889  0.11111111  0.34055354  1
  Li  Li49  1  0.88888889  0.11111111  0.84055354  1
  Li  Li50  1  0.88888889  0.44444444  0.34055354  1
  Li  Li51  1  0.88888889  0.44444444  0.84055354  1
  Li  Li52  1  0.88888889  0.77777778  0.34055354  1
  Li  Li53  1  0.88888889  0.77777778  0.84055354  1
  Li  Li54  1  0.11111111  0.22222222  0.09055354  1
  Li  Li55  1  0.11111111  0.22222222  0.59055354  1
  Li  Li56  1  0.11111111  0.55555556  0.09055354  1
  Li  Li57  1  0.11111111  0.55555556  0.59055354  1
  Li  Li58  1  0.11111111  0.88888889  0.09055354  1
  Li  Li59  1  0.11111111  0.88888889  0.59055354  1
  Li  Li60  1  0.44444444  0.22222222  0.09055354  1
  Li  Li61  1  0.44444444  0.22222222  0.59055354  1
  Li  Li62  1  0.44444444  0.55555556  0.09055354  1
  Li  Li63  1  0.44444444  0.55555556  0.59055354  1
  Li  Li64  1  0.44444444  0.88888889  0.09055354  1
  Li  Li65  1  0.44444444  0.88888889  0.59055354  1
  Li  Li66  1  0.77777778  0.22222222  0.09055354  1
  Li  Li67  1  0.77777778  0.22222222  0.59055354  1
  Li  Li68  1  0.77777778  0.55555556  0.09055354  1
  Li  Li69  1  0.77777778  0.55555556  0.59055354  1
  Li  Li70  1  0.77777778  0.88888889  0.09055354  1
  Li  Li71  1  0.77777778  0.88888889  0.59055354  1
  Cr  Cr72  1  0.11111111  0.22222222  0.39577350  1
  Cr  Cr73  1  0.11111111  0.22222222  0.89577350  1
  Cr  Cr74  1  0.11111111  0.55555556  0.39577350  1
  Cr  Cr75  1  0.11111111  0.55555556  0.89577350  1
  Cr  Cr76  1  0.11111111  0.88888889  0.39577350  1
  Cr  Cr77  1  0.11111111  0.88888889  0.89577350  1
  Cr  Cr78  1  0.44444444  0.22222222  0.39577350  1
  Cr  Cr79  1  0.44444444  0.22222222  0.89577350  1
  Cr  Cr80  1  0.44444444  0.55555556  0.39577350  1
  Cr  Cr81  1  0.44444444  0.55555556  0.89577350  1
  Cr  Cr82  1  0.44444444  0.88888889  0.39577350  1
  Cr  Cr83  1  0.44444444  0.88888889  0.89577350  1
  Cr  Cr84  1  0.77777778  0.22222222  0.39577350  1
  Cr  Cr85  1  0.77777778  0.22222222  0.89577350  1
  Cr  Cr86  1  0.77777778  0.55555556  0.39577350  1
  Cr  Cr87  1  0.77777778  0.55555556  0.89577350  1
  Cr  Cr88  1  0.77777778  0.88888889  0.39577350  1
  Cr  Cr89  1  0.77777778  0.88888889  0.89577350  1
  Cr  Cr90  1  0.22222222  0.11111111  0.14577350  1
  Cr  Cr91  1  0.22222222  0.11111111  0.64577350  1
  Cr  Cr92  1  0.22222222  0.44444444  0.14577350  1
  Cr  Cr93  1  0.22222222  0.44444444  0.64577350  1
  Cr  Cr94  1  0.22222222  0.77777778  0.14577350  1
  Cr  Cr95  1  0.22222222  0.77777778  0.64577350  1
  Cr  Cr96  1  0.55555556  0.11111111  0.14577350  1
  Cr  Cr97  1  0.55555556  0.11111111  0.64577350  1
  Cr  Cr98  1  0.55555556  0.44444444  0.14577350  1
  Cr  Cr99  1  0.55555556  0.44444444  0.64577350  1
  Cr  Cr100  1  0.55555556  0.77777778  0.14577350  1
  Cr  Cr101  1  0.55555556  0.77777778  0.64577350  1
  Cr  Cr102  1  0.88888889  0.11111111  0.14577350  1
  Cr  Cr103  1  0.88888889  0.11111111  0.64577350  1
  Cr  Cr104  1  0.88888889  0.44444444  0.14577350  1
  Cr  Cr105  1  0.88888889  0.44444444  0.64577350  1
  Cr  Cr106  1  0.88888889  0.77777778  0.14577350  1
  Cr  Cr107  1  0.88888889  0.77777778  0.64577350  1
  O  O108  1  0.20706159  0.32116223  0.36706711  1
  O  O109  1  0.20706159  0.32116223  0.86706711  1
  O  O110  1  0.20706159  0.65449557  0.36706711  1
  O  O111  1  0.20706159  0.65449557  0.86706711  1
  O  O112  1  0.20706159  0.98782890  0.36706711  1
  O  O113  1  0.20706159  0.98782890  0.86706711  1
  O  O114  1  0.54039492  0.32116223  0.36706711  1
  O  O115  1  0.54039492  0.32116223  0.86706711  1
  O  O116  1  0.54039492  0.65449557  0.36706711  1
  O  O117  1  0.54039492  0.65449557  0.86706711  1
  O  O118  1  0.54039492  0.98782890  0.36706711  1
  O  O119  1  0.54039492  0.98782890  0.86706711  1
  O  O120  1  0.87372826  0.32116223  0.36706711  1
  O  O121  1  0.87372826  0.32116223  0.86706711  1
  O  O122  1  0.87372826  0.65449557  0.36706711  1
  O  O123  1  0.87372826  0.65449557  0.86706711  1
  O  O124  1  0.87372826  0.98782890  0.36706711  1
  O  O125  1  0.87372826  0.98782890  0.86706711  1
  O  O126  1  0.01217110  0.21923269  0.36706711  1
  O  O127  1  0.01217110  0.21923269  0.86706711  1
  O  O128  1  0.01217110  0.55256602  0.36706711  1
  O  O129  1  0.01217110  0.55256602  0.86706711  1
  O  O130  1  0.01217110  0.88589936  0.36706711  1
  O  O131  1  0.01217110  0.88589936  0.86706711  1
  O  O132  1  0.34550443  0.21923269  0.36706711  1
  O  O133  1  0.34550443  0.21923269  0.86706711  1
  O  O134  1  0.34550443  0.55256602  0.36706711  1
  O  O135  1  0.34550443  0.55256602  0.86706711  1
  O  O136  1  0.34550443  0.88589936  0.36706711  1
  O  O137  1  0.34550443  0.88589936  0.86706711  1
  O  O138  1  0.67883777  0.21923269  0.36706711  1
  O  O139  1  0.67883777  0.21923269  0.86706711  1
  O  O140  1  0.67883777  0.55256602  0.36706711  1
  O  O141  1  0.67883777  0.55256602  0.86706711  1
  O  O142  1  0.67883777  0.88589936  0.36706711  1
  O  O143  1  0.67883777  0.88589936  0.86706711  1
  O  O144  1  0.11410064  0.12627174  0.36706711  1
  O  O145  1  0.11410064  0.12627174  0.86706711  1
  O  O146  1  0.11410064  0.45960508  0.36706711  1
  O  O147  1  0.11410064  0.45960508  0.86706711  1
  O  O148  1  0.11410064  0.79293841  0.36706711  1
  O  O149  1  0.11410064  0.79293841  0.86706711  1
  O  O150  1  0.44743398  0.12627174  0.36706711  1
  O  O151  1  0.44743398  0.12627174  0.86706711  1
  O  O152  1  0.44743398  0.45960508  0.36706711  1
  O  O153  1  0.44743398  0.45960508  0.86706711  1
  O  O154  1  0.44743398  0.79293841  0.36706711  1
  O  O155  1  0.44743398  0.79293841  0.86706711  1
  O  O156  1  0.78076731  0.12627174  0.36706711  1
  O  O157  1  0.78076731  0.12627174  0.86706711  1
  O  O158  1  0.78076731  0.45960508  0.36706711  1
  O  O159  1  0.78076731  0.45960508  0.86706711  1
  O  O160  1  0.78076731  0.79293841  0.36706711  1
  O  O161  1  0.78076731  0.79293841  0.86706711  1
  O  O162  1  0.32116223  0.20706159  0.11706711  1
  O  O163  1  0.32116223  0.20706159  0.61706711  1
  O  O164  1  0.32116223  0.54039492  0.11706711  1
  O  O165  1  0.32116223  0.54039492  0.61706711  1
  O  O166  1  0.32116223  0.87372826  0.11706711  1
  O  O167  1  0.32116223  0.87372826  0.61706711  1
  O  O168  1  0.65449557  0.20706159  0.11706711  1
  O  O169  1  0.65449557  0.20706159  0.61706711  1
  O  O170  1  0.65449557  0.54039492  0.11706711  1
  O  O171  1  0.65449557  0.54039492  0.61706711  1
  O  O172  1  0.65449557  0.87372826  0.11706711  1
  O  O173  1  0.65449557  0.87372826  0.61706711  1
  O  O174  1  0.98782890  0.20706159  0.11706711  1
  O  O175  1  0.98782890  0.20706159  0.61706711  1
  O  O176  1  0.98782890  0.54039492  0.11706711  1
  O  O177  1  0.98782890  0.54039492  0.61706711  1
  O  O178  1  0.98782890  0.87372826  0.11706711  1
  O  O179  1  0.98782890  0.87372826  0.61706711  1
  O  O180  1  0.22222222  0.11111111  0.23601684  1
  O  O181  1  0.22222222  0.11111111  0.73601684  1
  O  O182  1  0.22222222  0.44444444  0.23601684  1
  O  O183  1  0.22222222  0.44444444  0.73601684  1
  O  O184  1  0.22222222  0.77777778  0.23601684  1
  O  O185  1  0.22222222  0.77777778  0.73601684  1
  O  O186  1  0.55555556  0.11111111  0.23601684  1
  O  O187  1  0.55555556  0.11111111  0.73601684  1
  O  O188  1  0.55555556  0.44444444  0.23601684  1
  O  O189  1  0.55555556  0.44444444  0.73601684  1
  O  O190  1  0.55555556  0.77777778  0.23601684  1
  O  O191  1  0.55555556  0.77777778  0.73601684  1
  O  O192  1  0.88888889  0.11111111  0.23601684  1
  O  O193  1  0.88888889  0.11111111  0.73601684  1
  O  O194  1  0.88888889  0.44444444  0.23601684  1
  O  O195  1  0.88888889  0.44444444  0.73601684  1
  O  O196  1  0.88888889  0.77777778  0.23601684  1
  O  O197  1  0.88888889  0.77777778  0.73601684  1
  O  O198  1  0.11111111  0.22222222  0.48601684  1
  O  O199  1  0.11111111  0.22222222  0.98601684  1
  O  O200  1  0.11111111  0.55555556  0.48601684  1
  O  O201  1  0.11111111  0.55555556  0.98601684  1
  O  O202  1  0.11111111  0.88888889  0.48601684  1
  O  O203  1  0.11111111  0.88888889  0.98601684  1
  O  O204  1  0.44444444  0.22222222  0.48601684  1
  O  O205  1  0.44444444  0.22222222  0.98601684  1
  O  O206  1  0.44444444  0.55555556  0.48601684  1
  O  O207  1  0.44444444  0.55555556  0.98601684  1
  O  O208  1  0.44444444  0.88888889  0.48601684  1
  O  O209  1  0.44444444  0.88888889  0.98601684  1
  O  O210  1  0.77777778  0.22222222  0.48601684  1
  O  O211  1  0.77777778  0.22222222  0.98601684  1
  O  O212  1  0.77777778  0.55555556  0.48601684  1
  O  O213  1  0.77777778  0.55555556  0.98601684  1
  O  O214  1  0.77777778  0.88888889  0.48601684  1
  O  O215  1  0.77777778  0.88888889  0.98601684  1
  O  O216  1  0.12627174  0.11410064  0.11706711  1
  O  O217  1  0.12627174  0.11410064  0.61706711  1
  O  O218  1  0.12627174  0.44743398  0.11706711  1
  O  O219  1  0.12627174  0.44743398  0.61706711  1
  O  O220  1  0.12627174  0.78076731  0.11706711  1
  O  O221  1  0.12627174  0.78076731  0.61706711  1
  O  O222  1  0.45960508  0.11410064  0.11706711  1
  O  O223  1  0.45960508  0.11410064  0.61706711  1
  O  O224  1  0.45960508  0.44743398  0.11706711  1
  O  O225  1  0.45960508  0.44743398  0.61706711  1
  O  O226  1  0.45960508  0.78076731  0.11706711  1
  O  O227  1  0.45960508  0.78076731  0.61706711  1
  O  O228  1  0.79293841  0.11410064  0.11706711  1
  O  O229  1  0.79293841  0.11410064  0.61706711  1
  O  O230  1  0.79293841  0.44743398  0.11706711  1
  O  O231  1  0.79293841  0.44743398  0.61706711  1
  O  O232  1  0.79293841  0.78076731  0.11706711  1
  O  O233  1  0.79293841  0.78076731  0.61706711  1
  O  O234  1  0.21923269  0.01217110  0.11706711  1
  O  O235  1  0.21923269  0.01217110  0.61706711  1
  O  O236  1  0.21923269  0.34550443  0.11706711  1
  O  O237  1  0.21923269  0.34550443  0.61706711  1
  O  O238  1  0.21923269  0.67883777  0.11706711  1
  O  O239  1  0.21923269  0.67883777  0.61706711  1
  O  O240  1  0.55256602  0.01217110  0.11706711  1
  O  O241  1  0.55256602  0.01217110  0.61706711  1
  O  O242  1  0.55256602  0.34550443  0.11706711  1
  O  O243  1  0.55256602  0.34550443  0.61706711  1
  O  O244  1  0.55256602  0.67883777  0.11706711  1
  O  O245  1  0.55256602  0.67883777  0.61706711  1
  O  O246  1  0.88589936  0.01217110  0.11706711  1
  O  O247  1  0.88589936  0.01217110  0.61706711  1
  O  O248  1  0.88589936  0.34550443  0.11706711  1
  O  O249  1  0.88589936  0.34550443  0.61706711  1
  O  O250  1  0.88589936  0.67883777  0.11706711  1
  O  O251  1  0.88589936  0.67883777  0.61706711  1
