# generated using pymatgen
data_KZn4(SbO4)3
_symmetry_space_group_name_H-M   'P 1'
_cell_length_a   10.81149115
_cell_length_b   10.81149115
_cell_length_c   14.57435691
_cell_angle_alpha   90.00000000
_cell_angle_beta   90.00000000
_cell_angle_gamma   120.00000000
_symmetry_Int_Tables_number   1
_chemical_formula_structural   KZn4(SbO4)3
_chemical_formula_sum   'K6 Zn24 Sb18 O72'
_cell_volume   1475.33697350
_cell_formula_units_Z   6
loop_
 _symmetry_equiv_pos_site_id
 _symmetry_equiv_pos_as_xyz
  1  'x, y, z'
loop_
 _atom_site_type_symbol
 _atom_site_label
 _atom_site_symmetry_multiplicity
 _atom_site_fract_x
 _atom_site_fract_y
 _atom_site_fract_z
 _atom_site_occupancy
  K  K0  1  -0.00000000  -0.00000000  0.25513745  1
  K  K1  1  -0.00000000  -0.00000000  0.75513745  1
  K  K2  1  0.66666667  0.33333333  0.42180412  1
  K  K3  1  0.66666667  0.33333333  0.92180412  1
  K  K4  1  0.33333333  0.66666667  0.58847079  1
  K  K5  1  0.33333333  0.66666667  1.08847079  1
  Zn  Zn6  1  -0.36436958  -0.24738417  0.19498554  1
  Zn  Zn7  1  -0.36436958  -0.24738417  0.69498554  1
  Zn  Zn8  1  0.30229709  0.08594917  0.36165221  1
  Zn  Zn9  1  0.30229709  0.08594917  0.86165221  1
  Zn  Zn10  1  -0.03103624  0.41928250  0.52831887  1
  Zn  Zn11  1  -0.03103624  0.41928250  1.02831887  1
  Zn  Zn12  1  0.11698541  0.36436958  0.19498554  1
  Zn  Zn13  1  0.11698541  0.36436958  0.69498554  1
  Zn  Zn14  1  0.78365208  0.69770291  0.36165221  1
  Zn  Zn15  1  0.78365208  0.69770291  0.86165221  1
  Zn  Zn16  1  0.45031874  1.03103624  0.52831887  1
  Zn  Zn17  1  0.45031874  1.03103624  1.02831887  1
  Zn  Zn18  1  0.24738417  -0.11698541  0.19498554  1
  Zn  Zn19  1  0.24738417  -0.11698541  0.69498554  1
  Zn  Zn20  1  0.91405083  0.21634792  0.36165221  1
  Zn  Zn21  1  0.91405083  0.21634792  0.86165221  1
  Zn  Zn22  1  0.58071750  0.54968126  0.52831887  1
  Zn  Zn23  1  0.58071750  0.54968126  1.02831887  1
  Zn  Zn24  1  -0.00000000  -0.00000000  0.49287875  1
  Zn  Zn25  1  -0.00000000  -0.00000000  0.99287875  1
  Zn  Zn26  1  0.66666667  0.33333333  0.65954542  1
  Zn  Zn27  1  0.66666667  0.33333333  1.15954542  1
  Zn  Zn28  1  0.33333333  0.66666667  0.82621208  1
  Zn  Zn29  1  0.33333333  0.66666667  1.32621208  1
  Sb  Sb30  1  -0.23675636  0.11269221  0.15198173  1
  Sb  Sb31  1  -0.23675636  0.11269221  0.65198173  1
  Sb  Sb32  1  0.42991030  0.44602554  0.31864840  1
  Sb  Sb33  1  0.42991030  0.44602554  0.81864840  1
  Sb  Sb34  1  0.09657697  0.77935888  0.48531506  1
  Sb  Sb35  1  0.09657697  0.77935888  0.98531506  1
  Sb  Sb36  1  -0.11269221  -0.34944857  0.15198173  1
  Sb  Sb37  1  -0.11269221  -0.34944857  0.65198173  1
  Sb  Sb38  1  0.55397446  -0.01611524  0.31864840  1
  Sb  Sb39  1  0.55397446  -0.01611524  0.81864840  1
  Sb  Sb40  1  0.22064112  0.31721809  0.48531506  1
  Sb  Sb41  1  0.22064112  0.31721809  0.98531506  1
  Sb  Sb42  1  0.34944857  0.23675636  0.15198173  1
  Sb  Sb43  1  0.34944857  0.23675636  0.65198173  1
  Sb  Sb44  1  1.01611524  0.57008970  0.31864840  1
  Sb  Sb45  1  1.01611524  0.57008970  0.81864840  1
  Sb  Sb46  1  0.68278191  0.90342303  0.48531506  1
  Sb  Sb47  1  0.68278191  0.90342303  0.98531506  1
  O  O48  1  0.05081969  0.17906138  0.41868993  1
  O  O49  1  0.05081969  0.17906138  0.91868993  1
  O  O50  1  0.71748635  0.51239471  0.58535659  1
  O  O51  1  0.71748635  0.51239471  1.08535659  1
  O  O52  1  0.38415302  0.84572804  0.75202326  1
  O  O53  1  0.38415302  0.84572804  1.25202326  1
  O  O54  1  -0.17906138  -0.12824169  0.41868993  1
  O  O55  1  -0.17906138  -0.12824169  0.91868993  1
  O  O56  1  0.48760529  0.20509164  0.58535659  1
  O  O57  1  0.48760529  0.20509164  1.08535659  1
  O  O58  1  0.15427196  0.53842498  0.75202326  1
  O  O59  1  0.15427196  0.53842498  1.25202326  1
  O  O60  1  -0.20885128  -0.27432962  0.23053763  1
  O  O61  1  -0.20885128  -0.27432962  0.73053763  1
  O  O62  1  0.45781539  0.05900371  0.39720430  1
  O  O63  1  0.45781539  0.05900371  0.89720430  1
  O  O64  1  0.12448206  0.39233705  0.56387096  1
  O  O65  1  0.12448206  0.39233705  1.06387096  1
  O  O66  1  0.27432962  0.06547834  0.23053763  1
  O  O67  1  0.27432962  0.06547834  0.73053763  1
  O  O68  1  0.94099629  0.39881168  0.39720430  1
  O  O69  1  0.94099629  0.39881168  0.89720430  1
  O  O70  1  0.60766295  0.73214501  0.56387096  1
  O  O71  1  0.60766295  0.73214501  1.06387096  1
  O  O72  1  0.12824169  -0.05081969  0.41868993  1
  O  O73  1  0.12824169  -0.05081969  0.91868993  1
  O  O74  1  0.79490836  0.28251365  0.58535659  1
  O  O75  1  0.79490836  0.28251365  1.08535659  1
  O  O76  1  0.46157502  0.61584698  0.75202326  1
  O  O77  1  0.46157502  0.61584698  1.25202326  1
  O  O78  1  -0.06547834  0.20885128  0.23053763  1
  O  O79  1  -0.06547834  0.20885128  0.73053763  1
  O  O80  1  0.60118832  0.54218461  0.39720430  1
  O  O81  1  0.60118832  0.54218461  0.89720430  1
  O  O82  1  0.26785499  0.87551794  0.56387096  1
  O  O83  1  0.26785499  0.87551794  1.06387096  1
  O  O84  1  0.51491362  0.35869014  0.23690604  1
  O  O85  1  0.51491362  0.35869014  0.73690604  1
  O  O86  1  1.18158028  0.69202347  0.40357271  1
  O  O87  1  1.18158028  0.69202347  0.90357271  1
  O  O88  1  0.84824695  1.02535681  0.57023937  1
  O  O89  1  0.84824695  1.02535681  1.07023937  1
  O  O90  1  -0.15622348  -0.51491362  0.23690604  1
  O  O91  1  -0.15622348  -0.51491362  0.73690604  1
  O  O92  1  0.51044319  -0.18158028  0.40357271  1
  O  O93  1  0.51044319  -0.18158028  0.90357271  1
  O  O94  1  0.17710986  0.15175305  0.57023937  1
  O  O95  1  0.17710986  0.15175305  1.07023937  1
  O  O96  1  -0.35869014  0.15622348  0.23690604  1
  O  O97  1  -0.35869014  0.15622348  0.73690604  1
  O  O98  1  0.30797653  0.48955681  0.40357271  1
  O  O99  1  0.30797653  0.48955681  0.90357271  1
  O  O100  1  -0.02535681  0.82289014  0.57023937  1
  O  O101  1  -0.02535681  0.82289014  1.07023937  1
  O  O102  1  0.25705430  0.31677628  0.23691340  1
  O  O103  1  0.25705430  0.31677628  0.73691340  1
  O  O104  1  0.92372097  0.65010961  0.40358006  1
  O  O105  1  0.92372097  0.65010961  0.90358006  1
  O  O106  1  0.59038763  0.98344295  0.57024673  1
  O  O107  1  0.59038763  0.98344295  1.07024673  1
  O  O108  1  0.05972198  -0.25705430  0.23691340  1
  O  O109  1  0.05972198  -0.25705430  0.73691340  1
  O  O110  1  0.72638864  0.07627903  0.40358006  1
  O  O111  1  0.72638864  0.07627903  0.90358006  1
  O  O112  1  0.39305531  0.40961237  0.57024673  1
  O  O113  1  0.39305531  0.40961237  1.07024673  1
  O  O114  1  -0.31677628  -0.05972198  0.23691340  1
  O  O115  1  -0.31677628  -0.05972198  0.73691340  1
  O  O116  1  0.34989039  0.27361136  0.40358006  1
  O  O117  1  0.34989039  0.27361136  0.90358006  1
  O  O118  1  0.01655705  0.60694469  0.57024673  1
  O  O119  1  0.01655705  0.60694469  1.07024673  1
