# generated using pymatgen
data_Ta2Mo2O11
_symmetry_space_group_name_H-M   'P 1'
_cell_length_a   16.99661086
_cell_length_b   16.99661086
_cell_length_c   25.93728848
_cell_angle_alpha   90.00000000
_cell_angle_beta   90.00000000
_cell_angle_gamma   120.00000000
_symmetry_Int_Tables_number   1
_chemical_formula_structural   Ta2Mo2O11
_chemical_formula_sum   'Ta54 Mo54 O297'
_cell_volume   6489.03126133
_cell_formula_units_Z   27
loop_
 _symmetry_equiv_pos_site_id
 _symmetry_equiv_pos_as_xyz
  1  'x, y, z'
loop_
 _atom_site_type_symbol
 _atom_site_label
 _atom_site_symmetry_multiplicity
 _atom_site_fract_x
 _atom_site_fract_y
 _atom_site_fract_z
 _atom_site_occupancy
  Ta  Ta0  1  0.00000000  0.00000000  0.62831337  1
  Ta  Ta1  1  -0.00000000  0.33333333  0.62831337  1
  Ta  Ta2  1  -0.00000000  0.66666667  0.62831337  1
  Ta  Ta3  1  0.33333333  0.00000000  0.62831337  1
  Ta  Ta4  1  0.33333333  0.33333333  0.62831337  1
  Ta  Ta5  1  0.33333333  0.66666667  0.62831337  1
  Ta  Ta6  1  0.66666667  0.00000000  0.62831337  1
  Ta  Ta7  1  0.66666667  0.33333333  0.62831337  1
  Ta  Ta8  1  0.66666667  0.66666667  0.62831337  1
  Ta  Ta9  1  0.22222222  0.11111111  0.96164670  1
  Ta  Ta10  1  0.22222222  0.44444444  0.96164670  1
  Ta  Ta11  1  0.22222222  0.77777778  0.96164670  1
  Ta  Ta12  1  0.55555556  0.11111111  0.96164670  1
  Ta  Ta13  1  0.55555556  0.44444444  0.96164670  1
  Ta  Ta14  1  0.55555556  0.77777778  0.96164670  1
  Ta  Ta15  1  0.88888889  0.11111111  0.96164670  1
  Ta  Ta16  1  0.88888889  0.44444444  0.96164670  1
  Ta  Ta17  1  0.88888889  0.77777778  0.96164670  1
  Ta  Ta18  1  0.11111111  0.22222222  1.29498003  1
  Ta  Ta19  1  0.11111111  0.55555556  1.29498003  1
  Ta  Ta20  1  0.11111111  0.88888889  1.29498003  1
  Ta  Ta21  1  0.44444444  0.22222222  1.29498003  1
  Ta  Ta22  1  0.44444444  0.55555556  1.29498003  1
  Ta  Ta23  1  0.44444444  0.88888889  1.29498003  1
  Ta  Ta24  1  0.77777778  0.22222222  1.29498003  1
  Ta  Ta25  1  0.77777778  0.55555556  1.29498003  1
  Ta  Ta26  1  0.77777778  0.88888889  1.29498003  1
  Ta  Ta27  1  0.00000000  -0.00000000  0.37168663  1
  Ta  Ta28  1  -0.00000000  0.33333333  0.37168663  1
  Ta  Ta29  1  -0.00000000  0.66666667  0.37168663  1
  Ta  Ta30  1  0.33333333  -0.00000000  0.37168663  1
  Ta  Ta31  1  0.33333333  0.33333333  0.37168663  1
  Ta  Ta32  1  0.33333333  0.66666667  0.37168663  1
  Ta  Ta33  1  0.66666667  -0.00000000  0.37168663  1
  Ta  Ta34  1  0.66666667  0.33333333  0.37168663  1
  Ta  Ta35  1  0.66666667  0.66666667  0.37168663  1
  Ta  Ta36  1  0.22222222  0.11111111  0.70501997  1
  Ta  Ta37  1  0.22222222  0.44444444  0.70501997  1
  Ta  Ta38  1  0.22222222  0.77777778  0.70501997  1
  Ta  Ta39  1  0.55555556  0.11111111  0.70501997  1
  Ta  Ta40  1  0.55555556  0.44444444  0.70501997  1
  Ta  Ta41  1  0.55555556  0.77777778  0.70501997  1
  Ta  Ta42  1  0.88888889  0.11111111  0.70501997  1
  Ta  Ta43  1  0.88888889  0.44444444  0.70501997  1
  Ta  Ta44  1  0.88888889  0.77777778  0.70501997  1
  Ta  Ta45  1  0.11111111  0.22222222  1.03835330  1
  Ta  Ta46  1  0.11111111  0.55555556  1.03835330  1
  Ta  Ta47  1  0.11111111  0.88888889  1.03835330  1
  Ta  Ta48  1  0.44444444  0.22222222  1.03835330  1
  Ta  Ta49  1  0.44444444  0.55555556  1.03835330  1
  Ta  Ta50  1  0.44444444  0.88888889  1.03835330  1
  Ta  Ta51  1  0.77777778  0.22222222  1.03835330  1
  Ta  Ta52  1  0.77777778  0.55555556  1.03835330  1
  Ta  Ta53  1  0.77777778  0.88888889  1.03835330  1
  Mo  Mo54  1  -0.00000000  -0.00000000  0.88811428  1
  Mo  Mo55  1  -0.00000000  0.33333333  0.88811428  1
  Mo  Mo56  1  -0.00000000  0.66666667  0.88811428  1
  Mo  Mo57  1  0.33333333  -0.00000000  0.88811428  1
  Mo  Mo58  1  0.33333333  0.33333333  0.88811428  1
  Mo  Mo59  1  0.33333333  0.66666667  0.88811428  1
  Mo  Mo60  1  0.66666667  -0.00000000  0.88811428  1
  Mo  Mo61  1  0.66666667  0.33333333  0.88811428  1
  Mo  Mo62  1  0.66666667  0.66666667  0.88811428  1
  Mo  Mo63  1  0.22222222  0.11111111  1.22144761  1
  Mo  Mo64  1  0.22222222  0.44444444  1.22144761  1
  Mo  Mo65  1  0.22222222  0.77777778  1.22144761  1
  Mo  Mo66  1  0.55555556  0.11111111  1.22144761  1
  Mo  Mo67  1  0.55555556  0.44444444  1.22144761  1
  Mo  Mo68  1  0.55555556  0.77777778  1.22144761  1
  Mo  Mo69  1  0.88888889  0.11111111  1.22144761  1
  Mo  Mo70  1  0.88888889  0.44444444  1.22144761  1
  Mo  Mo71  1  0.88888889  0.77777778  1.22144761  1
  Mo  Mo72  1  0.11111111  0.22222222  1.55478094  1
  Mo  Mo73  1  0.11111111  0.55555556  1.55478094  1
  Mo  Mo74  1  0.11111111  0.88888889  1.55478094  1
  Mo  Mo75  1  0.44444444  0.22222222  1.55478094  1
  Mo  Mo76  1  0.44444444  0.55555556  1.55478094  1
  Mo  Mo77  1  0.44444444  0.88888889  1.55478094  1
  Mo  Mo78  1  0.77777778  0.22222222  1.55478094  1
  Mo  Mo79  1  0.77777778  0.55555556  1.55478094  1
  Mo  Mo80  1  0.77777778  0.88888889  1.55478094  1
  Mo  Mo81  1  -0.00000000  -0.00000000  0.11188572  1
  Mo  Mo82  1  -0.00000000  0.33333333  0.11188572  1
  Mo  Mo83  1  -0.00000000  0.66666667  0.11188572  1
  Mo  Mo84  1  0.33333333  -0.00000000  0.11188572  1
  Mo  Mo85  1  0.33333333  0.33333333  0.11188572  1
  Mo  Mo86  1  0.33333333  0.66666667  0.11188572  1
  Mo  Mo87  1  0.66666667  -0.00000000  0.11188572  1
  Mo  Mo88  1  0.66666667  0.33333333  0.11188572  1
  Mo  Mo89  1  0.66666667  0.66666667  0.11188572  1
  Mo  Mo90  1  0.22222222  0.11111111  0.44521906  1
  Mo  Mo91  1  0.22222222  0.44444444  0.44521906  1
  Mo  Mo92  1  0.22222222  0.77777778  0.44521906  1
  Mo  Mo93  1  0.55555556  0.11111111  0.44521906  1
  Mo  Mo94  1  0.55555556  0.44444444  0.44521906  1
  Mo  Mo95  1  0.55555556  0.77777778  0.44521906  1
  Mo  Mo96  1  0.88888889  0.11111111  0.44521906  1
  Mo  Mo97  1  0.88888889  0.44444444  0.44521906  1
  Mo  Mo98  1  0.88888889  0.77777778  0.44521906  1
  Mo  Mo99  1  0.11111111  0.22222222  0.77855239  1
  Mo  Mo100  1  0.11111111  0.55555556  0.77855239  1
  Mo  Mo101  1  0.11111111  0.88888889  0.77855239  1
  Mo  Mo102  1  0.44444444  0.22222222  0.77855239  1
  Mo  Mo103  1  0.44444444  0.55555556  0.77855239  1
  Mo  Mo104  1  0.44444444  0.88888889  0.77855239  1
  Mo  Mo105  1  0.77777778  0.22222222  0.77855239  1
  Mo  Mo106  1  0.77777778  0.55555556  0.77855239  1
  Mo  Mo107  1  0.77777778  0.88888889  0.77855239  1
  O  O108  1  0.10697809  0.05348904  0.42151112  1
  O  O109  1  0.10697809  0.38682238  0.42151112  1
  O  O110  1  0.10697809  0.72015571  0.42151112  1
  O  O111  1  0.44031142  0.05348904  0.42151112  1
  O  O112  1  0.44031142  0.38682238  0.42151112  1
  O  O113  1  0.44031142  0.72015571  0.42151112  1
  O  O114  1  0.77364476  0.05348904  0.42151112  1
  O  O115  1  0.77364476  0.38682238  0.42151112  1
  O  O116  1  0.77364476  0.72015571  0.42151112  1
  O  O117  1  0.32920031  0.16460016  0.75484446  1
  O  O118  1  0.32920031  0.49793349  0.75484446  1
  O  O119  1  0.32920031  0.83126682  0.75484446  1
  O  O120  1  0.66253364  0.16460016  0.75484446  1
  O  O121  1  0.66253364  0.49793349  0.75484446  1
  O  O122  1  0.66253364  0.83126682  0.75484446  1
  O  O123  1  0.99586698  0.16460016  0.75484446  1
  O  O124  1  0.99586698  0.49793349  0.75484446  1
  O  O125  1  0.99586698  0.83126682  0.75484446  1
  O  O126  1  0.21808920  0.27571127  1.08817779  1
  O  O127  1  0.21808920  0.60904460  1.08817779  1
  O  O128  1  0.21808920  0.94237793  1.08817779  1
  O  O129  1  0.55142253  0.27571127  1.08817779  1
  O  O130  1  0.55142253  0.60904460  1.08817779  1
  O  O131  1  0.55142253  0.94237793  1.08817779  1
  O  O132  1  0.88475587  0.27571127  1.08817779  1
  O  O133  1  0.88475587  0.60904460  1.08817779  1
  O  O134  1  0.88475587  0.94237793  1.08817779  1
  O  O135  1  -0.05348904  0.05348904  0.42151112  1
  O  O136  1  -0.05348904  0.38682238  0.42151112  1
  O  O137  1  -0.05348904  0.72015571  0.42151112  1
  O  O138  1  0.27984429  0.05348904  0.42151112  1
  O  O139  1  0.27984429  0.38682238  0.42151112  1
  O  O140  1  0.27984429  0.72015571  0.42151112  1
  O  O141  1  0.61317762  0.05348904  0.42151112  1
  O  O142  1  0.61317762  0.38682238  0.42151112  1
  O  O143  1  0.61317762  0.72015571  0.42151112  1
  O  O144  1  0.16873318  0.16460016  0.75484446  1
  O  O145  1  0.16873318  0.49793349  0.75484446  1
  O  O146  1  0.16873318  0.83126682  0.75484446  1
  O  O147  1  0.50206651  0.16460016  0.75484446  1
  O  O148  1  0.50206651  0.49793349  0.75484446  1
  O  O149  1  0.50206651  0.83126682  0.75484446  1
  O  O150  1  0.83539984  0.16460016  0.75484446  1
  O  O151  1  0.83539984  0.49793349  0.75484446  1
  O  O152  1  0.83539984  0.83126682  0.75484446  1
  O  O153  1  0.05762207  0.27571127  1.08817779  1
  O  O154  1  0.05762207  0.60904460  1.08817779  1
  O  O155  1  0.05762207  0.94237793  1.08817779  1
  O  O156  1  0.39095540  0.27571127  1.08817779  1
  O  O157  1  0.39095540  0.60904460  1.08817779  1
  O  O158  1  0.39095540  0.94237793  1.08817779  1
  O  O159  1  0.72428873  0.27571127  1.08817779  1
  O  O160  1  0.72428873  0.60904460  1.08817779  1
  O  O161  1  0.72428873  0.94237793  1.08817779  1
  O  O162  1  -0.05348904  -0.10697809  0.42151112  1
  O  O163  1  -0.05348904  0.22635524  0.42151112  1
  O  O164  1  -0.05348904  0.55968858  0.42151112  1
  O  O165  1  0.27984429  -0.10697809  0.42151112  1
  O  O166  1  0.27984429  0.22635524  0.42151112  1
  O  O167  1  0.27984429  0.55968858  0.42151112  1
  O  O168  1  0.61317762  -0.10697809  0.42151112  1
  O  O169  1  0.61317762  0.22635524  0.42151112  1
  O  O170  1  0.61317762  0.55968858  0.42151112  1
  O  O171  1  0.16873318  0.00413302  0.75484446  1
  O  O172  1  0.16873318  0.33746636  0.75484446  1
  O  O173  1  0.16873318  0.67079969  0.75484446  1
  O  O174  1  0.50206651  0.00413302  0.75484446  1
  O  O175  1  0.50206651  0.33746636  0.75484446  1
  O  O176  1  0.50206651  0.67079969  0.75484446  1
  O  O177  1  0.83539984  0.00413302  0.75484446  1
  O  O178  1  0.83539984  0.33746636  0.75484446  1
  O  O179  1  0.83539984  0.67079969  0.75484446  1
  O  O180  1  0.05762207  0.11524413  1.08817779  1
  O  O181  1  0.05762207  0.44857747  1.08817779  1
  O  O182  1  0.05762207  0.78191080  1.08817779  1
  O  O183  1  0.39095540  0.11524413  1.08817779  1
  O  O184  1  0.39095540  0.44857747  1.08817779  1
  O  O185  1  0.39095540  0.78191080  1.08817779  1
  O  O186  1  0.72428873  0.11524413  1.08817779  1
  O  O187  1  0.72428873  0.44857747  1.08817779  1
  O  O188  1  0.72428873  0.78191080  1.08817779  1
  O  O189  1  0.05348904  -0.05348904  0.57848888  1
  O  O190  1  0.05348904  0.27984429  0.57848888  1
  O  O191  1  0.05348904  0.61317762  0.57848888  1
  O  O192  1  0.38682238  -0.05348904  0.57848888  1
  O  O193  1  0.38682238  0.27984429  0.57848888  1
  O  O194  1  0.38682238  0.61317762  0.57848888  1
  O  O195  1  0.72015571  -0.05348904  0.57848888  1
  O  O196  1  0.72015571  0.27984429  0.57848888  1
  O  O197  1  0.72015571  0.61317762  0.57848888  1
  O  O198  1  0.27571127  0.05762207  0.91182221  1
  O  O199  1  0.27571127  0.39095540  0.91182221  1
  O  O200  1  0.27571127  0.72428873  0.91182221  1
  O  O201  1  0.60904460  0.05762207  0.91182221  1
  O  O202  1  0.60904460  0.39095540  0.91182221  1
  O  O203  1  0.60904460  0.72428873  0.91182221  1
  O  O204  1  0.94237793  0.05762207  0.91182221  1
  O  O205  1  0.94237793  0.39095540  0.91182221  1
  O  O206  1  0.94237793  0.72428873  0.91182221  1
  O  O207  1  0.16460016  0.16873318  1.24515554  1
  O  O208  1  0.16460016  0.50206651  1.24515554  1
  O  O209  1  0.16460016  0.83539984  1.24515554  1
  O  O210  1  0.49793349  0.16873318  1.24515554  1
  O  O211  1  0.49793349  0.50206651  1.24515554  1
  O  O212  1  0.49793349  0.83539984  1.24515554  1
  O  O213  1  0.83126682  0.16873318  1.24515554  1
  O  O214  1  0.83126682  0.50206651  1.24515554  1
  O  O215  1  0.83126682  0.83539984  1.24515554  1
  O  O216  1  -0.10697809  -0.05348904  0.57848888  1
  O  O217  1  -0.10697809  0.27984429  0.57848888  1
  O  O218  1  -0.10697809  0.61317762  0.57848888  1
  O  O219  1  0.22635524  -0.05348904  0.57848888  1
  O  O220  1  0.22635524  0.27984429  0.57848888  1
  O  O221  1  0.22635524  0.61317762  0.57848888  1
  O  O222  1  0.55968858  -0.05348904  0.57848888  1
  O  O223  1  0.55968858  0.27984429  0.57848888  1
  O  O224  1  0.55968858  0.61317762  0.57848888  1
  O  O225  1  0.11524413  0.05762207  0.91182221  1
  O  O226  1  0.11524413  0.39095540  0.91182221  1
  O  O227  1  0.11524413  0.72428873  0.91182221  1
  O  O228  1  0.44857747  0.05762207  0.91182221  1
  O  O229  1  0.44857747  0.39095540  0.91182221  1
  O  O230  1  0.44857747  0.72428873  0.91182221  1
  O  O231  1  0.78191080  0.05762207  0.91182221  1
  O  O232  1  0.78191080  0.39095540  0.91182221  1
  O  O233  1  0.78191080  0.72428873  0.91182221  1
  O  O234  1  0.00413302  0.16873318  1.24515554  1
  O  O235  1  0.00413302  0.50206651  1.24515554  1
  O  O236  1  0.00413302  0.83539984  1.24515554  1
  O  O237  1  0.33746636  0.16873318  1.24515554  1
  O  O238  1  0.33746636  0.50206651  1.24515554  1
  O  O239  1  0.33746636  0.83539984  1.24515554  1
  O  O240  1  0.67079969  0.16873318  1.24515554  1
  O  O241  1  0.67079969  0.50206651  1.24515554  1
  O  O242  1  0.67079969  0.83539984  1.24515554  1
  O  O243  1  0.05348904  0.10697809  0.57848888  1
  O  O244  1  0.05348904  0.44031142  0.57848888  1
  O  O245  1  0.05348904  0.77364476  0.57848888  1
  O  O246  1  0.38682238  0.10697809  0.57848888  1
  O  O247  1  0.38682238  0.44031142  0.57848888  1
  O  O248  1  0.38682238  0.77364476  0.57848888  1
  O  O249  1  0.72015571  0.10697809  0.57848888  1
  O  O250  1  0.72015571  0.44031142  0.57848888  1
  O  O251  1  0.72015571  0.77364476  0.57848888  1
  O  O252  1  0.27571127  0.21808920  0.91182221  1
  O  O253  1  0.27571127  0.55142253  0.91182221  1
  O  O254  1  0.27571127  0.88475587  0.91182221  1
  O  O255  1  0.60904460  0.21808920  0.91182221  1
  O  O256  1  0.60904460  0.55142253  0.91182221  1
  O  O257  1  0.60904460  0.88475587  0.91182221  1
  O  O258  1  0.94237793  0.21808920  0.91182221  1
  O  O259  1  0.94237793  0.55142253  0.91182221  1
  O  O260  1  0.94237793  0.88475587  0.91182221  1
  O  O261  1  0.16460016  0.32920031  1.24515554  1
  O  O262  1  0.16460016  0.66253364  1.24515554  1
  O  O263  1  0.16460016  0.99586698  1.24515554  1
  O  O264  1  0.49793349  0.32920031  1.24515554  1
  O  O265  1  0.49793349  0.66253364  1.24515554  1
  O  O266  1  0.49793349  0.99586698  1.24515554  1
  O  O267  1  0.83126682  0.32920031  1.24515554  1
  O  O268  1  0.83126682  0.66253364  1.24515554  1
  O  O269  1  0.83126682  0.99586698  1.24515554  1
  O  O270  1  0.00000000  -0.00000000  0.82167258  1
  O  O271  1  -0.00000000  0.33333333  0.82167258  1
  O  O272  1  -0.00000000  0.66666667  0.82167258  1
  O  O273  1  0.33333333  -0.00000000  0.82167258  1
  O  O274  1  0.33333333  0.33333333  0.82167258  1
  O  O275  1  0.33333333  0.66666667  0.82167258  1
  O  O276  1  0.66666667  -0.00000000  0.82167258  1
  O  O277  1  0.66666667  0.33333333  0.82167258  1
  O  O278  1  0.66666667  0.66666667  0.82167258  1
  O  O279  1  0.22222222  0.11111111  1.15500592  1
  O  O280  1  0.22222222  0.44444444  1.15500592  1
  O  O281  1  0.22222222  0.77777778  1.15500592  1
  O  O282  1  0.55555556  0.11111111  1.15500592  1
  O  O283  1  0.55555556  0.44444444  1.15500592  1
  O  O284  1  0.55555556  0.77777778  1.15500592  1
  O  O285  1  0.88888889  0.11111111  1.15500592  1
  O  O286  1  0.88888889  0.44444444  1.15500592  1
  O  O287  1  0.88888889  0.77777778  1.15500592  1
  O  O288  1  0.11111111  0.22222222  1.48833925  1
  O  O289  1  0.11111111  0.55555556  1.48833925  1
  O  O290  1  0.11111111  0.88888889  1.48833925  1
  O  O291  1  0.44444444  0.22222222  1.48833925  1
  O  O292  1  0.44444444  0.55555556  1.48833925  1
  O  O293  1  0.44444444  0.88888889  1.48833925  1
  O  O294  1  0.77777778  0.22222222  1.48833925  1
  O  O295  1  0.77777778  0.55555556  1.48833925  1
  O  O296  1  0.77777778  0.88888889  1.48833925  1
  O  O297  1  -0.00000000  -0.00000000  0.17832742  1
  O  O298  1  -0.00000000  0.33333333  0.17832742  1
  O  O299  1  -0.00000000  0.66666667  0.17832742  1
  O  O300  1  0.33333333  -0.00000000  0.17832742  1
  O  O301  1  0.33333333  0.33333333  0.17832742  1
  O  O302  1  0.33333333  0.66666667  0.17832742  1
  O  O303  1  0.66666667  -0.00000000  0.17832742  1
  O  O304  1  0.66666667  0.33333333  0.17832742  1
  O  O305  1  0.66666667  0.66666667  0.17832742  1
  O  O306  1  0.22222222  0.11111111  0.51166075  1
  O  O307  1  0.22222222  0.44444444  0.51166075  1
  O  O308  1  0.22222222  0.77777778  0.51166075  1
  O  O309  1  0.55555556  0.11111111  0.51166075  1
  O  O310  1  0.55555556  0.44444444  0.51166075  1
  O  O311  1  0.55555556  0.77777778  0.51166075  1
  O  O312  1  0.88888889  0.11111111  0.51166075  1
  O  O313  1  0.88888889  0.44444444  0.51166075  1
  O  O314  1  0.88888889  0.77777778  0.51166075  1
  O  O315  1  0.11111111  0.22222222  0.84499408  1
  O  O316  1  0.11111111  0.55555556  0.84499408  1
  O  O317  1  0.11111111  0.88888889  0.84499408  1
  O  O318  1  0.44444444  0.22222222  0.84499408  1
  O  O319  1  0.44444444  0.55555556  0.84499408  1
  O  O320  1  0.44444444  0.88888889  0.84499408  1
  O  O321  1  0.77777778  0.22222222  0.84499408  1
  O  O322  1  0.77777778  0.55555556  0.84499408  1
  O  O323  1  0.77777778  0.88888889  0.84499408  1
  O  O324  1  0.05555556  0.11111111  0.33333333  1
  O  O325  1  0.05555556  0.44444444  0.33333333  1
  O  O326  1  0.05555556  0.77777778  0.33333333  1
  O  O327  1  0.38888889  0.11111111  0.33333333  1
  O  O328  1  0.38888889  0.44444444  0.33333333  1
  O  O329  1  0.38888889  0.77777778  0.33333333  1
  O  O330  1  0.72222222  0.11111111  0.33333333  1
  O  O331  1  0.72222222  0.44444444  0.33333333  1
  O  O332  1  0.72222222  0.77777778  0.33333333  1
  O  O333  1  0.27777778  0.22222222  0.66666667  1
  O  O334  1  0.27777778  0.55555556  0.66666667  1
  O  O335  1  0.27777778  0.88888889  0.66666667  1
  O  O336  1  0.61111111  0.22222222  0.66666667  1
  O  O337  1  0.61111111  0.55555556  0.66666667  1
  O  O338  1  0.61111111  0.88888889  0.66666667  1
  O  O339  1  0.94444444  0.22222222  0.66666667  1
  O  O340  1  0.94444444  0.55555556  0.66666667  1
  O  O341  1  0.94444444  0.88888889  0.66666667  1
  O  O342  1  0.16666667  0.33333333  1.00000000  1
  O  O343  1  0.16666667  0.66666667  1.00000000  1
  O  O344  1  0.16666667  1.00000000  1.00000000  1
  O  O345  1  0.50000000  0.33333333  1.00000000  1
  O  O346  1  0.50000000  0.66666667  1.00000000  1
  O  O347  1  0.50000000  1.00000000  1.00000000  1
  O  O348  1  0.83333333  0.33333333  1.00000000  1
  O  O349  1  0.83333333  0.66666667  1.00000000  1
  O  O350  1  0.83333333  1.00000000  1.00000000  1
  O  O351  1  -0.11111111  -0.05555556  0.33333333  1
  O  O352  1  -0.11111111  0.27777778  0.33333333  1
  O  O353  1  -0.11111111  0.61111111  0.33333333  1
  O  O354  1  0.22222222  -0.05555556  0.33333333  1
  O  O355  1  0.22222222  0.27777778  0.33333333  1
  O  O356  1  0.22222222  0.61111111  0.33333333  1
  O  O357  1  0.55555556  -0.05555556  0.33333333  1
  O  O358  1  0.55555556  0.27777778  0.33333333  1
  O  O359  1  0.55555556  0.61111111  0.33333333  1
  O  O360  1  0.11111111  0.05555556  0.66666667  1
  O  O361  1  0.11111111  0.38888889  0.66666667  1
  O  O362  1  0.11111111  0.72222222  0.66666667  1
  O  O363  1  0.44444444  0.05555556  0.66666667  1
  O  O364  1  0.44444444  0.38888889  0.66666667  1
  O  O365  1  0.44444444  0.72222222  0.66666667  1
  O  O366  1  0.77777778  0.05555556  0.66666667  1
  O  O367  1  0.77777778  0.38888889  0.66666667  1
  O  O368  1  0.77777778  0.72222222  0.66666667  1
  O  O369  1  -0.00000000  0.16666667  1.00000000  1
  O  O370  1  -0.00000000  0.50000000  1.00000000  1
  O  O371  1  -0.00000000  0.83333333  1.00000000  1
  O  O372  1  0.33333333  0.16666667  1.00000000  1
  O  O373  1  0.33333333  0.50000000  1.00000000  1
  O  O374  1  0.33333333  0.83333333  1.00000000  1
  O  O375  1  0.66666667  0.16666667  1.00000000  1
  O  O376  1  0.66666667  0.50000000  1.00000000  1
  O  O377  1  0.66666667  0.83333333  1.00000000  1
  O  O378  1  0.05555556  -0.05555556  0.33333333  1
  O  O379  1  0.05555556  0.27777778  0.33333333  1
  O  O380  1  0.05555556  0.61111111  0.33333333  1
  O  O381  1  0.38888889  -0.05555556  0.33333333  1
  O  O382  1  0.38888889  0.27777778  0.33333333  1
  O  O383  1  0.38888889  0.61111111  0.33333333  1
  O  O384  1  0.72222222  -0.05555556  0.33333333  1
  O  O385  1  0.72222222  0.27777778  0.33333333  1
  O  O386  1  0.72222222  0.61111111  0.33333333  1
  O  O387  1  0.27777778  0.05555556  0.66666667  1
  O  O388  1  0.27777778  0.38888889  0.66666667  1
  O  O389  1  0.27777778  0.72222222  0.66666667  1
  O  O390  1  0.61111111  0.05555556  0.66666667  1
  O  O391  1  0.61111111  0.38888889  0.66666667  1
  O  O392  1  0.61111111  0.72222222  0.66666667  1
  O  O393  1  0.94444444  0.05555556  0.66666667  1
  O  O394  1  0.94444444  0.38888889  0.66666667  1
  O  O395  1  0.94444444  0.72222222  0.66666667  1
  O  O396  1  0.16666667  0.16666667  1.00000000  1
  O  O397  1  0.16666667  0.50000000  1.00000000  1
  O  O398  1  0.16666667  0.83333333  1.00000000  1
  O  O399  1  0.50000000  0.16666667  1.00000000  1
  O  O400  1  0.50000000  0.50000000  1.00000000  1
  O  O401  1  0.50000000  0.83333333  1.00000000  1
  O  O402  1  0.83333333  0.16666667  1.00000000  1
  O  O403  1  0.83333333  0.50000000  1.00000000  1
  O  O404  1  0.83333333  0.83333333  1.00000000  1
