# generated using pymatgen
data_K2LiBO3
_symmetry_space_group_name_H-M   'P 1'
_cell_length_a   17.51813837
_cell_length_b   18.30410285
_cell_length_c   14.76189691
_cell_angle_alpha   90.00000000
_cell_angle_beta   102.66434745
_cell_angle_gamma   90.00000000
_symmetry_Int_Tables_number   1
_chemical_formula_structural   K2LiBO3
_chemical_formula_sum   'K96 Li48 B48 O144'
_cell_volume   4618.29886221
_cell_formula_units_Z   48
loop_
 _symmetry_equiv_pos_site_id
 _symmetry_equiv_pos_as_xyz
  1  'x, y, z'
loop_
 _atom_site_type_symbol
 _atom_site_label
 _atom_site_symmetry_multiplicity
 _atom_site_fract_x
 _atom_site_fract_y
 _atom_site_fract_z
 _atom_site_occupancy
  K  K0  1  0.16289087  -0.05555714  0.16158043  1
  K  K1  1  0.16289087  -0.05555714  0.66158043  1
  K  K2  1  0.16289087  0.27777619  0.16158043  1
  K  K3  1  0.16289087  0.27777619  0.66158043  1
  K  K4  1  0.16289087  0.61110952  0.16158043  1
  K  K5  1  0.16289087  0.61110952  0.66158043  1
  K  K6  1  0.66289087  -0.05555714  0.16158043  1
  K  K7  1  0.66289087  -0.05555714  0.66158043  1
  K  K8  1  0.66289087  0.27777619  0.16158043  1
  K  K9  1  0.66289087  0.27777619  0.66158043  1
  K  K10  1  0.66289087  0.61110952  0.16158043  1
  K  K11  1  0.66289087  0.61110952  0.66158043  1
  K  K12  1  0.41289087  0.11110952  0.16158043  1
  K  K13  1  0.41289087  0.11110952  0.66158043  1
  K  K14  1  0.41289087  0.44444286  0.16158043  1
  K  K15  1  0.41289087  0.44444286  0.66158043  1
  K  K16  1  0.41289087  0.77777619  0.16158043  1
  K  K17  1  0.41289087  0.77777619  0.66158043  1
  K  K18  1  0.91289087  0.11110952  0.16158043  1
  K  K19  1  0.91289087  0.11110952  0.66158043  1
  K  K20  1  0.91289087  0.44444286  0.16158043  1
  K  K21  1  0.91289087  0.44444286  0.66158043  1
  K  K22  1  0.91289087  0.77777619  0.16158043  1
  K  K23  1  0.91289087  0.77777619  0.66158043  1
  K  K24  1  0.25000000  0.11182035  0.25000000  1
  K  K25  1  0.25000000  0.11182035  0.75000000  1
  K  K26  1  0.25000000  0.44515369  0.25000000  1
  K  K27  1  0.25000000  0.44515369  0.75000000  1
  K  K28  1  0.25000000  0.77848702  0.25000000  1
  K  K29  1  0.25000000  0.77848702  0.75000000  1
  K  K30  1  0.75000000  0.11182035  0.25000000  1
  K  K31  1  0.75000000  0.11182035  0.75000000  1
  K  K32  1  0.75000000  0.44515369  0.25000000  1
  K  K33  1  0.75000000  0.44515369  0.75000000  1
  K  K34  1  0.75000000  0.77848702  0.25000000  1
  K  K35  1  0.75000000  0.77848702  0.75000000  1
  K  K36  1  0.50000000  0.27848702  0.25000000  1
  K  K37  1  0.50000000  0.27848702  0.75000000  1
  K  K38  1  0.50000000  0.61182035  0.25000000  1
  K  K39  1  0.50000000  0.61182035  0.75000000  1
  K  K40  1  0.50000000  0.94515369  0.25000000  1
  K  K41  1  0.50000000  0.94515369  0.75000000  1
  K  K42  1  1.00000000  0.27848702  0.25000000  1
  K  K43  1  1.00000000  0.27848702  0.75000000  1
  K  K44  1  1.00000000  0.61182035  0.25000000  1
  K  K45  1  1.00000000  0.61182035  0.75000000  1
  K  K46  1  1.00000000  0.94515369  0.25000000  1
  K  K47  1  1.00000000  0.94515369  0.75000000  1
  K  K48  1  0.25000000  -0.16569443  0.00000000  1
  K  K49  1  0.25000000  -0.16569443  0.50000000  1
  K  K50  1  0.25000000  0.16763890  0.00000000  1
  K  K51  1  0.25000000  0.16763890  0.50000000  1
  K  K52  1  0.25000000  0.50097224  0.00000000  1
  K  K53  1  0.25000000  0.50097224  0.50000000  1
  K  K54  1  0.75000000  -0.16569443  0.00000000  1
  K  K55  1  0.75000000  -0.16569443  0.50000000  1
  K  K56  1  0.75000000  0.16763890  0.00000000  1
  K  K57  1  0.75000000  0.16763890  0.50000000  1
  K  K58  1  0.75000000  0.50097224  0.00000000  1
  K  K59  1  0.75000000  0.50097224  0.50000000  1
  K  K60  1  0.50000000  0.00097224  0.00000000  1
  K  K61  1  0.50000000  0.00097224  0.50000000  1
  K  K62  1  0.50000000  0.33430557  0.00000000  1
  K  K63  1  0.50000000  0.33430557  0.50000000  1
  K  K64  1  0.50000000  0.66763890  0.00000000  1
  K  K65  1  0.50000000  0.66763890  0.50000000  1
  K  K66  1  1.00000000  0.00097224  0.00000000  1
  K  K67  1  1.00000000  0.00097224  0.50000000  1
  K  K68  1  1.00000000  0.33430557  0.00000000  1
  K  K69  1  1.00000000  0.33430557  0.50000000  1
  K  K70  1  1.00000000  0.66763890  0.00000000  1
  K  K71  1  1.00000000  0.66763890  0.50000000  1
  K  K72  1  0.33710913  -0.05555714  0.33841957  1
  K  K73  1  0.33710913  -0.05555714  0.83841957  1
  K  K74  1  0.33710913  0.27777619  0.33841957  1
  K  K75  1  0.33710913  0.27777619  0.83841957  1
  K  K76  1  0.33710913  0.61110952  0.33841957  1
  K  K77  1  0.33710913  0.61110952  0.83841957  1
  K  K78  1  0.83710913  -0.05555714  0.33841957  1
  K  K79  1  0.83710913  -0.05555714  0.83841957  1
  K  K80  1  0.83710913  0.27777619  0.33841957  1
  K  K81  1  0.83710913  0.27777619  0.83841957  1
  K  K82  1  0.83710913  0.61110952  0.33841957  1
  K  K83  1  0.83710913  0.61110952  0.83841957  1
  K  K84  1  0.58710913  0.11110952  0.33841957  1
  K  K85  1  0.58710913  0.11110952  0.83841957  1
  K  K86  1  0.58710913  0.44444286  0.33841957  1
  K  K87  1  0.58710913  0.44444286  0.83841957  1
  K  K88  1  0.58710913  0.77777619  0.33841957  1
  K  K89  1  0.58710913  0.77777619  0.83841957  1
  K  K90  1  1.08710913  0.11110952  0.33841957  1
  K  K91  1  1.08710913  0.11110952  0.83841957  1
  K  K92  1  1.08710913  0.44444286  0.33841957  1
  K  K93  1  1.08710913  0.44444286  0.83841957  1
  K  K94  1  1.08710913  0.77777619  0.33841957  1
  K  K95  1  1.08710913  0.77777619  0.83841957  1
  Li  Li96  1  0.31769638  0.03141054  0.48403746  1
  Li  Li97  1  0.31769638  0.03141054  0.98403746  1
  Li  Li98  1  0.31769638  0.36474388  0.48403746  1
  Li  Li99  1  0.31769638  0.36474388  0.98403746  1
  Li  Li100  1  0.31769638  0.69807721  0.48403746  1
  Li  Li101  1  0.31769638  0.69807721  0.98403746  1
  Li  Li102  1  0.81769638  0.03141054  0.48403746  1
  Li  Li103  1  0.81769638  0.03141054  0.98403746  1
  Li  Li104  1  0.81769638  0.36474388  0.48403746  1
  Li  Li105  1  0.81769638  0.36474388  0.98403746  1
  Li  Li106  1  0.81769638  0.69807721  0.48403746  1
  Li  Li107  1  0.81769638  0.69807721  0.98403746  1
  Li  Li108  1  0.56769638  0.19807721  0.48403746  1
  Li  Li109  1  0.56769638  0.19807721  0.98403746  1
  Li  Li110  1  0.56769638  0.53141054  0.48403746  1
  Li  Li111  1  0.56769638  0.53141054  0.98403746  1
  Li  Li112  1  0.56769638  0.86474388  0.48403746  1
  Li  Li113  1  0.56769638  0.86474388  0.98403746  1
  Li  Li114  1  1.06769638  0.19807721  0.48403746  1
  Li  Li115  1  1.06769638  0.19807721  0.98403746  1
  Li  Li116  1  1.06769638  0.53141054  0.48403746  1
  Li  Li117  1  1.06769638  0.53141054  0.98403746  1
  Li  Li118  1  1.06769638  0.86474388  0.48403746  1
  Li  Li119  1  1.06769638  0.86474388  0.98403746  1
  Li  Li120  1  0.18230362  0.03141054  0.01596254  1
  Li  Li121  1  0.18230362  0.03141054  0.51596254  1
  Li  Li122  1  0.18230362  0.36474388  0.01596254  1
  Li  Li123  1  0.18230362  0.36474388  0.51596254  1
  Li  Li124  1  0.18230362  0.69807721  0.01596254  1
  Li  Li125  1  0.18230362  0.69807721  0.51596254  1
  Li  Li126  1  0.68230362  0.03141054  0.01596254  1
  Li  Li127  1  0.68230362  0.03141054  0.51596254  1
  Li  Li128  1  0.68230362  0.36474388  0.01596254  1
  Li  Li129  1  0.68230362  0.36474388  0.51596254  1
  Li  Li130  1  0.68230362  0.69807721  0.01596254  1
  Li  Li131  1  0.68230362  0.69807721  0.51596254  1
  Li  Li132  1  0.43230362  0.19807721  0.01596254  1
  Li  Li133  1  0.43230362  0.19807721  0.51596254  1
  Li  Li134  1  0.43230362  0.53141054  0.01596254  1
  Li  Li135  1  0.43230362  0.53141054  0.51596254  1
  Li  Li136  1  0.43230362  0.86474388  0.01596254  1
  Li  Li137  1  0.43230362  0.86474388  0.51596254  1
  Li  Li138  1  0.93230362  0.19807721  0.01596254  1
  Li  Li139  1  0.93230362  0.19807721  0.51596254  1
  Li  Li140  1  0.93230362  0.53141054  0.01596254  1
  Li  Li141  1  0.93230362  0.53141054  0.51596254  1
  Li  Li142  1  0.93230362  0.86474388  0.01596254  1
  Li  Li143  1  0.93230362  0.86474388  0.51596254  1
  B  B144  1  0.32397188  -0.04608665  0.10800423  1
  B  B145  1  0.32397188  -0.04608665  0.60800423  1
  B  B146  1  0.32397188  0.28724669  0.10800423  1
  B  B147  1  0.32397188  0.28724669  0.60800423  1
  B  B148  1  0.32397188  0.62058002  0.10800423  1
  B  B149  1  0.32397188  0.62058002  0.60800423  1
  B  B150  1  0.82397188  -0.04608665  0.10800423  1
  B  B151  1  0.82397188  -0.04608665  0.60800423  1
  B  B152  1  0.82397188  0.28724669  0.10800423  1
  B  B153  1  0.82397188  0.28724669  0.60800423  1
  B  B154  1  0.82397188  0.62058002  0.10800423  1
  B  B155  1  0.82397188  0.62058002  0.60800423  1
  B  B156  1  0.57397188  0.12058002  0.10800423  1
  B  B157  1  0.57397188  0.12058002  0.60800423  1
  B  B158  1  0.57397188  0.45391335  0.10800423  1
  B  B159  1  0.57397188  0.45391335  0.60800423  1
  B  B160  1  0.57397188  0.78724669  0.10800423  1
  B  B161  1  0.57397188  0.78724669  0.60800423  1
  B  B162  1  1.07397188  0.12058002  0.10800423  1
  B  B163  1  1.07397188  0.12058002  0.60800423  1
  B  B164  1  1.07397188  0.45391335  0.10800423  1
  B  B165  1  1.07397188  0.45391335  0.60800423  1
  B  B166  1  1.07397188  0.78724669  0.10800423  1
  B  B167  1  1.07397188  0.78724669  0.60800423  1
  B  B168  1  0.17602812  -0.04608665  0.39199577  1
  B  B169  1  0.17602812  -0.04608665  0.89199577  1
  B  B170  1  0.17602812  0.28724669  0.39199577  1
  B  B171  1  0.17602812  0.28724669  0.89199577  1
  B  B172  1  0.17602812  0.62058002  0.39199577  1
  B  B173  1  0.17602812  0.62058002  0.89199577  1
  B  B174  1  0.67602812  -0.04608665  0.39199577  1
  B  B175  1  0.67602812  -0.04608665  0.89199577  1
  B  B176  1  0.67602812  0.28724669  0.39199577  1
  B  B177  1  0.67602812  0.28724669  0.89199577  1
  B  B178  1  0.67602812  0.62058002  0.39199577  1
  B  B179  1  0.67602812  0.62058002  0.89199577  1
  B  B180  1  0.42602812  0.12058002  0.39199577  1
  B  B181  1  0.42602812  0.12058002  0.89199577  1
  B  B182  1  0.42602812  0.45391335  0.39199577  1
  B  B183  1  0.42602812  0.45391335  0.89199577  1
  B  B184  1  0.42602812  0.78724669  0.39199577  1
  B  B185  1  0.42602812  0.78724669  0.89199577  1
  B  B186  1  0.92602812  0.12058002  0.39199577  1
  B  B187  1  0.92602812  0.12058002  0.89199577  1
  B  B188  1  0.92602812  0.45391335  0.39199577  1
  B  B189  1  0.92602812  0.45391335  0.89199577  1
  B  B190  1  0.92602812  0.78724669  0.39199577  1
  B  B191  1  0.92602812  0.78724669  0.89199577  1
  O  O192  1  0.28342091  0.02076901  0.10553657  1
  O  O193  1  0.28342091  0.02076901  0.60553657  1
  O  O194  1  0.28342091  0.35410234  0.10553657  1
  O  O195  1  0.28342091  0.35410234  0.60553657  1
  O  O196  1  0.28342091  0.68743568  0.10553657  1
  O  O197  1  0.28342091  0.68743568  0.60553657  1
  O  O198  1  0.78342091  0.02076901  0.10553657  1
  O  O199  1  0.78342091  0.02076901  0.60553657  1
  O  O200  1  0.78342091  0.35410234  0.10553657  1
  O  O201  1  0.78342091  0.35410234  0.60553657  1
  O  O202  1  0.78342091  0.68743568  0.10553657  1
  O  O203  1  0.78342091  0.68743568  0.60553657  1
  O  O204  1  0.53342091  0.18743568  0.10553657  1
  O  O205  1  0.53342091  0.18743568  0.60553657  1
  O  O206  1  0.53342091  0.52076901  0.10553657  1
  O  O207  1  0.53342091  0.52076901  0.60553657  1
  O  O208  1  0.53342091  0.85410234  0.10553657  1
  O  O209  1  0.53342091  0.85410234  0.60553657  1
  O  O210  1  1.03342091  0.18743568  0.10553657  1
  O  O211  1  1.03342091  0.18743568  0.60553657  1
  O  O212  1  1.03342091  0.52076901  0.10553657  1
  O  O213  1  1.03342091  0.52076901  0.60553657  1
  O  O214  1  1.03342091  0.85410234  0.10553657  1
  O  O215  1  1.03342091  0.85410234  0.60553657  1
  O  O216  1  0.21657909  0.02076901  0.39446343  1
  O  O217  1  0.21657909  0.02076901  0.89446343  1
  O  O218  1  0.21657909  0.35410234  0.39446343  1
  O  O219  1  0.21657909  0.35410234  0.89446343  1
  O  O220  1  0.21657909  0.68743568  0.39446343  1
  O  O221  1  0.21657909  0.68743568  0.89446343  1
  O  O222  1  0.71657909  0.02076901  0.39446343  1
  O  O223  1  0.71657909  0.02076901  0.89446343  1
  O  O224  1  0.71657909  0.35410234  0.39446343  1
  O  O225  1  0.71657909  0.35410234  0.89446343  1
  O  O226  1  0.71657909  0.68743568  0.39446343  1
  O  O227  1  0.71657909  0.68743568  0.89446343  1
  O  O228  1  0.46657909  0.18743568  0.39446343  1
  O  O229  1  0.46657909  0.18743568  0.89446343  1
  O  O230  1  0.46657909  0.52076901  0.39446343  1
  O  O231  1  0.46657909  0.52076901  0.89446343  1
  O  O232  1  0.46657909  0.85410234  0.39446343  1
  O  O233  1  0.46657909  0.85410234  0.89446343  1
  O  O234  1  0.96657909  0.18743568  0.39446343  1
  O  O235  1  0.96657909  0.18743568  0.89446343  1
  O  O236  1  0.96657909  0.52076901  0.39446343  1
  O  O237  1  0.96657909  0.52076901  0.89446343  1
  O  O238  1  0.96657909  0.85410234  0.39446343  1
  O  O239  1  0.96657909  0.85410234  0.89446343  1
  O  O240  1  0.31568775  -0.10214075  0.16753399  1
  O  O241  1  0.31568775  -0.10214075  0.66753399  1
  O  O242  1  0.31568775  0.23119259  0.16753399  1
  O  O243  1  0.31568775  0.23119259  0.66753399  1
  O  O244  1  0.31568775  0.56452592  0.16753399  1
  O  O245  1  0.31568775  0.56452592  0.66753399  1
  O  O246  1  0.81568775  -0.10214075  0.16753399  1
  O  O247  1  0.81568775  -0.10214075  0.66753399  1
  O  O248  1  0.81568775  0.23119259  0.16753399  1
  O  O249  1  0.81568775  0.23119259  0.66753399  1
  O  O250  1  0.81568775  0.56452592  0.16753399  1
  O  O251  1  0.81568775  0.56452592  0.66753399  1
  O  O252  1  0.56568775  0.06452592  0.16753399  1
  O  O253  1  0.56568775  0.06452592  0.66753399  1
  O  O254  1  0.56568775  0.39785925  0.16753399  1
  O  O255  1  0.56568775  0.39785925  0.66753399  1
  O  O256  1  0.56568775  0.73119259  0.16753399  1
  O  O257  1  0.56568775  0.73119259  0.66753399  1
  O  O258  1  1.06568775  0.06452592  0.16753399  1
  O  O259  1  1.06568775  0.06452592  0.66753399  1
  O  O260  1  1.06568775  0.39785925  0.16753399  1
  O  O261  1  1.06568775  0.39785925  0.66753399  1
  O  O262  1  1.06568775  0.73119259  0.16753399  1
  O  O263  1  1.06568775  0.73119259  0.66753399  1
  O  O264  1  0.12952759  -0.05499164  0.45765814  1
  O  O265  1  0.12952759  -0.05499164  0.95765814  1
  O  O266  1  0.12952759  0.27834169  0.45765814  1
  O  O267  1  0.12952759  0.27834169  0.95765814  1
  O  O268  1  0.12952759  0.61167502  0.45765814  1
  O  O269  1  0.12952759  0.61167502  0.95765814  1
  O  O270  1  0.62952759  -0.05499164  0.45765814  1
  O  O271  1  0.62952759  -0.05499164  0.95765814  1
  O  O272  1  0.62952759  0.27834169  0.45765814  1
  O  O273  1  0.62952759  0.27834169  0.95765814  1
  O  O274  1  0.62952759  0.61167502  0.45765814  1
  O  O275  1  0.62952759  0.61167502  0.95765814  1
  O  O276  1  0.37952759  0.11167502  0.45765814  1
  O  O277  1  0.37952759  0.11167502  0.95765814  1
  O  O278  1  0.37952759  0.44500836  0.45765814  1
  O  O279  1  0.37952759  0.44500836  0.95765814  1
  O  O280  1  0.37952759  0.77834169  0.45765814  1
  O  O281  1  0.37952759  0.77834169  0.95765814  1
  O  O282  1  0.87952759  0.11167502  0.45765814  1
  O  O283  1  0.87952759  0.11167502  0.95765814  1
  O  O284  1  0.87952759  0.44500836  0.45765814  1
  O  O285  1  0.87952759  0.44500836  0.95765814  1
  O  O286  1  0.87952759  0.77834169  0.45765814  1
  O  O287  1  0.87952759  0.77834169  0.95765814  1
  O  O288  1  0.37047241  -0.05499164  0.04234186  1
  O  O289  1  0.37047241  -0.05499164  0.54234186  1
  O  O290  1  0.37047241  0.27834169  0.04234186  1
  O  O291  1  0.37047241  0.27834169  0.54234186  1
  O  O292  1  0.37047241  0.61167502  0.04234186  1
  O  O293  1  0.37047241  0.61167502  0.54234186  1
  O  O294  1  0.87047241  -0.05499164  0.04234186  1
  O  O295  1  0.87047241  -0.05499164  0.54234186  1
  O  O296  1  0.87047241  0.27834169  0.04234186  1
  O  O297  1  0.87047241  0.27834169  0.54234186  1
  O  O298  1  0.87047241  0.61167502  0.04234186  1
  O  O299  1  0.87047241  0.61167502  0.54234186  1
  O  O300  1  0.62047241  0.11167502  0.04234186  1
  O  O301  1  0.62047241  0.11167502  0.54234186  1
  O  O302  1  0.62047241  0.44500836  0.04234186  1
  O  O303  1  0.62047241  0.44500836  0.54234186  1
  O  O304  1  0.62047241  0.77834169  0.04234186  1
  O  O305  1  0.62047241  0.77834169  0.54234186  1
  O  O306  1  1.12047241  0.11167502  0.04234186  1
  O  O307  1  1.12047241  0.11167502  0.54234186  1
  O  O308  1  1.12047241  0.44500836  0.04234186  1
  O  O309  1  1.12047241  0.44500836  0.54234186  1
  O  O310  1  1.12047241  0.77834169  0.04234186  1
  O  O311  1  1.12047241  0.77834169  0.54234186  1
  O  O312  1  0.18431225  -0.10214075  0.33246601  1
  O  O313  1  0.18431225  -0.10214075  0.83246601  1
  O  O314  1  0.18431225  0.23119259  0.33246601  1
  O  O315  1  0.18431225  0.23119259  0.83246601  1
  O  O316  1  0.18431225  0.56452592  0.33246601  1
  O  O317  1  0.18431225  0.56452592  0.83246601  1
  O  O318  1  0.68431225  -0.10214075  0.33246601  1
  O  O319  1  0.68431225  -0.10214075  0.83246601  1
  O  O320  1  0.68431225  0.23119259  0.33246601  1
  O  O321  1  0.68431225  0.23119259  0.83246601  1
  O  O322  1  0.68431225  0.56452592  0.33246601  1
  O  O323  1  0.68431225  0.56452592  0.83246601  1
  O  O324  1  0.43431225  0.06452592  0.33246601  1
  O  O325  1  0.43431225  0.06452592  0.83246601  1
  O  O326  1  0.43431225  0.39785925  0.33246601  1
  O  O327  1  0.43431225  0.39785925  0.83246601  1
  O  O328  1  0.43431225  0.73119259  0.33246601  1
  O  O329  1  0.43431225  0.73119259  0.83246601  1
  O  O330  1  0.93431225  0.06452592  0.33246601  1
  O  O331  1  0.93431225  0.06452592  0.83246601  1
  O  O332  1  0.93431225  0.39785925  0.33246601  1
  O  O333  1  0.93431225  0.39785925  0.83246601  1
  O  O334  1  0.93431225  0.73119259  0.33246601  1
  O  O335  1  0.93431225  0.73119259  0.83246601  1
