# generated using pymatgen
data_BaHgO2
_symmetry_space_group_name_H-M   'P 1'
_cell_length_a   20.63724321
_cell_length_b   20.63724321
_cell_length_c   19.38348778
_cell_angle_alpha   90.00000000
_cell_angle_beta   90.00000000
_cell_angle_gamma   120.00000000
_symmetry_Int_Tables_number   1
_chemical_formula_structural   BaHgO2
_chemical_formula_sum   'Ba75 Hg75 O150'
_cell_volume   7149.33950326
_cell_formula_units_Z   75
loop_
 _symmetry_equiv_pos_site_id
 _symmetry_equiv_pos_as_xyz
  1  'x, y, z'
loop_
 _atom_site_type_symbol
 _atom_site_label
 _atom_site_symmetry_multiplicity
 _atom_site_fract_x
 _atom_site_fract_y
 _atom_site_fract_z
 _atom_site_occupancy
  Ba  Ba0  1  -0.00000000  -0.00000000  0.50000000  1
  Ba  Ba1  1  -0.00000000  0.20000000  0.50000000  1
  Ba  Ba2  1  -0.00000000  0.40000000  0.50000000  1
  Ba  Ba3  1  -0.00000000  0.60000000  0.50000000  1
  Ba  Ba4  1  -0.00000000  0.80000000  0.50000000  1
  Ba  Ba5  1  0.20000000  -0.00000000  0.50000000  1
  Ba  Ba6  1  0.20000000  0.20000000  0.50000000  1
  Ba  Ba7  1  0.20000000  0.40000000  0.50000000  1
  Ba  Ba8  1  0.20000000  0.60000000  0.50000000  1
  Ba  Ba9  1  0.20000000  0.80000000  0.50000000  1
  Ba  Ba10  1  0.40000000  -0.00000000  0.50000000  1
  Ba  Ba11  1  0.40000000  0.20000000  0.50000000  1
  Ba  Ba12  1  0.40000000  0.40000000  0.50000000  1
  Ba  Ba13  1  0.40000000  0.60000000  0.50000000  1
  Ba  Ba14  1  0.40000000  0.80000000  0.50000000  1
  Ba  Ba15  1  0.60000000  -0.00000000  0.50000000  1
  Ba  Ba16  1  0.60000000  0.20000000  0.50000000  1
  Ba  Ba17  1  0.60000000  0.40000000  0.50000000  1
  Ba  Ba18  1  0.60000000  0.60000000  0.50000000  1
  Ba  Ba19  1  0.60000000  0.80000000  0.50000000  1
  Ba  Ba20  1  0.80000000  -0.00000000  0.50000000  1
  Ba  Ba21  1  0.80000000  0.20000000  0.50000000  1
  Ba  Ba22  1  0.80000000  0.40000000  0.50000000  1
  Ba  Ba23  1  0.80000000  0.60000000  0.50000000  1
  Ba  Ba24  1  0.80000000  0.80000000  0.50000000  1
  Ba  Ba25  1  0.13333333  0.06666667  0.83333333  1
  Ba  Ba26  1  0.13333333  0.26666667  0.83333333  1
  Ba  Ba27  1  0.13333333  0.46666667  0.83333333  1
  Ba  Ba28  1  0.13333333  0.66666667  0.83333333  1
  Ba  Ba29  1  0.13333333  0.86666667  0.83333333  1
  Ba  Ba30  1  0.33333333  0.06666667  0.83333333  1
  Ba  Ba31  1  0.33333333  0.26666667  0.83333333  1
  Ba  Ba32  1  0.33333333  0.46666667  0.83333333  1
  Ba  Ba33  1  0.33333333  0.66666667  0.83333333  1
  Ba  Ba34  1  0.33333333  0.86666667  0.83333333  1
  Ba  Ba35  1  0.53333333  0.06666667  0.83333333  1
  Ba  Ba36  1  0.53333333  0.26666667  0.83333333  1
  Ba  Ba37  1  0.53333333  0.46666667  0.83333333  1
  Ba  Ba38  1  0.53333333  0.66666667  0.83333333  1
  Ba  Ba39  1  0.53333333  0.86666667  0.83333333  1
  Ba  Ba40  1  0.73333333  0.06666667  0.83333333  1
  Ba  Ba41  1  0.73333333  0.26666667  0.83333333  1
  Ba  Ba42  1  0.73333333  0.46666667  0.83333333  1
  Ba  Ba43  1  0.73333333  0.66666667  0.83333333  1
  Ba  Ba44  1  0.73333333  0.86666667  0.83333333  1
  Ba  Ba45  1  0.93333333  0.06666667  0.83333333  1
  Ba  Ba46  1  0.93333333  0.26666667  0.83333333  1
  Ba  Ba47  1  0.93333333  0.46666667  0.83333333  1
  Ba  Ba48  1  0.93333333  0.66666667  0.83333333  1
  Ba  Ba49  1  0.93333333  0.86666667  0.83333333  1
  Ba  Ba50  1  0.06666667  0.13333333  1.16666667  1
  Ba  Ba51  1  0.06666667  0.33333333  1.16666667  1
  Ba  Ba52  1  0.06666667  0.53333333  1.16666667  1
  Ba  Ba53  1  0.06666667  0.73333333  1.16666667  1
  Ba  Ba54  1  0.06666667  0.93333333  1.16666667  1
  Ba  Ba55  1  0.26666667  0.13333333  1.16666667  1
  Ba  Ba56  1  0.26666667  0.33333333  1.16666667  1
  Ba  Ba57  1  0.26666667  0.53333333  1.16666667  1
  Ba  Ba58  1  0.26666667  0.73333333  1.16666667  1
  Ba  Ba59  1  0.26666667  0.93333333  1.16666667  1
  Ba  Ba60  1  0.46666667  0.13333333  1.16666667  1
  Ba  Ba61  1  0.46666667  0.33333333  1.16666667  1
  Ba  Ba62  1  0.46666667  0.53333333  1.16666667  1
  Ba  Ba63  1  0.46666667  0.73333333  1.16666667  1
  Ba  Ba64  1  0.46666667  0.93333333  1.16666667  1
  Ba  Ba65  1  0.66666667  0.13333333  1.16666667  1
  Ba  Ba66  1  0.66666667  0.33333333  1.16666667  1
  Ba  Ba67  1  0.66666667  0.53333333  1.16666667  1
  Ba  Ba68  1  0.66666667  0.73333333  1.16666667  1
  Ba  Ba69  1  0.66666667  0.93333333  1.16666667  1
  Ba  Ba70  1  0.86666667  0.13333333  1.16666667  1
  Ba  Ba71  1  0.86666667  0.33333333  1.16666667  1
  Ba  Ba72  1  0.86666667  0.53333333  1.16666667  1
  Ba  Ba73  1  0.86666667  0.73333333  1.16666667  1
  Ba  Ba74  1  0.86666667  0.93333333  1.16666667  1
  Hg  Hg75  1  -0.00000000  -0.00000000  -0.00000000  1
  Hg  Hg76  1  -0.00000000  0.20000000  -0.00000000  1
  Hg  Hg77  1  -0.00000000  0.40000000  -0.00000000  1
  Hg  Hg78  1  -0.00000000  0.60000000  -0.00000000  1
  Hg  Hg79  1  -0.00000000  0.80000000  -0.00000000  1
  Hg  Hg80  1  0.20000000  -0.00000000  -0.00000000  1
  Hg  Hg81  1  0.20000000  0.20000000  -0.00000000  1
  Hg  Hg82  1  0.20000000  0.40000000  -0.00000000  1
  Hg  Hg83  1  0.20000000  0.60000000  -0.00000000  1
  Hg  Hg84  1  0.20000000  0.80000000  -0.00000000  1
  Hg  Hg85  1  0.40000000  -0.00000000  -0.00000000  1
  Hg  Hg86  1  0.40000000  0.20000000  -0.00000000  1
  Hg  Hg87  1  0.40000000  0.40000000  -0.00000000  1
  Hg  Hg88  1  0.40000000  0.60000000  -0.00000000  1
  Hg  Hg89  1  0.40000000  0.80000000  -0.00000000  1
  Hg  Hg90  1  0.60000000  -0.00000000  -0.00000000  1
  Hg  Hg91  1  0.60000000  0.20000000  -0.00000000  1
  Hg  Hg92  1  0.60000000  0.40000000  -0.00000000  1
  Hg  Hg93  1  0.60000000  0.60000000  -0.00000000  1
  Hg  Hg94  1  0.60000000  0.80000000  -0.00000000  1
  Hg  Hg95  1  0.80000000  -0.00000000  -0.00000000  1
  Hg  Hg96  1  0.80000000  0.20000000  -0.00000000  1
  Hg  Hg97  1  0.80000000  0.40000000  -0.00000000  1
  Hg  Hg98  1  0.80000000  0.60000000  -0.00000000  1
  Hg  Hg99  1  0.80000000  0.80000000  -0.00000000  1
  Hg  Hg100  1  0.13333333  0.06666667  0.33333333  1
  Hg  Hg101  1  0.13333333  0.26666667  0.33333333  1
  Hg  Hg102  1  0.13333333  0.46666667  0.33333333  1
  Hg  Hg103  1  0.13333333  0.66666667  0.33333333  1
  Hg  Hg104  1  0.13333333  0.86666667  0.33333333  1
  Hg  Hg105  1  0.33333333  0.06666667  0.33333333  1
  Hg  Hg106  1  0.33333333  0.26666667  0.33333333  1
  Hg  Hg107  1  0.33333333  0.46666667  0.33333333  1
  Hg  Hg108  1  0.33333333  0.66666667  0.33333333  1
  Hg  Hg109  1  0.33333333  0.86666667  0.33333333  1
  Hg  Hg110  1  0.53333333  0.06666667  0.33333333  1
  Hg  Hg111  1  0.53333333  0.26666667  0.33333333  1
  Hg  Hg112  1  0.53333333  0.46666667  0.33333333  1
  Hg  Hg113  1  0.53333333  0.66666667  0.33333333  1
  Hg  Hg114  1  0.53333333  0.86666667  0.33333333  1
  Hg  Hg115  1  0.73333333  0.06666667  0.33333333  1
  Hg  Hg116  1  0.73333333  0.26666667  0.33333333  1
  Hg  Hg117  1  0.73333333  0.46666667  0.33333333  1
  Hg  Hg118  1  0.73333333  0.66666667  0.33333333  1
  Hg  Hg119  1  0.73333333  0.86666667  0.33333333  1
  Hg  Hg120  1  0.93333333  0.06666667  0.33333333  1
  Hg  Hg121  1  0.93333333  0.26666667  0.33333333  1
  Hg  Hg122  1  0.93333333  0.46666667  0.33333333  1
  Hg  Hg123  1  0.93333333  0.66666667  0.33333333  1
  Hg  Hg124  1  0.93333333  0.86666667  0.33333333  1
  Hg  Hg125  1  0.06666667  0.13333333  0.66666667  1
  Hg  Hg126  1  0.06666667  0.33333333  0.66666667  1
  Hg  Hg127  1  0.06666667  0.53333333  0.66666667  1
  Hg  Hg128  1  0.06666667  0.73333333  0.66666667  1
  Hg  Hg129  1  0.06666667  0.93333333  0.66666667  1
  Hg  Hg130  1  0.26666667  0.13333333  0.66666667  1
  Hg  Hg131  1  0.26666667  0.33333333  0.66666667  1
  Hg  Hg132  1  0.26666667  0.53333333  0.66666667  1
  Hg  Hg133  1  0.26666667  0.73333333  0.66666667  1
  Hg  Hg134  1  0.26666667  0.93333333  0.66666667  1
  Hg  Hg135  1  0.46666667  0.13333333  0.66666667  1
  Hg  Hg136  1  0.46666667  0.33333333  0.66666667  1
  Hg  Hg137  1  0.46666667  0.53333333  0.66666667  1
  Hg  Hg138  1  0.46666667  0.73333333  0.66666667  1
  Hg  Hg139  1  0.46666667  0.93333333  0.66666667  1
  Hg  Hg140  1  0.66666667  0.13333333  0.66666667  1
  Hg  Hg141  1  0.66666667  0.33333333  0.66666667  1
  Hg  Hg142  1  0.66666667  0.53333333  0.66666667  1
  Hg  Hg143  1  0.66666667  0.73333333  0.66666667  1
  Hg  Hg144  1  0.66666667  0.93333333  0.66666667  1
  Hg  Hg145  1  0.86666667  0.13333333  0.66666667  1
  Hg  Hg146  1  0.86666667  0.33333333  0.66666667  1
  Hg  Hg147  1  0.86666667  0.53333333  0.66666667  1
  Hg  Hg148  1  0.86666667  0.73333333  0.66666667  1
  Hg  Hg149  1  0.86666667  0.93333333  0.66666667  1
  O  O150  1  -0.00000000  -0.00000000  0.10190209  1
  O  O151  1  -0.00000000  0.20000000  0.10190209  1
  O  O152  1  -0.00000000  0.40000000  0.10190209  1
  O  O153  1  -0.00000000  0.60000000  0.10190209  1
  O  O154  1  -0.00000000  0.80000000  0.10190209  1
  O  O155  1  0.20000000  -0.00000000  0.10190209  1
  O  O156  1  0.20000000  0.20000000  0.10190209  1
  O  O157  1  0.20000000  0.40000000  0.10190209  1
  O  O158  1  0.20000000  0.60000000  0.10190209  1
  O  O159  1  0.20000000  0.80000000  0.10190209  1
  O  O160  1  0.40000000  -0.00000000  0.10190209  1
  O  O161  1  0.40000000  0.20000000  0.10190209  1
  O  O162  1  0.40000000  0.40000000  0.10190209  1
  O  O163  1  0.40000000  0.60000000  0.10190209  1
  O  O164  1  0.40000000  0.80000000  0.10190209  1
  O  O165  1  0.60000000  -0.00000000  0.10190209  1
  O  O166  1  0.60000000  0.20000000  0.10190209  1
  O  O167  1  0.60000000  0.40000000  0.10190209  1
  O  O168  1  0.60000000  0.60000000  0.10190209  1
  O  O169  1  0.60000000  0.80000000  0.10190209  1
  O  O170  1  0.80000000  -0.00000000  0.10190209  1
  O  O171  1  0.80000000  0.20000000  0.10190209  1
  O  O172  1  0.80000000  0.40000000  0.10190209  1
  O  O173  1  0.80000000  0.60000000  0.10190209  1
  O  O174  1  0.80000000  0.80000000  0.10190209  1
  O  O175  1  0.13333333  0.06666667  0.43523543  1
  O  O176  1  0.13333333  0.26666667  0.43523543  1
  O  O177  1  0.13333333  0.46666667  0.43523543  1
  O  O178  1  0.13333333  0.66666667  0.43523543  1
  O  O179  1  0.13333333  0.86666667  0.43523543  1
  O  O180  1  0.33333333  0.06666667  0.43523543  1
  O  O181  1  0.33333333  0.26666667  0.43523543  1
  O  O182  1  0.33333333  0.46666667  0.43523543  1
  O  O183  1  0.33333333  0.66666667  0.43523543  1
  O  O184  1  0.33333333  0.86666667  0.43523543  1
  O  O185  1  0.53333333  0.06666667  0.43523543  1
  O  O186  1  0.53333333  0.26666667  0.43523543  1
  O  O187  1  0.53333333  0.46666667  0.43523543  1
  O  O188  1  0.53333333  0.66666667  0.43523543  1
  O  O189  1  0.53333333  0.86666667  0.43523543  1
  O  O190  1  0.73333333  0.06666667  0.43523543  1
  O  O191  1  0.73333333  0.26666667  0.43523543  1
  O  O192  1  0.73333333  0.46666667  0.43523543  1
  O  O193  1  0.73333333  0.66666667  0.43523543  1
  O  O194  1  0.73333333  0.86666667  0.43523543  1
  O  O195  1  0.93333333  0.06666667  0.43523543  1
  O  O196  1  0.93333333  0.26666667  0.43523543  1
  O  O197  1  0.93333333  0.46666667  0.43523543  1
  O  O198  1  0.93333333  0.66666667  0.43523543  1
  O  O199  1  0.93333333  0.86666667  0.43523543  1
  O  O200  1  0.06666667  0.13333333  0.76856876  1
  O  O201  1  0.06666667  0.33333333  0.76856876  1
  O  O202  1  0.06666667  0.53333333  0.76856876  1
  O  O203  1  0.06666667  0.73333333  0.76856876  1
  O  O204  1  0.06666667  0.93333333  0.76856876  1
  O  O205  1  0.26666667  0.13333333  0.76856876  1
  O  O206  1  0.26666667  0.33333333  0.76856876  1
  O  O207  1  0.26666667  0.53333333  0.76856876  1
  O  O208  1  0.26666667  0.73333333  0.76856876  1
  O  O209  1  0.26666667  0.93333333  0.76856876  1
  O  O210  1  0.46666667  0.13333333  0.76856876  1
  O  O211  1  0.46666667  0.33333333  0.76856876  1
  O  O212  1  0.46666667  0.53333333  0.76856876  1
  O  O213  1  0.46666667  0.73333333  0.76856876  1
  O  O214  1  0.46666667  0.93333333  0.76856876  1
  O  O215  1  0.66666667  0.13333333  0.76856876  1
  O  O216  1  0.66666667  0.33333333  0.76856876  1
  O  O217  1  0.66666667  0.53333333  0.76856876  1
  O  O218  1  0.66666667  0.73333333  0.76856876  1
  O  O219  1  0.66666667  0.93333333  0.76856876  1
  O  O220  1  0.86666667  0.13333333  0.76856876  1
  O  O221  1  0.86666667  0.33333333  0.76856876  1
  O  O222  1  0.86666667  0.53333333  0.76856876  1
  O  O223  1  0.86666667  0.73333333  0.76856876  1
  O  O224  1  0.86666667  0.93333333  0.76856876  1
  O  O225  1  -0.00000000  -0.00000000  0.89809791  1
  O  O226  1  -0.00000000  0.20000000  0.89809791  1
  O  O227  1  -0.00000000  0.40000000  0.89809791  1
  O  O228  1  -0.00000000  0.60000000  0.89809791  1
  O  O229  1  -0.00000000  0.80000000  0.89809791  1
  O  O230  1  0.20000000  -0.00000000  0.89809791  1
  O  O231  1  0.20000000  0.20000000  0.89809791  1
  O  O232  1  0.20000000  0.40000000  0.89809791  1
  O  O233  1  0.20000000  0.60000000  0.89809791  1
  O  O234  1  0.20000000  0.80000000  0.89809791  1
  O  O235  1  0.40000000  -0.00000000  0.89809791  1
  O  O236  1  0.40000000  0.20000000  0.89809791  1
  O  O237  1  0.40000000  0.40000000  0.89809791  1
  O  O238  1  0.40000000  0.60000000  0.89809791  1
  O  O239  1  0.40000000  0.80000000  0.89809791  1
  O  O240  1  0.60000000  -0.00000000  0.89809791  1
  O  O241  1  0.60000000  0.20000000  0.89809791  1
  O  O242  1  0.60000000  0.40000000  0.89809791  1
  O  O243  1  0.60000000  0.60000000  0.89809791  1
  O  O244  1  0.60000000  0.80000000  0.89809791  1
  O  O245  1  0.80000000  -0.00000000  0.89809791  1
  O  O246  1  0.80000000  0.20000000  0.89809791  1
  O  O247  1  0.80000000  0.40000000  0.89809791  1
  O  O248  1  0.80000000  0.60000000  0.89809791  1
  O  O249  1  0.80000000  0.80000000  0.89809791  1
  O  O250  1  0.13333333  0.06666667  1.23143124  1
  O  O251  1  0.13333333  0.26666667  1.23143124  1
  O  O252  1  0.13333333  0.46666667  1.23143124  1
  O  O253  1  0.13333333  0.66666667  1.23143124  1
  O  O254  1  0.13333333  0.86666667  1.23143124  1
  O  O255  1  0.33333333  0.06666667  1.23143124  1
  O  O256  1  0.33333333  0.26666667  1.23143124  1
  O  O257  1  0.33333333  0.46666667  1.23143124  1
  O  O258  1  0.33333333  0.66666667  1.23143124  1
  O  O259  1  0.33333333  0.86666667  1.23143124  1
  O  O260  1  0.53333333  0.06666667  1.23143124  1
  O  O261  1  0.53333333  0.26666667  1.23143124  1
  O  O262  1  0.53333333  0.46666667  1.23143124  1
  O  O263  1  0.53333333  0.66666667  1.23143124  1
  O  O264  1  0.53333333  0.86666667  1.23143124  1
  O  O265  1  0.73333333  0.06666667  1.23143124  1
  O  O266  1  0.73333333  0.26666667  1.23143124  1
  O  O267  1  0.73333333  0.46666667  1.23143124  1
  O  O268  1  0.73333333  0.66666667  1.23143124  1
  O  O269  1  0.73333333  0.86666667  1.23143124  1
  O  O270  1  0.93333333  0.06666667  1.23143124  1
  O  O271  1  0.93333333  0.26666667  1.23143124  1
  O  O272  1  0.93333333  0.46666667  1.23143124  1
  O  O273  1  0.93333333  0.66666667  1.23143124  1
  O  O274  1  0.93333333  0.86666667  1.23143124  1
  O  O275  1  0.06666667  0.13333333  1.56476457  1
  O  O276  1  0.06666667  0.33333333  1.56476457  1
  O  O277  1  0.06666667  0.53333333  1.56476457  1
  O  O278  1  0.06666667  0.73333333  1.56476457  1
  O  O279  1  0.06666667  0.93333333  1.56476457  1
  O  O280  1  0.26666667  0.13333333  1.56476457  1
  O  O281  1  0.26666667  0.33333333  1.56476457  1
  O  O282  1  0.26666667  0.53333333  1.56476457  1
  O  O283  1  0.26666667  0.73333333  1.56476457  1
  O  O284  1  0.26666667  0.93333333  1.56476457  1
  O  O285  1  0.46666667  0.13333333  1.56476457  1
  O  O286  1  0.46666667  0.33333333  1.56476457  1
  O  O287  1  0.46666667  0.53333333  1.56476457  1
  O  O288  1  0.46666667  0.73333333  1.56476457  1
  O  O289  1  0.46666667  0.93333333  1.56476457  1
  O  O290  1  0.66666667  0.13333333  1.56476457  1
  O  O291  1  0.66666667  0.33333333  1.56476457  1
  O  O292  1  0.66666667  0.53333333  1.56476457  1
  O  O293  1  0.66666667  0.73333333  1.56476457  1
  O  O294  1  0.66666667  0.93333333  1.56476457  1
  O  O295  1  0.86666667  0.13333333  1.56476457  1
  O  O296  1  0.86666667  0.33333333  1.56476457  1
  O  O297  1  0.86666667  0.53333333  1.56476457  1
  O  O298  1  0.86666667  0.73333333  1.56476457  1
  O  O299  1  0.86666667  0.93333333  1.56476457  1
