# generated using pymatgen
data_CdSnO3
_symmetry_space_group_name_H-M   'P 1'
_cell_length_a   16.47956175
_cell_length_b   16.47956175
_cell_length_c   14.99759281
_cell_angle_alpha   90.00000000
_cell_angle_beta   90.00000000
_cell_angle_gamma   120.00000000
_symmetry_Int_Tables_number   1
_chemical_formula_structural   CdSnO3
_chemical_formula_sum   'Cd54 Sn54 O162'
_cell_volume   3527.30899679
_cell_formula_units_Z   54
loop_
 _symmetry_equiv_pos_site_id
 _symmetry_equiv_pos_as_xyz
  1  'x, y, z'
loop_
 _atom_site_type_symbol
 _atom_site_label
 _atom_site_symmetry_multiplicity
 _atom_site_fract_x
 _atom_site_fract_y
 _atom_site_fract_z
 _atom_site_occupancy
  Cd  Cd0  1  -0.00000000  -0.00000000  0.63371551  1
  Cd  Cd1  1  0.00000000  0.33333333  0.63371551  1
  Cd  Cd2  1  0.00000000  0.66666667  0.63371551  1
  Cd  Cd3  1  0.33333333  -0.00000000  0.63371551  1
  Cd  Cd4  1  0.33333333  0.33333333  0.63371551  1
  Cd  Cd5  1  0.33333333  0.66666667  0.63371551  1
  Cd  Cd6  1  0.66666667  -0.00000000  0.63371551  1
  Cd  Cd7  1  0.66666667  0.33333333  0.63371551  1
  Cd  Cd8  1  0.66666667  0.66666667  0.63371551  1
  Cd  Cd9  1  0.22222222  0.11111111  0.96704885  1
  Cd  Cd10  1  0.22222222  0.44444444  0.96704885  1
  Cd  Cd11  1  0.22222222  0.77777778  0.96704885  1
  Cd  Cd12  1  0.55555556  0.11111111  0.96704885  1
  Cd  Cd13  1  0.55555556  0.44444444  0.96704885  1
  Cd  Cd14  1  0.55555556  0.77777778  0.96704885  1
  Cd  Cd15  1  0.88888889  0.11111111  0.96704885  1
  Cd  Cd16  1  0.88888889  0.44444444  0.96704885  1
  Cd  Cd17  1  0.88888889  0.77777778  0.96704885  1
  Cd  Cd18  1  0.11111111  0.22222222  1.30038218  1
  Cd  Cd19  1  0.11111111  0.55555556  1.30038218  1
  Cd  Cd20  1  0.11111111  0.88888889  1.30038218  1
  Cd  Cd21  1  0.44444444  0.22222222  1.30038218  1
  Cd  Cd22  1  0.44444444  0.55555556  1.30038218  1
  Cd  Cd23  1  0.44444444  0.88888889  1.30038218  1
  Cd  Cd24  1  0.77777778  0.22222222  1.30038218  1
  Cd  Cd25  1  0.77777778  0.55555556  1.30038218  1
  Cd  Cd26  1  0.77777778  0.88888889  1.30038218  1
  Cd  Cd27  1  0.00000000  0.00000000  0.36628449  1
  Cd  Cd28  1  0.00000000  0.33333333  0.36628449  1
  Cd  Cd29  1  0.00000000  0.66666667  0.36628449  1
  Cd  Cd30  1  0.33333333  0.00000000  0.36628449  1
  Cd  Cd31  1  0.33333333  0.33333333  0.36628449  1
  Cd  Cd32  1  0.33333333  0.66666667  0.36628449  1
  Cd  Cd33  1  0.66666667  0.00000000  0.36628449  1
  Cd  Cd34  1  0.66666667  0.33333333  0.36628449  1
  Cd  Cd35  1  0.66666667  0.66666667  0.36628449  1
  Cd  Cd36  1  0.22222222  0.11111111  0.69961782  1
  Cd  Cd37  1  0.22222222  0.44444444  0.69961782  1
  Cd  Cd38  1  0.22222222  0.77777778  0.69961782  1
  Cd  Cd39  1  0.55555556  0.11111111  0.69961782  1
  Cd  Cd40  1  0.55555556  0.44444444  0.69961782  1
  Cd  Cd41  1  0.55555556  0.77777778  0.69961782  1
  Cd  Cd42  1  0.88888889  0.11111111  0.69961782  1
  Cd  Cd43  1  0.88888889  0.44444444  0.69961782  1
  Cd  Cd44  1  0.88888889  0.77777778  0.69961782  1
  Cd  Cd45  1  0.11111111  0.22222222  1.03295115  1
  Cd  Cd46  1  0.11111111  0.55555556  1.03295115  1
  Cd  Cd47  1  0.11111111  0.88888889  1.03295115  1
  Cd  Cd48  1  0.44444444  0.22222222  1.03295115  1
  Cd  Cd49  1  0.44444444  0.55555556  1.03295115  1
  Cd  Cd50  1  0.44444444  0.88888889  1.03295115  1
  Cd  Cd51  1  0.77777778  0.22222222  1.03295115  1
  Cd  Cd52  1  0.77777778  0.55555556  1.03295115  1
  Cd  Cd53  1  0.77777778  0.88888889  1.03295115  1
  Sn  Sn54  1  -0.00000000  0.00000000  0.84597973  1
  Sn  Sn55  1  -0.00000000  0.33333333  0.84597973  1
  Sn  Sn56  1  -0.00000000  0.66666667  0.84597973  1
  Sn  Sn57  1  0.33333333  0.00000000  0.84597973  1
  Sn  Sn58  1  0.33333333  0.33333333  0.84597973  1
  Sn  Sn59  1  0.33333333  0.66666667  0.84597973  1
  Sn  Sn60  1  0.66666667  0.00000000  0.84597973  1
  Sn  Sn61  1  0.66666667  0.33333333  0.84597973  1
  Sn  Sn62  1  0.66666667  0.66666667  0.84597973  1
  Sn  Sn63  1  0.22222222  0.11111111  1.17931306  1
  Sn  Sn64  1  0.22222222  0.44444444  1.17931306  1
  Sn  Sn65  1  0.22222222  0.77777778  1.17931306  1
  Sn  Sn66  1  0.55555556  0.11111111  1.17931306  1
  Sn  Sn67  1  0.55555556  0.44444444  1.17931306  1
  Sn  Sn68  1  0.55555556  0.77777778  1.17931306  1
  Sn  Sn69  1  0.88888889  0.11111111  1.17931306  1
  Sn  Sn70  1  0.88888889  0.44444444  1.17931306  1
  Sn  Sn71  1  0.88888889  0.77777778  1.17931306  1
  Sn  Sn72  1  0.11111111  0.22222222  1.51264640  1
  Sn  Sn73  1  0.11111111  0.55555556  1.51264640  1
  Sn  Sn74  1  0.11111111  0.88888889  1.51264640  1
  Sn  Sn75  1  0.44444444  0.22222222  1.51264640  1
  Sn  Sn76  1  0.44444444  0.55555556  1.51264640  1
  Sn  Sn77  1  0.44444444  0.88888889  1.51264640  1
  Sn  Sn78  1  0.77777778  0.22222222  1.51264640  1
  Sn  Sn79  1  0.77777778  0.55555556  1.51264640  1
  Sn  Sn80  1  0.77777778  0.88888889  1.51264640  1
  Sn  Sn81  1  0.00000000  -0.00000000  0.15402027  1
  Sn  Sn82  1  0.00000000  0.33333333  0.15402027  1
  Sn  Sn83  1  0.00000000  0.66666667  0.15402027  1
  Sn  Sn84  1  0.33333333  -0.00000000  0.15402027  1
  Sn  Sn85  1  0.33333333  0.33333333  0.15402027  1
  Sn  Sn86  1  0.33333333  0.66666667  0.15402027  1
  Sn  Sn87  1  0.66666667  -0.00000000  0.15402027  1
  Sn  Sn88  1  0.66666667  0.33333333  0.15402027  1
  Sn  Sn89  1  0.66666667  0.66666667  0.15402027  1
  Sn  Sn90  1  0.22222222  0.11111111  0.48735360  1
  Sn  Sn91  1  0.22222222  0.44444444  0.48735360  1
  Sn  Sn92  1  0.22222222  0.77777778  0.48735360  1
  Sn  Sn93  1  0.55555556  0.11111111  0.48735360  1
  Sn  Sn94  1  0.55555556  0.44444444  0.48735360  1
  Sn  Sn95  1  0.55555556  0.77777778  0.48735360  1
  Sn  Sn96  1  0.88888889  0.11111111  0.48735360  1
  Sn  Sn97  1  0.88888889  0.44444444  0.48735360  1
  Sn  Sn98  1  0.88888889  0.77777778  0.48735360  1
  Sn  Sn99  1  0.11111111  0.22222222  0.82068694  1
  Sn  Sn100  1  0.11111111  0.55555556  0.82068694  1
  Sn  Sn101  1  0.11111111  0.88888889  0.82068694  1
  Sn  Sn102  1  0.44444444  0.22222222  0.82068694  1
  Sn  Sn103  1  0.44444444  0.55555556  0.82068694  1
  Sn  Sn104  1  0.44444444  0.88888889  0.82068694  1
  Sn  Sn105  1  0.77777778  0.22222222  0.82068694  1
  Sn  Sn106  1  0.77777778  0.55555556  0.82068694  1
  Sn  Sn107  1  0.77777778  0.88888889  0.82068694  1
  O  O108  1  -0.12126378  -0.12835312  0.57722521  1
  O  O109  1  -0.12126378  0.20498021  0.57722521  1
  O  O110  1  -0.12126378  0.53831355  0.57722521  1
  O  O111  1  0.21206956  -0.12835312  0.57722521  1
  O  O112  1  0.21206956  0.20498021  0.57722521  1
  O  O113  1  0.21206956  0.53831355  0.57722521  1
  O  O114  1  0.54540289  -0.12835312  0.57722521  1
  O  O115  1  0.54540289  0.20498021  0.57722521  1
  O  O116  1  0.54540289  0.53831355  0.57722521  1
  O  O117  1  0.10095844  -0.01724201  0.91055854  1
  O  O118  1  0.10095844  0.31609132  0.91055854  1
  O  O119  1  0.10095844  0.64942466  0.91055854  1
  O  O120  1  0.43429178  -0.01724201  0.91055854  1
  O  O121  1  0.43429178  0.31609132  0.91055854  1
  O  O122  1  0.43429178  0.64942466  0.91055854  1
  O  O123  1  0.76762511  -0.01724201  0.91055854  1
  O  O124  1  0.76762511  0.31609132  0.91055854  1
  O  O125  1  0.76762511  0.64942466  0.91055854  1
  O  O126  1  -0.01015267  0.09386910  1.24389187  1
  O  O127  1  -0.01015267  0.42720243  1.24389187  1
  O  O128  1  -0.01015267  0.76053577  1.24389187  1
  O  O129  1  0.32318067  0.09386910  1.24389187  1
  O  O130  1  0.32318067  0.42720243  1.24389187  1
  O  O131  1  0.32318067  0.76053577  1.24389187  1
  O  O132  1  0.65651400  0.09386910  1.24389187  1
  O  O133  1  0.65651400  0.42720243  1.24389187  1
  O  O134  1  0.65651400  0.76053577  1.24389187  1
  O  O135  1  -0.12835312  -0.00708934  0.42277479  1
  O  O136  1  -0.12835312  0.32624399  0.42277479  1
  O  O137  1  -0.12835312  0.65957732  0.42277479  1
  O  O138  1  0.20498021  -0.00708934  0.42277479  1
  O  O139  1  0.20498021  0.32624399  0.42277479  1
  O  O140  1  0.20498021  0.65957732  0.42277479  1
  O  O141  1  0.53831355  -0.00708934  0.42277479  1
  O  O142  1  0.53831355  0.32624399  0.42277479  1
  O  O143  1  0.53831355  0.65957732  0.42277479  1
  O  O144  1  0.09386910  0.10402177  0.75610813  1
  O  O145  1  0.09386910  0.43735510  0.75610813  1
  O  O146  1  0.09386910  0.77068843  0.75610813  1
  O  O147  1  0.42720243  0.10402177  0.75610813  1
  O  O148  1  0.42720243  0.43735510  0.75610813  1
  O  O149  1  0.42720243  0.77068843  0.75610813  1
  O  O150  1  0.76053577  0.10402177  0.75610813  1
  O  O151  1  0.76053577  0.43735510  0.75610813  1
  O  O152  1  0.76053577  0.77068843  0.75610813  1
  O  O153  1  -0.01724201  0.21513288  1.08944146  1
  O  O154  1  -0.01724201  0.54846621  1.08944146  1
  O  O155  1  -0.01724201  0.88179954  1.08944146  1
  O  O156  1  0.31609132  0.21513288  1.08944146  1
  O  O157  1  0.31609132  0.54846621  1.08944146  1
  O  O158  1  0.31609132  0.88179954  1.08944146  1
  O  O159  1  0.64942466  0.21513288  1.08944146  1
  O  O160  1  0.64942466  0.54846621  1.08944146  1
  O  O161  1  0.64942466  0.88179954  1.08944146  1
  O  O162  1  0.00708934  -0.12126378  0.42277479  1
  O  O163  1  0.00708934  0.21206956  0.42277479  1
  O  O164  1  0.00708934  0.54540289  0.42277479  1
  O  O165  1  0.34042268  -0.12126378  0.42277479  1
  O  O166  1  0.34042268  0.21206956  0.42277479  1
  O  O167  1  0.34042268  0.54540289  0.42277479  1
  O  O168  1  0.67375601  -0.12126378  0.42277479  1
  O  O169  1  0.67375601  0.21206956  0.42277479  1
  O  O170  1  0.67375601  0.54540289  0.42277479  1
  O  O171  1  0.22931157  -0.01015267  0.75610813  1
  O  O172  1  0.22931157  0.32318067  0.75610813  1
  O  O173  1  0.22931157  0.65651400  0.75610813  1
  O  O174  1  0.56264490  -0.01015267  0.75610813  1
  O  O175  1  0.56264490  0.32318067  0.75610813  1
  O  O176  1  0.56264490  0.65651400  0.75610813  1
  O  O177  1  0.89597823  -0.01015267  0.75610813  1
  O  O178  1  0.89597823  0.32318067  0.75610813  1
  O  O179  1  0.89597823  0.65651400  0.75610813  1
  O  O180  1  0.11820046  0.10095844  1.08944146  1
  O  O181  1  0.11820046  0.43429178  1.08944146  1
  O  O182  1  0.11820046  0.76762511  1.08944146  1
  O  O183  1  0.45153379  0.10095844  1.08944146  1
  O  O184  1  0.45153379  0.43429178  1.08944146  1
  O  O185  1  0.45153379  0.76762511  1.08944146  1
  O  O186  1  0.78486712  0.10095844  1.08944146  1
  O  O187  1  0.78486712  0.43429178  1.08944146  1
  O  O188  1  0.78486712  0.76762511  1.08944146  1
  O  O189  1  -0.00708934  0.12126378  0.57722521  1
  O  O190  1  -0.00708934  0.45459711  0.57722521  1
  O  O191  1  -0.00708934  0.78793044  0.57722521  1
  O  O192  1  0.32624399  0.12126378  0.57722521  1
  O  O193  1  0.32624399  0.45459711  0.57722521  1
  O  O194  1  0.32624399  0.78793044  0.57722521  1
  O  O195  1  0.65957732  0.12126378  0.57722521  1
  O  O196  1  0.65957732  0.45459711  0.57722521  1
  O  O197  1  0.65957732  0.78793044  0.57722521  1
  O  O198  1  0.21513288  0.23237489  0.91055854  1
  O  O199  1  0.21513288  0.56570822  0.91055854  1
  O  O200  1  0.21513288  0.89904156  0.91055854  1
  O  O201  1  0.54846621  0.23237489  0.91055854  1
  O  O202  1  0.54846621  0.56570822  0.91055854  1
  O  O203  1  0.54846621  0.89904156  0.91055854  1
  O  O204  1  0.88179954  0.23237489  0.91055854  1
  O  O205  1  0.88179954  0.56570822  0.91055854  1
  O  O206  1  0.88179954  0.89904156  0.91055854  1
  O  O207  1  0.10402177  0.34348600  1.24389187  1
  O  O208  1  0.10402177  0.67681933  1.24389187  1
  O  O209  1  0.10402177  1.01015267  1.24389187  1
  O  O210  1  0.43735510  0.34348600  1.24389187  1
  O  O211  1  0.43735510  0.67681933  1.24389187  1
  O  O212  1  0.43735510  1.01015267  1.24389187  1
  O  O213  1  0.77068843  0.34348600  1.24389187  1
  O  O214  1  0.77068843  0.67681933  1.24389187  1
  O  O215  1  0.77068843  1.01015267  1.24389187  1
  O  O216  1  0.12835312  0.00708934  0.57722521  1
  O  O217  1  0.12835312  0.34042268  0.57722521  1
  O  O218  1  0.12835312  0.67375601  0.57722521  1
  O  O219  1  0.46168645  0.00708934  0.57722521  1
  O  O220  1  0.46168645  0.34042268  0.57722521  1
  O  O221  1  0.46168645  0.67375601  0.57722521  1
  O  O222  1  0.79501979  0.00708934  0.57722521  1
  O  O223  1  0.79501979  0.34042268  0.57722521  1
  O  O224  1  0.79501979  0.67375601  0.57722521  1
  O  O225  1  0.35057534  0.11820046  0.91055854  1
  O  O226  1  0.35057534  0.45153379  0.91055854  1
  O  O227  1  0.35057534  0.78486712  0.91055854  1
  O  O228  1  0.68390868  0.11820046  0.91055854  1
  O  O229  1  0.68390868  0.45153379  0.91055854  1
  O  O230  1  0.68390868  0.78486712  0.91055854  1
  O  O231  1  1.01724201  0.11820046  0.91055854  1
  O  O232  1  1.01724201  0.45153379  0.91055854  1
  O  O233  1  1.01724201  0.78486712  0.91055854  1
  O  O234  1  0.23946423  0.22931157  1.24389187  1
  O  O235  1  0.23946423  0.56264490  1.24389187  1
  O  O236  1  0.23946423  0.89597823  1.24389187  1
  O  O237  1  0.57279757  0.22931157  1.24389187  1
  O  O238  1  0.57279757  0.56264490  1.24389187  1
  O  O239  1  0.57279757  0.89597823  1.24389187  1
  O  O240  1  0.90613090  0.22931157  1.24389187  1
  O  O241  1  0.90613090  0.56264490  1.24389187  1
  O  O242  1  0.90613090  0.89597823  1.24389187  1
  O  O243  1  0.12126378  0.12835312  0.42277479  1
  O  O244  1  0.12126378  0.46168645  0.42277479  1
  O  O245  1  0.12126378  0.79501979  0.42277479  1
  O  O246  1  0.45459711  0.12835312  0.42277479  1
  O  O247  1  0.45459711  0.46168645  0.42277479  1
  O  O248  1  0.45459711  0.79501979  0.42277479  1
  O  O249  1  0.78793044  0.12835312  0.42277479  1
  O  O250  1  0.78793044  0.46168645  0.42277479  1
  O  O251  1  0.78793044  0.79501979  0.42277479  1
  O  O252  1  0.34348600  0.23946423  0.75610813  1
  O  O253  1  0.34348600  0.57279757  0.75610813  1
  O  O254  1  0.34348600  0.90613090  0.75610813  1
  O  O255  1  0.67681933  0.23946423  0.75610813  1
  O  O256  1  0.67681933  0.57279757  0.75610813  1
  O  O257  1  0.67681933  0.90613090  0.75610813  1
  O  O258  1  1.01015267  0.23946423  0.75610813  1
  O  O259  1  1.01015267  0.57279757  0.75610813  1
  O  O260  1  1.01015267  0.90613090  0.75610813  1
  O  O261  1  0.23237489  0.35057534  1.08944146  1
  O  O262  1  0.23237489  0.68390868  1.08944146  1
  O  O263  1  0.23237489  1.01724201  1.08944146  1
  O  O264  1  0.56570822  0.35057534  1.08944146  1
  O  O265  1  0.56570822  0.68390868  1.08944146  1
  O  O266  1  0.56570822  1.01724201  1.08944146  1
  O  O267  1  0.89904156  0.35057534  1.08944146  1
  O  O268  1  0.89904156  0.68390868  1.08944146  1
  O  O269  1  0.89904156  1.01724201  1.08944146  1
