# generated using pymatgen
data_Hg2WO4
_symmetry_space_group_name_H-M   'P 1'
_cell_length_a   17.47237132
_cell_length_b   23.00269113
_cell_length_c   19.75105786
_cell_angle_alpha   90.00000000
_cell_angle_beta   114.33007001
_cell_angle_gamma   90.00000000
_symmetry_Int_Tables_number   1
_chemical_formula_structural   Hg2WO4
_chemical_formula_sum   'Hg128 W64 O256'
_cell_volume   7233.16647292
_cell_formula_units_Z   64
loop_
 _symmetry_equiv_pos_site_id
 _symmetry_equiv_pos_as_xyz
  1  'x, y, z'
loop_
 _atom_site_type_symbol
 _atom_site_label
 _atom_site_symmetry_multiplicity
 _atom_site_fract_x
 _atom_site_fract_y
 _atom_site_fract_z
 _atom_site_occupancy
  Hg  Hg0  1  0.32040864  0.05499127  0.11986273  1
  Hg  Hg1  1  0.32040864  0.05499127  0.36986273  1
  Hg  Hg2  1  0.32040864  0.05499127  0.61986273  1
  Hg  Hg3  1  0.32040864  0.05499127  0.86986273  1
  Hg  Hg4  1  0.32040864  0.55499127  0.11986273  1
  Hg  Hg5  1  0.32040864  0.55499127  0.36986273  1
  Hg  Hg6  1  0.32040864  0.55499127  0.61986273  1
  Hg  Hg7  1  0.32040864  0.55499127  0.86986273  1
  Hg  Hg8  1  0.82040864  0.05499127  0.11986273  1
  Hg  Hg9  1  0.82040864  0.05499127  0.36986273  1
  Hg  Hg10  1  0.82040864  0.05499127  0.61986273  1
  Hg  Hg11  1  0.82040864  0.05499127  0.86986273  1
  Hg  Hg12  1  0.82040864  0.55499127  0.11986273  1
  Hg  Hg13  1  0.82040864  0.55499127  0.36986273  1
  Hg  Hg14  1  0.82040864  0.55499127  0.61986273  1
  Hg  Hg15  1  0.82040864  0.55499127  0.86986273  1
  Hg  Hg16  1  0.57040864  0.30499127  0.11986273  1
  Hg  Hg17  1  0.57040864  0.30499127  0.36986273  1
  Hg  Hg18  1  0.57040864  0.30499127  0.61986273  1
  Hg  Hg19  1  0.57040864  0.30499127  0.86986273  1
  Hg  Hg20  1  0.57040864  0.80499127  0.11986273  1
  Hg  Hg21  1  0.57040864  0.80499127  0.36986273  1
  Hg  Hg22  1  0.57040864  0.80499127  0.61986273  1
  Hg  Hg23  1  0.57040864  0.80499127  0.86986273  1
  Hg  Hg24  1  1.07040864  0.30499127  0.11986273  1
  Hg  Hg25  1  1.07040864  0.30499127  0.36986273  1
  Hg  Hg26  1  1.07040864  0.30499127  0.61986273  1
  Hg  Hg27  1  1.07040864  0.30499127  0.86986273  1
  Hg  Hg28  1  1.07040864  0.80499127  0.11986273  1
  Hg  Hg29  1  1.07040864  0.80499127  0.36986273  1
  Hg  Hg30  1  1.07040864  0.80499127  0.61986273  1
  Hg  Hg31  1  1.07040864  0.80499127  0.86986273  1
  Hg  Hg32  1  0.17959136  0.05499127  0.00513727  1
  Hg  Hg33  1  0.17959136  0.05499127  0.25513727  1
  Hg  Hg34  1  0.17959136  0.05499127  0.50513727  1
  Hg  Hg35  1  0.17959136  0.05499127  0.75513727  1
  Hg  Hg36  1  0.17959136  0.55499127  0.00513727  1
  Hg  Hg37  1  0.17959136  0.55499127  0.25513727  1
  Hg  Hg38  1  0.17959136  0.55499127  0.50513727  1
  Hg  Hg39  1  0.17959136  0.55499127  0.75513727  1
  Hg  Hg40  1  0.67959136  0.05499127  0.00513727  1
  Hg  Hg41  1  0.67959136  0.05499127  0.25513727  1
  Hg  Hg42  1  0.67959136  0.05499127  0.50513727  1
  Hg  Hg43  1  0.67959136  0.05499127  0.75513727  1
  Hg  Hg44  1  0.67959136  0.55499127  0.00513727  1
  Hg  Hg45  1  0.67959136  0.55499127  0.25513727  1
  Hg  Hg46  1  0.67959136  0.55499127  0.50513727  1
  Hg  Hg47  1  0.67959136  0.55499127  0.75513727  1
  Hg  Hg48  1  0.42959136  0.30499127  0.00513727  1
  Hg  Hg49  1  0.42959136  0.30499127  0.25513727  1
  Hg  Hg50  1  0.42959136  0.30499127  0.50513727  1
  Hg  Hg51  1  0.42959136  0.30499127  0.75513727  1
  Hg  Hg52  1  0.42959136  0.80499127  0.00513727  1
  Hg  Hg53  1  0.42959136  0.80499127  0.25513727  1
  Hg  Hg54  1  0.42959136  0.80499127  0.50513727  1
  Hg  Hg55  1  0.42959136  0.80499127  0.75513727  1
  Hg  Hg56  1  0.92959136  0.30499127  0.00513727  1
  Hg  Hg57  1  0.92959136  0.30499127  0.25513727  1
  Hg  Hg58  1  0.92959136  0.30499127  0.50513727  1
  Hg  Hg59  1  0.92959136  0.30499127  0.75513727  1
  Hg  Hg60  1  0.92959136  0.80499127  0.00513727  1
  Hg  Hg61  1  0.92959136  0.80499127  0.25513727  1
  Hg  Hg62  1  0.92959136  0.80499127  0.50513727  1
  Hg  Hg63  1  0.92959136  0.80499127  0.75513727  1
  Hg  Hg64  1  0.17959136  -0.05499127  0.13013727  1
  Hg  Hg65  1  0.17959136  -0.05499127  0.38013727  1
  Hg  Hg66  1  0.17959136  -0.05499127  0.63013727  1
  Hg  Hg67  1  0.17959136  -0.05499127  0.88013727  1
  Hg  Hg68  1  0.17959136  0.44500873  0.13013727  1
  Hg  Hg69  1  0.17959136  0.44500873  0.38013727  1
  Hg  Hg70  1  0.17959136  0.44500873  0.63013727  1
  Hg  Hg71  1  0.17959136  0.44500873  0.88013727  1
  Hg  Hg72  1  0.67959136  -0.05499127  0.13013727  1
  Hg  Hg73  1  0.67959136  -0.05499127  0.38013727  1
  Hg  Hg74  1  0.67959136  -0.05499127  0.63013727  1
  Hg  Hg75  1  0.67959136  -0.05499127  0.88013727  1
  Hg  Hg76  1  0.67959136  0.44500873  0.13013727  1
  Hg  Hg77  1  0.67959136  0.44500873  0.38013727  1
  Hg  Hg78  1  0.67959136  0.44500873  0.63013727  1
  Hg  Hg79  1  0.67959136  0.44500873  0.88013727  1
  Hg  Hg80  1  0.42959136  0.19500873  0.13013727  1
  Hg  Hg81  1  0.42959136  0.19500873  0.38013727  1
  Hg  Hg82  1  0.42959136  0.19500873  0.63013727  1
  Hg  Hg83  1  0.42959136  0.19500873  0.88013727  1
  Hg  Hg84  1  0.42959136  0.69500873  0.13013727  1
  Hg  Hg85  1  0.42959136  0.69500873  0.38013727  1
  Hg  Hg86  1  0.42959136  0.69500873  0.63013727  1
  Hg  Hg87  1  0.42959136  0.69500873  0.88013727  1
  Hg  Hg88  1  0.92959136  0.19500873  0.13013727  1
  Hg  Hg89  1  0.92959136  0.19500873  0.38013727  1
  Hg  Hg90  1  0.92959136  0.19500873  0.63013727  1
  Hg  Hg91  1  0.92959136  0.19500873  0.88013727  1
  Hg  Hg92  1  0.92959136  0.69500873  0.13013727  1
  Hg  Hg93  1  0.92959136  0.69500873  0.38013727  1
  Hg  Hg94  1  0.92959136  0.69500873  0.63013727  1
  Hg  Hg95  1  0.92959136  0.69500873  0.88013727  1
  Hg  Hg96  1  0.32040864  -0.05499127  0.24486273  1
  Hg  Hg97  1  0.32040864  -0.05499127  0.49486273  1
  Hg  Hg98  1  0.32040864  -0.05499127  0.74486273  1
  Hg  Hg99  1  0.32040864  -0.05499127  0.99486273  1
  Hg  Hg100  1  0.32040864  0.44500873  0.24486273  1
  Hg  Hg101  1  0.32040864  0.44500873  0.49486273  1
  Hg  Hg102  1  0.32040864  0.44500873  0.74486273  1
  Hg  Hg103  1  0.32040864  0.44500873  0.99486273  1
  Hg  Hg104  1  0.82040864  -0.05499127  0.24486273  1
  Hg  Hg105  1  0.82040864  -0.05499127  0.49486273  1
  Hg  Hg106  1  0.82040864  -0.05499127  0.74486273  1
  Hg  Hg107  1  0.82040864  -0.05499127  0.99486273  1
  Hg  Hg108  1  0.82040864  0.44500873  0.24486273  1
  Hg  Hg109  1  0.82040864  0.44500873  0.49486273  1
  Hg  Hg110  1  0.82040864  0.44500873  0.74486273  1
  Hg  Hg111  1  0.82040864  0.44500873  0.99486273  1
  Hg  Hg112  1  0.57040864  0.19500873  0.24486273  1
  Hg  Hg113  1  0.57040864  0.19500873  0.49486273  1
  Hg  Hg114  1  0.57040864  0.19500873  0.74486273  1
  Hg  Hg115  1  0.57040864  0.19500873  0.99486273  1
  Hg  Hg116  1  0.57040864  0.69500873  0.24486273  1
  Hg  Hg117  1  0.57040864  0.69500873  0.49486273  1
  Hg  Hg118  1  0.57040864  0.69500873  0.74486273  1
  Hg  Hg119  1  0.57040864  0.69500873  0.99486273  1
  Hg  Hg120  1  1.07040864  0.19500873  0.24486273  1
  Hg  Hg121  1  1.07040864  0.19500873  0.49486273  1
  Hg  Hg122  1  1.07040864  0.19500873  0.74486273  1
  Hg  Hg123  1  1.07040864  0.19500873  0.99486273  1
  Hg  Hg124  1  1.07040864  0.69500873  0.24486273  1
  Hg  Hg125  1  1.07040864  0.69500873  0.49486273  1
  Hg  Hg126  1  1.07040864  0.69500873  0.74486273  1
  Hg  Hg127  1  1.07040864  0.69500873  0.99486273  1
  W  W128  1  0.25000000  -0.20120022  0.06250000  1
  W  W129  1  0.25000000  -0.20120022  0.31250000  1
  W  W130  1  0.25000000  -0.20120022  0.56250000  1
  W  W131  1  0.25000000  -0.20120022  0.81250000  1
  W  W132  1  0.25000000  0.29879978  0.06250000  1
  W  W133  1  0.25000000  0.29879978  0.31250000  1
  W  W134  1  0.25000000  0.29879978  0.56250000  1
  W  W135  1  0.25000000  0.29879978  0.81250000  1
  W  W136  1  0.75000000  -0.20120022  0.06250000  1
  W  W137  1  0.75000000  -0.20120022  0.31250000  1
  W  W138  1  0.75000000  -0.20120022  0.56250000  1
  W  W139  1  0.75000000  -0.20120022  0.81250000  1
  W  W140  1  0.75000000  0.29879978  0.06250000  1
  W  W141  1  0.75000000  0.29879978  0.31250000  1
  W  W142  1  0.75000000  0.29879978  0.56250000  1
  W  W143  1  0.75000000  0.29879978  0.81250000  1
  W  W144  1  0.50000000  0.04879978  0.06250000  1
  W  W145  1  0.50000000  0.04879978  0.31250000  1
  W  W146  1  0.50000000  0.04879978  0.56250000  1
  W  W147  1  0.50000000  0.04879978  0.81250000  1
  W  W148  1  0.50000000  0.54879978  0.06250000  1
  W  W149  1  0.50000000  0.54879978  0.31250000  1
  W  W150  1  0.50000000  0.54879978  0.56250000  1
  W  W151  1  0.50000000  0.54879978  0.81250000  1
  W  W152  1  1.00000000  0.04879978  0.06250000  1
  W  W153  1  1.00000000  0.04879978  0.31250000  1
  W  W154  1  1.00000000  0.04879978  0.56250000  1
  W  W155  1  1.00000000  0.04879978  0.81250000  1
  W  W156  1  1.00000000  0.54879978  0.06250000  1
  W  W157  1  1.00000000  0.54879978  0.31250000  1
  W  W158  1  1.00000000  0.54879978  0.56250000  1
  W  W159  1  1.00000000  0.54879978  0.81250000  1
  W  W160  1  0.25000000  0.20120022  0.18750000  1
  W  W161  1  0.25000000  0.20120022  0.43750000  1
  W  W162  1  0.25000000  0.20120022  0.68750000  1
  W  W163  1  0.25000000  0.20120022  0.93750000  1
  W  W164  1  0.25000000  0.70120022  0.18750000  1
  W  W165  1  0.25000000  0.70120022  0.43750000  1
  W  W166  1  0.25000000  0.70120022  0.68750000  1
  W  W167  1  0.25000000  0.70120022  0.93750000  1
  W  W168  1  0.75000000  0.20120022  0.18750000  1
  W  W169  1  0.75000000  0.20120022  0.43750000  1
  W  W170  1  0.75000000  0.20120022  0.68750000  1
  W  W171  1  0.75000000  0.20120022  0.93750000  1
  W  W172  1  0.75000000  0.70120022  0.18750000  1
  W  W173  1  0.75000000  0.70120022  0.43750000  1
  W  W174  1  0.75000000  0.70120022  0.68750000  1
  W  W175  1  0.75000000  0.70120022  0.93750000  1
  W  W176  1  0.50000000  0.45120022  0.18750000  1
  W  W177  1  0.50000000  0.45120022  0.43750000  1
  W  W178  1  0.50000000  0.45120022  0.68750000  1
  W  W179  1  0.50000000  0.45120022  0.93750000  1
  W  W180  1  0.50000000  0.95120022  0.18750000  1
  W  W181  1  0.50000000  0.95120022  0.43750000  1
  W  W182  1  0.50000000  0.95120022  0.68750000  1
  W  W183  1  0.50000000  0.95120022  0.93750000  1
  W  W184  1  1.00000000  0.45120022  0.18750000  1
  W  W185  1  1.00000000  0.45120022  0.43750000  1
  W  W186  1  1.00000000  0.45120022  0.68750000  1
  W  W187  1  1.00000000  0.45120022  0.93750000  1
  W  W188  1  1.00000000  0.95120022  0.18750000  1
  W  W189  1  1.00000000  0.95120022  0.43750000  1
  W  W190  1  1.00000000  0.95120022  0.68750000  1
  W  W191  1  1.00000000  0.95120022  0.93750000  1
  O  O192  1  0.17755729  -0.15250984  0.07440987  1
  O  O193  1  0.17755729  -0.15250984  0.32440987  1
  O  O194  1  0.17755729  -0.15250984  0.57440987  1
  O  O195  1  0.17755729  -0.15250984  0.82440987  1
  O  O196  1  0.17755729  0.34749016  0.07440987  1
  O  O197  1  0.17755729  0.34749016  0.32440987  1
  O  O198  1  0.17755729  0.34749016  0.57440987  1
  O  O199  1  0.17755729  0.34749016  0.82440987  1
  O  O200  1  0.67755729  -0.15250984  0.07440987  1
  O  O201  1  0.67755729  -0.15250984  0.32440987  1
  O  O202  1  0.67755729  -0.15250984  0.57440987  1
  O  O203  1  0.67755729  -0.15250984  0.82440987  1
  O  O204  1  0.67755729  0.34749016  0.07440987  1
  O  O205  1  0.67755729  0.34749016  0.32440987  1
  O  O206  1  0.67755729  0.34749016  0.57440987  1
  O  O207  1  0.67755729  0.34749016  0.82440987  1
  O  O208  1  0.42755729  0.09749016  0.07440987  1
  O  O209  1  0.42755729  0.09749016  0.32440987  1
  O  O210  1  0.42755729  0.09749016  0.57440987  1
  O  O211  1  0.42755729  0.09749016  0.82440987  1
  O  O212  1  0.42755729  0.59749016  0.07440987  1
  O  O213  1  0.42755729  0.59749016  0.32440987  1
  O  O214  1  0.42755729  0.59749016  0.57440987  1
  O  O215  1  0.42755729  0.59749016  0.82440987  1
  O  O216  1  0.92755729  0.09749016  0.07440987  1
  O  O217  1  0.92755729  0.09749016  0.32440987  1
  O  O218  1  0.92755729  0.09749016  0.57440987  1
  O  O219  1  0.92755729  0.09749016  0.82440987  1
  O  O220  1  0.92755729  0.59749016  0.07440987  1
  O  O221  1  0.92755729  0.59749016  0.32440987  1
  O  O222  1  0.92755729  0.59749016  0.57440987  1
  O  O223  1  0.92755729  0.59749016  0.82440987  1
  O  O224  1  0.32244271  -0.15250984  0.05059013  1
  O  O225  1  0.32244271  -0.15250984  0.30059013  1
  O  O226  1  0.32244271  -0.15250984  0.55059013  1
  O  O227  1  0.32244271  -0.15250984  0.80059013  1
  O  O228  1  0.32244271  0.34749016  0.05059013  1
  O  O229  1  0.32244271  0.34749016  0.30059013  1
  O  O230  1  0.32244271  0.34749016  0.55059013  1
  O  O231  1  0.32244271  0.34749016  0.80059013  1
  O  O232  1  0.82244271  -0.15250984  0.05059013  1
  O  O233  1  0.82244271  -0.15250984  0.30059013  1
  O  O234  1  0.82244271  -0.15250984  0.55059013  1
  O  O235  1  0.82244271  -0.15250984  0.80059013  1
  O  O236  1  0.82244271  0.34749016  0.05059013  1
  O  O237  1  0.82244271  0.34749016  0.30059013  1
  O  O238  1  0.82244271  0.34749016  0.55059013  1
  O  O239  1  0.82244271  0.34749016  0.80059013  1
  O  O240  1  0.57244271  0.09749016  0.05059013  1
  O  O241  1  0.57244271  0.09749016  0.30059013  1
  O  O242  1  0.57244271  0.09749016  0.55059013  1
  O  O243  1  0.57244271  0.09749016  0.80059013  1
  O  O244  1  0.57244271  0.59749016  0.05059013  1
  O  O245  1  0.57244271  0.59749016  0.30059013  1
  O  O246  1  0.57244271  0.59749016  0.55059013  1
  O  O247  1  0.57244271  0.59749016  0.80059013  1
  O  O248  1  1.07244271  0.09749016  0.05059013  1
  O  O249  1  1.07244271  0.09749016  0.30059013  1
  O  O250  1  1.07244271  0.09749016  0.55059013  1
  O  O251  1  1.07244271  0.09749016  0.80059013  1
  O  O252  1  1.07244271  0.59749016  0.05059013  1
  O  O253  1  1.07244271  0.59749016  0.30059013  1
  O  O254  1  1.07244271  0.59749016  0.55059013  1
  O  O255  1  1.07244271  0.59749016  0.80059013  1
  O  O256  1  0.32244271  0.15250984  0.17559013  1
  O  O257  1  0.32244271  0.15250984  0.42559013  1
  O  O258  1  0.32244271  0.15250984  0.67559013  1
  O  O259  1  0.32244271  0.15250984  0.92559013  1
  O  O260  1  0.32244271  0.65250984  0.17559013  1
  O  O261  1  0.32244271  0.65250984  0.42559013  1
  O  O262  1  0.32244271  0.65250984  0.67559013  1
  O  O263  1  0.32244271  0.65250984  0.92559013  1
  O  O264  1  0.82244271  0.15250984  0.17559013  1
  O  O265  1  0.82244271  0.15250984  0.42559013  1
  O  O266  1  0.82244271  0.15250984  0.67559013  1
  O  O267  1  0.82244271  0.15250984  0.92559013  1
  O  O268  1  0.82244271  0.65250984  0.17559013  1
  O  O269  1  0.82244271  0.65250984  0.42559013  1
  O  O270  1  0.82244271  0.65250984  0.67559013  1
  O  O271  1  0.82244271  0.65250984  0.92559013  1
  O  O272  1  0.57244271  0.40250984  0.17559013  1
  O  O273  1  0.57244271  0.40250984  0.42559013  1
  O  O274  1  0.57244271  0.40250984  0.67559013  1
  O  O275  1  0.57244271  0.40250984  0.92559013  1
  O  O276  1  0.57244271  0.90250984  0.17559013  1
  O  O277  1  0.57244271  0.90250984  0.42559013  1
  O  O278  1  0.57244271  0.90250984  0.67559013  1
  O  O279  1  0.57244271  0.90250984  0.92559013  1
  O  O280  1  1.07244271  0.40250984  0.17559013  1
  O  O281  1  1.07244271  0.40250984  0.42559013  1
  O  O282  1  1.07244271  0.40250984  0.67559013  1
  O  O283  1  1.07244271  0.40250984  0.92559013  1
  O  O284  1  1.07244271  0.90250984  0.17559013  1
  O  O285  1  1.07244271  0.90250984  0.42559013  1
  O  O286  1  1.07244271  0.90250984  0.67559013  1
  O  O287  1  1.07244271  0.90250984  0.92559013  1
  O  O288  1  0.17755729  0.15250984  0.19940987  1
  O  O289  1  0.17755729  0.15250984  0.44940987  1
  O  O290  1  0.17755729  0.15250984  0.69940987  1
  O  O291  1  0.17755729  0.15250984  0.94940987  1
  O  O292  1  0.17755729  0.65250984  0.19940987  1
  O  O293  1  0.17755729  0.65250984  0.44940987  1
  O  O294  1  0.17755729  0.65250984  0.69940987  1
  O  O295  1  0.17755729  0.65250984  0.94940987  1
  O  O296  1  0.67755729  0.15250984  0.19940987  1
  O  O297  1  0.67755729  0.15250984  0.44940987  1
  O  O298  1  0.67755729  0.15250984  0.69940987  1
  O  O299  1  0.67755729  0.15250984  0.94940987  1
  O  O300  1  0.67755729  0.65250984  0.19940987  1
  O  O301  1  0.67755729  0.65250984  0.44940987  1
  O  O302  1  0.67755729  0.65250984  0.69940987  1
  O  O303  1  0.67755729  0.65250984  0.94940987  1
  O  O304  1  0.42755729  0.40250984  0.19940987  1
  O  O305  1  0.42755729  0.40250984  0.44940987  1
  O  O306  1  0.42755729  0.40250984  0.69940987  1
  O  O307  1  0.42755729  0.40250984  0.94940987  1
  O  O308  1  0.42755729  0.90250984  0.19940987  1
  O  O309  1  0.42755729  0.90250984  0.44940987  1
  O  O310  1  0.42755729  0.90250984  0.69940987  1
  O  O311  1  0.42755729  0.90250984  0.94940987  1
  O  O312  1  0.92755729  0.40250984  0.19940987  1
  O  O313  1  0.92755729  0.40250984  0.44940987  1
  O  O314  1  0.92755729  0.40250984  0.69940987  1
  O  O315  1  0.92755729  0.40250984  0.94940987  1
  O  O316  1  0.92755729  0.90250984  0.19940987  1
  O  O317  1  0.92755729  0.90250984  0.44940987  1
  O  O318  1  0.92755729  0.90250984  0.69940987  1
  O  O319  1  0.92755729  0.90250984  0.94940987  1
  O  O320  1  0.43394860  0.02420507  0.21225278  1
  O  O321  1  0.43394860  0.02420507  0.46225278  1
  O  O322  1  0.43394860  0.02420507  0.71225278  1
  O  O323  1  0.43394860  0.02420507  0.96225278  1
  O  O324  1  0.43394860  0.52420507  0.21225278  1
  O  O325  1  0.43394860  0.52420507  0.46225278  1
  O  O326  1  0.43394860  0.52420507  0.71225278  1
  O  O327  1  0.43394860  0.52420507  0.96225278  1
  O  O328  1  0.93394860  0.02420507  0.21225278  1
  O  O329  1  0.93394860  0.02420507  0.46225278  1
  O  O330  1  0.93394860  0.02420507  0.71225278  1
  O  O331  1  0.93394860  0.02420507  0.96225278  1
  O  O332  1  0.93394860  0.52420507  0.21225278  1
  O  O333  1  0.93394860  0.52420507  0.46225278  1
  O  O334  1  0.93394860  0.52420507  0.71225278  1
  O  O335  1  0.93394860  0.52420507  0.96225278  1
  O  O336  1  0.68394860  0.27420507  0.21225278  1
  O  O337  1  0.68394860  0.27420507  0.46225278  1
  O  O338  1  0.68394860  0.27420507  0.71225278  1
  O  O339  1  0.68394860  0.27420507  0.96225278  1
  O  O340  1  0.68394860  0.77420507  0.21225278  1
  O  O341  1  0.68394860  0.77420507  0.46225278  1
  O  O342  1  0.68394860  0.77420507  0.71225278  1
  O  O343  1  0.68394860  0.77420507  0.96225278  1
  O  O344  1  1.18394860  0.27420507  0.21225278  1
  O  O345  1  1.18394860  0.27420507  0.46225278  1
  O  O346  1  1.18394860  0.27420507  0.71225278  1
  O  O347  1  1.18394860  0.27420507  0.96225278  1
  O  O348  1  1.18394860  0.77420507  0.21225278  1
  O  O349  1  1.18394860  0.77420507  0.46225278  1
  O  O350  1  1.18394860  0.77420507  0.71225278  1
  O  O351  1  1.18394860  0.77420507  0.96225278  1
  O  O352  1  0.06605140  0.02420507  0.16274722  1
  O  O353  1  0.06605140  0.02420507  0.41274722  1
  O  O354  1  0.06605140  0.02420507  0.66274722  1
  O  O355  1  0.06605140  0.02420507  0.91274722  1
  O  O356  1  0.06605140  0.52420507  0.16274722  1
  O  O357  1  0.06605140  0.52420507  0.41274722  1
  O  O358  1  0.06605140  0.52420507  0.66274722  1
  O  O359  1  0.06605140  0.52420507  0.91274722  1
  O  O360  1  0.56605140  0.02420507  0.16274722  1
  O  O361  1  0.56605140  0.02420507  0.41274722  1
  O  O362  1  0.56605140  0.02420507  0.66274722  1
  O  O363  1  0.56605140  0.02420507  0.91274722  1
  O  O364  1  0.56605140  0.52420507  0.16274722  1
  O  O365  1  0.56605140  0.52420507  0.41274722  1
  O  O366  1  0.56605140  0.52420507  0.66274722  1
  O  O367  1  0.56605140  0.52420507  0.91274722  1
  O  O368  1  0.31605140  0.27420507  0.16274722  1
  O  O369  1  0.31605140  0.27420507  0.41274722  1
  O  O370  1  0.31605140  0.27420507  0.66274722  1
  O  O371  1  0.31605140  0.27420507  0.91274722  1
  O  O372  1  0.31605140  0.77420507  0.16274722  1
  O  O373  1  0.31605140  0.77420507  0.41274722  1
  O  O374  1  0.31605140  0.77420507  0.66274722  1
  O  O375  1  0.31605140  0.77420507  0.91274722  1
  O  O376  1  0.81605140  0.27420507  0.16274722  1
  O  O377  1  0.81605140  0.27420507  0.41274722  1
  O  O378  1  0.81605140  0.27420507  0.66274722  1
  O  O379  1  0.81605140  0.27420507  0.91274722  1
  O  O380  1  0.81605140  0.77420507  0.16274722  1
  O  O381  1  0.81605140  0.77420507  0.41274722  1
  O  O382  1  0.81605140  0.77420507  0.66274722  1
  O  O383  1  0.81605140  0.77420507  0.91274722  1
  O  O384  1  0.43394860  -0.02420507  0.08725278  1
  O  O385  1  0.43394860  -0.02420507  0.33725278  1
  O  O386  1  0.43394860  -0.02420507  0.58725278  1
  O  O387  1  0.43394860  -0.02420507  0.83725278  1
  O  O388  1  0.43394860  0.47579493  0.08725278  1
  O  O389  1  0.43394860  0.47579493  0.33725278  1
  O  O390  1  0.43394860  0.47579493  0.58725278  1
  O  O391  1  0.43394860  0.47579493  0.83725278  1
  O  O392  1  0.93394860  -0.02420507  0.08725278  1
  O  O393  1  0.93394860  -0.02420507  0.33725278  1
  O  O394  1  0.93394860  -0.02420507  0.58725278  1
  O  O395  1  0.93394860  -0.02420507  0.83725278  1
  O  O396  1  0.93394860  0.47579493  0.08725278  1
  O  O397  1  0.93394860  0.47579493  0.33725278  1
  O  O398  1  0.93394860  0.47579493  0.58725278  1
  O  O399  1  0.93394860  0.47579493  0.83725278  1
  O  O400  1  0.68394860  0.22579493  0.08725278  1
  O  O401  1  0.68394860  0.22579493  0.33725278  1
  O  O402  1  0.68394860  0.22579493  0.58725278  1
  O  O403  1  0.68394860  0.22579493  0.83725278  1
  O  O404  1  0.68394860  0.72579493  0.08725278  1
  O  O405  1  0.68394860  0.72579493  0.33725278  1
  O  O406  1  0.68394860  0.72579493  0.58725278  1
  O  O407  1  0.68394860  0.72579493  0.83725278  1
  O  O408  1  1.18394860  0.22579493  0.08725278  1
  O  O409  1  1.18394860  0.22579493  0.33725278  1
  O  O410  1  1.18394860  0.22579493  0.58725278  1
  O  O411  1  1.18394860  0.22579493  0.83725278  1
  O  O412  1  1.18394860  0.72579493  0.08725278  1
  O  O413  1  1.18394860  0.72579493  0.33725278  1
  O  O414  1  1.18394860  0.72579493  0.58725278  1
  O  O415  1  1.18394860  0.72579493  0.83725278  1
  O  O416  1  0.06605140  -0.02420507  0.03774722  1
  O  O417  1  0.06605140  -0.02420507  0.28774722  1
  O  O418  1  0.06605140  -0.02420507  0.53774722  1
  O  O419  1  0.06605140  -0.02420507  0.78774722  1
  O  O420  1  0.06605140  0.47579493  0.03774722  1
  O  O421  1  0.06605140  0.47579493  0.28774722  1
  O  O422  1  0.06605140  0.47579493  0.53774722  1
  O  O423  1  0.06605140  0.47579493  0.78774722  1
  O  O424  1  0.56605140  -0.02420507  0.03774722  1
  O  O425  1  0.56605140  -0.02420507  0.28774722  1
  O  O426  1  0.56605140  -0.02420507  0.53774722  1
  O  O427  1  0.56605140  -0.02420507  0.78774722  1
  O  O428  1  0.56605140  0.47579493  0.03774722  1
  O  O429  1  0.56605140  0.47579493  0.28774722  1
  O  O430  1  0.56605140  0.47579493  0.53774722  1
  O  O431  1  0.56605140  0.47579493  0.78774722  1
  O  O432  1  0.31605140  0.22579493  0.03774722  1
  O  O433  1  0.31605140  0.22579493  0.28774722  1
  O  O434  1  0.31605140  0.22579493  0.53774722  1
  O  O435  1  0.31605140  0.22579493  0.78774722  1
  O  O436  1  0.31605140  0.72579493  0.03774722  1
  O  O437  1  0.31605140  0.72579493  0.28774722  1
  O  O438  1  0.31605140  0.72579493  0.53774722  1
  O  O439  1  0.31605140  0.72579493  0.78774722  1
  O  O440  1  0.81605140  0.22579493  0.03774722  1
  O  O441  1  0.81605140  0.22579493  0.28774722  1
  O  O442  1  0.81605140  0.22579493  0.53774722  1
  O  O443  1  0.81605140  0.22579493  0.78774722  1
  O  O444  1  0.81605140  0.72579493  0.03774722  1
  O  O445  1  0.81605140  0.72579493  0.28774722  1
  O  O446  1  0.81605140  0.72579493  0.53774722  1
  O  O447  1  0.81605140  0.72579493  0.78774722  1
