# generated using pymatgen
data_YVO4
_symmetry_space_group_name_H-M   'P 1'
_cell_length_a   14.23775802
_cell_length_b   14.23775802
_cell_length_c   12.50094304
_cell_angle_alpha   90.00000000
_cell_angle_beta   90.00000000
_cell_angle_gamma   90.00000000
_symmetry_Int_Tables_number   1
_chemical_formula_structural   YVO4
_chemical_formula_sum   'Y32 V32 O128'
_cell_volume   2534.11308575
_cell_formula_units_Z   32
loop_
 _symmetry_equiv_pos_site_id
 _symmetry_equiv_pos_as_xyz
  1  'x, y, z'
loop_
 _atom_site_type_symbol
 _atom_site_label
 _atom_site_symmetry_multiplicity
 _atom_site_fract_x
 _atom_site_fract_y
 _atom_site_fract_z
 _atom_site_occupancy
  Y  Y0  1  0.25000000  0.50000000  0.12500000  1
  Y  Y1  1  0.25000000  0.50000000  0.62500000  1
  Y  Y2  1  0.75000000  0.50000000  0.12500000  1
  Y  Y3  1  0.75000000  0.50000000  0.62500000  1
  Y  Y4  1  0.25000000  0.00000000  0.12500000  1
  Y  Y5  1  0.25000000  0.00000000  0.62500000  1
  Y  Y6  1  0.75000000  0.00000000  0.12500000  1
  Y  Y7  1  0.75000000  0.00000000  0.62500000  1
  Y  Y8  1  0.50000000  0.25000000  0.37500000  1
  Y  Y9  1  0.50000000  0.25000000  0.87500000  1
  Y  Y10  1  1.00000000  0.25000000  0.37500000  1
  Y  Y11  1  1.00000000  0.25000000  0.87500000  1
  Y  Y12  1  0.50000000  -0.25000000  0.37500000  1
  Y  Y13  1  0.50000000  -0.25000000  0.87500000  1
  Y  Y14  1  1.00000000  -0.25000000  0.37500000  1
  Y  Y15  1  1.00000000  -0.25000000  0.87500000  1
  Y  Y16  1  0.00000000  0.50000000  0.00000000  1
  Y  Y17  1  0.00000000  0.50000000  0.50000000  1
  Y  Y18  1  0.50000000  0.50000000  0.00000000  1
  Y  Y19  1  0.50000000  0.50000000  0.50000000  1
  Y  Y20  1  0.00000000  0.00000000  0.00000000  1
  Y  Y21  1  0.00000000  0.00000000  0.50000000  1
  Y  Y22  1  0.50000000  0.00000000  0.00000000  1
  Y  Y23  1  0.50000000  0.00000000  0.50000000  1
  Y  Y24  1  0.25000000  0.25000000  0.25000000  1
  Y  Y25  1  0.25000000  0.25000000  0.75000000  1
  Y  Y26  1  0.75000000  0.25000000  0.25000000  1
  Y  Y27  1  0.75000000  0.25000000  0.75000000  1
  Y  Y28  1  0.25000000  -0.25000000  0.25000000  1
  Y  Y29  1  0.25000000  -0.25000000  0.75000000  1
  Y  Y30  1  0.75000000  -0.25000000  0.25000000  1
  Y  Y31  1  0.75000000  -0.25000000  0.75000000  1
  V  V32  1  0.00000000  0.25000000  0.12500000  1
  V  V33  1  0.00000000  0.25000000  0.62500000  1
  V  V34  1  0.50000000  0.25000000  0.12500000  1
  V  V35  1  0.50000000  0.25000000  0.62500000  1
  V  V36  1  0.00000000  -0.25000000  0.12500000  1
  V  V37  1  0.00000000  -0.25000000  0.62500000  1
  V  V38  1  0.50000000  -0.25000000  0.12500000  1
  V  V39  1  0.50000000  -0.25000000  0.62500000  1
  V  V40  1  0.25000000  0.00000000  0.37500000  1
  V  V41  1  0.25000000  0.00000000  0.87500000  1
  V  V42  1  0.75000000  0.00000000  0.37500000  1
  V  V43  1  0.75000000  0.00000000  0.87500000  1
  V  V44  1  0.25000000  -0.50000000  0.37500000  1
  V  V45  1  0.25000000  -0.50000000  0.87500000  1
  V  V46  1  0.75000000  -0.50000000  0.37500000  1
  V  V47  1  0.75000000  -0.50000000  0.87500000  1
  V  V48  1  0.00000000  0.50000000  0.25000000  1
  V  V49  1  0.00000000  0.50000000  0.75000000  1
  V  V50  1  0.50000000  0.50000000  0.25000000  1
  V  V51  1  0.50000000  0.50000000  0.75000000  1
  V  V52  1  0.00000000  0.00000000  0.25000000  1
  V  V53  1  0.00000000  0.00000000  0.75000000  1
  V  V54  1  0.50000000  0.00000000  0.25000000  1
  V  V55  1  0.50000000  0.00000000  0.75000000  1
  V  V56  1  0.25000000  0.25000000  0.50000000  1
  V  V57  1  0.25000000  0.25000000  1.00000000  1
  V  V58  1  0.75000000  0.25000000  0.50000000  1
  V  V59  1  0.75000000  0.25000000  1.00000000  1
  V  V60  1  0.25000000  -0.25000000  0.50000000  1
  V  V61  1  0.25000000  -0.25000000  1.00000000  1
  V  V62  1  0.75000000  -0.25000000  0.50000000  1
  V  V63  1  0.75000000  -0.25000000  1.00000000  1
  O  O64  1  0.09265612  0.50000000  0.16210801  1
  O  O65  1  0.09265612  0.50000000  0.66210801  1
  O  O66  1  0.59265612  0.50000000  0.16210801  1
  O  O67  1  0.59265612  0.50000000  0.66210801  1
  O  O68  1  0.09265612  -0.00000000  0.16210801  1
  O  O69  1  0.09265612  -0.00000000  0.66210801  1
  O  O70  1  0.59265612  -0.00000000  0.16210801  1
  O  O71  1  0.59265612  -0.00000000  0.66210801  1
  O  O72  1  0.34265612  0.25000000  0.41210801  1
  O  O73  1  0.34265612  0.25000000  0.91210801  1
  O  O74  1  0.84265612  0.25000000  0.41210801  1
  O  O75  1  0.84265612  0.25000000  0.91210801  1
  O  O76  1  0.34265612  -0.25000000  0.41210801  1
  O  O77  1  0.34265612  -0.25000000  0.91210801  1
  O  O78  1  0.84265612  -0.25000000  0.41210801  1
  O  O79  1  0.84265612  -0.25000000  0.91210801  1
  O  O80  1  -0.00000000  0.15734388  0.03710801  1
  O  O81  1  -0.00000000  0.15734388  0.53710801  1
  O  O82  1  0.50000000  0.15734388  0.03710801  1
  O  O83  1  0.50000000  0.15734388  0.53710801  1
  O  O84  1  -0.00000000  -0.34265612  0.03710801  1
  O  O85  1  -0.00000000  -0.34265612  0.53710801  1
  O  O86  1  0.50000000  -0.34265612  0.03710801  1
  O  O87  1  0.50000000  -0.34265612  0.53710801  1
  O  O88  1  0.25000000  -0.09265612  0.28710801  1
  O  O89  1  0.25000000  -0.09265612  0.78710801  1
  O  O90  1  0.75000000  -0.09265612  0.28710801  1
  O  O91  1  0.75000000  -0.09265612  0.78710801  1
  O  O92  1  0.25000000  -0.59265612  0.28710801  1
  O  O93  1  0.25000000  -0.59265612  0.78710801  1
  O  O94  1  0.75000000  -0.59265612  0.28710801  1
  O  O95  1  0.75000000  -0.59265612  0.78710801  1
  O  O96  1  -0.00000000  0.34265612  0.03710801  1
  O  O97  1  -0.00000000  0.34265612  0.53710801  1
  O  O98  1  0.50000000  0.34265612  0.03710801  1
  O  O99  1  0.50000000  0.34265612  0.53710801  1
  O  O100  1  -0.00000000  -0.15734388  0.03710801  1
  O  O101  1  -0.00000000  -0.15734388  0.53710801  1
  O  O102  1  0.50000000  -0.15734388  0.03710801  1
  O  O103  1  0.50000000  -0.15734388  0.53710801  1
  O  O104  1  0.25000000  0.09265612  0.28710801  1
  O  O105  1  0.25000000  0.09265612  0.78710801  1
  O  O106  1  0.75000000  0.09265612  0.28710801  1
  O  O107  1  0.75000000  0.09265612  0.78710801  1
  O  O108  1  0.25000000  -0.40734388  0.28710801  1
  O  O109  1  0.25000000  -0.40734388  0.78710801  1
  O  O110  1  0.75000000  -0.40734388  0.28710801  1
  O  O111  1  0.75000000  -0.40734388  0.78710801  1
  O  O112  1  0.15734388  0.25000000  -0.08789199  1
  O  O113  1  0.15734388  0.25000000  0.41210801  1
  O  O114  1  0.65734388  0.25000000  -0.08789199  1
  O  O115  1  0.65734388  0.25000000  0.41210801  1
  O  O116  1  0.15734388  -0.25000000  -0.08789199  1
  O  O117  1  0.15734388  -0.25000000  0.41210801  1
  O  O118  1  0.65734388  -0.25000000  -0.08789199  1
  O  O119  1  0.65734388  -0.25000000  0.41210801  1
  O  O120  1  0.40734388  0.00000000  0.16210801  1
  O  O121  1  0.40734388  0.00000000  0.66210801  1
  O  O122  1  0.90734388  0.00000000  0.16210801  1
  O  O123  1  0.90734388  0.00000000  0.66210801  1
  O  O124  1  0.40734388  -0.50000000  0.16210801  1
  O  O125  1  0.40734388  -0.50000000  0.66210801  1
  O  O126  1  0.90734388  -0.50000000  0.16210801  1
  O  O127  1  0.90734388  -0.50000000  0.66210801  1
  O  O128  1  0.00000000  0.40734388  0.33789199  1
  O  O129  1  0.00000000  0.40734388  0.83789199  1
  O  O130  1  0.50000000  0.40734388  0.33789199  1
  O  O131  1  0.50000000  0.40734388  0.83789199  1
  O  O132  1  0.00000000  -0.09265612  0.33789199  1
  O  O133  1  0.00000000  -0.09265612  0.83789199  1
  O  O134  1  0.50000000  -0.09265612  0.33789199  1
  O  O135  1  0.50000000  -0.09265612  0.83789199  1
  O  O136  1  0.25000000  0.15734388  0.58789199  1
  O  O137  1  0.25000000  0.15734388  1.08789199  1
  O  O138  1  0.75000000  0.15734388  0.58789199  1
  O  O139  1  0.75000000  0.15734388  1.08789199  1
  O  O140  1  0.25000000  -0.34265612  0.58789199  1
  O  O141  1  0.25000000  -0.34265612  1.08789199  1
  O  O142  1  0.75000000  -0.34265612  0.58789199  1
  O  O143  1  0.75000000  -0.34265612  1.08789199  1
  O  O144  1  0.09265612  0.25000000  0.21289199  1
  O  O145  1  0.09265612  0.25000000  0.71289199  1
  O  O146  1  0.59265612  0.25000000  0.21289199  1
  O  O147  1  0.59265612  0.25000000  0.71289199  1
  O  O148  1  0.09265612  -0.25000000  0.21289199  1
  O  O149  1  0.09265612  -0.25000000  0.71289199  1
  O  O150  1  0.59265612  -0.25000000  0.21289199  1
  O  O151  1  0.59265612  -0.25000000  0.71289199  1
  O  O152  1  0.34265612  0.00000000  0.46289199  1
  O  O153  1  0.34265612  0.00000000  0.96289199  1
  O  O154  1  0.84265612  0.00000000  0.46289199  1
  O  O155  1  0.84265612  0.00000000  0.96289199  1
  O  O156  1  0.34265612  -0.50000000  0.46289199  1
  O  O157  1  0.34265612  -0.50000000  0.96289199  1
  O  O158  1  0.84265612  -0.50000000  0.46289199  1
  O  O159  1  0.84265612  -0.50000000  0.96289199  1
  O  O160  1  -0.09265612  0.25000000  0.21289199  1
  O  O161  1  -0.09265612  0.25000000  0.71289199  1
  O  O162  1  0.40734388  0.25000000  0.21289199  1
  O  O163  1  0.40734388  0.25000000  0.71289199  1
  O  O164  1  -0.09265612  -0.25000000  0.21289199  1
  O  O165  1  -0.09265612  -0.25000000  0.71289199  1
  O  O166  1  0.40734388  -0.25000000  0.21289199  1
  O  O167  1  0.40734388  -0.25000000  0.71289199  1
  O  O168  1  0.15734388  0.00000000  0.46289199  1
  O  O169  1  0.15734388  0.00000000  0.96289199  1
  O  O170  1  0.65734388  0.00000000  0.46289199  1
  O  O171  1  0.65734388  0.00000000  0.96289199  1
  O  O172  1  0.15734388  -0.50000000  0.46289199  1
  O  O173  1  0.15734388  -0.50000000  0.96289199  1
  O  O174  1  0.65734388  -0.50000000  0.46289199  1
  O  O175  1  0.65734388  -0.50000000  0.96289199  1
  O  O176  1  0.25000000  0.34265612  0.08789199  1
  O  O177  1  0.25000000  0.34265612  0.58789199  1
  O  O178  1  0.75000000  0.34265612  0.08789199  1
  O  O179  1  0.75000000  0.34265612  0.58789199  1
  O  O180  1  0.25000000  -0.15734388  0.08789199  1
  O  O181  1  0.25000000  -0.15734388  0.58789199  1
  O  O182  1  0.75000000  -0.15734388  0.08789199  1
  O  O183  1  0.75000000  -0.15734388  0.58789199  1
  O  O184  1  0.50000000  0.09265612  0.33789199  1
  O  O185  1  0.50000000  0.09265612  0.83789199  1
  O  O186  1  1.00000000  0.09265612  0.33789199  1
  O  O187  1  1.00000000  0.09265612  0.83789199  1
  O  O188  1  0.50000000  -0.40734388  0.33789199  1
  O  O189  1  0.50000000  -0.40734388  0.83789199  1
  O  O190  1  1.00000000  -0.40734388  0.33789199  1
  O  O191  1  1.00000000  -0.40734388  0.83789199  1
