# generated using pymatgen
data_Tl2SnO3
_symmetry_space_group_name_H-M   'P 1'
_cell_length_a   10.18749776
_cell_length_b   12.96801398
_cell_length_c   12.44244070
_cell_angle_alpha   90.00000000
_cell_angle_beta   90.00000000
_cell_angle_gamma   90.00000000
_symmetry_Int_Tables_number   1
_chemical_formula_structural   Tl2SnO3
_chemical_formula_sum   'Tl32 Sn16 O48'
_cell_volume   1643.79091566
_cell_formula_units_Z   16
loop_
 _symmetry_equiv_pos_site_id
 _symmetry_equiv_pos_as_xyz
  1  'x, y, z'
loop_
 _atom_site_type_symbol
 _atom_site_label
 _atom_site_symmetry_multiplicity
 _atom_site_fract_x
 _atom_site_fract_y
 _atom_site_fract_z
 _atom_site_occupancy
  Tl  Tl0  1  0.13354644  0.18750000  0.89554298  1
  Tl  Tl1  1  0.13354644  0.43750000  0.89554298  1
  Tl  Tl2  1  0.13354644  0.68750000  0.89554298  1
  Tl  Tl3  1  0.13354644  0.93750000  0.89554298  1
  Tl  Tl4  1  0.86645356  0.06250000  0.10445702  1
  Tl  Tl5  1  0.86645356  0.31250000  0.10445702  1
  Tl  Tl6  1  0.86645356  0.56250000  0.10445702  1
  Tl  Tl7  1  0.86645356  0.81250000  0.10445702  1
  Tl  Tl8  1  0.63354644  0.18750000  0.60445702  1
  Tl  Tl9  1  0.63354644  0.43750000  0.60445702  1
  Tl  Tl10  1  0.63354644  0.68750000  0.60445702  1
  Tl  Tl11  1  0.63354644  0.93750000  0.60445702  1
  Tl  Tl12  1  0.36645356  0.06250000  0.39554298  1
  Tl  Tl13  1  0.36645356  0.31250000  0.39554298  1
  Tl  Tl14  1  0.36645356  0.56250000  0.39554298  1
  Tl  Tl15  1  0.36645356  0.81250000  0.39554298  1
  Tl  Tl16  1  0.29303848  0.18750000  0.65214907  1
  Tl  Tl17  1  0.29303848  0.43750000  0.65214907  1
  Tl  Tl18  1  0.29303848  0.68750000  0.65214907  1
  Tl  Tl19  1  0.29303848  0.93750000  0.65214907  1
  Tl  Tl20  1  0.70696152  0.06250000  0.34785093  1
  Tl  Tl21  1  0.70696152  0.31250000  0.34785093  1
  Tl  Tl22  1  0.70696152  0.56250000  0.34785093  1
  Tl  Tl23  1  0.70696152  0.81250000  0.34785093  1
  Tl  Tl24  1  0.79303848  0.18750000  0.84785093  1
  Tl  Tl25  1  0.79303848  0.43750000  0.84785093  1
  Tl  Tl26  1  0.79303848  0.68750000  0.84785093  1
  Tl  Tl27  1  0.79303848  0.93750000  0.84785093  1
  Tl  Tl28  1  0.20696152  0.06250000  0.15214907  1
  Tl  Tl29  1  0.20696152  0.31250000  0.15214907  1
  Tl  Tl30  1  0.20696152  0.56250000  0.15214907  1
  Tl  Tl31  1  0.20696152  0.81250000  0.15214907  1
  Sn  Sn32  1  0.46039779  0.06250000  0.88915843  1
  Sn  Sn33  1  0.46039779  0.31250000  0.88915843  1
  Sn  Sn34  1  0.46039779  0.56250000  0.88915843  1
  Sn  Sn35  1  0.46039779  0.81250000  0.88915843  1
  Sn  Sn36  1  0.53960221  0.18750000  0.11084157  1
  Sn  Sn37  1  0.53960221  0.43750000  0.11084157  1
  Sn  Sn38  1  0.53960221  0.68750000  0.11084157  1
  Sn  Sn39  1  0.53960221  0.93750000  0.11084157  1
  Sn  Sn40  1  0.96039779  0.06250000  0.61084157  1
  Sn  Sn41  1  0.96039779  0.31250000  0.61084157  1
  Sn  Sn42  1  0.96039779  0.56250000  0.61084157  1
  Sn  Sn43  1  0.96039779  0.81250000  0.61084157  1
  Sn  Sn44  1  0.03960221  0.18750000  0.38915843  1
  Sn  Sn45  1  0.03960221  0.43750000  0.38915843  1
  Sn  Sn46  1  0.03960221  0.68750000  0.38915843  1
  Sn  Sn47  1  0.03960221  0.93750000  0.38915843  1
  O  O48  1  0.39195191  0.18750000  0.99014547  1
  O  O49  1  0.39195191  0.43750000  0.99014547  1
  O  O50  1  0.39195191  0.68750000  0.99014547  1
  O  O51  1  0.39195191  0.93750000  0.99014547  1
  O  O52  1  0.60804809  0.06250000  0.00985453  1
  O  O53  1  0.60804809  0.31250000  0.00985453  1
  O  O54  1  0.60804809  0.56250000  0.00985453  1
  O  O55  1  0.60804809  0.81250000  0.00985453  1
  O  O56  1  0.89195191  0.18750000  0.50985453  1
  O  O57  1  0.89195191  0.43750000  0.50985453  1
  O  O58  1  0.89195191  0.68750000  0.50985453  1
  O  O59  1  0.89195191  0.93750000  0.50985453  1
  O  O60  1  0.10804809  0.06250000  0.49014547  1
  O  O61  1  0.10804809  0.31250000  0.49014547  1
  O  O62  1  0.10804809  0.56250000  0.49014547  1
  O  O63  1  0.10804809  0.81250000  0.49014547  1
  O  O64  1  0.04414449  0.18750000  0.69226372  1
  O  O65  1  0.04414449  0.43750000  0.69226372  1
  O  O66  1  0.04414449  0.68750000  0.69226372  1
  O  O67  1  0.04414449  0.93750000  0.69226372  1
  O  O68  1  0.95585551  0.06250000  0.30773628  1
  O  O69  1  0.95585551  0.31250000  0.30773628  1
  O  O70  1  0.95585551  0.56250000  0.30773628  1
  O  O71  1  0.95585551  0.81250000  0.30773628  1
  O  O72  1  0.54414449  0.18750000  0.80773628  1
  O  O73  1  0.54414449  0.43750000  0.80773628  1
  O  O74  1  0.54414449  0.68750000  0.80773628  1
  O  O75  1  0.54414449  0.93750000  0.80773628  1
  O  O76  1  0.45585551  0.06250000  0.19226372  1
  O  O77  1  0.45585551  0.31250000  0.19226372  1
  O  O78  1  0.45585551  0.56250000  0.19226372  1
  O  O79  1  0.45585551  0.81250000  0.19226372  1
  O  O80  1  0.28682069  0.06250000  0.80815959  1
  O  O81  1  0.28682069  0.31250000  0.80815959  1
  O  O82  1  0.28682069  0.56250000  0.80815959  1
  O  O83  1  0.28682069  0.81250000  0.80815959  1
  O  O84  1  0.71317931  0.18750000  0.19184041  1
  O  O85  1  0.71317931  0.43750000  0.19184041  1
  O  O86  1  0.71317931  0.68750000  0.19184041  1
  O  O87  1  0.71317931  0.93750000  0.19184041  1
  O  O88  1  0.78682069  0.06250000  0.69184041  1
  O  O89  1  0.78682069  0.31250000  0.69184041  1
  O  O90  1  0.78682069  0.56250000  0.69184041  1
  O  O91  1  0.78682069  0.81250000  0.69184041  1
  O  O92  1  0.21317931  0.18750000  0.30815959  1
  O  O93  1  0.21317931  0.43750000  0.30815959  1
  O  O94  1  0.21317931  0.68750000  0.30815959  1
  O  O95  1  0.21317931  0.93750000  0.30815959  1
