# generated using pymatgen
data_Li4PbO4
_symmetry_space_group_name_H-M   'P 1'
_cell_length_a   16.75804729
_cell_length_b   14.37489152
_cell_length_c   13.15610339
_cell_angle_alpha   90.00000000
_cell_angle_beta   90.00000000
_cell_angle_gamma   90.00000000
_symmetry_Int_Tables_number   1
_chemical_formula_structural   Li4PbO4
_chemical_formula_sum   'Li128 Pb32 O128'
_cell_volume   3169.24099897
_cell_formula_units_Z   32
loop_
 _symmetry_equiv_pos_site_id
 _symmetry_equiv_pos_as_xyz
  1  'x, y, z'
loop_
 _atom_site_type_symbol
 _atom_site_label
 _atom_site_symmetry_multiplicity
 _atom_site_fract_x
 _atom_site_fract_y
 _atom_site_fract_z
 _atom_site_occupancy
  Li  Li0  1  0.42306041  -0.00000000  0.25000000  1
  Li  Li1  1  0.42306041  -0.00000000  0.75000000  1
  Li  Li2  1  0.42306041  0.50000000  0.25000000  1
  Li  Li3  1  0.42306041  0.50000000  0.75000000  1
  Li  Li4  1  0.92306041  -0.00000000  0.25000000  1
  Li  Li5  1  0.92306041  -0.00000000  0.75000000  1
  Li  Li6  1  0.92306041  0.50000000  0.25000000  1
  Li  Li7  1  0.92306041  0.50000000  0.75000000  1
  Li  Li8  1  0.67306041  0.25000000  0.25000000  1
  Li  Li9  1  0.67306041  0.25000000  0.75000000  1
  Li  Li10  1  0.67306041  0.75000000  0.25000000  1
  Li  Li11  1  0.67306041  0.75000000  0.75000000  1
  Li  Li12  1  1.17306041  0.25000000  0.25000000  1
  Li  Li13  1  1.17306041  0.25000000  0.75000000  1
  Li  Li14  1  1.17306041  0.75000000  0.25000000  1
  Li  Li15  1  1.17306041  0.75000000  0.75000000  1
  Li  Li16  1  0.07693959  0.00000000  0.00000000  1
  Li  Li17  1  0.07693959  0.00000000  0.50000000  1
  Li  Li18  1  0.07693959  0.50000000  0.00000000  1
  Li  Li19  1  0.07693959  0.50000000  0.50000000  1
  Li  Li20  1  0.57693959  0.00000000  0.00000000  1
  Li  Li21  1  0.57693959  0.00000000  0.50000000  1
  Li  Li22  1  0.57693959  0.50000000  0.00000000  1
  Li  Li23  1  0.57693959  0.50000000  0.50000000  1
  Li  Li24  1  0.32693959  0.25000000  0.00000000  1
  Li  Li25  1  0.32693959  0.25000000  0.50000000  1
  Li  Li26  1  0.32693959  0.75000000  0.00000000  1
  Li  Li27  1  0.32693959  0.75000000  0.50000000  1
  Li  Li28  1  0.82693959  0.25000000  0.00000000  1
  Li  Li29  1  0.82693959  0.25000000  0.50000000  1
  Li  Li30  1  0.82693959  0.75000000  0.00000000  1
  Li  Li31  1  0.82693959  0.75000000  0.50000000  1
  Li  Li32  1  0.17650917  0.12122100  0.12500000  1
  Li  Li33  1  0.17650917  0.12122100  0.62500000  1
  Li  Li34  1  0.17650917  0.62122100  0.12500000  1
  Li  Li35  1  0.17650917  0.62122100  0.62500000  1
  Li  Li36  1  0.67650917  0.12122100  0.12500000  1
  Li  Li37  1  0.67650917  0.12122100  0.62500000  1
  Li  Li38  1  0.67650917  0.62122100  0.12500000  1
  Li  Li39  1  0.67650917  0.62122100  0.62500000  1
  Li  Li40  1  0.42650917  0.37122100  0.12500000  1
  Li  Li41  1  0.42650917  0.37122100  0.62500000  1
  Li  Li42  1  0.42650917  0.87122100  0.12500000  1
  Li  Li43  1  0.42650917  0.87122100  0.62500000  1
  Li  Li44  1  0.92650917  0.37122100  0.12500000  1
  Li  Li45  1  0.92650917  0.37122100  0.62500000  1
  Li  Li46  1  0.92650917  0.87122100  0.12500000  1
  Li  Li47  1  0.92650917  0.87122100  0.62500000  1
  Li  Li48  1  0.32349083  -0.12122100  0.37500000  1
  Li  Li49  1  0.32349083  -0.12122100  0.87500000  1
  Li  Li50  1  0.32349083  0.37877900  0.37500000  1
  Li  Li51  1  0.32349083  0.37877900  0.87500000  1
  Li  Li52  1  0.82349083  -0.12122100  0.37500000  1
  Li  Li53  1  0.82349083  -0.12122100  0.87500000  1
  Li  Li54  1  0.82349083  0.37877900  0.37500000  1
  Li  Li55  1  0.82349083  0.37877900  0.87500000  1
  Li  Li56  1  0.57349083  0.12877900  0.37500000  1
  Li  Li57  1  0.57349083  0.12877900  0.87500000  1
  Li  Li58  1  0.57349083  0.62877900  0.37500000  1
  Li  Li59  1  0.57349083  0.62877900  0.87500000  1
  Li  Li60  1  1.07349083  0.12877900  0.37500000  1
  Li  Li61  1  1.07349083  0.12877900  0.87500000  1
  Li  Li62  1  1.07349083  0.62877900  0.37500000  1
  Li  Li63  1  1.07349083  0.62877900  0.87500000  1
  Li  Li64  1  0.32349083  0.12122100  0.12500000  1
  Li  Li65  1  0.32349083  0.12122100  0.62500000  1
  Li  Li66  1  0.32349083  0.62122100  0.12500000  1
  Li  Li67  1  0.32349083  0.62122100  0.62500000  1
  Li  Li68  1  0.82349083  0.12122100  0.12500000  1
  Li  Li69  1  0.82349083  0.12122100  0.62500000  1
  Li  Li70  1  0.82349083  0.62122100  0.12500000  1
  Li  Li71  1  0.82349083  0.62122100  0.62500000  1
  Li  Li72  1  0.57349083  0.37122100  0.12500000  1
  Li  Li73  1  0.57349083  0.37122100  0.62500000  1
  Li  Li74  1  0.57349083  0.87122100  0.12500000  1
  Li  Li75  1  0.57349083  0.87122100  0.62500000  1
  Li  Li76  1  1.07349083  0.37122100  0.12500000  1
  Li  Li77  1  1.07349083  0.37122100  0.62500000  1
  Li  Li78  1  1.07349083  0.87122100  0.12500000  1
  Li  Li79  1  1.07349083  0.87122100  0.62500000  1
  Li  Li80  1  0.17650917  -0.12122100  0.37500000  1
  Li  Li81  1  0.17650917  -0.12122100  0.87500000  1
  Li  Li82  1  0.17650917  0.37877900  0.37500000  1
  Li  Li83  1  0.17650917  0.37877900  0.87500000  1
  Li  Li84  1  0.67650917  -0.12122100  0.37500000  1
  Li  Li85  1  0.67650917  -0.12122100  0.87500000  1
  Li  Li86  1  0.67650917  0.37877900  0.37500000  1
  Li  Li87  1  0.67650917  0.37877900  0.87500000  1
  Li  Li88  1  0.42650917  0.12877900  0.37500000  1
  Li  Li89  1  0.42650917  0.12877900  0.87500000  1
  Li  Li90  1  0.42650917  0.62877900  0.37500000  1
  Li  Li91  1  0.42650917  0.62877900  0.87500000  1
  Li  Li92  1  0.92650917  0.12877900  0.37500000  1
  Li  Li93  1  0.92650917  0.12877900  0.87500000  1
  Li  Li94  1  0.92650917  0.62877900  0.37500000  1
  Li  Li95  1  0.92650917  0.62877900  0.87500000  1
  Li  Li96  1  0.42306041  -0.00000000  0.00000000  1
  Li  Li97  1  0.42306041  -0.00000000  0.50000000  1
  Li  Li98  1  0.42306041  0.50000000  0.00000000  1
  Li  Li99  1  0.42306041  0.50000000  0.50000000  1
  Li  Li100  1  0.92306041  -0.00000000  0.00000000  1
  Li  Li101  1  0.92306041  -0.00000000  0.50000000  1
  Li  Li102  1  0.92306041  0.50000000  0.00000000  1
  Li  Li103  1  0.92306041  0.50000000  0.50000000  1
  Li  Li104  1  0.67306041  0.25000000  0.00000000  1
  Li  Li105  1  0.67306041  0.25000000  0.50000000  1
  Li  Li106  1  0.67306041  0.75000000  0.00000000  1
  Li  Li107  1  0.67306041  0.75000000  0.50000000  1
  Li  Li108  1  1.17306041  0.25000000  0.00000000  1
  Li  Li109  1  1.17306041  0.25000000  0.50000000  1
  Li  Li110  1  1.17306041  0.75000000  0.00000000  1
  Li  Li111  1  1.17306041  0.75000000  0.50000000  1
  Li  Li112  1  0.07693959  0.00000000  0.25000000  1
  Li  Li113  1  0.07693959  0.00000000  0.75000000  1
  Li  Li114  1  0.07693959  0.50000000  0.25000000  1
  Li  Li115  1  0.07693959  0.50000000  0.75000000  1
  Li  Li116  1  0.57693959  0.00000000  0.25000000  1
  Li  Li117  1  0.57693959  0.00000000  0.75000000  1
  Li  Li118  1  0.57693959  0.50000000  0.25000000  1
  Li  Li119  1  0.57693959  0.50000000  0.75000000  1
  Li  Li120  1  0.32693959  0.25000000  0.25000000  1
  Li  Li121  1  0.32693959  0.25000000  0.75000000  1
  Li  Li122  1  0.32693959  0.75000000  0.25000000  1
  Li  Li123  1  0.32693959  0.75000000  0.75000000  1
  Li  Li124  1  0.82693959  0.25000000  0.25000000  1
  Li  Li125  1  0.82693959  0.25000000  0.75000000  1
  Li  Li126  1  0.82693959  0.75000000  0.25000000  1
  Li  Li127  1  0.82693959  0.75000000  0.75000000  1
  Pb  Pb128  1  0.25000000  0.07104462  0.37500000  1
  Pb  Pb129  1  0.25000000  0.07104462  0.87500000  1
  Pb  Pb130  1  0.25000000  0.57104462  0.37500000  1
  Pb  Pb131  1  0.25000000  0.57104462  0.87500000  1
  Pb  Pb132  1  0.75000000  0.07104462  0.37500000  1
  Pb  Pb133  1  0.75000000  0.07104462  0.87500000  1
  Pb  Pb134  1  0.75000000  0.57104462  0.37500000  1
  Pb  Pb135  1  0.75000000  0.57104462  0.87500000  1
  Pb  Pb136  1  0.50000000  0.32104462  0.37500000  1
  Pb  Pb137  1  0.50000000  0.32104462  0.87500000  1
  Pb  Pb138  1  0.50000000  0.82104462  0.37500000  1
  Pb  Pb139  1  0.50000000  0.82104462  0.87500000  1
  Pb  Pb140  1  1.00000000  0.32104462  0.37500000  1
  Pb  Pb141  1  1.00000000  0.32104462  0.87500000  1
  Pb  Pb142  1  1.00000000  0.82104462  0.37500000  1
  Pb  Pb143  1  1.00000000  0.82104462  0.87500000  1
  Pb  Pb144  1  0.25000000  -0.07104462  0.12500000  1
  Pb  Pb145  1  0.25000000  -0.07104462  0.62500000  1
  Pb  Pb146  1  0.25000000  0.42895538  0.12500000  1
  Pb  Pb147  1  0.25000000  0.42895538  0.62500000  1
  Pb  Pb148  1  0.75000000  -0.07104462  0.12500000  1
  Pb  Pb149  1  0.75000000  -0.07104462  0.62500000  1
  Pb  Pb150  1  0.75000000  0.42895538  0.12500000  1
  Pb  Pb151  1  0.75000000  0.42895538  0.62500000  1
  Pb  Pb152  1  0.50000000  0.17895538  0.12500000  1
  Pb  Pb153  1  0.50000000  0.17895538  0.62500000  1
  Pb  Pb154  1  0.50000000  0.67895538  0.12500000  1
  Pb  Pb155  1  0.50000000  0.67895538  0.62500000  1
  Pb  Pb156  1  1.00000000  0.17895538  0.12500000  1
  Pb  Pb157  1  1.00000000  0.17895538  0.62500000  1
  Pb  Pb158  1  1.00000000  0.67895538  0.12500000  1
  Pb  Pb159  1  1.00000000  0.67895538  0.62500000  1
  O  O160  1  0.13672403  -0.00735296  0.12500000  1
  O  O161  1  0.13672403  -0.00735296  0.62500000  1
  O  O162  1  0.13672403  0.49264704  0.12500000  1
  O  O163  1  0.13672403  0.49264704  0.62500000  1
  O  O164  1  0.63672403  -0.00735296  0.12500000  1
  O  O165  1  0.63672403  -0.00735296  0.62500000  1
  O  O166  1  0.63672403  0.49264704  0.12500000  1
  O  O167  1  0.63672403  0.49264704  0.62500000  1
  O  O168  1  0.38672403  0.24264704  0.12500000  1
  O  O169  1  0.38672403  0.24264704  0.62500000  1
  O  O170  1  0.38672403  0.74264704  0.12500000  1
  O  O171  1  0.38672403  0.74264704  0.62500000  1
  O  O172  1  0.88672403  0.24264704  0.12500000  1
  O  O173  1  0.88672403  0.24264704  0.62500000  1
  O  O174  1  0.88672403  0.74264704  0.12500000  1
  O  O175  1  0.88672403  0.74264704  0.62500000  1
  O  O176  1  0.36327597  0.00735296  0.37500000  1
  O  O177  1  0.36327597  0.00735296  0.87500000  1
  O  O178  1  0.36327597  0.50735296  0.37500000  1
  O  O179  1  0.36327597  0.50735296  0.87500000  1
  O  O180  1  0.86327597  0.00735296  0.37500000  1
  O  O181  1  0.86327597  0.00735296  0.87500000  1
  O  O182  1  0.86327597  0.50735296  0.37500000  1
  O  O183  1  0.86327597  0.50735296  0.87500000  1
  O  O184  1  0.61327597  0.25735296  0.37500000  1
  O  O185  1  0.61327597  0.25735296  0.87500000  1
  O  O186  1  0.61327597  0.75735296  0.37500000  1
  O  O187  1  0.61327597  0.75735296  0.87500000  1
  O  O188  1  1.11327597  0.25735296  0.37500000  1
  O  O189  1  1.11327597  0.25735296  0.87500000  1
  O  O190  1  1.11327597  0.75735296  0.37500000  1
  O  O191  1  1.11327597  0.75735296  0.87500000  1
  O  O192  1  0.25000000  0.14644483  0.01185662  1
  O  O193  1  0.25000000  0.14644483  0.51185662  1
  O  O194  1  0.25000000  0.64644483  0.01185662  1
  O  O195  1  0.25000000  0.64644483  0.51185662  1
  O  O196  1  0.75000000  0.14644483  0.01185662  1
  O  O197  1  0.75000000  0.14644483  0.51185662  1
  O  O198  1  0.75000000  0.64644483  0.01185662  1
  O  O199  1  0.75000000  0.64644483  0.51185662  1
  O  O200  1  0.50000000  0.39644483  0.01185662  1
  O  O201  1  0.50000000  0.39644483  0.51185662  1
  O  O202  1  0.50000000  0.89644483  0.01185662  1
  O  O203  1  0.50000000  0.89644483  0.51185662  1
  O  O204  1  1.00000000  0.39644483  0.01185662  1
  O  O205  1  1.00000000  0.39644483  0.51185662  1
  O  O206  1  1.00000000  0.89644483  0.01185662  1
  O  O207  1  1.00000000  0.89644483  0.51185662  1
  O  O208  1  0.25000000  -0.14644483  0.26185662  1
  O  O209  1  0.25000000  -0.14644483  0.76185662  1
  O  O210  1  0.25000000  0.35355517  0.26185662  1
  O  O211  1  0.25000000  0.35355517  0.76185662  1
  O  O212  1  0.75000000  -0.14644483  0.26185662  1
  O  O213  1  0.75000000  -0.14644483  0.76185662  1
  O  O214  1  0.75000000  0.35355517  0.26185662  1
  O  O215  1  0.75000000  0.35355517  0.76185662  1
  O  O216  1  0.50000000  0.10355517  0.26185662  1
  O  O217  1  0.50000000  0.10355517  0.76185662  1
  O  O218  1  0.50000000  0.60355517  0.26185662  1
  O  O219  1  0.50000000  0.60355517  0.76185662  1
  O  O220  1  1.00000000  0.10355517  0.26185662  1
  O  O221  1  1.00000000  0.10355517  0.76185662  1
  O  O222  1  1.00000000  0.60355517  0.26185662  1
  O  O223  1  1.00000000  0.60355517  0.76185662  1
  O  O224  1  0.25000000  0.14644483  0.23814338  1
  O  O225  1  0.25000000  0.14644483  0.73814338  1
  O  O226  1  0.25000000  0.64644483  0.23814338  1
  O  O227  1  0.25000000  0.64644483  0.73814338  1
  O  O228  1  0.75000000  0.14644483  0.23814338  1
  O  O229  1  0.75000000  0.14644483  0.73814338  1
  O  O230  1  0.75000000  0.64644483  0.23814338  1
  O  O231  1  0.75000000  0.64644483  0.73814338  1
  O  O232  1  0.50000000  0.39644483  0.23814338  1
  O  O233  1  0.50000000  0.39644483  0.73814338  1
  O  O234  1  0.50000000  0.89644483  0.23814338  1
  O  O235  1  0.50000000  0.89644483  0.73814338  1
  O  O236  1  1.00000000  0.39644483  0.23814338  1
  O  O237  1  1.00000000  0.39644483  0.73814338  1
  O  O238  1  1.00000000  0.89644483  0.23814338  1
  O  O239  1  1.00000000  0.89644483  0.73814338  1
  O  O240  1  0.25000000  -0.14644483  0.48814338  1
  O  O241  1  0.25000000  -0.14644483  0.98814338  1
  O  O242  1  0.25000000  0.35355517  0.48814338  1
  O  O243  1  0.25000000  0.35355517  0.98814338  1
  O  O244  1  0.75000000  -0.14644483  0.48814338  1
  O  O245  1  0.75000000  -0.14644483  0.98814338  1
  O  O246  1  0.75000000  0.35355517  0.48814338  1
  O  O247  1  0.75000000  0.35355517  0.98814338  1
  O  O248  1  0.50000000  0.10355517  0.48814338  1
  O  O249  1  0.50000000  0.10355517  0.98814338  1
  O  O250  1  0.50000000  0.60355517  0.48814338  1
  O  O251  1  0.50000000  0.60355517  0.98814338  1
  O  O252  1  1.00000000  0.10355517  0.48814338  1
  O  O253  1  1.00000000  0.10355517  0.98814338  1
  O  O254  1  1.00000000  0.60355517  0.48814338  1
  O  O255  1  1.00000000  0.60355517  0.98814338  1
  O  O256  1  0.36327597  -0.00735296  0.12500000  1
  O  O257  1  0.36327597  -0.00735296  0.62500000  1
  O  O258  1  0.36327597  0.49264704  0.12500000  1
  O  O259  1  0.36327597  0.49264704  0.62500000  1
  O  O260  1  0.86327597  -0.00735296  0.12500000  1
  O  O261  1  0.86327597  -0.00735296  0.62500000  1
  O  O262  1  0.86327597  0.49264704  0.12500000  1
  O  O263  1  0.86327597  0.49264704  0.62500000  1
  O  O264  1  0.61327597  0.24264704  0.12500000  1
  O  O265  1  0.61327597  0.24264704  0.62500000  1
  O  O266  1  0.61327597  0.74264704  0.12500000  1
  O  O267  1  0.61327597  0.74264704  0.62500000  1
  O  O268  1  1.11327597  0.24264704  0.12500000  1
  O  O269  1  1.11327597  0.24264704  0.62500000  1
  O  O270  1  1.11327597  0.74264704  0.12500000  1
  O  O271  1  1.11327597  0.74264704  0.62500000  1
  O  O272  1  0.13672403  0.00735296  0.37500000  1
  O  O273  1  0.13672403  0.00735296  0.87500000  1
  O  O274  1  0.13672403  0.50735296  0.37500000  1
  O  O275  1  0.13672403  0.50735296  0.87500000  1
  O  O276  1  0.63672403  0.00735296  0.37500000  1
  O  O277  1  0.63672403  0.00735296  0.87500000  1
  O  O278  1  0.63672403  0.50735296  0.37500000  1
  O  O279  1  0.63672403  0.50735296  0.87500000  1
  O  O280  1  0.38672403  0.25735296  0.37500000  1
  O  O281  1  0.38672403  0.25735296  0.87500000  1
  O  O282  1  0.38672403  0.75735296  0.37500000  1
  O  O283  1  0.38672403  0.75735296  0.87500000  1
  O  O284  1  0.88672403  0.25735296  0.37500000  1
  O  O285  1  0.88672403  0.25735296  0.87500000  1
  O  O286  1  0.88672403  0.75735296  0.37500000  1
  O  O287  1  0.88672403  0.75735296  0.87500000  1
