# generated using pymatgen
data_BaSi3SnO9
_symmetry_space_group_name_H-M   'P 1'
_cell_length_a   13.51834093
_cell_length_b   13.51834093
_cell_length_c   9.93318960
_cell_angle_alpha   90.00000000
_cell_angle_beta   90.00000000
_cell_angle_gamma   120.00000000
_symmetry_Int_Tables_number   1
_chemical_formula_structural   BaSi3SnO9
_chemical_formula_sum   'Ba8 Si24 Sn8 O72'
_cell_volume   1572.04924760
_cell_formula_units_Z   8
loop_
 _symmetry_equiv_pos_site_id
 _symmetry_equiv_pos_as_xyz
  1  'x, y, z'
loop_
 _atom_site_type_symbol
 _atom_site_label
 _atom_site_symmetry_multiplicity
 _atom_site_fract_x
 _atom_site_fract_y
 _atom_site_fract_z
 _atom_site_occupancy
  Ba  Ba0  1  0.00000000  0.00000000  0.50000000  1
  Ba  Ba1  1  0.00000000  0.50000000  0.50000000  1
  Ba  Ba2  1  0.50000000  0.00000000  0.50000000  1
  Ba  Ba3  1  0.50000000  0.50000000  0.50000000  1
  Ba  Ba4  1  0.00000000  0.00000000  0.00000000  1
  Ba  Ba5  1  0.00000000  0.50000000  0.00000000  1
  Ba  Ba6  1  0.50000000  0.00000000  0.00000000  1
  Ba  Ba7  1  0.50000000  0.50000000  0.00000000  1
  Si  Si8  1  0.19868824  0.22351420  0.75000000  1
  Si  Si9  1  0.19868824  0.72351420  0.75000000  1
  Si  Si10  1  0.69868824  0.22351420  0.75000000  1
  Si  Si11  1  0.69868824  0.72351420  0.75000000  1
  Si  Si12  1  0.27648580  0.47517403  0.75000000  1
  Si  Si13  1  0.27648580  0.97517403  0.75000000  1
  Si  Si14  1  0.77648580  0.47517403  0.75000000  1
  Si  Si15  1  0.77648580  0.97517403  0.75000000  1
  Si  Si16  1  0.02482597  0.30131176  0.75000000  1
  Si  Si17  1  0.02482597  0.80131176  0.75000000  1
  Si  Si18  1  0.52482597  0.30131176  0.75000000  1
  Si  Si19  1  0.52482597  0.80131176  0.75000000  1
  Si  Si20  1  0.02482597  0.22351420  0.25000000  1
  Si  Si21  1  0.02482597  0.72351420  0.25000000  1
  Si  Si22  1  0.52482597  0.22351420  0.25000000  1
  Si  Si23  1  0.52482597  0.72351420  0.25000000  1
  Si  Si24  1  0.27648580  0.30131176  0.25000000  1
  Si  Si25  1  0.27648580  0.80131176  0.25000000  1
  Si  Si26  1  0.77648580  0.30131176  0.25000000  1
  Si  Si27  1  0.77648580  0.80131176  0.25000000  1
  Si  Si28  1  0.19868824  0.47517403  0.25000000  1
  Si  Si29  1  0.19868824  0.97517403  0.25000000  1
  Si  Si30  1  0.69868824  0.47517403  0.25000000  1
  Si  Si31  1  0.69868824  0.97517403  0.25000000  1
  Sn  Sn32  1  0.33333333  0.16666667  0.50000000  1
  Sn  Sn33  1  0.33333333  0.66666667  0.50000000  1
  Sn  Sn34  1  0.83333333  0.16666667  0.50000000  1
  Sn  Sn35  1  0.83333333  0.66666667  0.50000000  1
  Sn  Sn36  1  0.33333333  0.16666667  0.00000000  1
  Sn  Sn37  1  0.33333333  0.66666667  0.00000000  1
  Sn  Sn38  1  0.83333333  0.16666667  0.00000000  1
  Sn  Sn39  1  0.83333333  0.66666667  0.00000000  1
  O  O40  1  0.45634290  0.29633508  0.61384510  1
  O  O41  1  0.45634290  0.79633508  0.61384510  1
  O  O42  1  0.95634290  0.29633508  0.61384510  1
  O  O43  1  0.95634290  0.79633508  0.61384510  1
  O  O44  1  0.20366492  0.04365710  0.38615490  1
  O  O45  1  0.20366492  0.54365710  0.38615490  1
  O  O46  1  0.70366492  0.04365710  0.38615490  1
  O  O47  1  0.70366492  0.54365710  0.38615490  1
  O  O48  1  0.20366492  0.16000782  0.61384510  1
  O  O49  1  0.20366492  0.66000782  0.61384510  1
  O  O50  1  0.70366492  0.16000782  0.61384510  1
  O  O51  1  0.70366492  0.66000782  0.61384510  1
  O  O52  1  0.33999218  0.04365710  0.61384510  1
  O  O53  1  0.33999218  0.54365710  0.61384510  1
  O  O54  1  0.83999218  0.04365710  0.61384510  1
  O  O55  1  0.83999218  0.54365710  0.61384510  1
  O  O56  1  0.20366492  0.16000782  0.88615490  1
  O  O57  1  0.20366492  0.66000782  0.88615490  1
  O  O58  1  0.70366492  0.16000782  0.88615490  1
  O  O59  1  0.70366492  0.66000782  0.88615490  1
  O  O60  1  0.33999218  0.04365710  0.88615490  1
  O  O61  1  0.33999218  0.54365710  0.88615490  1
  O  O62  1  0.83999218  0.04365710  0.88615490  1
  O  O63  1  0.83999218  0.54365710  0.88615490  1
  O  O64  1  0.45634290  0.29633508  0.88615490  1
  O  O65  1  0.45634290  0.79633508  0.88615490  1
  O  O66  1  0.95634290  0.29633508  0.88615490  1
  O  O67  1  0.95634290  0.79633508  0.88615490  1
  O  O68  1  0.33999218  0.29633508  0.11384510  1
  O  O69  1  0.33999218  0.79633508  0.11384510  1
  O  O70  1  0.83999218  0.29633508  0.11384510  1
  O  O71  1  0.83999218  0.79633508  0.11384510  1
  O  O72  1  0.45634290  0.16000782  0.11384510  1
  O  O73  1  0.45634290  0.66000782  0.11384510  1
  O  O74  1  0.95634290  0.16000782  0.11384510  1
  O  O75  1  0.95634290  0.66000782  0.11384510  1
  O  O76  1  0.45634290  0.16000782  0.38615490  1
  O  O77  1  0.45634290  0.66000782  0.38615490  1
  O  O78  1  0.95634290  0.16000782  0.38615490  1
  O  O79  1  0.95634290  0.66000782  0.38615490  1
  O  O80  1  0.29209589  0.43085261  0.25000000  1
  O  O81  1  0.29209589  0.93085261  0.25000000  1
  O  O82  1  0.79209589  0.43085261  0.25000000  1
  O  O83  1  0.79209589  0.93085261  0.25000000  1
  O  O84  1  0.13875671  0.20790411  0.25000000  1
  O  O85  1  0.13875671  0.70790411  0.25000000  1
  O  O86  1  0.63875671  0.20790411  0.25000000  1
  O  O87  1  0.63875671  0.70790411  0.25000000  1
  O  O88  1  0.06914739  0.36124329  0.25000000  1
  O  O89  1  0.06914739  0.86124329  0.25000000  1
  O  O90  1  0.56914739  0.36124329  0.25000000  1
  O  O91  1  0.56914739  0.86124329  0.25000000  1
  O  O92  1  0.06914739  0.20790411  0.75000000  1
  O  O93  1  0.06914739  0.70790411  0.75000000  1
  O  O94  1  0.56914739  0.20790411  0.75000000  1
  O  O95  1  0.56914739  0.70790411  0.75000000  1
  O  O96  1  0.13875671  0.43085261  0.75000000  1
  O  O97  1  0.13875671  0.93085261  0.75000000  1
  O  O98  1  0.63875671  0.43085261  0.75000000  1
  O  O99  1  0.63875671  0.93085261  0.75000000  1
  O  O100  1  0.29209589  0.36124329  0.75000000  1
  O  O101  1  0.29209589  0.86124329  0.75000000  1
  O  O102  1  0.79209589  0.36124329  0.75000000  1
  O  O103  1  0.79209589  0.86124329  0.75000000  1
  O  O104  1  0.20366492  0.04365710  0.11384510  1
  O  O105  1  0.20366492  0.54365710  0.11384510  1
  O  O106  1  0.70366492  0.04365710  0.11384510  1
  O  O107  1  0.70366492  0.54365710  0.11384510  1
  O  O108  1  0.33999218  0.29633508  0.38615490  1
  O  O109  1  0.33999218  0.79633508  0.38615490  1
  O  O110  1  0.83999218  0.29633508  0.38615490  1
  O  O111  1  0.83999218  0.79633508  0.38615490  1
