# generated using pymatgen
data_KNaZnO2
_symmetry_space_group_name_H-M   'P 1'
_cell_length_a   20.43448053
_cell_length_b   19.29482245
_cell_length_c   21.65964176
_cell_angle_alpha   90.00000000
_cell_angle_beta   124.92671246
_cell_angle_gamma   90.00000000
_symmetry_Int_Tables_number   1
_chemical_formula_structural   KNaZnO2
_chemical_formula_sum   'K96 Na96 Zn96 O192'
_cell_volume   7001.78256878
_cell_formula_units_Z   96
loop_
 _symmetry_equiv_pos_site_id
 _symmetry_equiv_pos_as_xyz
  1  'x, y, z'
loop_
 _atom_site_type_symbol
 _atom_site_label
 _atom_site_symmetry_multiplicity
 _atom_site_fract_x
 _atom_site_fract_y
 _atom_site_fract_z
 _atom_site_occupancy
  K  K0  1  0.16666667  -0.18849912  0.06250000  1
  K  K1  1  0.16666667  -0.18849912  0.31250000  1
  K  K2  1  0.16666667  -0.18849912  0.56250000  1
  K  K3  1  0.16666667  -0.18849912  0.81250000  1
  K  K4  1  0.16666667  0.31150088  0.06250000  1
  K  K5  1  0.16666667  0.31150088  0.31250000  1
  K  K6  1  0.16666667  0.31150088  0.56250000  1
  K  K7  1  0.16666667  0.31150088  0.81250000  1
  K  K8  1  0.50000000  -0.18849912  0.06250000  1
  K  K9  1  0.50000000  -0.18849912  0.31250000  1
  K  K10  1  0.50000000  -0.18849912  0.56250000  1
  K  K11  1  0.50000000  -0.18849912  0.81250000  1
  K  K12  1  0.50000000  0.31150088  0.06250000  1
  K  K13  1  0.50000000  0.31150088  0.31250000  1
  K  K14  1  0.50000000  0.31150088  0.56250000  1
  K  K15  1  0.50000000  0.31150088  0.81250000  1
  K  K16  1  0.83333333  -0.18849912  0.06250000  1
  K  K17  1  0.83333333  -0.18849912  0.31250000  1
  K  K18  1  0.83333333  -0.18849912  0.56250000  1
  K  K19  1  0.83333333  -0.18849912  0.81250000  1
  K  K20  1  0.83333333  0.31150088  0.06250000  1
  K  K21  1  0.83333333  0.31150088  0.31250000  1
  K  K22  1  0.83333333  0.31150088  0.56250000  1
  K  K23  1  0.83333333  0.31150088  0.81250000  1
  K  K24  1  0.33333333  0.06150088  0.06250000  1
  K  K25  1  0.33333333  0.06150088  0.31250000  1
  K  K26  1  0.33333333  0.06150088  0.56250000  1
  K  K27  1  0.33333333  0.06150088  0.81250000  1
  K  K28  1  0.33333333  0.56150088  0.06250000  1
  K  K29  1  0.33333333  0.56150088  0.31250000  1
  K  K30  1  0.33333333  0.56150088  0.56250000  1
  K  K31  1  0.33333333  0.56150088  0.81250000  1
  K  K32  1  0.66666667  0.06150088  0.06250000  1
  K  K33  1  0.66666667  0.06150088  0.31250000  1
  K  K34  1  0.66666667  0.06150088  0.56250000  1
  K  K35  1  0.66666667  0.06150088  0.81250000  1
  K  K36  1  0.66666667  0.56150088  0.06250000  1
  K  K37  1  0.66666667  0.56150088  0.31250000  1
  K  K38  1  0.66666667  0.56150088  0.56250000  1
  K  K39  1  0.66666667  0.56150088  0.81250000  1
  K  K40  1  1.00000000  0.06150088  0.06250000  1
  K  K41  1  1.00000000  0.06150088  0.31250000  1
  K  K42  1  1.00000000  0.06150088  0.56250000  1
  K  K43  1  1.00000000  0.06150088  0.81250000  1
  K  K44  1  1.00000000  0.56150088  0.06250000  1
  K  K45  1  1.00000000  0.56150088  0.31250000  1
  K  K46  1  1.00000000  0.56150088  0.56250000  1
  K  K47  1  1.00000000  0.56150088  0.81250000  1
  K  K48  1  0.16666667  0.18849912  0.18750000  1
  K  K49  1  0.16666667  0.18849912  0.43750000  1
  K  K50  1  0.16666667  0.18849912  0.68750000  1
  K  K51  1  0.16666667  0.18849912  0.93750000  1
  K  K52  1  0.16666667  0.68849912  0.18750000  1
  K  K53  1  0.16666667  0.68849912  0.43750000  1
  K  K54  1  0.16666667  0.68849912  0.68750000  1
  K  K55  1  0.16666667  0.68849912  0.93750000  1
  K  K56  1  0.50000000  0.18849912  0.18750000  1
  K  K57  1  0.50000000  0.18849912  0.43750000  1
  K  K58  1  0.50000000  0.18849912  0.68750000  1
  K  K59  1  0.50000000  0.18849912  0.93750000  1
  K  K60  1  0.50000000  0.68849912  0.18750000  1
  K  K61  1  0.50000000  0.68849912  0.43750000  1
  K  K62  1  0.50000000  0.68849912  0.68750000  1
  K  K63  1  0.50000000  0.68849912  0.93750000  1
  K  K64  1  0.83333333  0.18849912  0.18750000  1
  K  K65  1  0.83333333  0.18849912  0.43750000  1
  K  K66  1  0.83333333  0.18849912  0.68750000  1
  K  K67  1  0.83333333  0.18849912  0.93750000  1
  K  K68  1  0.83333333  0.68849912  0.18750000  1
  K  K69  1  0.83333333  0.68849912  0.43750000  1
  K  K70  1  0.83333333  0.68849912  0.68750000  1
  K  K71  1  0.83333333  0.68849912  0.93750000  1
  K  K72  1  0.33333333  0.43849912  0.18750000  1
  K  K73  1  0.33333333  0.43849912  0.43750000  1
  K  K74  1  0.33333333  0.43849912  0.68750000  1
  K  K75  1  0.33333333  0.43849912  0.93750000  1
  K  K76  1  0.33333333  0.93849912  0.18750000  1
  K  K77  1  0.33333333  0.93849912  0.43750000  1
  K  K78  1  0.33333333  0.93849912  0.68750000  1
  K  K79  1  0.33333333  0.93849912  0.93750000  1
  K  K80  1  0.66666667  0.43849912  0.18750000  1
  K  K81  1  0.66666667  0.43849912  0.43750000  1
  K  K82  1  0.66666667  0.43849912  0.68750000  1
  K  K83  1  0.66666667  0.43849912  0.93750000  1
  K  K84  1  0.66666667  0.93849912  0.18750000  1
  K  K85  1  0.66666667  0.93849912  0.43750000  1
  K  K86  1  0.66666667  0.93849912  0.68750000  1
  K  K87  1  0.66666667  0.93849912  0.93750000  1
  K  K88  1  1.00000000  0.43849912  0.18750000  1
  K  K89  1  1.00000000  0.43849912  0.43750000  1
  K  K90  1  1.00000000  0.43849912  0.68750000  1
  K  K91  1  1.00000000  0.43849912  0.93750000  1
  K  K92  1  1.00000000  0.93849912  0.18750000  1
  K  K93  1  1.00000000  0.93849912  0.43750000  1
  K  K94  1  1.00000000  0.93849912  0.68750000  1
  K  K95  1  1.00000000  0.93849912  0.93750000  1
  Na  Na96  1  0.16666667  -0.13448896  0.18750000  1
  Na  Na97  1  0.16666667  -0.13448896  0.43750000  1
  Na  Na98  1  0.16666667  -0.13448896  0.68750000  1
  Na  Na99  1  0.16666667  -0.13448896  0.93750000  1
  Na  Na100  1  0.16666667  0.36551104  0.18750000  1
  Na  Na101  1  0.16666667  0.36551104  0.43750000  1
  Na  Na102  1  0.16666667  0.36551104  0.68750000  1
  Na  Na103  1  0.16666667  0.36551104  0.93750000  1
  Na  Na104  1  0.50000000  -0.13448896  0.18750000  1
  Na  Na105  1  0.50000000  -0.13448896  0.43750000  1
  Na  Na106  1  0.50000000  -0.13448896  0.68750000  1
  Na  Na107  1  0.50000000  -0.13448896  0.93750000  1
  Na  Na108  1  0.50000000  0.36551104  0.18750000  1
  Na  Na109  1  0.50000000  0.36551104  0.43750000  1
  Na  Na110  1  0.50000000  0.36551104  0.68750000  1
  Na  Na111  1  0.50000000  0.36551104  0.93750000  1
  Na  Na112  1  0.83333333  -0.13448896  0.18750000  1
  Na  Na113  1  0.83333333  -0.13448896  0.43750000  1
  Na  Na114  1  0.83333333  -0.13448896  0.68750000  1
  Na  Na115  1  0.83333333  -0.13448896  0.93750000  1
  Na  Na116  1  0.83333333  0.36551104  0.18750000  1
  Na  Na117  1  0.83333333  0.36551104  0.43750000  1
  Na  Na118  1  0.83333333  0.36551104  0.68750000  1
  Na  Na119  1  0.83333333  0.36551104  0.93750000  1
  Na  Na120  1  0.33333333  0.11551104  0.18750000  1
  Na  Na121  1  0.33333333  0.11551104  0.43750000  1
  Na  Na122  1  0.33333333  0.11551104  0.68750000  1
  Na  Na123  1  0.33333333  0.11551104  0.93750000  1
  Na  Na124  1  0.33333333  0.61551104  0.18750000  1
  Na  Na125  1  0.33333333  0.61551104  0.43750000  1
  Na  Na126  1  0.33333333  0.61551104  0.68750000  1
  Na  Na127  1  0.33333333  0.61551104  0.93750000  1
  Na  Na128  1  0.66666667  0.11551104  0.18750000  1
  Na  Na129  1  0.66666667  0.11551104  0.43750000  1
  Na  Na130  1  0.66666667  0.11551104  0.68750000  1
  Na  Na131  1  0.66666667  0.11551104  0.93750000  1
  Na  Na132  1  0.66666667  0.61551104  0.18750000  1
  Na  Na133  1  0.66666667  0.61551104  0.43750000  1
  Na  Na134  1  0.66666667  0.61551104  0.68750000  1
  Na  Na135  1  0.66666667  0.61551104  0.93750000  1
  Na  Na136  1  1.00000000  0.11551104  0.18750000  1
  Na  Na137  1  1.00000000  0.11551104  0.43750000  1
  Na  Na138  1  1.00000000  0.11551104  0.68750000  1
  Na  Na139  1  1.00000000  0.11551104  0.93750000  1
  Na  Na140  1  1.00000000  0.61551104  0.18750000  1
  Na  Na141  1  1.00000000  0.61551104  0.43750000  1
  Na  Na142  1  1.00000000  0.61551104  0.68750000  1
  Na  Na143  1  1.00000000  0.61551104  0.93750000  1
  Na  Na144  1  0.16666667  0.13448896  0.06250000  1
  Na  Na145  1  0.16666667  0.13448896  0.31250000  1
  Na  Na146  1  0.16666667  0.13448896  0.56250000  1
  Na  Na147  1  0.16666667  0.13448896  0.81250000  1
  Na  Na148  1  0.16666667  0.63448896  0.06250000  1
  Na  Na149  1  0.16666667  0.63448896  0.31250000  1
  Na  Na150  1  0.16666667  0.63448896  0.56250000  1
  Na  Na151  1  0.16666667  0.63448896  0.81250000  1
  Na  Na152  1  0.50000000  0.13448896  0.06250000  1
  Na  Na153  1  0.50000000  0.13448896  0.31250000  1
  Na  Na154  1  0.50000000  0.13448896  0.56250000  1
  Na  Na155  1  0.50000000  0.13448896  0.81250000  1
  Na  Na156  1  0.50000000  0.63448896  0.06250000  1
  Na  Na157  1  0.50000000  0.63448896  0.31250000  1
  Na  Na158  1  0.50000000  0.63448896  0.56250000  1
  Na  Na159  1  0.50000000  0.63448896  0.81250000  1
  Na  Na160  1  0.83333333  0.13448896  0.06250000  1
  Na  Na161  1  0.83333333  0.13448896  0.31250000  1
  Na  Na162  1  0.83333333  0.13448896  0.56250000  1
  Na  Na163  1  0.83333333  0.13448896  0.81250000  1
  Na  Na164  1  0.83333333  0.63448896  0.06250000  1
  Na  Na165  1  0.83333333  0.63448896  0.31250000  1
  Na  Na166  1  0.83333333  0.63448896  0.56250000  1
  Na  Na167  1  0.83333333  0.63448896  0.81250000  1
  Na  Na168  1  0.33333333  0.38448896  0.06250000  1
  Na  Na169  1  0.33333333  0.38448896  0.31250000  1
  Na  Na170  1  0.33333333  0.38448896  0.56250000  1
  Na  Na171  1  0.33333333  0.38448896  0.81250000  1
  Na  Na172  1  0.33333333  0.88448896  0.06250000  1
  Na  Na173  1  0.33333333  0.88448896  0.31250000  1
  Na  Na174  1  0.33333333  0.88448896  0.56250000  1
  Na  Na175  1  0.33333333  0.88448896  0.81250000  1
  Na  Na176  1  0.66666667  0.38448896  0.06250000  1
  Na  Na177  1  0.66666667  0.38448896  0.31250000  1
  Na  Na178  1  0.66666667  0.38448896  0.56250000  1
  Na  Na179  1  0.66666667  0.38448896  0.81250000  1
  Na  Na180  1  0.66666667  0.88448896  0.06250000  1
  Na  Na181  1  0.66666667  0.88448896  0.31250000  1
  Na  Na182  1  0.66666667  0.88448896  0.56250000  1
  Na  Na183  1  0.66666667  0.88448896  0.81250000  1
  Na  Na184  1  1.00000000  0.38448896  0.06250000  1
  Na  Na185  1  1.00000000  0.38448896  0.31250000  1
  Na  Na186  1  1.00000000  0.38448896  0.56250000  1
  Na  Na187  1  1.00000000  0.38448896  0.81250000  1
  Na  Na188  1  1.00000000  0.88448896  0.06250000  1
  Na  Na189  1  1.00000000  0.88448896  0.31250000  1
  Na  Na190  1  1.00000000  0.88448896  0.56250000  1
  Na  Na191  1  1.00000000  0.88448896  0.81250000  1
  Zn  Zn192  1  0.16666667  -0.00461066  0.06250000  1
  Zn  Zn193  1  0.16666667  -0.00461066  0.31250000  1
  Zn  Zn194  1  0.16666667  -0.00461066  0.56250000  1
  Zn  Zn195  1  0.16666667  -0.00461066  0.81250000  1
  Zn  Zn196  1  0.16666667  0.49538934  0.06250000  1
  Zn  Zn197  1  0.16666667  0.49538934  0.31250000  1
  Zn  Zn198  1  0.16666667  0.49538934  0.56250000  1
  Zn  Zn199  1  0.16666667  0.49538934  0.81250000  1
  Zn  Zn200  1  0.50000000  -0.00461066  0.06250000  1
  Zn  Zn201  1  0.50000000  -0.00461066  0.31250000  1
  Zn  Zn202  1  0.50000000  -0.00461066  0.56250000  1
  Zn  Zn203  1  0.50000000  -0.00461066  0.81250000  1
  Zn  Zn204  1  0.50000000  0.49538934  0.06250000  1
  Zn  Zn205  1  0.50000000  0.49538934  0.31250000  1
  Zn  Zn206  1  0.50000000  0.49538934  0.56250000  1
  Zn  Zn207  1  0.50000000  0.49538934  0.81250000  1
  Zn  Zn208  1  0.83333333  -0.00461066  0.06250000  1
  Zn  Zn209  1  0.83333333  -0.00461066  0.31250000  1
  Zn  Zn210  1  0.83333333  -0.00461066  0.56250000  1
  Zn  Zn211  1  0.83333333  -0.00461066  0.81250000  1
  Zn  Zn212  1  0.83333333  0.49538934  0.06250000  1
  Zn  Zn213  1  0.83333333  0.49538934  0.31250000  1
  Zn  Zn214  1  0.83333333  0.49538934  0.56250000  1
  Zn  Zn215  1  0.83333333  0.49538934  0.81250000  1
  Zn  Zn216  1  0.33333333  0.24538934  0.06250000  1
  Zn  Zn217  1  0.33333333  0.24538934  0.31250000  1
  Zn  Zn218  1  0.33333333  0.24538934  0.56250000  1
  Zn  Zn219  1  0.33333333  0.24538934  0.81250000  1
  Zn  Zn220  1  0.33333333  0.74538934  0.06250000  1
  Zn  Zn221  1  0.33333333  0.74538934  0.31250000  1
  Zn  Zn222  1  0.33333333  0.74538934  0.56250000  1
  Zn  Zn223  1  0.33333333  0.74538934  0.81250000  1
  Zn  Zn224  1  0.66666667  0.24538934  0.06250000  1
  Zn  Zn225  1  0.66666667  0.24538934  0.31250000  1
  Zn  Zn226  1  0.66666667  0.24538934  0.56250000  1
  Zn  Zn227  1  0.66666667  0.24538934  0.81250000  1
  Zn  Zn228  1  0.66666667  0.74538934  0.06250000  1
  Zn  Zn229  1  0.66666667  0.74538934  0.31250000  1
  Zn  Zn230  1  0.66666667  0.74538934  0.56250000  1
  Zn  Zn231  1  0.66666667  0.74538934  0.81250000  1
  Zn  Zn232  1  1.00000000  0.24538934  0.06250000  1
  Zn  Zn233  1  1.00000000  0.24538934  0.31250000  1
  Zn  Zn234  1  1.00000000  0.24538934  0.56250000  1
  Zn  Zn235  1  1.00000000  0.24538934  0.81250000  1
  Zn  Zn236  1  1.00000000  0.74538934  0.06250000  1
  Zn  Zn237  1  1.00000000  0.74538934  0.31250000  1
  Zn  Zn238  1  1.00000000  0.74538934  0.56250000  1
  Zn  Zn239  1  1.00000000  0.74538934  0.81250000  1
  Zn  Zn240  1  0.16666667  0.00461066  0.18750000  1
  Zn  Zn241  1  0.16666667  0.00461066  0.43750000  1
  Zn  Zn242  1  0.16666667  0.00461066  0.68750000  1
  Zn  Zn243  1  0.16666667  0.00461066  0.93750000  1
  Zn  Zn244  1  0.16666667  0.50461066  0.18750000  1
  Zn  Zn245  1  0.16666667  0.50461066  0.43750000  1
  Zn  Zn246  1  0.16666667  0.50461066  0.68750000  1
  Zn  Zn247  1  0.16666667  0.50461066  0.93750000  1
  Zn  Zn248  1  0.50000000  0.00461066  0.18750000  1
  Zn  Zn249  1  0.50000000  0.00461066  0.43750000  1
  Zn  Zn250  1  0.50000000  0.00461066  0.68750000  1
  Zn  Zn251  1  0.50000000  0.00461066  0.93750000  1
  Zn  Zn252  1  0.50000000  0.50461066  0.18750000  1
  Zn  Zn253  1  0.50000000  0.50461066  0.43750000  1
  Zn  Zn254  1  0.50000000  0.50461066  0.68750000  1
  Zn  Zn255  1  0.50000000  0.50461066  0.93750000  1
  Zn  Zn256  1  0.83333333  0.00461066  0.18750000  1
  Zn  Zn257  1  0.83333333  0.00461066  0.43750000  1
  Zn  Zn258  1  0.83333333  0.00461066  0.68750000  1
  Zn  Zn259  1  0.83333333  0.00461066  0.93750000  1
  Zn  Zn260  1  0.83333333  0.50461066  0.18750000  1
  Zn  Zn261  1  0.83333333  0.50461066  0.43750000  1
  Zn  Zn262  1  0.83333333  0.50461066  0.68750000  1
  Zn  Zn263  1  0.83333333  0.50461066  0.93750000  1
  Zn  Zn264  1  0.33333333  0.25461066  0.18750000  1
  Zn  Zn265  1  0.33333333  0.25461066  0.43750000  1
  Zn  Zn266  1  0.33333333  0.25461066  0.68750000  1
  Zn  Zn267  1  0.33333333  0.25461066  0.93750000  1
  Zn  Zn268  1  0.33333333  0.75461066  0.18750000  1
  Zn  Zn269  1  0.33333333  0.75461066  0.43750000  1
  Zn  Zn270  1  0.33333333  0.75461066  0.68750000  1
  Zn  Zn271  1  0.33333333  0.75461066  0.93750000  1
  Zn  Zn272  1  0.66666667  0.25461066  0.18750000  1
  Zn  Zn273  1  0.66666667  0.25461066  0.43750000  1
  Zn  Zn274  1  0.66666667  0.25461066  0.68750000  1
  Zn  Zn275  1  0.66666667  0.25461066  0.93750000  1
  Zn  Zn276  1  0.66666667  0.75461066  0.18750000  1
  Zn  Zn277  1  0.66666667  0.75461066  0.43750000  1
  Zn  Zn278  1  0.66666667  0.75461066  0.68750000  1
  Zn  Zn279  1  0.66666667  0.75461066  0.93750000  1
  Zn  Zn280  1  1.00000000  0.25461066  0.18750000  1
  Zn  Zn281  1  1.00000000  0.25461066  0.43750000  1
  Zn  Zn282  1  1.00000000  0.25461066  0.68750000  1
  Zn  Zn283  1  1.00000000  0.25461066  0.93750000  1
  Zn  Zn284  1  1.00000000  0.75461066  0.18750000  1
  Zn  Zn285  1  1.00000000  0.75461066  0.43750000  1
  Zn  Zn286  1  1.00000000  0.75461066  0.68750000  1
  Zn  Zn287  1  1.00000000  0.75461066  0.93750000  1
  O  O288  1  0.22619565  -0.05316944  0.03139807  1
  O  O289  1  0.22619565  -0.05316944  0.28139807  1
  O  O290  1  0.22619565  -0.05316944  0.53139807  1
  O  O291  1  0.22619565  -0.05316944  0.78139807  1
  O  O292  1  0.22619565  0.44683056  0.03139807  1
  O  O293  1  0.22619565  0.44683056  0.28139807  1
  O  O294  1  0.22619565  0.44683056  0.53139807  1
  O  O295  1  0.22619565  0.44683056  0.78139807  1
  O  O296  1  0.55952898  -0.05316944  0.03139807  1
  O  O297  1  0.55952898  -0.05316944  0.28139807  1
  O  O298  1  0.55952898  -0.05316944  0.53139807  1
  O  O299  1  0.55952898  -0.05316944  0.78139807  1
  O  O300  1  0.55952898  0.44683056  0.03139807  1
  O  O301  1  0.55952898  0.44683056  0.28139807  1
  O  O302  1  0.55952898  0.44683056  0.53139807  1
  O  O303  1  0.55952898  0.44683056  0.78139807  1
  O  O304  1  0.89286231  -0.05316944  0.03139807  1
  O  O305  1  0.89286231  -0.05316944  0.28139807  1
  O  O306  1  0.89286231  -0.05316944  0.53139807  1
  O  O307  1  0.89286231  -0.05316944  0.78139807  1
  O  O308  1  0.89286231  0.44683056  0.03139807  1
  O  O309  1  0.89286231  0.44683056  0.28139807  1
  O  O310  1  0.89286231  0.44683056  0.53139807  1
  O  O311  1  0.89286231  0.44683056  0.78139807  1
  O  O312  1  0.39286231  0.19683056  0.03139807  1
  O  O313  1  0.39286231  0.19683056  0.28139807  1
  O  O314  1  0.39286231  0.19683056  0.53139807  1
  O  O315  1  0.39286231  0.19683056  0.78139807  1
  O  O316  1  0.39286231  0.69683056  0.03139807  1
  O  O317  1  0.39286231  0.69683056  0.28139807  1
  O  O318  1  0.39286231  0.69683056  0.53139807  1
  O  O319  1  0.39286231  0.69683056  0.78139807  1
  O  O320  1  0.72619565  0.19683056  0.03139807  1
  O  O321  1  0.72619565  0.19683056  0.28139807  1
  O  O322  1  0.72619565  0.19683056  0.53139807  1
  O  O323  1  0.72619565  0.19683056  0.78139807  1
  O  O324  1  0.72619565  0.69683056  0.03139807  1
  O  O325  1  0.72619565  0.69683056  0.28139807  1
  O  O326  1  0.72619565  0.69683056  0.53139807  1
  O  O327  1  0.72619565  0.69683056  0.78139807  1
  O  O328  1  1.05952898  0.19683056  0.03139807  1
  O  O329  1  1.05952898  0.19683056  0.28139807  1
  O  O330  1  1.05952898  0.19683056  0.53139807  1
  O  O331  1  1.05952898  0.19683056  0.78139807  1
  O  O332  1  1.05952898  0.69683056  0.03139807  1
  O  O333  1  1.05952898  0.69683056  0.28139807  1
  O  O334  1  1.05952898  0.69683056  0.53139807  1
  O  O335  1  1.05952898  0.69683056  0.78139807  1
  O  O336  1  0.10713769  -0.05316944  0.09360193  1
  O  O337  1  0.10713769  -0.05316944  0.34360193  1
  O  O338  1  0.10713769  -0.05316944  0.59360193  1
  O  O339  1  0.10713769  -0.05316944  0.84360193  1
  O  O340  1  0.10713769  0.44683056  0.09360193  1
  O  O341  1  0.10713769  0.44683056  0.34360193  1
  O  O342  1  0.10713769  0.44683056  0.59360193  1
  O  O343  1  0.10713769  0.44683056  0.84360193  1
  O  O344  1  0.44047102  -0.05316944  0.09360193  1
  O  O345  1  0.44047102  -0.05316944  0.34360193  1
  O  O346  1  0.44047102  -0.05316944  0.59360193  1
  O  O347  1  0.44047102  -0.05316944  0.84360193  1
  O  O348  1  0.44047102  0.44683056  0.09360193  1
  O  O349  1  0.44047102  0.44683056  0.34360193  1
  O  O350  1  0.44047102  0.44683056  0.59360193  1
  O  O351  1  0.44047102  0.44683056  0.84360193  1
  O  O352  1  0.77380435  -0.05316944  0.09360193  1
  O  O353  1  0.77380435  -0.05316944  0.34360193  1
  O  O354  1  0.77380435  -0.05316944  0.59360193  1
  O  O355  1  0.77380435  -0.05316944  0.84360193  1
  O  O356  1  0.77380435  0.44683056  0.09360193  1
  O  O357  1  0.77380435  0.44683056  0.34360193  1
  O  O358  1  0.77380435  0.44683056  0.59360193  1
  O  O359  1  0.77380435  0.44683056  0.84360193  1
  O  O360  1  0.27380435  0.19683056  0.09360193  1
  O  O361  1  0.27380435  0.19683056  0.34360193  1
  O  O362  1  0.27380435  0.19683056  0.59360193  1
  O  O363  1  0.27380435  0.19683056  0.84360193  1
  O  O364  1  0.27380435  0.69683056  0.09360193  1
  O  O365  1  0.27380435  0.69683056  0.34360193  1
  O  O366  1  0.27380435  0.69683056  0.59360193  1
  O  O367  1  0.27380435  0.69683056  0.84360193  1
  O  O368  1  0.60713769  0.19683056  0.09360193  1
  O  O369  1  0.60713769  0.19683056  0.34360193  1
  O  O370  1  0.60713769  0.19683056  0.59360193  1
  O  O371  1  0.60713769  0.19683056  0.84360193  1
  O  O372  1  0.60713769  0.69683056  0.09360193  1
  O  O373  1  0.60713769  0.69683056  0.34360193  1
  O  O374  1  0.60713769  0.69683056  0.59360193  1
  O  O375  1  0.60713769  0.69683056  0.84360193  1
  O  O376  1  0.94047102  0.19683056  0.09360193  1
  O  O377  1  0.94047102  0.19683056  0.34360193  1
  O  O378  1  0.94047102  0.19683056  0.59360193  1
  O  O379  1  0.94047102  0.19683056  0.84360193  1
  O  O380  1  0.94047102  0.69683056  0.09360193  1
  O  O381  1  0.94047102  0.69683056  0.34360193  1
  O  O382  1  0.94047102  0.69683056  0.59360193  1
  O  O383  1  0.94047102  0.69683056  0.84360193  1
  O  O384  1  0.22619565  0.05316944  0.15639807  1
  O  O385  1  0.22619565  0.05316944  0.40639807  1
  O  O386  1  0.22619565  0.05316944  0.65639807  1
  O  O387  1  0.22619565  0.05316944  0.90639807  1
  O  O388  1  0.22619565  0.55316944  0.15639807  1
  O  O389  1  0.22619565  0.55316944  0.40639807  1
  O  O390  1  0.22619565  0.55316944  0.65639807  1
  O  O391  1  0.22619565  0.55316944  0.90639807  1
  O  O392  1  0.55952898  0.05316944  0.15639807  1
  O  O393  1  0.55952898  0.05316944  0.40639807  1
  O  O394  1  0.55952898  0.05316944  0.65639807  1
  O  O395  1  0.55952898  0.05316944  0.90639807  1
  O  O396  1  0.55952898  0.55316944  0.15639807  1
  O  O397  1  0.55952898  0.55316944  0.40639807  1
  O  O398  1  0.55952898  0.55316944  0.65639807  1
  O  O399  1  0.55952898  0.55316944  0.90639807  1
  O  O400  1  0.89286231  0.05316944  0.15639807  1
  O  O401  1  0.89286231  0.05316944  0.40639807  1
  O  O402  1  0.89286231  0.05316944  0.65639807  1
  O  O403  1  0.89286231  0.05316944  0.90639807  1
  O  O404  1  0.89286231  0.55316944  0.15639807  1
  O  O405  1  0.89286231  0.55316944  0.40639807  1
  O  O406  1  0.89286231  0.55316944  0.65639807  1
  O  O407  1  0.89286231  0.55316944  0.90639807  1
  O  O408  1  0.39286231  0.30316944  0.15639807  1
  O  O409  1  0.39286231  0.30316944  0.40639807  1
  O  O410  1  0.39286231  0.30316944  0.65639807  1
  O  O411  1  0.39286231  0.30316944  0.90639807  1
  O  O412  1  0.39286231  0.80316944  0.15639807  1
  O  O413  1  0.39286231  0.80316944  0.40639807  1
  O  O414  1  0.39286231  0.80316944  0.65639807  1
  O  O415  1  0.39286231  0.80316944  0.90639807  1
  O  O416  1  0.72619565  0.30316944  0.15639807  1
  O  O417  1  0.72619565  0.30316944  0.40639807  1
  O  O418  1  0.72619565  0.30316944  0.65639807  1
  O  O419  1  0.72619565  0.30316944  0.90639807  1
  O  O420  1  0.72619565  0.80316944  0.15639807  1
  O  O421  1  0.72619565  0.80316944  0.40639807  1
  O  O422  1  0.72619565  0.80316944  0.65639807  1
  O  O423  1  0.72619565  0.80316944  0.90639807  1
  O  O424  1  1.05952898  0.30316944  0.15639807  1
  O  O425  1  1.05952898  0.30316944  0.40639807  1
  O  O426  1  1.05952898  0.30316944  0.65639807  1
  O  O427  1  1.05952898  0.30316944  0.90639807  1
  O  O428  1  1.05952898  0.80316944  0.15639807  1
  O  O429  1  1.05952898  0.80316944  0.40639807  1
  O  O430  1  1.05952898  0.80316944  0.65639807  1
  O  O431  1  1.05952898  0.80316944  0.90639807  1
  O  O432  1  0.10713769  0.05316944  0.21860193  1
  O  O433  1  0.10713769  0.05316944  0.46860193  1
  O  O434  1  0.10713769  0.05316944  0.71860193  1
  O  O435  1  0.10713769  0.05316944  0.96860193  1
  O  O436  1  0.10713769  0.55316944  0.21860193  1
  O  O437  1  0.10713769  0.55316944  0.46860193  1
  O  O438  1  0.10713769  0.55316944  0.71860193  1
  O  O439  1  0.10713769  0.55316944  0.96860193  1
  O  O440  1  0.44047102  0.05316944  0.21860193  1
  O  O441  1  0.44047102  0.05316944  0.46860193  1
  O  O442  1  0.44047102  0.05316944  0.71860193  1
  O  O443  1  0.44047102  0.05316944  0.96860193  1
  O  O444  1  0.44047102  0.55316944  0.21860193  1
  O  O445  1  0.44047102  0.55316944  0.46860193  1
  O  O446  1  0.44047102  0.55316944  0.71860193  1
  O  O447  1  0.44047102  0.55316944  0.96860193  1
  O  O448  1  0.77380435  0.05316944  0.21860193  1
  O  O449  1  0.77380435  0.05316944  0.46860193  1
  O  O450  1  0.77380435  0.05316944  0.71860193  1
  O  O451  1  0.77380435  0.05316944  0.96860193  1
  O  O452  1  0.77380435  0.55316944  0.21860193  1
  O  O453  1  0.77380435  0.55316944  0.46860193  1
  O  O454  1  0.77380435  0.55316944  0.71860193  1
  O  O455  1  0.77380435  0.55316944  0.96860193  1
  O  O456  1  0.27380435  0.30316944  0.21860193  1
  O  O457  1  0.27380435  0.30316944  0.46860193  1
  O  O458  1  0.27380435  0.30316944  0.71860193  1
  O  O459  1  0.27380435  0.30316944  0.96860193  1
  O  O460  1  0.27380435  0.80316944  0.21860193  1
  O  O461  1  0.27380435  0.80316944  0.46860193  1
  O  O462  1  0.27380435  0.80316944  0.71860193  1
  O  O463  1  0.27380435  0.80316944  0.96860193  1
  O  O464  1  0.60713769  0.30316944  0.21860193  1
  O  O465  1  0.60713769  0.30316944  0.46860193  1
  O  O466  1  0.60713769  0.30316944  0.71860193  1
  O  O467  1  0.60713769  0.30316944  0.96860193  1
  O  O468  1  0.60713769  0.80316944  0.21860193  1
  O  O469  1  0.60713769  0.80316944  0.46860193  1
  O  O470  1  0.60713769  0.80316944  0.71860193  1
  O  O471  1  0.60713769  0.80316944  0.96860193  1
  O  O472  1  0.94047102  0.30316944  0.21860193  1
  O  O473  1  0.94047102  0.30316944  0.46860193  1
  O  O474  1  0.94047102  0.30316944  0.71860193  1
  O  O475  1  0.94047102  0.30316944  0.96860193  1
  O  O476  1  0.94047102  0.80316944  0.21860193  1
  O  O477  1  0.94047102  0.80316944  0.46860193  1
  O  O478  1  0.94047102  0.80316944  0.71860193  1
  O  O479  1  0.94047102  0.80316944  0.96860193  1
