# generated using pymatgen
data_CaGaBO4
_symmetry_space_group_name_H-M   'P 1'
_cell_length_a   16.55791066
_cell_length_b   15.44946820
_cell_length_c   17.53368441
_cell_angle_alpha   90.00000000
_cell_angle_beta   90.00000000
_cell_angle_gamma   90.00000000
_symmetry_Int_Tables_number   1
_chemical_formula_structural   CaGaBO4
_chemical_formula_sum   'Ca48 Ga48 B48 O192'
_cell_volume   4485.30783601
_cell_formula_units_Z   48
loop_
 _symmetry_equiv_pos_site_id
 _symmetry_equiv_pos_as_xyz
  1  'x, y, z'
loop_
 _atom_site_type_symbol
 _atom_site_label
 _atom_site_symmetry_multiplicity
 _atom_site_fract_x
 _atom_site_fract_y
 _atom_site_fract_z
 _atom_site_occupancy
  Ca  Ca0  1  0.32091444  0.09046210  0.03320106  1
  Ca  Ca1  1  0.32091444  0.09046210  0.36653439  1
  Ca  Ca2  1  0.32091444  0.09046210  0.69986773  1
  Ca  Ca3  1  0.82091444  0.09046210  0.03320106  1
  Ca  Ca4  1  0.82091444  0.09046210  0.36653439  1
  Ca  Ca5  1  0.82091444  0.09046210  0.69986773  1
  Ca  Ca6  1  0.57091444  0.59046210  0.03320106  1
  Ca  Ca7  1  0.57091444  0.59046210  0.36653439  1
  Ca  Ca8  1  0.57091444  0.59046210  0.69986773  1
  Ca  Ca9  1  1.07091444  0.59046210  0.03320106  1
  Ca  Ca10  1  1.07091444  0.59046210  0.36653439  1
  Ca  Ca11  1  1.07091444  0.59046210  0.69986773  1
  Ca  Ca12  1  0.17908556  0.09046210  0.19986773  1
  Ca  Ca13  1  0.17908556  0.09046210  0.53320106  1
  Ca  Ca14  1  0.17908556  0.09046210  0.86653439  1
  Ca  Ca15  1  0.67908556  0.09046210  0.19986773  1
  Ca  Ca16  1  0.67908556  0.09046210  0.53320106  1
  Ca  Ca17  1  0.67908556  0.09046210  0.86653439  1
  Ca  Ca18  1  0.42908556  0.59046210  0.19986773  1
  Ca  Ca19  1  0.42908556  0.59046210  0.53320106  1
  Ca  Ca20  1  0.42908556  0.59046210  0.86653439  1
  Ca  Ca21  1  0.92908556  0.59046210  0.19986773  1
  Ca  Ca22  1  0.92908556  0.59046210  0.53320106  1
  Ca  Ca23  1  0.92908556  0.59046210  0.86653439  1
  Ca  Ca24  1  0.17908556  -0.09046210  0.03320106  1
  Ca  Ca25  1  0.17908556  -0.09046210  0.36653439  1
  Ca  Ca26  1  0.17908556  -0.09046210  0.69986773  1
  Ca  Ca27  1  0.67908556  -0.09046210  0.03320106  1
  Ca  Ca28  1  0.67908556  -0.09046210  0.36653439  1
  Ca  Ca29  1  0.67908556  -0.09046210  0.69986773  1
  Ca  Ca30  1  0.42908556  0.40953790  0.03320106  1
  Ca  Ca31  1  0.42908556  0.40953790  0.36653439  1
  Ca  Ca32  1  0.42908556  0.40953790  0.69986773  1
  Ca  Ca33  1  0.92908556  0.40953790  0.03320106  1
  Ca  Ca34  1  0.92908556  0.40953790  0.36653439  1
  Ca  Ca35  1  0.92908556  0.40953790  0.69986773  1
  Ca  Ca36  1  0.32091444  -0.09046210  0.19986773  1
  Ca  Ca37  1  0.32091444  -0.09046210  0.53320106  1
  Ca  Ca38  1  0.32091444  -0.09046210  0.86653439  1
  Ca  Ca39  1  0.82091444  -0.09046210  0.19986773  1
  Ca  Ca40  1  0.82091444  -0.09046210  0.53320106  1
  Ca  Ca41  1  0.82091444  -0.09046210  0.86653439  1
  Ca  Ca42  1  0.57091444  0.40953790  0.19986773  1
  Ca  Ca43  1  0.57091444  0.40953790  0.53320106  1
  Ca  Ca44  1  0.57091444  0.40953790  0.86653439  1
  Ca  Ca45  1  1.07091444  0.40953790  0.19986773  1
  Ca  Ca46  1  1.07091444  0.40953790  0.53320106  1
  Ca  Ca47  1  1.07091444  0.40953790  0.86653439  1
  Ga  Ga48  1  0.24078911  -0.29363133  0.12445467  1
  Ga  Ga49  1  0.24078911  -0.29363133  0.45778800  1
  Ga  Ga50  1  0.24078911  -0.29363133  0.79112133  1
  Ga  Ga51  1  0.74078911  -0.29363133  0.12445467  1
  Ga  Ga52  1  0.74078911  -0.29363133  0.45778800  1
  Ga  Ga53  1  0.74078911  -0.29363133  0.79112133  1
  Ga  Ga54  1  0.49078911  0.20636867  0.12445467  1
  Ga  Ga55  1  0.49078911  0.20636867  0.45778800  1
  Ga  Ga56  1  0.49078911  0.20636867  0.79112133  1
  Ga  Ga57  1  0.99078911  0.20636867  0.12445467  1
  Ga  Ga58  1  0.99078911  0.20636867  0.45778800  1
  Ga  Ga59  1  0.99078911  0.20636867  0.79112133  1
  Ga  Ga60  1  0.24078911  0.29363133  0.29112133  1
  Ga  Ga61  1  0.24078911  0.29363133  0.62445467  1
  Ga  Ga62  1  0.24078911  0.29363133  0.95778800  1
  Ga  Ga63  1  0.74078911  0.29363133  0.29112133  1
  Ga  Ga64  1  0.74078911  0.29363133  0.62445467  1
  Ga  Ga65  1  0.74078911  0.29363133  0.95778800  1
  Ga  Ga66  1  0.49078911  0.79363133  0.29112133  1
  Ga  Ga67  1  0.49078911  0.79363133  0.62445467  1
  Ga  Ga68  1  0.49078911  0.79363133  0.95778800  1
  Ga  Ga69  1  0.99078911  0.79363133  0.29112133  1
  Ga  Ga70  1  0.99078911  0.79363133  0.62445467  1
  Ga  Ga71  1  0.99078911  0.79363133  0.95778800  1
  Ga  Ga72  1  0.25921089  -0.29363133  0.29112133  1
  Ga  Ga73  1  0.25921089  -0.29363133  0.62445467  1
  Ga  Ga74  1  0.25921089  -0.29363133  0.95778800  1
  Ga  Ga75  1  0.75921089  -0.29363133  0.29112133  1
  Ga  Ga76  1  0.75921089  -0.29363133  0.62445467  1
  Ga  Ga77  1  0.75921089  -0.29363133  0.95778800  1
  Ga  Ga78  1  0.50921089  0.20636867  0.29112133  1
  Ga  Ga79  1  0.50921089  0.20636867  0.62445467  1
  Ga  Ga80  1  0.50921089  0.20636867  0.95778800  1
  Ga  Ga81  1  1.00921089  0.20636867  0.29112133  1
  Ga  Ga82  1  1.00921089  0.20636867  0.62445467  1
  Ga  Ga83  1  1.00921089  0.20636867  0.95778800  1
  Ga  Ga84  1  0.25921089  0.29363133  0.12445467  1
  Ga  Ga85  1  0.25921089  0.29363133  0.45778800  1
  Ga  Ga86  1  0.25921089  0.29363133  0.79112133  1
  Ga  Ga87  1  0.75921089  0.29363133  0.12445467  1
  Ga  Ga88  1  0.75921089  0.29363133  0.45778800  1
  Ga  Ga89  1  0.75921089  0.29363133  0.79112133  1
  Ga  Ga90  1  0.50921089  0.79363133  0.12445467  1
  Ga  Ga91  1  0.50921089  0.79363133  0.45778800  1
  Ga  Ga92  1  0.50921089  0.79363133  0.79112133  1
  Ga  Ga93  1  1.00921089  0.79363133  0.12445467  1
  Ga  Ga94  1  1.00921089  0.79363133  0.45778800  1
  Ga  Ga95  1  1.00921089  0.79363133  0.79112133  1
  B  B96  1  0.12042822  0.10839658  0.04704627  1
  B  B97  1  0.12042822  0.10839658  0.38037960  1
  B  B98  1  0.12042822  0.10839658  0.71371294  1
  B  B99  1  0.62042822  0.10839658  0.04704627  1
  B  B100  1  0.62042822  0.10839658  0.38037960  1
  B  B101  1  0.62042822  0.10839658  0.71371294  1
  B  B102  1  0.37042822  0.60839658  0.04704627  1
  B  B103  1  0.37042822  0.60839658  0.38037960  1
  B  B104  1  0.37042822  0.60839658  0.71371294  1
  B  B105  1  0.87042822  0.60839658  0.04704627  1
  B  B106  1  0.87042822  0.60839658  0.38037960  1
  B  B107  1  0.87042822  0.60839658  0.71371294  1
  B  B108  1  0.37957178  0.10839658  0.21371294  1
  B  B109  1  0.37957178  0.10839658  0.54704627  1
  B  B110  1  0.37957178  0.10839658  0.88037960  1
  B  B111  1  0.87957178  0.10839658  0.21371294  1
  B  B112  1  0.87957178  0.10839658  0.54704627  1
  B  B113  1  0.87957178  0.10839658  0.88037960  1
  B  B114  1  0.62957178  0.60839658  0.21371294  1
  B  B115  1  0.62957178  0.60839658  0.54704627  1
  B  B116  1  0.62957178  0.60839658  0.88037960  1
  B  B117  1  1.12957178  0.60839658  0.21371294  1
  B  B118  1  1.12957178  0.60839658  0.54704627  1
  B  B119  1  1.12957178  0.60839658  0.88037960  1
  B  B120  1  0.37957178  -0.10839658  0.04704627  1
  B  B121  1  0.37957178  -0.10839658  0.38037960  1
  B  B122  1  0.37957178  -0.10839658  0.71371294  1
  B  B123  1  0.87957178  -0.10839658  0.04704627  1
  B  B124  1  0.87957178  -0.10839658  0.38037960  1
  B  B125  1  0.87957178  -0.10839658  0.71371294  1
  B  B126  1  0.62957178  0.39160342  0.04704627  1
  B  B127  1  0.62957178  0.39160342  0.38037960  1
  B  B128  1  0.62957178  0.39160342  0.71371294  1
  B  B129  1  1.12957178  0.39160342  0.04704627  1
  B  B130  1  1.12957178  0.39160342  0.38037960  1
  B  B131  1  1.12957178  0.39160342  0.71371294  1
  B  B132  1  0.12042822  -0.10839658  0.21371294  1
  B  B133  1  0.12042822  -0.10839658  0.54704627  1
  B  B134  1  0.12042822  -0.10839658  0.88037960  1
  B  B135  1  0.62042822  -0.10839658  0.21371294  1
  B  B136  1  0.62042822  -0.10839658  0.54704627  1
  B  B137  1  0.62042822  -0.10839658  0.88037960  1
  B  B138  1  0.37042822  0.39160342  0.21371294  1
  B  B139  1  0.37042822  0.39160342  0.54704627  1
  B  B140  1  0.37042822  0.39160342  0.88037960  1
  B  B141  1  0.87042822  0.39160342  0.21371294  1
  B  B142  1  0.87042822  0.39160342  0.54704627  1
  B  B143  1  0.87042822  0.39160342  0.88037960  1
  O  O144  1  0.42343816  0.12986284  0.27839228  1
  O  O145  1  0.42343816  0.12986284  0.61172561  1
  O  O146  1  0.42343816  0.12986284  0.94505894  1
  O  O147  1  0.92343816  0.12986284  0.27839228  1
  O  O148  1  0.92343816  0.12986284  0.61172561  1
  O  O149  1  0.92343816  0.12986284  0.94505894  1
  O  O150  1  0.67343816  0.62986284  0.27839228  1
  O  O151  1  0.67343816  0.62986284  0.61172561  1
  O  O152  1  0.67343816  0.62986284  0.94505894  1
  O  O153  1  1.17343816  0.62986284  0.27839228  1
  O  O154  1  1.17343816  0.62986284  0.61172561  1
  O  O155  1  1.17343816  0.62986284  0.94505894  1
  O  O156  1  0.31374541  0.05640614  0.22539030  1
  O  O157  1  0.31374541  0.05640614  0.55872364  1
  O  O158  1  0.31374541  0.05640614  0.89205697  1
  O  O159  1  0.81374541  0.05640614  0.22539030  1
  O  O160  1  0.81374541  0.05640614  0.55872364  1
  O  O161  1  0.81374541  0.05640614  0.89205697  1
  O  O162  1  0.56374541  0.55640614  0.22539030  1
  O  O163  1  0.56374541  0.55640614  0.55872364  1
  O  O164  1  0.56374541  0.55640614  0.89205697  1
  O  O165  1  1.06374541  0.55640614  0.22539030  1
  O  O166  1  1.06374541  0.55640614  0.55872364  1
  O  O167  1  1.06374541  0.55640614  0.89205697  1
  O  O168  1  0.26824104  0.22755122  0.03946367  1
  O  O169  1  0.26824104  0.22755122  0.37279701  1
  O  O170  1  0.26824104  0.22755122  0.70613034  1
  O  O171  1  0.76824104  0.22755122  0.03946367  1
  O  O172  1  0.76824104  0.22755122  0.37279701  1
  O  O173  1  0.76824104  0.22755122  0.70613034  1
  O  O174  1  0.51824104  0.72755122  0.03946367  1
  O  O175  1  0.51824104  0.72755122  0.37279701  1
  O  O176  1  0.51824104  0.72755122  0.70613034  1
  O  O177  1  1.01824104  0.72755122  0.03946367  1
  O  O178  1  1.01824104  0.72755122  0.37279701  1
  O  O179  1  1.01824104  0.72755122  0.70613034  1
  O  O180  1  0.31374541  -0.05640614  0.05872364  1
  O  O181  1  0.31374541  -0.05640614  0.39205697  1
  O  O182  1  0.31374541  -0.05640614  0.72539030  1
  O  O183  1  0.81374541  -0.05640614  0.05872364  1
  O  O184  1  0.81374541  -0.05640614  0.39205697  1
  O  O185  1  0.81374541  -0.05640614  0.72539030  1
  O  O186  1  0.56374541  0.44359386  0.05872364  1
  O  O187  1  0.56374541  0.44359386  0.39205697  1
  O  O188  1  0.56374541  0.44359386  0.72539030  1
  O  O189  1  1.06374541  0.44359386  0.05872364  1
  O  O190  1  1.06374541  0.44359386  0.39205697  1
  O  O191  1  1.06374541  0.44359386  0.72539030  1
  O  O192  1  0.18625459  -0.05640614  0.22539030  1
  O  O193  1  0.18625459  -0.05640614  0.55872364  1
  O  O194  1  0.18625459  -0.05640614  0.89205697  1
  O  O195  1  0.68625459  -0.05640614  0.22539030  1
  O  O196  1  0.68625459  -0.05640614  0.55872364  1
  O  O197  1  0.68625459  -0.05640614  0.89205697  1
  O  O198  1  0.43625459  0.44359386  0.22539030  1
  O  O199  1  0.43625459  0.44359386  0.55872364  1
  O  O200  1  0.43625459  0.44359386  0.89205697  1
  O  O201  1  0.93625459  0.44359386  0.22539030  1
  O  O202  1  0.93625459  0.44359386  0.55872364  1
  O  O203  1  0.93625459  0.44359386  0.89205697  1
  O  O204  1  0.09932488  0.13567303  0.30738508  1
  O  O205  1  0.09932488  0.13567303  0.64071841  1
  O  O206  1  0.09932488  0.13567303  0.97405174  1
  O  O207  1  0.59932488  0.13567303  0.30738508  1
  O  O208  1  0.59932488  0.13567303  0.64071841  1
  O  O209  1  0.59932488  0.13567303  0.97405174  1
  O  O210  1  0.34932488  0.63567303  0.30738508  1
  O  O211  1  0.34932488  0.63567303  0.64071841  1
  O  O212  1  0.34932488  0.63567303  0.97405174  1
  O  O213  1  0.84932488  0.63567303  0.30738508  1
  O  O214  1  0.84932488  0.63567303  0.64071841  1
  O  O215  1  0.84932488  0.63567303  0.97405174  1
  O  O216  1  0.23175896  0.22755122  0.20613034  1
  O  O217  1  0.23175896  0.22755122  0.53946367  1
  O  O218  1  0.23175896  0.22755122  0.87279701  1
  O  O219  1  0.73175896  0.22755122  0.20613034  1
  O  O220  1  0.73175896  0.22755122  0.53946367  1
  O  O221  1  0.73175896  0.22755122  0.87279701  1
  O  O222  1  0.48175896  0.72755122  0.20613034  1
  O  O223  1  0.48175896  0.72755122  0.53946367  1
  O  O224  1  0.48175896  0.72755122  0.87279701  1
  O  O225  1  0.98175896  0.72755122  0.20613034  1
  O  O226  1  0.98175896  0.72755122  0.53946367  1
  O  O227  1  0.98175896  0.72755122  0.87279701  1
  O  O228  1  0.26824104  -0.22755122  0.20613034  1
  O  O229  1  0.26824104  -0.22755122  0.53946367  1
  O  O230  1  0.26824104  -0.22755122  0.87279701  1
  O  O231  1  0.76824104  -0.22755122  0.20613034  1
  O  O232  1  0.76824104  -0.22755122  0.53946367  1
  O  O233  1  0.76824104  -0.22755122  0.87279701  1
  O  O234  1  0.51824104  0.27244878  0.20613034  1
  O  O235  1  0.51824104  0.27244878  0.53946367  1
  O  O236  1  0.51824104  0.27244878  0.87279701  1
  O  O237  1  1.01824104  0.27244878  0.20613034  1
  O  O238  1  1.01824104  0.27244878  0.53946367  1
  O  O239  1  1.01824104  0.27244878  0.87279701  1
  O  O240  1  0.40067512  0.13567303  0.14071841  1
  O  O241  1  0.40067512  0.13567303  0.47405174  1
  O  O242  1  0.40067512  0.13567303  0.80738508  1
  O  O243  1  0.90067512  0.13567303  0.14071841  1
  O  O244  1  0.90067512  0.13567303  0.47405174  1
  O  O245  1  0.90067512  0.13567303  0.80738508  1
  O  O246  1  0.65067512  0.63567303  0.14071841  1
  O  O247  1  0.65067512  0.63567303  0.47405174  1
  O  O248  1  0.65067512  0.63567303  0.80738508  1
  O  O249  1  1.15067512  0.63567303  0.14071841  1
  O  O250  1  1.15067512  0.63567303  0.47405174  1
  O  O251  1  1.15067512  0.63567303  0.80738508  1
  O  O252  1  0.07656184  0.12986284  0.11172561  1
  O  O253  1  0.07656184  0.12986284  0.44505894  1
  O  O254  1  0.07656184  0.12986284  0.77839228  1
  O  O255  1  0.57656184  0.12986284  0.11172561  1
  O  O256  1  0.57656184  0.12986284  0.44505894  1
  O  O257  1  0.57656184  0.12986284  0.77839228  1
  O  O258  1  0.32656184  0.62986284  0.11172561  1
  O  O259  1  0.32656184  0.62986284  0.44505894  1
  O  O260  1  0.32656184  0.62986284  0.77839228  1
  O  O261  1  0.82656184  0.62986284  0.11172561  1
  O  O262  1  0.82656184  0.62986284  0.44505894  1
  O  O263  1  0.82656184  0.62986284  0.77839228  1
  O  O264  1  0.40067512  -0.13567303  0.30738508  1
  O  O265  1  0.40067512  -0.13567303  0.64071841  1
  O  O266  1  0.40067512  -0.13567303  0.97405174  1
  O  O267  1  0.90067512  -0.13567303  0.30738508  1
  O  O268  1  0.90067512  -0.13567303  0.64071841  1
  O  O269  1  0.90067512  -0.13567303  0.97405174  1
  O  O270  1  0.65067512  0.36432697  0.30738508  1
  O  O271  1  0.65067512  0.36432697  0.64071841  1
  O  O272  1  0.65067512  0.36432697  0.97405174  1
  O  O273  1  1.15067512  0.36432697  0.30738508  1
  O  O274  1  1.15067512  0.36432697  0.64071841  1
  O  O275  1  1.15067512  0.36432697  0.97405174  1
  O  O276  1  0.23175896  -0.22755122  0.03946367  1
  O  O277  1  0.23175896  -0.22755122  0.37279701  1
  O  O278  1  0.23175896  -0.22755122  0.70613034  1
  O  O279  1  0.73175896  -0.22755122  0.03946367  1
  O  O280  1  0.73175896  -0.22755122  0.37279701  1
  O  O281  1  0.73175896  -0.22755122  0.70613034  1
  O  O282  1  0.48175896  0.27244878  0.03946367  1
  O  O283  1  0.48175896  0.27244878  0.37279701  1
  O  O284  1  0.48175896  0.27244878  0.70613034  1
  O  O285  1  0.98175896  0.27244878  0.03946367  1
  O  O286  1  0.98175896  0.27244878  0.37279701  1
  O  O287  1  0.98175896  0.27244878  0.70613034  1
  O  O288  1  0.42343816  -0.12986284  0.11172561  1
  O  O289  1  0.42343816  -0.12986284  0.44505894  1
  O  O290  1  0.42343816  -0.12986284  0.77839228  1
  O  O291  1  0.92343816  -0.12986284  0.11172561  1
  O  O292  1  0.92343816  -0.12986284  0.44505894  1
  O  O293  1  0.92343816  -0.12986284  0.77839228  1
  O  O294  1  0.67343816  0.37013716  0.11172561  1
  O  O295  1  0.67343816  0.37013716  0.44505894  1
  O  O296  1  0.67343816  0.37013716  0.77839228  1
  O  O297  1  1.17343816  0.37013716  0.11172561  1
  O  O298  1  1.17343816  0.37013716  0.44505894  1
  O  O299  1  1.17343816  0.37013716  0.77839228  1
  O  O300  1  0.07656184  -0.12986284  0.27839228  1
  O  O301  1  0.07656184  -0.12986284  0.61172561  1
  O  O302  1  0.07656184  -0.12986284  0.94505894  1
  O  O303  1  0.57656184  -0.12986284  0.27839228  1
  O  O304  1  0.57656184  -0.12986284  0.61172561  1
  O  O305  1  0.57656184  -0.12986284  0.94505894  1
  O  O306  1  0.32656184  0.37013716  0.27839228  1
  O  O307  1  0.32656184  0.37013716  0.61172561  1
  O  O308  1  0.32656184  0.37013716  0.94505894  1
  O  O309  1  0.82656184  0.37013716  0.27839228  1
  O  O310  1  0.82656184  0.37013716  0.61172561  1
  O  O311  1  0.82656184  0.37013716  0.94505894  1
  O  O312  1  0.18625459  0.05640614  0.05872364  1
  O  O313  1  0.18625459  0.05640614  0.39205697  1
  O  O314  1  0.18625459  0.05640614  0.72539030  1
  O  O315  1  0.68625459  0.05640614  0.05872364  1
  O  O316  1  0.68625459  0.05640614  0.39205697  1
  O  O317  1  0.68625459  0.05640614  0.72539030  1
  O  O318  1  0.43625459  0.55640614  0.05872364  1
  O  O319  1  0.43625459  0.55640614  0.39205697  1
  O  O320  1  0.43625459  0.55640614  0.72539030  1
  O  O321  1  0.93625459  0.55640614  0.05872364  1
  O  O322  1  0.93625459  0.55640614  0.39205697  1
  O  O323  1  0.93625459  0.55640614  0.72539030  1
  O  O324  1  0.09932488  -0.13567303  0.14071841  1
  O  O325  1  0.09932488  -0.13567303  0.47405174  1
  O  O326  1  0.09932488  -0.13567303  0.80738508  1
  O  O327  1  0.59932488  -0.13567303  0.14071841  1
  O  O328  1  0.59932488  -0.13567303  0.47405174  1
  O  O329  1  0.59932488  -0.13567303  0.80738508  1
  O  O330  1  0.34932488  0.36432697  0.14071841  1
  O  O331  1  0.34932488  0.36432697  0.47405174  1
  O  O332  1  0.34932488  0.36432697  0.80738508  1
  O  O333  1  0.84932488  0.36432697  0.14071841  1
  O  O334  1  0.84932488  0.36432697  0.47405174  1
  O  O335  1  0.84932488  0.36432697  0.80738508  1
