# generated using pymatgen
data_LiScO2
_symmetry_space_group_name_H-M   'P 1'
_cell_length_a   8.33218463
_cell_length_b   8.33218463
_cell_length_c   9.16624111
_cell_angle_alpha   90.00000000
_cell_angle_beta   90.00000000
_cell_angle_gamma   90.00000000
_symmetry_Int_Tables_number   1
_chemical_formula_structural   LiScO2
_chemical_formula_sum   'Li16 Sc16 O32'
_cell_volume   636.36904487
_cell_formula_units_Z   16
loop_
 _symmetry_equiv_pos_site_id
 _symmetry_equiv_pos_as_xyz
  1  'x, y, z'
loop_
 _atom_site_type_symbol
 _atom_site_label
 _atom_site_symmetry_multiplicity
 _atom_site_fract_x
 _atom_site_fract_y
 _atom_site_fract_z
 _atom_site_occupancy
  Li  Li0  1  -0.00000000  0.50000000  0.00000000  1
  Li  Li1  1  0.50000000  0.50000000  0.00000000  1
  Li  Li2  1  -0.00000000  0.00000000  0.00000000  1
  Li  Li3  1  0.50000000  0.00000000  0.00000000  1
  Li  Li4  1  0.25000000  0.25000000  0.50000000  1
  Li  Li5  1  0.75000000  0.25000000  0.50000000  1
  Li  Li6  1  0.25000000  -0.25000000  0.50000000  1
  Li  Li7  1  0.75000000  -0.25000000  0.50000000  1
  Li  Li8  1  0.25000000  0.50000000  0.25000000  1
  Li  Li9  1  0.75000000  0.50000000  0.25000000  1
  Li  Li10  1  0.25000000  0.00000000  0.25000000  1
  Li  Li11  1  0.75000000  0.00000000  0.25000000  1
  Li  Li12  1  0.50000000  0.25000000  0.75000000  1
  Li  Li13  1  1.00000000  0.25000000  0.75000000  1
  Li  Li14  1  0.50000000  -0.25000000  0.75000000  1
  Li  Li15  1  1.00000000  -0.25000000  0.75000000  1
  Sc  Sc16  1  -0.00000000  0.25000000  0.25000000  1
  Sc  Sc17  1  0.50000000  0.25000000  0.25000000  1
  Sc  Sc18  1  -0.00000000  -0.25000000  0.25000000  1
  Sc  Sc19  1  0.50000000  -0.25000000  0.25000000  1
  Sc  Sc20  1  0.25000000  0.00000000  0.75000000  1
  Sc  Sc21  1  0.75000000  0.00000000  0.75000000  1
  Sc  Sc22  1  0.25000000  -0.50000000  0.75000000  1
  Sc  Sc23  1  0.75000000  -0.50000000  0.75000000  1
  Sc  Sc24  1  -0.00000000  0.50000000  0.50000000  1
  Sc  Sc25  1  0.50000000  0.50000000  0.50000000  1
  Sc  Sc26  1  -0.00000000  0.00000000  0.50000000  1
  Sc  Sc27  1  0.50000000  0.00000000  0.50000000  1
  Sc  Sc28  1  0.25000000  0.25000000  1.00000000  1
  Sc  Sc29  1  0.75000000  0.25000000  1.00000000  1
  Sc  Sc30  1  0.25000000  -0.25000000  1.00000000  1
  Sc  Sc31  1  0.75000000  -0.25000000  1.00000000  1
  O  O32  1  -0.00000000  0.50000000  0.27025411  1
  O  O33  1  0.50000000  0.50000000  0.27025411  1
  O  O34  1  -0.00000000  0.00000000  0.27025411  1
  O  O35  1  0.50000000  0.00000000  0.27025411  1
  O  O36  1  0.25000000  0.25000000  0.77025411  1
  O  O37  1  0.75000000  0.25000000  0.77025411  1
  O  O38  1  0.25000000  -0.25000000  0.77025411  1
  O  O39  1  0.75000000  -0.25000000  0.77025411  1
  O  O40  1  -0.00000000  0.25000000  0.02025411  1
  O  O41  1  0.50000000  0.25000000  0.02025411  1
  O  O42  1  -0.00000000  -0.25000000  0.02025411  1
  O  O43  1  0.50000000  -0.25000000  0.02025411  1
  O  O44  1  0.25000000  0.00000000  0.52025411  1
  O  O45  1  0.75000000  0.00000000  0.52025411  1
  O  O46  1  0.25000000  -0.50000000  0.52025411  1
  O  O47  1  0.75000000  -0.50000000  0.52025411  1
  O  O48  1  -0.00000000  0.50000000  0.72974589  1
  O  O49  1  0.50000000  0.50000000  0.72974589  1
  O  O50  1  -0.00000000  0.00000000  0.72974589  1
  O  O51  1  0.50000000  0.00000000  0.72974589  1
  O  O52  1  0.25000000  0.25000000  1.22974589  1
  O  O53  1  0.75000000  0.25000000  1.22974589  1
  O  O54  1  0.25000000  -0.25000000  1.22974589  1
  O  O55  1  0.75000000  -0.25000000  1.22974589  1
  O  O56  1  -0.00000000  0.25000000  0.47974589  1
  O  O57  1  0.50000000  0.25000000  0.47974589  1
  O  O58  1  -0.00000000  -0.25000000  0.47974589  1
  O  O59  1  0.50000000  -0.25000000  0.47974589  1
  O  O60  1  0.25000000  0.00000000  0.97974589  1
  O  O61  1  0.75000000  0.00000000  0.97974589  1
  O  O62  1  0.25000000  -0.50000000  0.97974589  1
  O  O63  1  0.75000000  -0.50000000  0.97974589  1
