# generated using pymatgen
data_NaYGeO4
_symmetry_space_group_name_H-M   'P 1'
_cell_length_a   11.41050685
_cell_length_b   12.83292289
_cell_length_c   10.53108975
_cell_angle_alpha   90.00000000
_cell_angle_beta   90.00000000
_cell_angle_gamma   90.00000000
_symmetry_Int_Tables_number   1
_chemical_formula_structural   NaYGeO4
_chemical_formula_sum   'Na16 Y16 Ge16 O64'
_cell_volume   1542.06910046
_cell_formula_units_Z   16
loop_
 _symmetry_equiv_pos_site_id
 _symmetry_equiv_pos_as_xyz
  1  'x, y, z'
loop_
 _atom_site_type_symbol
 _atom_site_label
 _atom_site_symmetry_multiplicity
 _atom_site_fract_x
 _atom_site_fract_y
 _atom_site_fract_z
 _atom_site_occupancy
  Na  Na0  1  0.00000000  0.00000000  0.00000000  1
  Na  Na1  1  0.00000000  0.00000000  0.50000000  1
  Na  Na2  1  0.00000000  0.50000000  0.00000000  1
  Na  Na3  1  0.00000000  0.50000000  0.50000000  1
  Na  Na4  1  0.00000000  0.25000000  0.00000000  1
  Na  Na5  1  0.00000000  0.25000000  0.50000000  1
  Na  Na6  1  0.00000000  0.75000000  0.00000000  1
  Na  Na7  1  0.00000000  0.75000000  0.50000000  1
  Na  Na8  1  0.50000000  0.00000000  0.25000000  1
  Na  Na9  1  0.50000000  0.00000000  0.75000000  1
  Na  Na10  1  0.50000000  0.50000000  0.25000000  1
  Na  Na11  1  0.50000000  0.50000000  0.75000000  1
  Na  Na12  1  0.50000000  0.25000000  0.25000000  1
  Na  Na13  1  0.50000000  0.25000000  0.75000000  1
  Na  Na14  1  0.50000000  0.75000000  0.25000000  1
  Na  Na15  1  0.50000000  0.75000000  0.75000000  1
  Y  Y16  1  0.72334021  0.37500000  0.00223934  1
  Y  Y17  1  0.72334021  0.37500000  0.50223934  1
  Y  Y18  1  0.72334021  0.87500000  0.00223934  1
  Y  Y19  1  0.72334021  0.87500000  0.50223934  1
  Y  Y20  1  0.27665979  0.12500000  0.49776066  1
  Y  Y21  1  0.27665979  0.12500000  0.99776066  1
  Y  Y22  1  0.27665979  0.62500000  0.49776066  1
  Y  Y23  1  0.27665979  0.62500000  0.99776066  1
  Y  Y24  1  0.22334021  0.37500000  0.24776066  1
  Y  Y25  1  0.22334021  0.37500000  0.74776066  1
  Y  Y26  1  0.22334021  0.87500000  0.24776066  1
  Y  Y27  1  0.22334021  0.87500000  0.74776066  1
  Y  Y28  1  0.77665979  0.12500000  0.25223934  1
  Y  Y29  1  0.77665979  0.12500000  0.75223934  1
  Y  Y30  1  0.77665979  0.62500000  0.25223934  1
  Y  Y31  1  0.77665979  0.62500000  0.75223934  1
  Ge  Ge32  1  0.59568998  0.12500000  0.47286795  1
  Ge  Ge33  1  0.59568998  0.12500000  0.97286795  1
  Ge  Ge34  1  0.59568998  0.62500000  0.47286795  1
  Ge  Ge35  1  0.59568998  0.62500000  0.97286795  1
  Ge  Ge36  1  0.09568998  0.12500000  0.27713205  1
  Ge  Ge37  1  0.09568998  0.12500000  0.77713205  1
  Ge  Ge38  1  0.09568998  0.62500000  0.27713205  1
  Ge  Ge39  1  0.09568998  0.62500000  0.77713205  1
  Ge  Ge40  1  0.40431002  0.37500000  0.02713205  1
  Ge  Ge41  1  0.40431002  0.37500000  0.52713205  1
  Ge  Ge42  1  0.40431002  0.87500000  0.02713205  1
  Ge  Ge43  1  0.40431002  0.87500000  0.52713205  1
  Ge  Ge44  1  0.90431002  0.37500000  0.22286795  1
  Ge  Ge45  1  0.90431002  0.37500000  0.72286795  1
  Ge  Ge46  1  0.90431002  0.87500000  0.22286795  1
  Ge  Ge47  1  0.90431002  0.87500000  0.72286795  1
  O  O48  1  0.67357349  0.23040169  0.39432795  1
  O  O49  1  0.67357349  0.23040169  0.89432795  1
  O  O50  1  0.67357349  0.73040169  0.39432795  1
  O  O51  1  0.67357349  0.73040169  0.89432795  1
  O  O52  1  0.82642651  0.26959831  0.14432795  1
  O  O53  1  0.82642651  0.26959831  0.64432795  1
  O  O54  1  0.82642651  0.76959831  0.14432795  1
  O  O55  1  0.82642651  0.76959831  0.64432795  1
  O  O56  1  0.32642651  0.48040169  0.10567205  1
  O  O57  1  0.32642651  0.48040169  0.60567205  1
  O  O58  1  0.32642651  0.98040169  0.10567205  1
  O  O59  1  0.32642651  0.98040169  0.60567205  1
  O  O60  1  0.17357349  0.01959831  0.35567205  1
  O  O61  1  0.17357349  0.01959831  0.85567205  1
  O  O62  1  0.17357349  0.51959831  0.35567205  1
  O  O63  1  0.17357349  0.51959831  0.85567205  1
  O  O64  1  0.32642651  0.26959831  0.10567205  1
  O  O65  1  0.32642651  0.26959831  0.60567205  1
  O  O66  1  0.32642651  0.76959831  0.10567205  1
  O  O67  1  0.32642651  0.76959831  0.60567205  1
  O  O68  1  0.17357349  0.23040169  0.35567205  1
  O  O69  1  0.17357349  0.23040169  0.85567205  1
  O  O70  1  0.17357349  0.73040169  0.35567205  1
  O  O71  1  0.17357349  0.73040169  0.85567205  1
  O  O72  1  0.67357349  0.01959831  0.39432795  1
  O  O73  1  0.67357349  0.01959831  0.89432795  1
  O  O74  1  0.67357349  0.51959831  0.39432795  1
  O  O75  1  0.67357349  0.51959831  0.89432795  1
  O  O76  1  0.82642651  0.48040169  0.14432795  1
  O  O77  1  0.82642651  0.48040169  0.64432795  1
  O  O78  1  0.82642651  0.98040169  0.14432795  1
  O  O79  1  0.82642651  0.98040169  0.64432795  1
  O  O80  1  0.54835464  0.37500000  0.09058272  1
  O  O81  1  0.54835464  0.37500000  0.59058272  1
  O  O82  1  0.54835464  0.87500000  0.09058272  1
  O  O83  1  0.54835464  0.87500000  0.59058272  1
  O  O84  1  0.95164536  0.12500000  0.34058272  1
  O  O85  1  0.95164536  0.12500000  0.84058272  1
  O  O86  1  0.95164536  0.62500000  0.34058272  1
  O  O87  1  0.95164536  0.62500000  0.84058272  1
  O  O88  1  0.45164536  0.12500000  0.40941728  1
  O  O89  1  0.45164536  0.12500000  0.90941728  1
  O  O90  1  0.45164536  0.62500000  0.40941728  1
  O  O91  1  0.45164536  0.62500000  0.90941728  1
  O  O92  1  0.04835464  0.37500000  0.15941728  1
  O  O93  1  0.04835464  0.37500000  0.65941728  1
  O  O94  1  0.04835464  0.87500000  0.15941728  1
  O  O95  1  0.04835464  0.87500000  0.65941728  1
  O  O96  1  0.39171861  0.37500000  0.36069043  1
  O  O97  1  0.39171861  0.37500000  0.86069043  1
  O  O98  1  0.39171861  0.87500000  0.36069043  1
  O  O99  1  0.39171861  0.87500000  0.86069043  1
  O  O100  1  0.10828139  0.12500000  0.11069043  1
  O  O101  1  0.10828139  0.12500000  0.61069043  1
  O  O102  1  0.10828139  0.62500000  0.11069043  1
  O  O103  1  0.10828139  0.62500000  0.61069043  1
  O  O104  1  0.60828139  0.12500000  0.13930957  1
  O  O105  1  0.60828139  0.12500000  0.63930957  1
  O  O106  1  0.60828139  0.62500000  0.13930957  1
  O  O107  1  0.60828139  0.62500000  0.63930957  1
  O  O108  1  0.89171861  0.37500000  0.38930957  1
  O  O109  1  0.89171861  0.37500000  0.88930957  1
  O  O110  1  0.89171861  0.87500000  0.38930957  1
  O  O111  1  0.89171861  0.87500000  0.88930957  1
