# generated using pymatgen
data_TaTlWO6
_symmetry_space_group_name_H-M   'P 1'
_cell_length_a   22.11824146
_cell_length_b   20.54449770
_cell_length_c   14.95397505
_cell_angle_alpha   90.00000000
_cell_angle_beta   90.00000000
_cell_angle_gamma   90.00000000
_symmetry_Int_Tables_number   1
_chemical_formula_structural   TaTlWO6
_chemical_formula_sum   'Ta48 Tl48 W48 O288'
_cell_volume   6795.20830107
_cell_formula_units_Z   48
loop_
 _symmetry_equiv_pos_site_id
 _symmetry_equiv_pos_as_xyz
  1  'x, y, z'
loop_
 _atom_site_type_symbol
 _atom_site_label
 _atom_site_symmetry_multiplicity
 _atom_site_fract_x
 _atom_site_fract_y
 _atom_site_fract_z
 _atom_site_occupancy
  Ta  Ta0  1  0.00000000  0.25000000  0.24801067  1
  Ta  Ta1  1  0.00000000  0.25000000  0.74801067  1
  Ta  Ta2  1  0.00000000  0.75000000  0.24801067  1
  Ta  Ta3  1  0.00000000  0.75000000  0.74801067  1
  Ta  Ta4  1  0.33333333  0.25000000  0.24801067  1
  Ta  Ta5  1  0.33333333  0.25000000  0.74801067  1
  Ta  Ta6  1  0.33333333  0.75000000  0.24801067  1
  Ta  Ta7  1  0.33333333  0.75000000  0.74801067  1
  Ta  Ta8  1  0.66666667  0.25000000  0.24801067  1
  Ta  Ta9  1  0.66666667  0.25000000  0.74801067  1
  Ta  Ta10  1  0.66666667  0.75000000  0.24801067  1
  Ta  Ta11  1  0.66666667  0.75000000  0.74801067  1
  Ta  Ta12  1  0.16666667  0.50000000  0.49801067  1
  Ta  Ta13  1  0.16666667  0.50000000  0.99801067  1
  Ta  Ta14  1  0.16666667  1.00000000  0.49801067  1
  Ta  Ta15  1  0.16666667  1.00000000  0.99801067  1
  Ta  Ta16  1  0.50000000  0.50000000  0.49801067  1
  Ta  Ta17  1  0.50000000  0.50000000  0.99801067  1
  Ta  Ta18  1  0.50000000  1.00000000  0.49801067  1
  Ta  Ta19  1  0.50000000  1.00000000  0.99801067  1
  Ta  Ta20  1  0.83333333  0.50000000  0.49801067  1
  Ta  Ta21  1  0.83333333  0.50000000  0.99801067  1
  Ta  Ta22  1  0.83333333  1.00000000  0.49801067  1
  Ta  Ta23  1  0.83333333  1.00000000  0.99801067  1
  Ta  Ta24  1  -0.00000000  0.00000000  0.49801067  1
  Ta  Ta25  1  -0.00000000  0.00000000  0.99801067  1
  Ta  Ta26  1  -0.00000000  0.50000000  0.49801067  1
  Ta  Ta27  1  -0.00000000  0.50000000  0.99801067  1
  Ta  Ta28  1  0.33333333  0.00000000  0.49801067  1
  Ta  Ta29  1  0.33333333  0.00000000  0.99801067  1
  Ta  Ta30  1  0.33333333  0.50000000  0.49801067  1
  Ta  Ta31  1  0.33333333  0.50000000  0.99801067  1
  Ta  Ta32  1  0.66666667  0.00000000  0.49801067  1
  Ta  Ta33  1  0.66666667  0.00000000  0.99801067  1
  Ta  Ta34  1  0.66666667  0.50000000  0.49801067  1
  Ta  Ta35  1  0.66666667  0.50000000  0.99801067  1
  Ta  Ta36  1  0.16666667  0.25000000  0.74801067  1
  Ta  Ta37  1  0.16666667  0.25000000  1.24801067  1
  Ta  Ta38  1  0.16666667  0.75000000  0.74801067  1
  Ta  Ta39  1  0.16666667  0.75000000  1.24801067  1
  Ta  Ta40  1  0.50000000  0.25000000  0.74801067  1
  Ta  Ta41  1  0.50000000  0.25000000  1.24801067  1
  Ta  Ta42  1  0.50000000  0.75000000  0.74801067  1
  Ta  Ta43  1  0.50000000  0.75000000  1.24801067  1
  Ta  Ta44  1  0.83333333  0.25000000  0.74801067  1
  Ta  Ta45  1  0.83333333  0.25000000  1.24801067  1
  Ta  Ta46  1  0.83333333  0.75000000  0.74801067  1
  Ta  Ta47  1  0.83333333  0.75000000  1.24801067  1
  Tl  Tl48  1  0.08333333  0.08143380  0.31089902  1
  Tl  Tl49  1  0.08333333  0.08143380  0.81089902  1
  Tl  Tl50  1  0.08333333  0.58143380  0.31089902  1
  Tl  Tl51  1  0.08333333  0.58143380  0.81089902  1
  Tl  Tl52  1  0.41666667  0.08143380  0.31089902  1
  Tl  Tl53  1  0.41666667  0.08143380  0.81089902  1
  Tl  Tl54  1  0.41666667  0.58143380  0.31089902  1
  Tl  Tl55  1  0.41666667  0.58143380  0.81089902  1
  Tl  Tl56  1  0.75000000  0.08143380  0.31089902  1
  Tl  Tl57  1  0.75000000  0.08143380  0.81089902  1
  Tl  Tl58  1  0.75000000  0.58143380  0.31089902  1
  Tl  Tl59  1  0.75000000  0.58143380  0.81089902  1
  Tl  Tl60  1  0.25000000  0.33143380  0.56089902  1
  Tl  Tl61  1  0.25000000  0.33143380  1.06089902  1
  Tl  Tl62  1  0.25000000  0.83143380  0.56089902  1
  Tl  Tl63  1  0.25000000  0.83143380  1.06089902  1
  Tl  Tl64  1  0.58333333  0.33143380  0.56089902  1
  Tl  Tl65  1  0.58333333  0.33143380  1.06089902  1
  Tl  Tl66  1  0.58333333  0.83143380  0.56089902  1
  Tl  Tl67  1  0.58333333  0.83143380  1.06089902  1
  Tl  Tl68  1  0.91666667  0.33143380  0.56089902  1
  Tl  Tl69  1  0.91666667  0.33143380  1.06089902  1
  Tl  Tl70  1  0.91666667  0.83143380  0.56089902  1
  Tl  Tl71  1  0.91666667  0.83143380  1.06089902  1
  Tl  Tl72  1  0.08333333  0.16856620  0.06089902  1
  Tl  Tl73  1  0.08333333  0.16856620  0.56089902  1
  Tl  Tl74  1  0.08333333  0.66856620  0.06089902  1
  Tl  Tl75  1  0.08333333  0.66856620  0.56089902  1
  Tl  Tl76  1  0.41666667  0.16856620  0.06089902  1
  Tl  Tl77  1  0.41666667  0.16856620  0.56089902  1
  Tl  Tl78  1  0.41666667  0.66856620  0.06089902  1
  Tl  Tl79  1  0.41666667  0.66856620  0.56089902  1
  Tl  Tl80  1  0.75000000  0.16856620  0.06089902  1
  Tl  Tl81  1  0.75000000  0.16856620  0.56089902  1
  Tl  Tl82  1  0.75000000  0.66856620  0.06089902  1
  Tl  Tl83  1  0.75000000  0.66856620  0.56089902  1
  Tl  Tl84  1  0.25000000  0.41856620  0.31089902  1
  Tl  Tl85  1  0.25000000  0.41856620  0.81089902  1
  Tl  Tl86  1  0.25000000  0.91856620  0.31089902  1
  Tl  Tl87  1  0.25000000  0.91856620  0.81089902  1
  Tl  Tl88  1  0.58333333  0.41856620  0.31089902  1
  Tl  Tl89  1  0.58333333  0.41856620  0.81089902  1
  Tl  Tl90  1  0.58333333  0.91856620  0.31089902  1
  Tl  Tl91  1  0.58333333  0.91856620  0.81089902  1
  Tl  Tl92  1  0.91666667  0.41856620  0.31089902  1
  Tl  Tl93  1  0.91666667  0.41856620  0.81089902  1
  Tl  Tl94  1  0.91666667  0.91856620  0.31089902  1
  Tl  Tl95  1  0.91666667  0.91856620  0.81089902  1
  W  W96  1  0.08333333  0.37195039  -0.11553057  1
  W  W97  1  0.08333333  0.37195039  0.38446943  1
  W  W98  1  0.08333333  0.87195039  -0.11553057  1
  W  W99  1  0.08333333  0.87195039  0.38446943  1
  W  W100  1  0.41666667  0.37195039  -0.11553057  1
  W  W101  1  0.41666667  0.37195039  0.38446943  1
  W  W102  1  0.41666667  0.87195039  -0.11553057  1
  W  W103  1  0.41666667  0.87195039  0.38446943  1
  W  W104  1  0.75000000  0.37195039  -0.11553057  1
  W  W105  1  0.75000000  0.37195039  0.38446943  1
  W  W106  1  0.75000000  0.87195039  -0.11553057  1
  W  W107  1  0.75000000  0.87195039  0.38446943  1
  W  W108  1  0.25000000  0.62195039  0.13446943  1
  W  W109  1  0.25000000  0.62195039  0.63446943  1
  W  W110  1  0.25000000  1.12195039  0.13446943  1
  W  W111  1  0.25000000  1.12195039  0.63446943  1
  W  W112  1  0.58333333  0.62195039  0.13446943  1
  W  W113  1  0.58333333  0.62195039  0.63446943  1
  W  W114  1  0.58333333  1.12195039  0.13446943  1
  W  W115  1  0.58333333  1.12195039  0.63446943  1
  W  W116  1  0.91666667  0.62195039  0.13446943  1
  W  W117  1  0.91666667  0.62195039  0.63446943  1
  W  W118  1  0.91666667  1.12195039  0.13446943  1
  W  W119  1  0.91666667  1.12195039  0.63446943  1
  W  W120  1  0.08333333  -0.12195039  0.13446943  1
  W  W121  1  0.08333333  -0.12195039  0.63446943  1
  W  W122  1  0.08333333  0.37804961  0.13446943  1
  W  W123  1  0.08333333  0.37804961  0.63446943  1
  W  W124  1  0.41666667  -0.12195039  0.13446943  1
  W  W125  1  0.41666667  -0.12195039  0.63446943  1
  W  W126  1  0.41666667  0.37804961  0.13446943  1
  W  W127  1  0.41666667  0.37804961  0.63446943  1
  W  W128  1  0.75000000  -0.12195039  0.13446943  1
  W  W129  1  0.75000000  -0.12195039  0.63446943  1
  W  W130  1  0.75000000  0.37804961  0.13446943  1
  W  W131  1  0.75000000  0.37804961  0.63446943  1
  W  W132  1  0.25000000  0.12804961  0.38446943  1
  W  W133  1  0.25000000  0.12804961  0.88446943  1
  W  W134  1  0.25000000  0.62804961  0.38446943  1
  W  W135  1  0.25000000  0.62804961  0.88446943  1
  W  W136  1  0.58333333  0.12804961  0.38446943  1
  W  W137  1  0.58333333  0.12804961  0.88446943  1
  W  W138  1  0.58333333  0.62804961  0.38446943  1
  W  W139  1  0.58333333  0.62804961  0.88446943  1
  W  W140  1  0.91666667  0.12804961  0.38446943  1
  W  W141  1  0.91666667  0.12804961  0.88446943  1
  W  W142  1  0.91666667  0.62804961  0.38446943  1
  W  W143  1  0.91666667  0.62804961  0.88446943  1
  O  O144  1  0.08333333  0.34347203  -0.00253872  1
  O  O145  1  0.08333333  0.34347203  0.49746128  1
  O  O146  1  0.08333333  0.84347203  -0.00253872  1
  O  O147  1  0.08333333  0.84347203  0.49746128  1
  O  O148  1  0.41666667  0.34347203  -0.00253872  1
  O  O149  1  0.41666667  0.34347203  0.49746128  1
  O  O150  1  0.41666667  0.84347203  -0.00253872  1
  O  O151  1  0.41666667  0.84347203  0.49746128  1
  O  O152  1  0.75000000  0.34347203  -0.00253872  1
  O  O153  1  0.75000000  0.34347203  0.49746128  1
  O  O154  1  0.75000000  0.84347203  -0.00253872  1
  O  O155  1  0.75000000  0.84347203  0.49746128  1
  O  O156  1  0.25000000  0.59347203  0.24746128  1
  O  O157  1  0.25000000  0.59347203  0.74746128  1
  O  O158  1  0.25000000  1.09347203  0.24746128  1
  O  O159  1  0.25000000  1.09347203  0.74746128  1
  O  O160  1  0.58333333  0.59347203  0.24746128  1
  O  O161  1  0.58333333  0.59347203  0.74746128  1
  O  O162  1  0.58333333  1.09347203  0.24746128  1
  O  O163  1  0.58333333  1.09347203  0.74746128  1
  O  O164  1  0.91666667  0.59347203  0.24746128  1
  O  O165  1  0.91666667  0.59347203  0.74746128  1
  O  O166  1  0.91666667  1.09347203  0.24746128  1
  O  O167  1  0.91666667  1.09347203  0.74746128  1
  O  O168  1  0.08333333  0.03339393  -0.01048766  1
  O  O169  1  0.08333333  0.03339393  0.48951234  1
  O  O170  1  0.08333333  0.53339393  -0.01048766  1
  O  O171  1  0.08333333  0.53339393  0.48951234  1
  O  O172  1  0.41666667  0.03339393  -0.01048766  1
  O  O173  1  0.41666667  0.03339393  0.48951234  1
  O  O174  1  0.41666667  0.53339393  -0.01048766  1
  O  O175  1  0.41666667  0.53339393  0.48951234  1
  O  O176  1  0.75000000  0.03339393  -0.01048766  1
  O  O177  1  0.75000000  0.03339393  0.48951234  1
  O  O178  1  0.75000000  0.53339393  -0.01048766  1
  O  O179  1  0.75000000  0.53339393  0.48951234  1
  O  O180  1  0.25000000  0.28339393  0.23951234  1
  O  O181  1  0.25000000  0.28339393  0.73951234  1
  O  O182  1  0.25000000  0.78339393  0.23951234  1
  O  O183  1  0.25000000  0.78339393  0.73951234  1
  O  O184  1  0.58333333  0.28339393  0.23951234  1
  O  O185  1  0.58333333  0.28339393  0.73951234  1
  O  O186  1  0.58333333  0.78339393  0.23951234  1
  O  O187  1  0.58333333  0.78339393  0.73951234  1
  O  O188  1  0.91666667  0.28339393  0.23951234  1
  O  O189  1  0.91666667  0.28339393  0.73951234  1
  O  O190  1  0.91666667  0.78339393  0.23951234  1
  O  O191  1  0.91666667  0.78339393  0.73951234  1
  O  O192  1  0.18964579  0.18576632  -0.16268377  1
  O  O193  1  0.18964579  0.18576632  0.33731623  1
  O  O194  1  0.18964579  0.68576632  -0.16268377  1
  O  O195  1  0.18964579  0.68576632  0.33731623  1
  O  O196  1  0.52297912  0.18576632  -0.16268377  1
  O  O197  1  0.52297912  0.18576632  0.33731623  1
  O  O198  1  0.52297912  0.68576632  -0.16268377  1
  O  O199  1  0.52297912  0.68576632  0.33731623  1
  O  O200  1  0.85631245  0.18576632  -0.16268377  1
  O  O201  1  0.85631245  0.18576632  0.33731623  1
  O  O202  1  0.85631245  0.68576632  -0.16268377  1
  O  O203  1  0.85631245  0.68576632  0.33731623  1
  O  O204  1  0.35631245  0.43576632  0.08731623  1
  O  O205  1  0.35631245  0.43576632  0.58731623  1
  O  O206  1  0.35631245  0.93576632  0.08731623  1
  O  O207  1  0.35631245  0.93576632  0.58731623  1
  O  O208  1  0.68964579  0.43576632  0.08731623  1
  O  O209  1  0.68964579  0.43576632  0.58731623  1
  O  O210  1  0.68964579  0.93576632  0.08731623  1
  O  O211  1  0.68964579  0.93576632  0.58731623  1
  O  O212  1  1.02297912  0.43576632  0.08731623  1
  O  O213  1  1.02297912  0.43576632  0.58731623  1
  O  O214  1  1.02297912  0.93576632  0.08731623  1
  O  O215  1  1.02297912  0.93576632  0.58731623  1
  O  O216  1  -0.02270502  0.18595743  0.15150740  1
  O  O217  1  -0.02270502  0.18595743  0.65150740  1
  O  O218  1  -0.02270502  0.68595743  0.15150740  1
  O  O219  1  -0.02270502  0.68595743  0.65150740  1
  O  O220  1  0.31062832  0.18595743  0.15150740  1
  O  O221  1  0.31062832  0.18595743  0.65150740  1
  O  O222  1  0.31062832  0.68595743  0.15150740  1
  O  O223  1  0.31062832  0.68595743  0.65150740  1
  O  O224  1  0.64396165  0.18595743  0.15150740  1
  O  O225  1  0.64396165  0.18595743  0.65150740  1
  O  O226  1  0.64396165  0.68595743  0.15150740  1
  O  O227  1  0.64396165  0.68595743  0.65150740  1
  O  O228  1  0.14396165  0.43595743  0.40150740  1
  O  O229  1  0.14396165  0.43595743  0.90150740  1
  O  O230  1  0.14396165  0.93595743  0.40150740  1
  O  O231  1  0.14396165  0.93595743  0.90150740  1
  O  O232  1  0.47729498  0.43595743  0.40150740  1
  O  O233  1  0.47729498  0.43595743  0.90150740  1
  O  O234  1  0.47729498  0.93595743  0.40150740  1
  O  O235  1  0.47729498  0.93595743  0.90150740  1
  O  O236  1  0.81062832  0.43595743  0.40150740  1
  O  O237  1  0.81062832  0.43595743  0.90150740  1
  O  O238  1  0.81062832  0.93595743  0.40150740  1
  O  O239  1  0.81062832  0.93595743  0.90150740  1
  O  O240  1  0.14368755  -0.06423368  0.08731623  1
  O  O241  1  0.14368755  -0.06423368  0.58731623  1
  O  O242  1  0.14368755  0.43576632  0.08731623  1
  O  O243  1  0.14368755  0.43576632  0.58731623  1
  O  O244  1  0.47702088  -0.06423368  0.08731623  1
  O  O245  1  0.47702088  -0.06423368  0.58731623  1
  O  O246  1  0.47702088  0.43576632  0.08731623  1
  O  O247  1  0.47702088  0.43576632  0.58731623  1
  O  O248  1  0.81035421  -0.06423368  0.08731623  1
  O  O249  1  0.81035421  -0.06423368  0.58731623  1
  O  O250  1  0.81035421  0.43576632  0.08731623  1
  O  O251  1  0.81035421  0.43576632  0.58731623  1
  O  O252  1  0.31035421  0.18576632  0.33731623  1
  O  O253  1  0.31035421  0.18576632  0.83731623  1
  O  O254  1  0.31035421  0.68576632  0.33731623  1
  O  O255  1  0.31035421  0.68576632  0.83731623  1
  O  O256  1  0.64368755  0.18576632  0.33731623  1
  O  O257  1  0.64368755  0.18576632  0.83731623  1
  O  O258  1  0.64368755  0.68576632  0.33731623  1
  O  O259  1  0.64368755  0.68576632  0.83731623  1
  O  O260  1  0.97702088  0.18576632  0.33731623  1
  O  O261  1  0.97702088  0.18576632  0.83731623  1
  O  O262  1  0.97702088  0.68576632  0.33731623  1
  O  O263  1  0.97702088  0.68576632  0.83731623  1
  O  O264  1  0.18937168  0.18595743  0.15150740  1
  O  O265  1  0.18937168  0.18595743  0.65150740  1
  O  O266  1  0.18937168  0.68595743  0.15150740  1
  O  O267  1  0.18937168  0.68595743  0.65150740  1
  O  O268  1  0.52270502  0.18595743  0.15150740  1
  O  O269  1  0.52270502  0.18595743  0.65150740  1
  O  O270  1  0.52270502  0.68595743  0.15150740  1
  O  O271  1  0.52270502  0.68595743  0.65150740  1
  O  O272  1  0.85603835  0.18595743  0.15150740  1
  O  O273  1  0.85603835  0.18595743  0.65150740  1
  O  O274  1  0.85603835  0.68595743  0.15150740  1
  O  O275  1  0.85603835  0.68595743  0.65150740  1
  O  O276  1  0.35603835  0.43595743  0.40150740  1
  O  O277  1  0.35603835  0.43595743  0.90150740  1
  O  O278  1  0.35603835  0.93595743  0.40150740  1
  O  O279  1  0.35603835  0.93595743  0.90150740  1
  O  O280  1  0.68937168  0.43595743  0.40150740  1
  O  O281  1  0.68937168  0.43595743  0.90150740  1
  O  O282  1  0.68937168  0.93595743  0.40150740  1
  O  O283  1  0.68937168  0.93595743  0.90150740  1
  O  O284  1  1.02270502  0.43595743  0.40150740  1
  O  O285  1  1.02270502  0.43595743  0.90150740  1
  O  O286  1  1.02270502  0.93595743  0.40150740  1
  O  O287  1  1.02270502  0.93595743  0.90150740  1
  O  O288  1  0.08333333  -0.09347203  0.24746128  1
  O  O289  1  0.08333333  -0.09347203  0.74746128  1
  O  O290  1  0.08333333  0.40652797  0.24746128  1
  O  O291  1  0.08333333  0.40652797  0.74746128  1
  O  O292  1  0.41666667  -0.09347203  0.24746128  1
  O  O293  1  0.41666667  -0.09347203  0.74746128  1
  O  O294  1  0.41666667  0.40652797  0.24746128  1
  O  O295  1  0.41666667  0.40652797  0.74746128  1
  O  O296  1  0.75000000  -0.09347203  0.24746128  1
  O  O297  1  0.75000000  -0.09347203  0.74746128  1
  O  O298  1  0.75000000  0.40652797  0.24746128  1
  O  O299  1  0.75000000  0.40652797  0.74746128  1
  O  O300  1  0.25000000  0.15652797  0.49746128  1
  O  O301  1  0.25000000  0.15652797  0.99746128  1
  O  O302  1  0.25000000  0.65652797  0.49746128  1
  O  O303  1  0.25000000  0.65652797  0.99746128  1
  O  O304  1  0.58333333  0.15652797  0.49746128  1
  O  O305  1  0.58333333  0.15652797  0.99746128  1
  O  O306  1  0.58333333  0.65652797  0.49746128  1
  O  O307  1  0.58333333  0.65652797  0.99746128  1
  O  O308  1  0.91666667  0.15652797  0.49746128  1
  O  O309  1  0.91666667  0.15652797  0.99746128  1
  O  O310  1  0.91666667  0.65652797  0.49746128  1
  O  O311  1  0.91666667  0.65652797  0.99746128  1
  O  O312  1  0.08333333  0.21660607  0.23951234  1
  O  O313  1  0.08333333  0.21660607  0.73951234  1
  O  O314  1  0.08333333  0.71660607  0.23951234  1
  O  O315  1  0.08333333  0.71660607  0.73951234  1
  O  O316  1  0.41666667  0.21660607  0.23951234  1
  O  O317  1  0.41666667  0.21660607  0.73951234  1
  O  O318  1  0.41666667  0.71660607  0.23951234  1
  O  O319  1  0.41666667  0.71660607  0.73951234  1
  O  O320  1  0.75000000  0.21660607  0.23951234  1
  O  O321  1  0.75000000  0.21660607  0.73951234  1
  O  O322  1  0.75000000  0.71660607  0.23951234  1
  O  O323  1  0.75000000  0.71660607  0.73951234  1
  O  O324  1  0.25000000  0.46660607  0.48951234  1
  O  O325  1  0.25000000  0.46660607  0.98951234  1
  O  O326  1  0.25000000  0.96660607  0.48951234  1
  O  O327  1  0.25000000  0.96660607  0.98951234  1
  O  O328  1  0.58333333  0.46660607  0.48951234  1
  O  O329  1  0.58333333  0.46660607  0.98951234  1
  O  O330  1  0.58333333  0.96660607  0.48951234  1
  O  O331  1  0.58333333  0.96660607  0.98951234  1
  O  O332  1  0.91666667  0.46660607  0.48951234  1
  O  O333  1  0.91666667  0.46660607  0.98951234  1
  O  O334  1  0.91666667  0.96660607  0.48951234  1
  O  O335  1  0.91666667  0.96660607  0.98951234  1
  O  O336  1  -0.02270502  0.06404257  0.40150740  1
  O  O337  1  -0.02270502  0.06404257  0.90150740  1
  O  O338  1  -0.02270502  0.56404257  0.40150740  1
  O  O339  1  -0.02270502  0.56404257  0.90150740  1
  O  O340  1  0.31062832  0.06404257  0.40150740  1
  O  O341  1  0.31062832  0.06404257  0.90150740  1
  O  O342  1  0.31062832  0.56404257  0.40150740  1
  O  O343  1  0.31062832  0.56404257  0.90150740  1
  O  O344  1  0.64396165  0.06404257  0.40150740  1
  O  O345  1  0.64396165  0.06404257  0.90150740  1
  O  O346  1  0.64396165  0.56404257  0.40150740  1
  O  O347  1  0.64396165  0.56404257  0.90150740  1
  O  O348  1  0.14396165  0.31404257  0.65150740  1
  O  O349  1  0.14396165  0.31404257  1.15150740  1
  O  O350  1  0.14396165  0.81404257  0.65150740  1
  O  O351  1  0.14396165  0.81404257  1.15150740  1
  O  O352  1  0.47729498  0.31404257  0.65150740  1
  O  O353  1  0.47729498  0.31404257  1.15150740  1
  O  O354  1  0.47729498  0.81404257  0.65150740  1
  O  O355  1  0.47729498  0.81404257  1.15150740  1
  O  O356  1  0.81062832  0.31404257  0.65150740  1
  O  O357  1  0.81062832  0.31404257  1.15150740  1
  O  O358  1  0.81062832  0.81404257  0.65150740  1
  O  O359  1  0.81062832  0.81404257  1.15150740  1
  O  O360  1  0.18964579  0.06423368  0.08731623  1
  O  O361  1  0.18964579  0.06423368  0.58731623  1
  O  O362  1  0.18964579  0.56423368  0.08731623  1
  O  O363  1  0.18964579  0.56423368  0.58731623  1
  O  O364  1  0.52297912  0.06423368  0.08731623  1
  O  O365  1  0.52297912  0.06423368  0.58731623  1
  O  O366  1  0.52297912  0.56423368  0.08731623  1
  O  O367  1  0.52297912  0.56423368  0.58731623  1
  O  O368  1  0.85631245  0.06423368  0.08731623  1
  O  O369  1  0.85631245  0.06423368  0.58731623  1
  O  O370  1  0.85631245  0.56423368  0.08731623  1
  O  O371  1  0.85631245  0.56423368  0.58731623  1
  O  O372  1  0.35631245  0.31423368  0.33731623  1
  O  O373  1  0.35631245  0.31423368  0.83731623  1
  O  O374  1  0.35631245  0.81423368  0.33731623  1
  O  O375  1  0.35631245  0.81423368  0.83731623  1
  O  O376  1  0.68964579  0.31423368  0.33731623  1
  O  O377  1  0.68964579  0.31423368  0.83731623  1
  O  O378  1  0.68964579  0.81423368  0.33731623  1
  O  O379  1  0.68964579  0.81423368  0.83731623  1
  O  O380  1  1.02297912  0.31423368  0.33731623  1
  O  O381  1  1.02297912  0.31423368  0.83731623  1
  O  O382  1  1.02297912  0.81423368  0.33731623  1
  O  O383  1  1.02297912  0.81423368  0.83731623  1
  O  O384  1  0.02270502  0.31404257  0.15150740  1
  O  O385  1  0.02270502  0.31404257  0.65150740  1
  O  O386  1  0.02270502  0.81404257  0.15150740  1
  O  O387  1  0.02270502  0.81404257  0.65150740  1
  O  O388  1  0.35603835  0.31404257  0.15150740  1
  O  O389  1  0.35603835  0.31404257  0.65150740  1
  O  O390  1  0.35603835  0.81404257  0.15150740  1
  O  O391  1  0.35603835  0.81404257  0.65150740  1
  O  O392  1  0.68937168  0.31404257  0.15150740  1
  O  O393  1  0.68937168  0.31404257  0.65150740  1
  O  O394  1  0.68937168  0.81404257  0.15150740  1
  O  O395  1  0.68937168  0.81404257  0.65150740  1
  O  O396  1  0.18937168  0.56404257  0.40150740  1
  O  O397  1  0.18937168  0.56404257  0.90150740  1
  O  O398  1  0.18937168  1.06404257  0.40150740  1
  O  O399  1  0.18937168  1.06404257  0.90150740  1
  O  O400  1  0.52270502  0.56404257  0.40150740  1
  O  O401  1  0.52270502  0.56404257  0.90150740  1
  O  O402  1  0.52270502  1.06404257  0.40150740  1
  O  O403  1  0.52270502  1.06404257  0.90150740  1
  O  O404  1  0.85603835  0.56404257  0.40150740  1
  O  O405  1  0.85603835  0.56404257  0.90150740  1
  O  O406  1  0.85603835  1.06404257  0.40150740  1
  O  O407  1  0.85603835  1.06404257  0.90150740  1
  O  O408  1  -0.02297912  0.06423368  0.08731623  1
  O  O409  1  -0.02297912  0.06423368  0.58731623  1
  O  O410  1  -0.02297912  0.56423368  0.08731623  1
  O  O411  1  -0.02297912  0.56423368  0.58731623  1
  O  O412  1  0.31035421  0.06423368  0.08731623  1
  O  O413  1  0.31035421  0.06423368  0.58731623  1
  O  O414  1  0.31035421  0.56423368  0.08731623  1
  O  O415  1  0.31035421  0.56423368  0.58731623  1
  O  O416  1  0.64368755  0.06423368  0.08731623  1
  O  O417  1  0.64368755  0.06423368  0.58731623  1
  O  O418  1  0.64368755  0.56423368  0.08731623  1
  O  O419  1  0.64368755  0.56423368  0.58731623  1
  O  O420  1  0.14368755  0.31423368  0.33731623  1
  O  O421  1  0.14368755  0.31423368  0.83731623  1
  O  O422  1  0.14368755  0.81423368  0.33731623  1
  O  O423  1  0.14368755  0.81423368  0.83731623  1
  O  O424  1  0.47702088  0.31423368  0.33731623  1
  O  O425  1  0.47702088  0.31423368  0.83731623  1
  O  O426  1  0.47702088  0.81423368  0.33731623  1
  O  O427  1  0.47702088  0.81423368  0.83731623  1
  O  O428  1  0.81035421  0.31423368  0.33731623  1
  O  O429  1  0.81035421  0.31423368  0.83731623  1
  O  O430  1  0.81035421  0.81423368  0.33731623  1
  O  O431  1  0.81035421  0.81423368  0.83731623  1
