# generated using pymatgen
data_Sr4As2O
_symmetry_space_group_name_H-M   'P 1'
_cell_length_a   14.45389684
_cell_length_b   14.45389684
_cell_length_c   16.20057750
_cell_angle_alpha   90.00000000
_cell_angle_beta   90.00000000
_cell_angle_gamma   90.00000000
_symmetry_Int_Tables_number   1
_chemical_formula_structural   Sr4As2O
_chemical_formula_sum   'Sr72 As36 O18'
_cell_volume   3384.54581998
_cell_formula_units_Z   18
loop_
 _symmetry_equiv_pos_site_id
 _symmetry_equiv_pos_as_xyz
  1  'x, y, z'
loop_
 _atom_site_type_symbol
 _atom_site_label
 _atom_site_symmetry_multiplicity
 _atom_site_fract_x
 _atom_site_fract_y
 _atom_site_fract_z
 _atom_site_occupancy
  Sr  Sr0  1  0.00000000  -0.00000000  0.67324662  1
  Sr  Sr1  1  0.00000000  0.33333333  0.67324662  1
  Sr  Sr2  1  0.00000000  0.66666667  0.67324662  1
  Sr  Sr3  1  0.33333333  -0.00000000  0.67324662  1
  Sr  Sr4  1  0.33333333  0.33333333  0.67324662  1
  Sr  Sr5  1  0.33333333  0.66666667  0.67324662  1
  Sr  Sr6  1  0.66666667  -0.00000000  0.67324662  1
  Sr  Sr7  1  0.66666667  0.33333333  0.67324662  1
  Sr  Sr8  1  0.66666667  0.66666667  0.67324662  1
  Sr  Sr9  1  0.16666667  0.16666667  1.17324662  1
  Sr  Sr10  1  0.16666667  0.50000000  1.17324662  1
  Sr  Sr11  1  0.16666667  0.83333333  1.17324662  1
  Sr  Sr12  1  0.50000000  0.16666667  1.17324662  1
  Sr  Sr13  1  0.50000000  0.50000000  1.17324662  1
  Sr  Sr14  1  0.50000000  0.83333333  1.17324662  1
  Sr  Sr15  1  0.83333333  0.16666667  1.17324662  1
  Sr  Sr16  1  0.83333333  0.50000000  1.17324662  1
  Sr  Sr17  1  0.83333333  0.83333333  1.17324662  1
  Sr  Sr18  1  0.00000000  -0.00000000  0.32675338  1
  Sr  Sr19  1  0.00000000  0.33333333  0.32675338  1
  Sr  Sr20  1  0.00000000  0.66666667  0.32675338  1
  Sr  Sr21  1  0.33333333  -0.00000000  0.32675338  1
  Sr  Sr22  1  0.33333333  0.33333333  0.32675338  1
  Sr  Sr23  1  0.33333333  0.66666667  0.32675338  1
  Sr  Sr24  1  0.66666667  -0.00000000  0.32675338  1
  Sr  Sr25  1  0.66666667  0.33333333  0.32675338  1
  Sr  Sr26  1  0.66666667  0.66666667  0.32675338  1
  Sr  Sr27  1  0.16666667  0.16666667  0.82675338  1
  Sr  Sr28  1  0.16666667  0.50000000  0.82675338  1
  Sr  Sr29  1  0.16666667  0.83333333  0.82675338  1
  Sr  Sr30  1  0.50000000  0.16666667  0.82675338  1
  Sr  Sr31  1  0.50000000  0.50000000  0.82675338  1
  Sr  Sr32  1  0.50000000  0.83333333  0.82675338  1
  Sr  Sr33  1  0.83333333  0.16666667  0.82675338  1
  Sr  Sr34  1  0.83333333  0.50000000  0.82675338  1
  Sr  Sr35  1  0.83333333  0.83333333  0.82675338  1
  Sr  Sr36  1  0.00000000  0.16666667  0.00000000  1
  Sr  Sr37  1  0.00000000  0.50000000  0.00000000  1
  Sr  Sr38  1  0.00000000  0.83333333  0.00000000  1
  Sr  Sr39  1  0.33333333  0.16666667  0.00000000  1
  Sr  Sr40  1  0.33333333  0.50000000  0.00000000  1
  Sr  Sr41  1  0.33333333  0.83333333  0.00000000  1
  Sr  Sr42  1  0.66666667  0.16666667  0.00000000  1
  Sr  Sr43  1  0.66666667  0.50000000  0.00000000  1
  Sr  Sr44  1  0.66666667  0.83333333  0.00000000  1
  Sr  Sr45  1  0.16666667  0.33333333  0.50000000  1
  Sr  Sr46  1  0.16666667  0.66666667  0.50000000  1
  Sr  Sr47  1  0.16666667  1.00000000  0.50000000  1
  Sr  Sr48  1  0.50000000  0.33333333  0.50000000  1
  Sr  Sr49  1  0.50000000  0.66666667  0.50000000  1
  Sr  Sr50  1  0.50000000  1.00000000  0.50000000  1
  Sr  Sr51  1  0.83333333  0.33333333  0.50000000  1
  Sr  Sr52  1  0.83333333  0.66666667  0.50000000  1
  Sr  Sr53  1  0.83333333  1.00000000  0.50000000  1
  Sr  Sr54  1  0.16666667  0.00000000  0.00000000  1
  Sr  Sr55  1  0.16666667  0.33333333  0.00000000  1
  Sr  Sr56  1  0.16666667  0.66666667  0.00000000  1
  Sr  Sr57  1  0.50000000  0.00000000  0.00000000  1
  Sr  Sr58  1  0.50000000  0.33333333  0.00000000  1
  Sr  Sr59  1  0.50000000  0.66666667  0.00000000  1
  Sr  Sr60  1  0.83333333  0.00000000  0.00000000  1
  Sr  Sr61  1  0.83333333  0.33333333  0.00000000  1
  Sr  Sr62  1  0.83333333  0.66666667  0.00000000  1
  Sr  Sr63  1  0.33333333  0.16666667  0.50000000  1
  Sr  Sr64  1  0.33333333  0.50000000  0.50000000  1
  Sr  Sr65  1  0.33333333  0.83333333  0.50000000  1
  Sr  Sr66  1  0.66666667  0.16666667  0.50000000  1
  Sr  Sr67  1  0.66666667  0.50000000  0.50000000  1
  Sr  Sr68  1  0.66666667  0.83333333  0.50000000  1
  Sr  Sr69  1  1.00000000  0.16666667  0.50000000  1
  Sr  Sr70  1  1.00000000  0.50000000  0.50000000  1
  Sr  Sr71  1  1.00000000  0.83333333  0.50000000  1
  As  As72  1  0.00000000  -0.00000000  0.86412782  1
  As  As73  1  0.00000000  0.33333333  0.86412782  1
  As  As74  1  0.00000000  0.66666667  0.86412782  1
  As  As75  1  0.33333333  -0.00000000  0.86412782  1
  As  As76  1  0.33333333  0.33333333  0.86412782  1
  As  As77  1  0.33333333  0.66666667  0.86412782  1
  As  As78  1  0.66666667  -0.00000000  0.86412782  1
  As  As79  1  0.66666667  0.33333333  0.86412782  1
  As  As80  1  0.66666667  0.66666667  0.86412782  1
  As  As81  1  0.16666667  0.16666667  1.36412782  1
  As  As82  1  0.16666667  0.50000000  1.36412782  1
  As  As83  1  0.16666667  0.83333333  1.36412782  1
  As  As84  1  0.50000000  0.16666667  1.36412782  1
  As  As85  1  0.50000000  0.50000000  1.36412782  1
  As  As86  1  0.50000000  0.83333333  1.36412782  1
  As  As87  1  0.83333333  0.16666667  1.36412782  1
  As  As88  1  0.83333333  0.50000000  1.36412782  1
  As  As89  1  0.83333333  0.83333333  1.36412782  1
  As  As90  1  -0.00000000  0.00000000  0.13587218  1
  As  As91  1  -0.00000000  0.33333333  0.13587218  1
  As  As92  1  -0.00000000  0.66666667  0.13587218  1
  As  As93  1  0.33333333  0.00000000  0.13587218  1
  As  As94  1  0.33333333  0.33333333  0.13587218  1
  As  As95  1  0.33333333  0.66666667  0.13587218  1
  As  As96  1  0.66666667  0.00000000  0.13587218  1
  As  As97  1  0.66666667  0.33333333  0.13587218  1
  As  As98  1  0.66666667  0.66666667  0.13587218  1
  As  As99  1  0.16666667  0.16666667  0.63587218  1
  As  As100  1  0.16666667  0.50000000  0.63587218  1
  As  As101  1  0.16666667  0.83333333  0.63587218  1
  As  As102  1  0.50000000  0.16666667  0.63587218  1
  As  As103  1  0.50000000  0.50000000  0.63587218  1
  As  As104  1  0.50000000  0.83333333  0.63587218  1
  As  As105  1  0.83333333  0.16666667  0.63587218  1
  As  As106  1  0.83333333  0.50000000  0.63587218  1
  As  As107  1  0.83333333  0.83333333  0.63587218  1
  O  O108  1  0.00000000  0.00000000  0.50000000  1
  O  O109  1  0.00000000  0.33333333  0.50000000  1
  O  O110  1  0.00000000  0.66666667  0.50000000  1
  O  O111  1  0.33333333  0.00000000  0.50000000  1
  O  O112  1  0.33333333  0.33333333  0.50000000  1
  O  O113  1  0.33333333  0.66666667  0.50000000  1
  O  O114  1  0.66666667  0.00000000  0.50000000  1
  O  O115  1  0.66666667  0.33333333  0.50000000  1
  O  O116  1  0.66666667  0.66666667  0.50000000  1
  O  O117  1  0.16666667  0.16666667  1.00000000  1
  O  O118  1  0.16666667  0.50000000  1.00000000  1
  O  O119  1  0.16666667  0.83333333  1.00000000  1
  O  O120  1  0.50000000  0.16666667  1.00000000  1
  O  O121  1  0.50000000  0.50000000  1.00000000  1
  O  O122  1  0.50000000  0.83333333  1.00000000  1
  O  O123  1  0.83333333  0.16666667  1.00000000  1
  O  O124  1  0.83333333  0.50000000  1.00000000  1
  O  O125  1  0.83333333  0.83333333  1.00000000  1
