# generated using pymatgen
data_Ba2CaWO6
_symmetry_space_group_name_H-M   'P 1'
_cell_length_a   10.24722276
_cell_length_b   11.82042742
_cell_length_c   11.90008083
_cell_angle_alpha   90.00000000
_cell_angle_beta   125.35636771
_cell_angle_gamma   90.00000000
_symmetry_Int_Tables_number   1
_chemical_formula_structural   Ba2CaWO6
_chemical_formula_sum   'Ba16 Ca8 W8 O48'
_cell_volume   1175.57358312
_cell_formula_units_Z   8
loop_
 _symmetry_equiv_pos_site_id
 _symmetry_equiv_pos_as_xyz
  1  'x, y, z'
loop_
 _atom_site_type_symbol
 _atom_site_label
 _atom_site_symmetry_multiplicity
 _atom_site_fract_x
 _atom_site_fract_y
 _atom_site_fract_z
 _atom_site_occupancy
  Ba  Ba0  1  0.75034830  -0.00000000  0.12591607  1
  Ba  Ba1  1  0.75034830  -0.00000000  0.62591607  1
  Ba  Ba2  1  0.75034830  0.50000000  0.12591607  1
  Ba  Ba3  1  0.75034830  0.50000000  0.62591607  1
  Ba  Ba4  1  1.25034830  0.25000000  0.12591607  1
  Ba  Ba5  1  1.25034830  0.25000000  0.62591607  1
  Ba  Ba6  1  1.25034830  0.75000000  0.12591607  1
  Ba  Ba7  1  1.25034830  0.75000000  0.62591607  1
  Ba  Ba8  1  0.24965170  -0.00000000  0.37408393  1
  Ba  Ba9  1  0.24965170  -0.00000000  0.87408393  1
  Ba  Ba10  1  0.24965170  0.50000000  0.37408393  1
  Ba  Ba11  1  0.24965170  0.50000000  0.87408393  1
  Ba  Ba12  1  0.74965170  0.25000000  0.37408393  1
  Ba  Ba13  1  0.74965170  0.25000000  0.87408393  1
  Ba  Ba14  1  0.74965170  0.75000000  0.37408393  1
  Ba  Ba15  1  0.74965170  0.75000000  0.87408393  1
  Ca  Ca16  1  0.00000000  -0.00000000  0.00000000  1
  Ca  Ca17  1  0.00000000  -0.00000000  0.50000000  1
  Ca  Ca18  1  0.00000000  0.50000000  0.00000000  1
  Ca  Ca19  1  0.00000000  0.50000000  0.50000000  1
  Ca  Ca20  1  0.50000000  0.25000000  0.00000000  1
  Ca  Ca21  1  0.50000000  0.25000000  0.50000000  1
  Ca  Ca22  1  0.50000000  0.75000000  0.00000000  1
  Ca  Ca23  1  0.50000000  0.75000000  0.50000000  1
  W  W24  1  0.50000000  0.00000000  0.25000000  1
  W  W25  1  0.50000000  0.00000000  0.75000000  1
  W  W26  1  0.50000000  0.50000000  0.25000000  1
  W  W27  1  0.50000000  0.50000000  0.75000000  1
  W  W28  1  1.00000000  0.25000000  0.25000000  1
  W  W29  1  1.00000000  0.25000000  0.75000000  1
  W  W30  1  1.00000000  0.75000000  0.25000000  1
  W  W31  1  1.00000000  0.75000000  0.75000000  1
  O  O32  1  0.52169680  -0.11537363  0.14668245  1
  O  O33  1  0.52169680  -0.11537363  0.64668245  1
  O  O34  1  0.52169680  0.38462637  0.14668245  1
  O  O35  1  0.52169680  0.38462637  0.64668245  1
  O  O36  1  1.02169680  0.13462637  0.14668245  1
  O  O37  1  1.02169680  0.13462637  0.64668245  1
  O  O38  1  1.02169680  0.63462637  0.14668245  1
  O  O39  1  1.02169680  0.63462637  0.64668245  1
  O  O40  1  0.47830320  -0.11537363  0.35331755  1
  O  O41  1  0.47830320  -0.11537363  0.85331755  1
  O  O42  1  0.47830320  0.38462637  0.35331755  1
  O  O43  1  0.47830320  0.38462637  0.85331755  1
  O  O44  1  0.97830320  0.13462637  0.35331755  1
  O  O45  1  0.97830320  0.13462637  0.85331755  1
  O  O46  1  0.97830320  0.63462637  0.35331755  1
  O  O47  1  0.97830320  0.63462637  0.85331755  1
  O  O48  1  0.47830320  0.11537363  0.35331755  1
  O  O49  1  0.47830320  0.11537363  0.85331755  1
  O  O50  1  0.47830320  0.61537363  0.35331755  1
  O  O51  1  0.47830320  0.61537363  0.85331755  1
  O  O52  1  0.97830320  0.36537363  0.35331755  1
  O  O53  1  0.97830320  0.36537363  0.85331755  1
  O  O54  1  0.97830320  0.86537363  0.35331755  1
  O  O55  1  0.97830320  0.86537363  0.85331755  1
  O  O56  1  0.52169680  0.11537363  0.14668245  1
  O  O57  1  0.52169680  0.11537363  0.64668245  1
  O  O58  1  0.52169680  0.61537363  0.14668245  1
  O  O59  1  0.52169680  0.61537363  0.64668245  1
  O  O60  1  1.02169680  0.36537363  0.14668245  1
  O  O61  1  1.02169680  0.36537363  0.64668245  1
  O  O62  1  1.02169680  0.86537363  0.14668245  1
  O  O63  1  1.02169680  0.86537363  0.64668245  1
  O  O64  1  0.27081131  -0.00000000  0.11452440  1
  O  O65  1  0.27081131  -0.00000000  0.61452440  1
  O  O66  1  0.27081131  0.50000000  0.11452440  1
  O  O67  1  0.27081131  0.50000000  0.61452440  1
  O  O68  1  0.77081131  0.25000000  0.11452440  1
  O  O69  1  0.77081131  0.25000000  0.61452440  1
  O  O70  1  0.77081131  0.75000000  0.11452440  1
  O  O71  1  0.77081131  0.75000000  0.61452440  1
  O  O72  1  0.72918869  0.00000000  0.38547560  1
  O  O73  1  0.72918869  0.00000000  0.88547560  1
  O  O74  1  0.72918869  0.50000000  0.38547560  1
  O  O75  1  0.72918869  0.50000000  0.88547560  1
  O  O76  1  1.22918869  0.25000000  0.38547560  1
  O  O77  1  1.22918869  0.25000000  0.88547560  1
  O  O78  1  1.22918869  0.75000000  0.38547560  1
  O  O79  1  1.22918869  0.75000000  0.88547560  1
