# generated using pymatgen
data_RbCuO
_symmetry_space_group_name_H-M   'P 1'
_cell_length_a   18.79369459
_cell_length_b   18.79369459
_cell_length_c   17.32117755
_cell_angle_alpha   90.00000000
_cell_angle_beta   90.00000000
_cell_angle_gamma   90.00000000
_symmetry_Int_Tables_number   1
_chemical_formula_structural   RbCuO
_chemical_formula_sum   'Rb96 Cu96 O96'
_cell_volume   6117.89111970
_cell_formula_units_Z   96
loop_
 _symmetry_equiv_pos_site_id
 _symmetry_equiv_pos_as_xyz
  1  'x, y, z'
loop_
 _atom_site_type_symbol
 _atom_site_label
 _atom_site_symmetry_multiplicity
 _atom_site_fract_x
 _atom_site_fract_y
 _atom_site_fract_z
 _atom_site_occupancy
  Rb  Rb0  1  0.25000000  0.40248566  0.00000000  1
  Rb  Rb1  1  0.25000000  0.40248566  0.33333333  1
  Rb  Rb2  1  0.25000000  0.40248566  0.66666667  1
  Rb  Rb3  1  0.75000000  0.40248566  0.00000000  1
  Rb  Rb4  1  0.75000000  0.40248566  0.33333333  1
  Rb  Rb5  1  0.75000000  0.40248566  0.66666667  1
  Rb  Rb6  1  0.25000000  -0.09751434  0.00000000  1
  Rb  Rb7  1  0.25000000  -0.09751434  0.33333333  1
  Rb  Rb8  1  0.25000000  -0.09751434  0.66666667  1
  Rb  Rb9  1  0.75000000  -0.09751434  0.00000000  1
  Rb  Rb10  1  0.75000000  -0.09751434  0.33333333  1
  Rb  Rb11  1  0.75000000  -0.09751434  0.66666667  1
  Rb  Rb12  1  0.50000000  0.15248566  0.16666667  1
  Rb  Rb13  1  0.50000000  0.15248566  0.50000000  1
  Rb  Rb14  1  0.50000000  0.15248566  0.83333333  1
  Rb  Rb15  1  1.00000000  0.15248566  0.16666667  1
  Rb  Rb16  1  1.00000000  0.15248566  0.50000000  1
  Rb  Rb17  1  1.00000000  0.15248566  0.83333333  1
  Rb  Rb18  1  0.50000000  -0.34751434  0.16666667  1
  Rb  Rb19  1  0.50000000  -0.34751434  0.50000000  1
  Rb  Rb20  1  0.50000000  -0.34751434  0.83333333  1
  Rb  Rb21  1  1.00000000  -0.34751434  0.16666667  1
  Rb  Rb22  1  1.00000000  -0.34751434  0.50000000  1
  Rb  Rb23  1  1.00000000  -0.34751434  0.83333333  1
  Rb  Rb24  1  0.09751434  0.25000000  0.00000000  1
  Rb  Rb25  1  0.09751434  0.25000000  0.33333333  1
  Rb  Rb26  1  0.09751434  0.25000000  0.66666667  1
  Rb  Rb27  1  0.59751434  0.25000000  0.00000000  1
  Rb  Rb28  1  0.59751434  0.25000000  0.33333333  1
  Rb  Rb29  1  0.59751434  0.25000000  0.66666667  1
  Rb  Rb30  1  0.09751434  -0.25000000  0.00000000  1
  Rb  Rb31  1  0.09751434  -0.25000000  0.33333333  1
  Rb  Rb32  1  0.09751434  -0.25000000  0.66666667  1
  Rb  Rb33  1  0.59751434  -0.25000000  0.00000000  1
  Rb  Rb34  1  0.59751434  -0.25000000  0.33333333  1
  Rb  Rb35  1  0.59751434  -0.25000000  0.66666667  1
  Rb  Rb36  1  0.34751434  0.00000000  0.16666667  1
  Rb  Rb37  1  0.34751434  0.00000000  0.50000000  1
  Rb  Rb38  1  0.34751434  0.00000000  0.83333333  1
  Rb  Rb39  1  0.84751434  0.00000000  0.16666667  1
  Rb  Rb40  1  0.84751434  0.00000000  0.50000000  1
  Rb  Rb41  1  0.84751434  0.00000000  0.83333333  1
  Rb  Rb42  1  0.34751434  -0.50000000  0.16666667  1
  Rb  Rb43  1  0.34751434  -0.50000000  0.50000000  1
  Rb  Rb44  1  0.34751434  -0.50000000  0.83333333  1
  Rb  Rb45  1  0.84751434  -0.50000000  0.16666667  1
  Rb  Rb46  1  0.84751434  -0.50000000  0.50000000  1
  Rb  Rb47  1  0.84751434  -0.50000000  0.83333333  1
  Rb  Rb48  1  -0.00000000  0.34751434  0.16666667  1
  Rb  Rb49  1  -0.00000000  0.34751434  0.50000000  1
  Rb  Rb50  1  -0.00000000  0.34751434  0.83333333  1
  Rb  Rb51  1  0.50000000  0.34751434  0.16666667  1
  Rb  Rb52  1  0.50000000  0.34751434  0.50000000  1
  Rb  Rb53  1  0.50000000  0.34751434  0.83333333  1
  Rb  Rb54  1  -0.00000000  -0.15248566  0.16666667  1
  Rb  Rb55  1  -0.00000000  -0.15248566  0.50000000  1
  Rb  Rb56  1  -0.00000000  -0.15248566  0.83333333  1
  Rb  Rb57  1  0.50000000  -0.15248566  0.16666667  1
  Rb  Rb58  1  0.50000000  -0.15248566  0.50000000  1
  Rb  Rb59  1  0.50000000  -0.15248566  0.83333333  1
  Rb  Rb60  1  0.25000000  0.09751434  0.33333333  1
  Rb  Rb61  1  0.25000000  0.09751434  0.66666667  1
  Rb  Rb62  1  0.25000000  0.09751434  1.00000000  1
  Rb  Rb63  1  0.75000000  0.09751434  0.33333333  1
  Rb  Rb64  1  0.75000000  0.09751434  0.66666667  1
  Rb  Rb65  1  0.75000000  0.09751434  1.00000000  1
  Rb  Rb66  1  0.25000000  -0.40248566  0.33333333  1
  Rb  Rb67  1  0.25000000  -0.40248566  0.66666667  1
  Rb  Rb68  1  0.25000000  -0.40248566  1.00000000  1
  Rb  Rb69  1  0.75000000  -0.40248566  0.33333333  1
  Rb  Rb70  1  0.75000000  -0.40248566  0.66666667  1
  Rb  Rb71  1  0.75000000  -0.40248566  1.00000000  1
  Rb  Rb72  1  0.15248566  0.50000000  0.16666667  1
  Rb  Rb73  1  0.15248566  0.50000000  0.50000000  1
  Rb  Rb74  1  0.15248566  0.50000000  0.83333333  1
  Rb  Rb75  1  0.65248566  0.50000000  0.16666667  1
  Rb  Rb76  1  0.65248566  0.50000000  0.50000000  1
  Rb  Rb77  1  0.65248566  0.50000000  0.83333333  1
  Rb  Rb78  1  0.15248566  -0.00000000  0.16666667  1
  Rb  Rb79  1  0.15248566  -0.00000000  0.50000000  1
  Rb  Rb80  1  0.15248566  -0.00000000  0.83333333  1
  Rb  Rb81  1  0.65248566  -0.00000000  0.16666667  1
  Rb  Rb82  1  0.65248566  -0.00000000  0.50000000  1
  Rb  Rb83  1  0.65248566  -0.00000000  0.83333333  1
  Rb  Rb84  1  0.40248566  0.25000000  0.33333333  1
  Rb  Rb85  1  0.40248566  0.25000000  0.66666667  1
  Rb  Rb86  1  0.40248566  0.25000000  1.00000000  1
  Rb  Rb87  1  0.90248566  0.25000000  0.33333333  1
  Rb  Rb88  1  0.90248566  0.25000000  0.66666667  1
  Rb  Rb89  1  0.90248566  0.25000000  1.00000000  1
  Rb  Rb90  1  0.40248566  -0.25000000  0.33333333  1
  Rb  Rb91  1  0.40248566  -0.25000000  0.66666667  1
  Rb  Rb92  1  0.40248566  -0.25000000  1.00000000  1
  Rb  Rb93  1  0.90248566  -0.25000000  0.33333333  1
  Rb  Rb94  1  0.90248566  -0.25000000  0.66666667  1
  Rb  Rb95  1  0.90248566  -0.25000000  1.00000000  1
  Cu  Cu96  1  0.18260088  0.68260088  0.16666667  1
  Cu  Cu97  1  0.18260088  0.68260088  0.50000000  1
  Cu  Cu98  1  0.18260088  0.68260088  0.83333333  1
  Cu  Cu99  1  0.68260088  0.68260088  0.16666667  1
  Cu  Cu100  1  0.68260088  0.68260088  0.50000000  1
  Cu  Cu101  1  0.68260088  0.68260088  0.83333333  1
  Cu  Cu102  1  0.18260088  0.18260088  0.16666667  1
  Cu  Cu103  1  0.18260088  0.18260088  0.50000000  1
  Cu  Cu104  1  0.18260088  0.18260088  0.83333333  1
  Cu  Cu105  1  0.68260088  0.18260088  0.16666667  1
  Cu  Cu106  1  0.68260088  0.18260088  0.50000000  1
  Cu  Cu107  1  0.68260088  0.18260088  0.83333333  1
  Cu  Cu108  1  0.43260088  0.43260088  0.33333333  1
  Cu  Cu109  1  0.43260088  0.43260088  0.66666667  1
  Cu  Cu110  1  0.43260088  0.43260088  1.00000000  1
  Cu  Cu111  1  0.93260088  0.43260088  0.33333333  1
  Cu  Cu112  1  0.93260088  0.43260088  0.66666667  1
  Cu  Cu113  1  0.93260088  0.43260088  1.00000000  1
  Cu  Cu114  1  0.43260088  -0.06739912  0.33333333  1
  Cu  Cu115  1  0.43260088  -0.06739912  0.66666667  1
  Cu  Cu116  1  0.43260088  -0.06739912  1.00000000  1
  Cu  Cu117  1  0.93260088  -0.06739912  0.33333333  1
  Cu  Cu118  1  0.93260088  -0.06739912  0.66666667  1
  Cu  Cu119  1  0.93260088  -0.06739912  1.00000000  1
  Cu  Cu120  1  -0.18260088  0.31739912  0.16666667  1
  Cu  Cu121  1  -0.18260088  0.31739912  0.50000000  1
  Cu  Cu122  1  -0.18260088  0.31739912  0.83333333  1
  Cu  Cu123  1  0.31739912  0.31739912  0.16666667  1
  Cu  Cu124  1  0.31739912  0.31739912  0.50000000  1
  Cu  Cu125  1  0.31739912  0.31739912  0.83333333  1
  Cu  Cu126  1  -0.18260088  -0.18260088  0.16666667  1
  Cu  Cu127  1  -0.18260088  -0.18260088  0.50000000  1
  Cu  Cu128  1  -0.18260088  -0.18260088  0.83333333  1
  Cu  Cu129  1  0.31739912  -0.18260088  0.16666667  1
  Cu  Cu130  1  0.31739912  -0.18260088  0.50000000  1
  Cu  Cu131  1  0.31739912  -0.18260088  0.83333333  1
  Cu  Cu132  1  0.06739912  0.06739912  0.33333333  1
  Cu  Cu133  1  0.06739912  0.06739912  0.66666667  1
  Cu  Cu134  1  0.06739912  0.06739912  1.00000000  1
  Cu  Cu135  1  0.56739912  0.06739912  0.33333333  1
  Cu  Cu136  1  0.56739912  0.06739912  0.66666667  1
  Cu  Cu137  1  0.56739912  0.06739912  1.00000000  1
  Cu  Cu138  1  0.06739912  -0.43260088  0.33333333  1
  Cu  Cu139  1  0.06739912  -0.43260088  0.66666667  1
  Cu  Cu140  1  0.06739912  -0.43260088  1.00000000  1
  Cu  Cu141  1  0.56739912  -0.43260088  0.33333333  1
  Cu  Cu142  1  0.56739912  -0.43260088  0.66666667  1
  Cu  Cu143  1  0.56739912  -0.43260088  1.00000000  1
  Cu  Cu144  1  0.18260088  0.31739912  0.16666667  1
  Cu  Cu145  1  0.18260088  0.31739912  0.50000000  1
  Cu  Cu146  1  0.18260088  0.31739912  0.83333333  1
  Cu  Cu147  1  0.68260088  0.31739912  0.16666667  1
  Cu  Cu148  1  0.68260088  0.31739912  0.50000000  1
  Cu  Cu149  1  0.68260088  0.31739912  0.83333333  1
  Cu  Cu150  1  0.18260088  -0.18260088  0.16666667  1
  Cu  Cu151  1  0.18260088  -0.18260088  0.50000000  1
  Cu  Cu152  1  0.18260088  -0.18260088  0.83333333  1
  Cu  Cu153  1  0.68260088  -0.18260088  0.16666667  1
  Cu  Cu154  1  0.68260088  -0.18260088  0.50000000  1
  Cu  Cu155  1  0.68260088  -0.18260088  0.83333333  1
  Cu  Cu156  1  0.43260088  0.06739912  0.33333333  1
  Cu  Cu157  1  0.43260088  0.06739912  0.66666667  1
  Cu  Cu158  1  0.43260088  0.06739912  1.00000000  1
  Cu  Cu159  1  0.93260088  0.06739912  0.33333333  1
  Cu  Cu160  1  0.93260088  0.06739912  0.66666667  1
  Cu  Cu161  1  0.93260088  0.06739912  1.00000000  1
  Cu  Cu162  1  0.43260088  -0.43260088  0.33333333  1
  Cu  Cu163  1  0.43260088  -0.43260088  0.66666667  1
  Cu  Cu164  1  0.43260088  -0.43260088  1.00000000  1
  Cu  Cu165  1  0.93260088  -0.43260088  0.33333333  1
  Cu  Cu166  1  0.93260088  -0.43260088  0.66666667  1
  Cu  Cu167  1  0.93260088  -0.43260088  1.00000000  1
  Cu  Cu168  1  0.06739912  0.43260088  0.00000000  1
  Cu  Cu169  1  0.06739912  0.43260088  0.33333333  1
  Cu  Cu170  1  0.06739912  0.43260088  0.66666667  1
  Cu  Cu171  1  0.56739912  0.43260088  0.00000000  1
  Cu  Cu172  1  0.56739912  0.43260088  0.33333333  1
  Cu  Cu173  1  0.56739912  0.43260088  0.66666667  1
  Cu  Cu174  1  0.06739912  -0.06739912  0.00000000  1
  Cu  Cu175  1  0.06739912  -0.06739912  0.33333333  1
  Cu  Cu176  1  0.06739912  -0.06739912  0.66666667  1
  Cu  Cu177  1  0.56739912  -0.06739912  0.00000000  1
  Cu  Cu178  1  0.56739912  -0.06739912  0.33333333  1
  Cu  Cu179  1  0.56739912  -0.06739912  0.66666667  1
  Cu  Cu180  1  0.31739912  0.18260088  0.16666667  1
  Cu  Cu181  1  0.31739912  0.18260088  0.50000000  1
  Cu  Cu182  1  0.31739912  0.18260088  0.83333333  1
  Cu  Cu183  1  0.81739912  0.18260088  0.16666667  1
  Cu  Cu184  1  0.81739912  0.18260088  0.50000000  1
  Cu  Cu185  1  0.81739912  0.18260088  0.83333333  1
  Cu  Cu186  1  0.31739912  -0.31739912  0.16666667  1
  Cu  Cu187  1  0.31739912  -0.31739912  0.50000000  1
  Cu  Cu188  1  0.31739912  -0.31739912  0.83333333  1
  Cu  Cu189  1  0.81739912  -0.31739912  0.16666667  1
  Cu  Cu190  1  0.81739912  -0.31739912  0.50000000  1
  Cu  Cu191  1  0.81739912  -0.31739912  0.83333333  1
  O  O192  1  0.13613491  0.50000000  0.00000000  1
  O  O193  1  0.13613491  0.50000000  0.33333333  1
  O  O194  1  0.13613491  0.50000000  0.66666667  1
  O  O195  1  0.63613491  0.50000000  0.00000000  1
  O  O196  1  0.63613491  0.50000000  0.33333333  1
  O  O197  1  0.63613491  0.50000000  0.66666667  1
  O  O198  1  0.13613491  -0.00000000  0.00000000  1
  O  O199  1  0.13613491  -0.00000000  0.33333333  1
  O  O200  1  0.13613491  -0.00000000  0.66666667  1
  O  O201  1  0.63613491  -0.00000000  0.00000000  1
  O  O202  1  0.63613491  -0.00000000  0.33333333  1
  O  O203  1  0.63613491  -0.00000000  0.66666667  1
  O  O204  1  0.38613491  0.25000000  0.16666667  1
  O  O205  1  0.38613491  0.25000000  0.50000000  1
  O  O206  1  0.38613491  0.25000000  0.83333333  1
  O  O207  1  0.88613491  0.25000000  0.16666667  1
  O  O208  1  0.88613491  0.25000000  0.50000000  1
  O  O209  1  0.88613491  0.25000000  0.83333333  1
  O  O210  1  0.38613491  -0.25000000  0.16666667  1
  O  O211  1  0.38613491  -0.25000000  0.50000000  1
  O  O212  1  0.38613491  -0.25000000  0.83333333  1
  O  O213  1  0.88613491  -0.25000000  0.16666667  1
  O  O214  1  0.88613491  -0.25000000  0.50000000  1
  O  O215  1  0.88613491  -0.25000000  0.83333333  1
  O  O216  1  0.00000000  0.13613491  0.00000000  1
  O  O217  1  0.00000000  0.13613491  0.33333333  1
  O  O218  1  0.00000000  0.13613491  0.66666667  1
  O  O219  1  0.50000000  0.13613491  0.00000000  1
  O  O220  1  0.50000000  0.13613491  0.33333333  1
  O  O221  1  0.50000000  0.13613491  0.66666667  1
  O  O222  1  0.00000000  -0.36386509  0.00000000  1
  O  O223  1  0.00000000  -0.36386509  0.33333333  1
  O  O224  1  0.00000000  -0.36386509  0.66666667  1
  O  O225  1  0.50000000  -0.36386509  0.00000000  1
  O  O226  1  0.50000000  -0.36386509  0.33333333  1
  O  O227  1  0.50000000  -0.36386509  0.66666667  1
  O  O228  1  0.25000000  -0.11386509  0.16666667  1
  O  O229  1  0.25000000  -0.11386509  0.50000000  1
  O  O230  1  0.25000000  -0.11386509  0.83333333  1
  O  O231  1  0.75000000  -0.11386509  0.16666667  1
  O  O232  1  0.75000000  -0.11386509  0.50000000  1
  O  O233  1  0.75000000  -0.11386509  0.83333333  1
  O  O234  1  0.25000000  -0.61386509  0.16666667  1
  O  O235  1  0.25000000  -0.61386509  0.50000000  1
  O  O236  1  0.25000000  -0.61386509  0.83333333  1
  O  O237  1  0.75000000  -0.61386509  0.16666667  1
  O  O238  1  0.75000000  -0.61386509  0.50000000  1
  O  O239  1  0.75000000  -0.61386509  0.83333333  1
  O  O240  1  0.00000000  0.36386509  0.00000000  1
  O  O241  1  0.00000000  0.36386509  0.33333333  1
  O  O242  1  0.00000000  0.36386509  0.66666667  1
  O  O243  1  0.50000000  0.36386509  0.00000000  1
  O  O244  1  0.50000000  0.36386509  0.33333333  1
  O  O245  1  0.50000000  0.36386509  0.66666667  1
  O  O246  1  0.00000000  -0.13613491  0.00000000  1
  O  O247  1  0.00000000  -0.13613491  0.33333333  1
  O  O248  1  0.00000000  -0.13613491  0.66666667  1
  O  O249  1  0.50000000  -0.13613491  0.00000000  1
  O  O250  1  0.50000000  -0.13613491  0.33333333  1
  O  O251  1  0.50000000  -0.13613491  0.66666667  1
  O  O252  1  0.25000000  0.11386509  0.16666667  1
  O  O253  1  0.25000000  0.11386509  0.50000000  1
  O  O254  1  0.25000000  0.11386509  0.83333333  1
  O  O255  1  0.75000000  0.11386509  0.16666667  1
  O  O256  1  0.75000000  0.11386509  0.50000000  1
  O  O257  1  0.75000000  0.11386509  0.83333333  1
  O  O258  1  0.25000000  -0.38613491  0.16666667  1
  O  O259  1  0.25000000  -0.38613491  0.50000000  1
  O  O260  1  0.25000000  -0.38613491  0.83333333  1
  O  O261  1  0.75000000  -0.38613491  0.16666667  1
  O  O262  1  0.75000000  -0.38613491  0.50000000  1
  O  O263  1  0.75000000  -0.38613491  0.83333333  1
  O  O264  1  0.36386509  0.50000000  0.00000000  1
  O  O265  1  0.36386509  0.50000000  0.33333333  1
  O  O266  1  0.36386509  0.50000000  0.66666667  1
  O  O267  1  0.86386509  0.50000000  0.00000000  1
  O  O268  1  0.86386509  0.50000000  0.33333333  1
  O  O269  1  0.86386509  0.50000000  0.66666667  1
  O  O270  1  0.36386509  -0.00000000  0.00000000  1
  O  O271  1  0.36386509  -0.00000000  0.33333333  1
  O  O272  1  0.36386509  -0.00000000  0.66666667  1
  O  O273  1  0.86386509  -0.00000000  0.00000000  1
  O  O274  1  0.86386509  -0.00000000  0.33333333  1
  O  O275  1  0.86386509  -0.00000000  0.66666667  1
  O  O276  1  0.61386509  0.25000000  0.16666667  1
  O  O277  1  0.61386509  0.25000000  0.50000000  1
  O  O278  1  0.61386509  0.25000000  0.83333333  1
  O  O279  1  1.11386509  0.25000000  0.16666667  1
  O  O280  1  1.11386509  0.25000000  0.50000000  1
  O  O281  1  1.11386509  0.25000000  0.83333333  1
  O  O282  1  0.61386509  -0.25000000  0.16666667  1
  O  O283  1  0.61386509  -0.25000000  0.50000000  1
  O  O284  1  0.61386509  -0.25000000  0.83333333  1
  O  O285  1  1.11386509  -0.25000000  0.16666667  1
  O  O286  1  1.11386509  -0.25000000  0.50000000  1
  O  O287  1  1.11386509  -0.25000000  0.83333333  1
