# generated using pymatgen
data_Cs2SnO3
_symmetry_space_group_name_H-M   'P 1'
_cell_length_a   22.35199825
_cell_length_b   23.12495476
_cell_length_c   17.48749767
_cell_angle_alpha   90.00000000
_cell_angle_beta   90.00000000
_cell_angle_gamma   90.00000000
_symmetry_Int_Tables_number   1
_chemical_formula_structural   Cs2SnO3
_chemical_formula_sum   'Cs144 Sn72 O216'
_cell_volume   9039.09428026
_cell_formula_units_Z   72
loop_
 _symmetry_equiv_pos_site_id
 _symmetry_equiv_pos_as_xyz
  1  'x, y, z'
loop_
 _atom_site_type_symbol
 _atom_site_label
 _atom_site_symmetry_multiplicity
 _atom_site_fract_x
 _atom_site_fract_y
 _atom_site_fract_z
 _atom_site_occupancy
  Cs  Cs0  1  0.33064885  -0.04831837  0.25000000  1
  Cs  Cs1  1  0.33064885  -0.04831837  0.58333333  1
  Cs  Cs2  1  0.33064885  -0.04831837  0.91666667  1
  Cs  Cs3  1  0.33064885  0.28501496  0.25000000  1
  Cs  Cs4  1  0.33064885  0.28501496  0.58333333  1
  Cs  Cs5  1  0.33064885  0.28501496  0.91666667  1
  Cs  Cs6  1  0.33064885  0.61834829  0.25000000  1
  Cs  Cs7  1  0.33064885  0.61834829  0.58333333  1
  Cs  Cs8  1  0.33064885  0.61834829  0.91666667  1
  Cs  Cs9  1  0.83064885  -0.04831837  0.25000000  1
  Cs  Cs10  1  0.83064885  -0.04831837  0.58333333  1
  Cs  Cs11  1  0.83064885  -0.04831837  0.91666667  1
  Cs  Cs12  1  0.83064885  0.28501496  0.25000000  1
  Cs  Cs13  1  0.83064885  0.28501496  0.58333333  1
  Cs  Cs14  1  0.83064885  0.28501496  0.91666667  1
  Cs  Cs15  1  0.83064885  0.61834829  0.25000000  1
  Cs  Cs16  1  0.83064885  0.61834829  0.58333333  1
  Cs  Cs17  1  0.83064885  0.61834829  0.91666667  1
  Cs  Cs18  1  0.58064885  0.11834829  0.25000000  1
  Cs  Cs19  1  0.58064885  0.11834829  0.58333333  1
  Cs  Cs20  1  0.58064885  0.11834829  0.91666667  1
  Cs  Cs21  1  0.58064885  0.45168163  0.25000000  1
  Cs  Cs22  1  0.58064885  0.45168163  0.58333333  1
  Cs  Cs23  1  0.58064885  0.45168163  0.91666667  1
  Cs  Cs24  1  0.58064885  0.78501496  0.25000000  1
  Cs  Cs25  1  0.58064885  0.78501496  0.58333333  1
  Cs  Cs26  1  0.58064885  0.78501496  0.91666667  1
  Cs  Cs27  1  1.08064885  0.11834829  0.25000000  1
  Cs  Cs28  1  1.08064885  0.11834829  0.58333333  1
  Cs  Cs29  1  1.08064885  0.11834829  0.91666667  1
  Cs  Cs30  1  1.08064885  0.45168163  0.25000000  1
  Cs  Cs31  1  1.08064885  0.45168163  0.58333333  1
  Cs  Cs32  1  1.08064885  0.45168163  0.91666667  1
  Cs  Cs33  1  1.08064885  0.78501496  0.25000000  1
  Cs  Cs34  1  1.08064885  0.78501496  0.58333333  1
  Cs  Cs35  1  1.08064885  0.78501496  0.91666667  1
  Cs  Cs36  1  0.33064885  0.04831837  0.08333333  1
  Cs  Cs37  1  0.33064885  0.04831837  0.41666667  1
  Cs  Cs38  1  0.33064885  0.04831837  0.75000000  1
  Cs  Cs39  1  0.33064885  0.38165171  0.08333333  1
  Cs  Cs40  1  0.33064885  0.38165171  0.41666667  1
  Cs  Cs41  1  0.33064885  0.38165171  0.75000000  1
  Cs  Cs42  1  0.33064885  0.71498504  0.08333333  1
  Cs  Cs43  1  0.33064885  0.71498504  0.41666667  1
  Cs  Cs44  1  0.33064885  0.71498504  0.75000000  1
  Cs  Cs45  1  0.83064885  0.04831837  0.08333333  1
  Cs  Cs46  1  0.83064885  0.04831837  0.41666667  1
  Cs  Cs47  1  0.83064885  0.04831837  0.75000000  1
  Cs  Cs48  1  0.83064885  0.38165171  0.08333333  1
  Cs  Cs49  1  0.83064885  0.38165171  0.41666667  1
  Cs  Cs50  1  0.83064885  0.38165171  0.75000000  1
  Cs  Cs51  1  0.83064885  0.71498504  0.08333333  1
  Cs  Cs52  1  0.83064885  0.71498504  0.41666667  1
  Cs  Cs53  1  0.83064885  0.71498504  0.75000000  1
  Cs  Cs54  1  0.58064885  0.21498504  0.08333333  1
  Cs  Cs55  1  0.58064885  0.21498504  0.41666667  1
  Cs  Cs56  1  0.58064885  0.21498504  0.75000000  1
  Cs  Cs57  1  0.58064885  0.54831837  0.08333333  1
  Cs  Cs58  1  0.58064885  0.54831837  0.41666667  1
  Cs  Cs59  1  0.58064885  0.54831837  0.75000000  1
  Cs  Cs60  1  0.58064885  0.88165171  0.08333333  1
  Cs  Cs61  1  0.58064885  0.88165171  0.41666667  1
  Cs  Cs62  1  0.58064885  0.88165171  0.75000000  1
  Cs  Cs63  1  1.08064885  0.21498504  0.08333333  1
  Cs  Cs64  1  1.08064885  0.21498504  0.41666667  1
  Cs  Cs65  1  1.08064885  0.21498504  0.75000000  1
  Cs  Cs66  1  1.08064885  0.54831837  0.08333333  1
  Cs  Cs67  1  1.08064885  0.54831837  0.41666667  1
  Cs  Cs68  1  1.08064885  0.54831837  0.75000000  1
  Cs  Cs69  1  1.08064885  0.88165171  0.08333333  1
  Cs  Cs70  1  1.08064885  0.88165171  0.41666667  1
  Cs  Cs71  1  1.08064885  0.88165171  0.75000000  1
  Cs  Cs72  1  0.16935115  0.04831837  0.08333333  1
  Cs  Cs73  1  0.16935115  0.04831837  0.41666667  1
  Cs  Cs74  1  0.16935115  0.04831837  0.75000000  1
  Cs  Cs75  1  0.16935115  0.38165171  0.08333333  1
  Cs  Cs76  1  0.16935115  0.38165171  0.41666667  1
  Cs  Cs77  1  0.16935115  0.38165171  0.75000000  1
  Cs  Cs78  1  0.16935115  0.71498504  0.08333333  1
  Cs  Cs79  1  0.16935115  0.71498504  0.41666667  1
  Cs  Cs80  1  0.16935115  0.71498504  0.75000000  1
  Cs  Cs81  1  0.66935115  0.04831837  0.08333333  1
  Cs  Cs82  1  0.66935115  0.04831837  0.41666667  1
  Cs  Cs83  1  0.66935115  0.04831837  0.75000000  1
  Cs  Cs84  1  0.66935115  0.38165171  0.08333333  1
  Cs  Cs85  1  0.66935115  0.38165171  0.41666667  1
  Cs  Cs86  1  0.66935115  0.38165171  0.75000000  1
  Cs  Cs87  1  0.66935115  0.71498504  0.08333333  1
  Cs  Cs88  1  0.66935115  0.71498504  0.41666667  1
  Cs  Cs89  1  0.66935115  0.71498504  0.75000000  1
  Cs  Cs90  1  0.41935115  0.21498504  0.08333333  1
  Cs  Cs91  1  0.41935115  0.21498504  0.41666667  1
  Cs  Cs92  1  0.41935115  0.21498504  0.75000000  1
  Cs  Cs93  1  0.41935115  0.54831837  0.08333333  1
  Cs  Cs94  1  0.41935115  0.54831837  0.41666667  1
  Cs  Cs95  1  0.41935115  0.54831837  0.75000000  1
  Cs  Cs96  1  0.41935115  0.88165171  0.08333333  1
  Cs  Cs97  1  0.41935115  0.88165171  0.41666667  1
  Cs  Cs98  1  0.41935115  0.88165171  0.75000000  1
  Cs  Cs99  1  0.91935115  0.21498504  0.08333333  1
  Cs  Cs100  1  0.91935115  0.21498504  0.41666667  1
  Cs  Cs101  1  0.91935115  0.21498504  0.75000000  1
  Cs  Cs102  1  0.91935115  0.54831837  0.08333333  1
  Cs  Cs103  1  0.91935115  0.54831837  0.41666667  1
  Cs  Cs104  1  0.91935115  0.54831837  0.75000000  1
  Cs  Cs105  1  0.91935115  0.88165171  0.08333333  1
  Cs  Cs106  1  0.91935115  0.88165171  0.41666667  1
  Cs  Cs107  1  0.91935115  0.88165171  0.75000000  1
  Cs  Cs108  1  0.16935115  -0.04831837  0.25000000  1
  Cs  Cs109  1  0.16935115  -0.04831837  0.58333333  1
  Cs  Cs110  1  0.16935115  -0.04831837  0.91666667  1
  Cs  Cs111  1  0.16935115  0.28501496  0.25000000  1
  Cs  Cs112  1  0.16935115  0.28501496  0.58333333  1
  Cs  Cs113  1  0.16935115  0.28501496  0.91666667  1
  Cs  Cs114  1  0.16935115  0.61834829  0.25000000  1
  Cs  Cs115  1  0.16935115  0.61834829  0.58333333  1
  Cs  Cs116  1  0.16935115  0.61834829  0.91666667  1
  Cs  Cs117  1  0.66935115  -0.04831837  0.25000000  1
  Cs  Cs118  1  0.66935115  -0.04831837  0.58333333  1
  Cs  Cs119  1  0.66935115  -0.04831837  0.91666667  1
  Cs  Cs120  1  0.66935115  0.28501496  0.25000000  1
  Cs  Cs121  1  0.66935115  0.28501496  0.58333333  1
  Cs  Cs122  1  0.66935115  0.28501496  0.91666667  1
  Cs  Cs123  1  0.66935115  0.61834829  0.25000000  1
  Cs  Cs124  1  0.66935115  0.61834829  0.58333333  1
  Cs  Cs125  1  0.66935115  0.61834829  0.91666667  1
  Cs  Cs126  1  0.41935115  0.11834829  0.25000000  1
  Cs  Cs127  1  0.41935115  0.11834829  0.58333333  1
  Cs  Cs128  1  0.41935115  0.11834829  0.91666667  1
  Cs  Cs129  1  0.41935115  0.45168163  0.25000000  1
  Cs  Cs130  1  0.41935115  0.45168163  0.58333333  1
  Cs  Cs131  1  0.41935115  0.45168163  0.91666667  1
  Cs  Cs132  1  0.41935115  0.78501496  0.25000000  1
  Cs  Cs133  1  0.41935115  0.78501496  0.58333333  1
  Cs  Cs134  1  0.41935115  0.78501496  0.91666667  1
  Cs  Cs135  1  0.91935115  0.11834829  0.25000000  1
  Cs  Cs136  1  0.91935115  0.11834829  0.58333333  1
  Cs  Cs137  1  0.91935115  0.11834829  0.91666667  1
  Cs  Cs138  1  0.91935115  0.45168163  0.25000000  1
  Cs  Cs139  1  0.91935115  0.45168163  0.58333333  1
  Cs  Cs140  1  0.91935115  0.45168163  0.91666667  1
  Cs  Cs141  1  0.91935115  0.78501496  0.25000000  1
  Cs  Cs142  1  0.91935115  0.78501496  0.58333333  1
  Cs  Cs143  1  0.91935115  0.78501496  0.91666667  1
  Sn  Sn144  1  0.25000000  -0.13847503  0.08333333  1
  Sn  Sn145  1  0.25000000  -0.13847503  0.41666667  1
  Sn  Sn146  1  0.25000000  -0.13847503  0.75000000  1
  Sn  Sn147  1  0.25000000  0.19485830  0.08333333  1
  Sn  Sn148  1  0.25000000  0.19485830  0.41666667  1
  Sn  Sn149  1  0.25000000  0.19485830  0.75000000  1
  Sn  Sn150  1  0.25000000  0.52819164  0.08333333  1
  Sn  Sn151  1  0.25000000  0.52819164  0.41666667  1
  Sn  Sn152  1  0.25000000  0.52819164  0.75000000  1
  Sn  Sn153  1  0.75000000  -0.13847503  0.08333333  1
  Sn  Sn154  1  0.75000000  -0.13847503  0.41666667  1
  Sn  Sn155  1  0.75000000  -0.13847503  0.75000000  1
  Sn  Sn156  1  0.75000000  0.19485830  0.08333333  1
  Sn  Sn157  1  0.75000000  0.19485830  0.41666667  1
  Sn  Sn158  1  0.75000000  0.19485830  0.75000000  1
  Sn  Sn159  1  0.75000000  0.52819164  0.08333333  1
  Sn  Sn160  1  0.75000000  0.52819164  0.41666667  1
  Sn  Sn161  1  0.75000000  0.52819164  0.75000000  1
  Sn  Sn162  1  0.50000000  0.02819164  0.08333333  1
  Sn  Sn163  1  0.50000000  0.02819164  0.41666667  1
  Sn  Sn164  1  0.50000000  0.02819164  0.75000000  1
  Sn  Sn165  1  0.50000000  0.36152497  0.08333333  1
  Sn  Sn166  1  0.50000000  0.36152497  0.41666667  1
  Sn  Sn167  1  0.50000000  0.36152497  0.75000000  1
  Sn  Sn168  1  0.50000000  0.69485830  0.08333333  1
  Sn  Sn169  1  0.50000000  0.69485830  0.41666667  1
  Sn  Sn170  1  0.50000000  0.69485830  0.75000000  1
  Sn  Sn171  1  1.00000000  0.02819164  0.08333333  1
  Sn  Sn172  1  1.00000000  0.02819164  0.41666667  1
  Sn  Sn173  1  1.00000000  0.02819164  0.75000000  1
  Sn  Sn174  1  1.00000000  0.36152497  0.08333333  1
  Sn  Sn175  1  1.00000000  0.36152497  0.41666667  1
  Sn  Sn176  1  1.00000000  0.36152497  0.75000000  1
  Sn  Sn177  1  1.00000000  0.69485830  0.08333333  1
  Sn  Sn178  1  1.00000000  0.69485830  0.41666667  1
  Sn  Sn179  1  1.00000000  0.69485830  0.75000000  1
  Sn  Sn180  1  0.25000000  0.13847503  0.25000000  1
  Sn  Sn181  1  0.25000000  0.13847503  0.58333333  1
  Sn  Sn182  1  0.25000000  0.13847503  0.91666667  1
  Sn  Sn183  1  0.25000000  0.47180836  0.25000000  1
  Sn  Sn184  1  0.25000000  0.47180836  0.58333333  1
  Sn  Sn185  1  0.25000000  0.47180836  0.91666667  1
  Sn  Sn186  1  0.25000000  0.80514170  0.25000000  1
  Sn  Sn187  1  0.25000000  0.80514170  0.58333333  1
  Sn  Sn188  1  0.25000000  0.80514170  0.91666667  1
  Sn  Sn189  1  0.75000000  0.13847503  0.25000000  1
  Sn  Sn190  1  0.75000000  0.13847503  0.58333333  1
  Sn  Sn191  1  0.75000000  0.13847503  0.91666667  1
  Sn  Sn192  1  0.75000000  0.47180836  0.25000000  1
  Sn  Sn193  1  0.75000000  0.47180836  0.58333333  1
  Sn  Sn194  1  0.75000000  0.47180836  0.91666667  1
  Sn  Sn195  1  0.75000000  0.80514170  0.25000000  1
  Sn  Sn196  1  0.75000000  0.80514170  0.58333333  1
  Sn  Sn197  1  0.75000000  0.80514170  0.91666667  1
  Sn  Sn198  1  0.50000000  0.30514170  0.25000000  1
  Sn  Sn199  1  0.50000000  0.30514170  0.58333333  1
  Sn  Sn200  1  0.50000000  0.30514170  0.91666667  1
  Sn  Sn201  1  0.50000000  0.63847503  0.25000000  1
  Sn  Sn202  1  0.50000000  0.63847503  0.58333333  1
  Sn  Sn203  1  0.50000000  0.63847503  0.91666667  1
  Sn  Sn204  1  0.50000000  0.97180836  0.25000000  1
  Sn  Sn205  1  0.50000000  0.97180836  0.58333333  1
  Sn  Sn206  1  0.50000000  0.97180836  0.91666667  1
  Sn  Sn207  1  1.00000000  0.30514170  0.25000000  1
  Sn  Sn208  1  1.00000000  0.30514170  0.58333333  1
  Sn  Sn209  1  1.00000000  0.30514170  0.91666667  1
  Sn  Sn210  1  1.00000000  0.63847503  0.25000000  1
  Sn  Sn211  1  1.00000000  0.63847503  0.58333333  1
  Sn  Sn212  1  1.00000000  0.63847503  0.91666667  1
  Sn  Sn213  1  1.00000000  0.97180836  0.25000000  1
  Sn  Sn214  1  1.00000000  0.97180836  0.58333333  1
  Sn  Sn215  1  1.00000000  0.97180836  0.91666667  1
  O  O216  1  0.43984367  -0.00000000  0.00000000  1
  O  O217  1  0.43984367  -0.00000000  0.33333333  1
  O  O218  1  0.43984367  -0.00000000  0.66666667  1
  O  O219  1  0.43984367  0.33333333  0.00000000  1
  O  O220  1  0.43984367  0.33333333  0.33333333  1
  O  O221  1  0.43984367  0.33333333  0.66666667  1
  O  O222  1  0.43984367  0.66666667  0.00000000  1
  O  O223  1  0.43984367  0.66666667  0.33333333  1
  O  O224  1  0.43984367  0.66666667  0.66666667  1
  O  O225  1  0.93984367  -0.00000000  0.00000000  1
  O  O226  1  0.93984367  -0.00000000  0.33333333  1
  O  O227  1  0.93984367  -0.00000000  0.66666667  1
  O  O228  1  0.93984367  0.33333333  0.00000000  1
  O  O229  1  0.93984367  0.33333333  0.33333333  1
  O  O230  1  0.93984367  0.33333333  0.66666667  1
  O  O231  1  0.93984367  0.66666667  0.00000000  1
  O  O232  1  0.93984367  0.66666667  0.33333333  1
  O  O233  1  0.93984367  0.66666667  0.66666667  1
  O  O234  1  0.68984367  0.16666667  0.00000000  1
  O  O235  1  0.68984367  0.16666667  0.33333333  1
  O  O236  1  0.68984367  0.16666667  0.66666667  1
  O  O237  1  0.68984367  0.50000000  0.00000000  1
  O  O238  1  0.68984367  0.50000000  0.33333333  1
  O  O239  1  0.68984367  0.50000000  0.66666667  1
  O  O240  1  0.68984367  0.83333333  0.00000000  1
  O  O241  1  0.68984367  0.83333333  0.33333333  1
  O  O242  1  0.68984367  0.83333333  0.66666667  1
  O  O243  1  1.18984367  0.16666667  0.00000000  1
  O  O244  1  1.18984367  0.16666667  0.33333333  1
  O  O245  1  1.18984367  0.16666667  0.66666667  1
  O  O246  1  1.18984367  0.50000000  0.00000000  1
  O  O247  1  1.18984367  0.50000000  0.33333333  1
  O  O248  1  1.18984367  0.50000000  0.66666667  1
  O  O249  1  1.18984367  0.83333333  0.00000000  1
  O  O250  1  1.18984367  0.83333333  0.33333333  1
  O  O251  1  1.18984367  0.83333333  0.66666667  1
  O  O252  1  0.43984367  -0.00000000  0.16666667  1
  O  O253  1  0.43984367  -0.00000000  0.50000000  1
  O  O254  1  0.43984367  -0.00000000  0.83333333  1
  O  O255  1  0.43984367  0.33333333  0.16666667  1
  O  O256  1  0.43984367  0.33333333  0.50000000  1
  O  O257  1  0.43984367  0.33333333  0.83333333  1
  O  O258  1  0.43984367  0.66666667  0.16666667  1
  O  O259  1  0.43984367  0.66666667  0.50000000  1
  O  O260  1  0.43984367  0.66666667  0.83333333  1
  O  O261  1  0.93984367  -0.00000000  0.16666667  1
  O  O262  1  0.93984367  -0.00000000  0.50000000  1
  O  O263  1  0.93984367  -0.00000000  0.83333333  1
  O  O264  1  0.93984367  0.33333333  0.16666667  1
  O  O265  1  0.93984367  0.33333333  0.50000000  1
  O  O266  1  0.93984367  0.33333333  0.83333333  1
  O  O267  1  0.93984367  0.66666667  0.16666667  1
  O  O268  1  0.93984367  0.66666667  0.50000000  1
  O  O269  1  0.93984367  0.66666667  0.83333333  1
  O  O270  1  0.68984367  0.16666667  0.16666667  1
  O  O271  1  0.68984367  0.16666667  0.50000000  1
  O  O272  1  0.68984367  0.16666667  0.83333333  1
  O  O273  1  0.68984367  0.50000000  0.16666667  1
  O  O274  1  0.68984367  0.50000000  0.50000000  1
  O  O275  1  0.68984367  0.50000000  0.83333333  1
  O  O276  1  0.68984367  0.83333333  0.16666667  1
  O  O277  1  0.68984367  0.83333333  0.50000000  1
  O  O278  1  0.68984367  0.83333333  0.83333333  1
  O  O279  1  1.18984367  0.16666667  0.16666667  1
  O  O280  1  1.18984367  0.16666667  0.50000000  1
  O  O281  1  1.18984367  0.16666667  0.83333333  1
  O  O282  1  1.18984367  0.50000000  0.16666667  1
  O  O283  1  1.18984367  0.50000000  0.50000000  1
  O  O284  1  1.18984367  0.50000000  0.83333333  1
  O  O285  1  1.18984367  0.83333333  0.16666667  1
  O  O286  1  1.18984367  0.83333333  0.50000000  1
  O  O287  1  1.18984367  0.83333333  0.83333333  1
  O  O288  1  0.25000000  0.05393793  0.25000000  1
  O  O289  1  0.25000000  0.05393793  0.58333333  1
  O  O290  1  0.25000000  0.05393793  0.91666667  1
  O  O291  1  0.25000000  0.38727126  0.25000000  1
  O  O292  1  0.25000000  0.38727126  0.58333333  1
  O  O293  1  0.25000000  0.38727126  0.91666667  1
  O  O294  1  0.25000000  0.72060460  0.25000000  1
  O  O295  1  0.25000000  0.72060460  0.58333333  1
  O  O296  1  0.25000000  0.72060460  0.91666667  1
  O  O297  1  0.75000000  0.05393793  0.25000000  1
  O  O298  1  0.75000000  0.05393793  0.58333333  1
  O  O299  1  0.75000000  0.05393793  0.91666667  1
  O  O300  1  0.75000000  0.38727126  0.25000000  1
  O  O301  1  0.75000000  0.38727126  0.58333333  1
  O  O302  1  0.75000000  0.38727126  0.91666667  1
  O  O303  1  0.75000000  0.72060460  0.25000000  1
  O  O304  1  0.75000000  0.72060460  0.58333333  1
  O  O305  1  0.75000000  0.72060460  0.91666667  1
  O  O306  1  0.50000000  0.22060460  0.25000000  1
  O  O307  1  0.50000000  0.22060460  0.58333333  1
  O  O308  1  0.50000000  0.22060460  0.91666667  1
  O  O309  1  0.50000000  0.55393793  0.25000000  1
  O  O310  1  0.50000000  0.55393793  0.58333333  1
  O  O311  1  0.50000000  0.55393793  0.91666667  1
  O  O312  1  0.50000000  0.88727126  0.25000000  1
  O  O313  1  0.50000000  0.88727126  0.58333333  1
  O  O314  1  0.50000000  0.88727126  0.91666667  1
  O  O315  1  1.00000000  0.22060460  0.25000000  1
  O  O316  1  1.00000000  0.22060460  0.58333333  1
  O  O317  1  1.00000000  0.22060460  0.91666667  1
  O  O318  1  1.00000000  0.55393793  0.25000000  1
  O  O319  1  1.00000000  0.55393793  0.58333333  1
  O  O320  1  1.00000000  0.55393793  0.91666667  1
  O  O321  1  1.00000000  0.88727126  0.25000000  1
  O  O322  1  1.00000000  0.88727126  0.58333333  1
  O  O323  1  1.00000000  0.88727126  0.91666667  1
  O  O324  1  0.25000000  -0.05393793  0.08333333  1
  O  O325  1  0.25000000  -0.05393793  0.41666667  1
  O  O326  1  0.25000000  -0.05393793  0.75000000  1
  O  O327  1  0.25000000  0.27939540  0.08333333  1
  O  O328  1  0.25000000  0.27939540  0.41666667  1
  O  O329  1  0.25000000  0.27939540  0.75000000  1
  O  O330  1  0.25000000  0.61272874  0.08333333  1
  O  O331  1  0.25000000  0.61272874  0.41666667  1
  O  O332  1  0.25000000  0.61272874  0.75000000  1
  O  O333  1  0.75000000  -0.05393793  0.08333333  1
  O  O334  1  0.75000000  -0.05393793  0.41666667  1
  O  O335  1  0.75000000  -0.05393793  0.75000000  1
  O  O336  1  0.75000000  0.27939540  0.08333333  1
  O  O337  1  0.75000000  0.27939540  0.41666667  1
  O  O338  1  0.75000000  0.27939540  0.75000000  1
  O  O339  1  0.75000000  0.61272874  0.08333333  1
  O  O340  1  0.75000000  0.61272874  0.41666667  1
  O  O341  1  0.75000000  0.61272874  0.75000000  1
  O  O342  1  0.50000000  0.11272874  0.08333333  1
  O  O343  1  0.50000000  0.11272874  0.41666667  1
  O  O344  1  0.50000000  0.11272874  0.75000000  1
  O  O345  1  0.50000000  0.44606207  0.08333333  1
  O  O346  1  0.50000000  0.44606207  0.41666667  1
  O  O347  1  0.50000000  0.44606207  0.75000000  1
  O  O348  1  0.50000000  0.77939540  0.08333333  1
  O  O349  1  0.50000000  0.77939540  0.41666667  1
  O  O350  1  0.50000000  0.77939540  0.75000000  1
  O  O351  1  1.00000000  0.11272874  0.08333333  1
  O  O352  1  1.00000000  0.11272874  0.41666667  1
  O  O353  1  1.00000000  0.11272874  0.75000000  1
  O  O354  1  1.00000000  0.44606207  0.08333333  1
  O  O355  1  1.00000000  0.44606207  0.41666667  1
  O  O356  1  1.00000000  0.44606207  0.75000000  1
  O  O357  1  1.00000000  0.77939540  0.08333333  1
  O  O358  1  1.00000000  0.77939540  0.41666667  1
  O  O359  1  1.00000000  0.77939540  0.75000000  1
  O  O360  1  0.06015633  0.00000000  0.00000000  1
  O  O361  1  0.06015633  0.00000000  0.33333333  1
  O  O362  1  0.06015633  0.00000000  0.66666667  1
  O  O363  1  0.06015633  0.33333333  0.00000000  1
  O  O364  1  0.06015633  0.33333333  0.33333333  1
  O  O365  1  0.06015633  0.33333333  0.66666667  1
  O  O366  1  0.06015633  0.66666667  0.00000000  1
  O  O367  1  0.06015633  0.66666667  0.33333333  1
  O  O368  1  0.06015633  0.66666667  0.66666667  1
  O  O369  1  0.56015633  0.00000000  0.00000000  1
  O  O370  1  0.56015633  0.00000000  0.33333333  1
  O  O371  1  0.56015633  0.00000000  0.66666667  1
  O  O372  1  0.56015633  0.33333333  0.00000000  1
  O  O373  1  0.56015633  0.33333333  0.33333333  1
  O  O374  1  0.56015633  0.33333333  0.66666667  1
  O  O375  1  0.56015633  0.66666667  0.00000000  1
  O  O376  1  0.56015633  0.66666667  0.33333333  1
  O  O377  1  0.56015633  0.66666667  0.66666667  1
  O  O378  1  0.31015633  0.16666667  0.00000000  1
  O  O379  1  0.31015633  0.16666667  0.33333333  1
  O  O380  1  0.31015633  0.16666667  0.66666667  1
  O  O381  1  0.31015633  0.50000000  0.00000000  1
  O  O382  1  0.31015633  0.50000000  0.33333333  1
  O  O383  1  0.31015633  0.50000000  0.66666667  1
  O  O384  1  0.31015633  0.83333333  0.00000000  1
  O  O385  1  0.31015633  0.83333333  0.33333333  1
  O  O386  1  0.31015633  0.83333333  0.66666667  1
  O  O387  1  0.81015633  0.16666667  0.00000000  1
  O  O388  1  0.81015633  0.16666667  0.33333333  1
  O  O389  1  0.81015633  0.16666667  0.66666667  1
  O  O390  1  0.81015633  0.50000000  0.00000000  1
  O  O391  1  0.81015633  0.50000000  0.33333333  1
  O  O392  1  0.81015633  0.50000000  0.66666667  1
  O  O393  1  0.81015633  0.83333333  0.00000000  1
  O  O394  1  0.81015633  0.83333333  0.33333333  1
  O  O395  1  0.81015633  0.83333333  0.66666667  1
  O  O396  1  0.06015633  0.00000000  0.16666667  1
  O  O397  1  0.06015633  0.00000000  0.50000000  1
  O  O398  1  0.06015633  0.00000000  0.83333333  1
  O  O399  1  0.06015633  0.33333333  0.16666667  1
  O  O400  1  0.06015633  0.33333333  0.50000000  1
  O  O401  1  0.06015633  0.33333333  0.83333333  1
  O  O402  1  0.06015633  0.66666667  0.16666667  1
  O  O403  1  0.06015633  0.66666667  0.50000000  1
  O  O404  1  0.06015633  0.66666667  0.83333333  1
  O  O405  1  0.56015633  0.00000000  0.16666667  1
  O  O406  1  0.56015633  0.00000000  0.50000000  1
  O  O407  1  0.56015633  0.00000000  0.83333333  1
  O  O408  1  0.56015633  0.33333333  0.16666667  1
  O  O409  1  0.56015633  0.33333333  0.50000000  1
  O  O410  1  0.56015633  0.33333333  0.83333333  1
  O  O411  1  0.56015633  0.66666667  0.16666667  1
  O  O412  1  0.56015633  0.66666667  0.50000000  1
  O  O413  1  0.56015633  0.66666667  0.83333333  1
  O  O414  1  0.31015633  0.16666667  0.16666667  1
  O  O415  1  0.31015633  0.16666667  0.50000000  1
  O  O416  1  0.31015633  0.16666667  0.83333333  1
  O  O417  1  0.31015633  0.50000000  0.16666667  1
  O  O418  1  0.31015633  0.50000000  0.50000000  1
  O  O419  1  0.31015633  0.50000000  0.83333333  1
  O  O420  1  0.31015633  0.83333333  0.16666667  1
  O  O421  1  0.31015633  0.83333333  0.50000000  1
  O  O422  1  0.31015633  0.83333333  0.83333333  1
  O  O423  1  0.81015633  0.16666667  0.16666667  1
  O  O424  1  0.81015633  0.16666667  0.50000000  1
  O  O425  1  0.81015633  0.16666667  0.83333333  1
  O  O426  1  0.81015633  0.50000000  0.16666667  1
  O  O427  1  0.81015633  0.50000000  0.50000000  1
  O  O428  1  0.81015633  0.50000000  0.83333333  1
  O  O429  1  0.81015633  0.83333333  0.16666667  1
  O  O430  1  0.81015633  0.83333333  0.50000000  1
  O  O431  1  0.81015633  0.83333333  0.83333333  1
