# generated using pymatgen
data_Na6PbO5
_symmetry_space_group_name_H-M   'P 1'
_cell_length_a   10.61525065
_cell_length_b   11.30913829
_cell_length_c   10.87129911
_cell_angle_alpha   90.00000000
_cell_angle_beta   90.00000000
_cell_angle_gamma   90.00000000
_symmetry_Int_Tables_number   1
_chemical_formula_structural   Na6PbO5
_chemical_formula_sum   'Na48 Pb8 O40'
_cell_volume   1305.09225656
_cell_formula_units_Z   8
loop_
 _symmetry_equiv_pos_site_id
 _symmetry_equiv_pos_as_xyz
  1  'x, y, z'
loop_
 _atom_site_type_symbol
 _atom_site_label
 _atom_site_symmetry_multiplicity
 _atom_site_fract_x
 _atom_site_fract_y
 _atom_site_fract_z
 _atom_site_occupancy
  Na  Na0  1  0.50000000  0.08776163  0.94034029  1
  Na  Na1  1  0.50000000  0.58776163  0.94034029  1
  Na  Na2  1  1.00000000  0.33776163  0.94034029  1
  Na  Na3  1  1.00000000  0.83776163  0.94034029  1
  Na  Na4  1  0.50000000  0.08776163  0.55965971  1
  Na  Na5  1  0.50000000  0.58776163  0.55965971  1
  Na  Na6  1  1.00000000  0.33776163  0.55965971  1
  Na  Na7  1  1.00000000  0.83776163  0.55965971  1
  Na  Na8  1  0.50000000  -0.08776163  0.44034029  1
  Na  Na9  1  0.50000000  0.41223837  0.44034029  1
  Na  Na10  1  1.00000000  0.16223837  0.44034029  1
  Na  Na11  1  1.00000000  0.66223837  0.44034029  1
  Na  Na12  1  0.29808793  -0.06494139  0.25000000  1
  Na  Na13  1  0.29808793  0.43505861  0.25000000  1
  Na  Na14  1  0.79808793  0.18505861  0.25000000  1
  Na  Na15  1  0.79808793  0.68505861  0.25000000  1
  Na  Na16  1  0.78100305  -0.00000000  0.00000000  1
  Na  Na17  1  0.78100305  0.50000000  0.00000000  1
  Na  Na18  1  1.28100305  0.25000000  0.00000000  1
  Na  Na19  1  1.28100305  0.75000000  0.00000000  1
  Na  Na20  1  0.70191207  -0.06494139  0.25000000  1
  Na  Na21  1  0.70191207  0.43505861  0.25000000  1
  Na  Na22  1  1.20191207  0.18505861  0.25000000  1
  Na  Na23  1  1.20191207  0.68505861  0.25000000  1
  Na  Na24  1  0.21899695  -0.00000000  0.50000000  1
  Na  Na25  1  0.21899695  0.50000000  0.50000000  1
  Na  Na26  1  0.71899695  0.25000000  0.50000000  1
  Na  Na27  1  0.71899695  0.75000000  0.50000000  1
  Na  Na28  1  0.50000000  -0.08776163  0.05965971  1
  Na  Na29  1  0.50000000  0.41223837  0.05965971  1
  Na  Na30  1  1.00000000  0.16223837  0.05965971  1
  Na  Na31  1  1.00000000  0.66223837  0.05965971  1
  Na  Na32  1  0.29808793  0.06494139  0.75000000  1
  Na  Na33  1  0.29808793  0.56494139  0.75000000  1
  Na  Na34  1  0.79808793  0.31494139  0.75000000  1
  Na  Na35  1  0.79808793  0.81494139  0.75000000  1
  Na  Na36  1  0.21899695  -0.00000000  0.00000000  1
  Na  Na37  1  0.21899695  0.50000000  0.00000000  1
  Na  Na38  1  0.71899695  0.25000000  0.00000000  1
  Na  Na39  1  0.71899695  0.75000000  0.00000000  1
  Na  Na40  1  0.78100305  -0.00000000  0.50000000  1
  Na  Na41  1  0.78100305  0.50000000  0.50000000  1
  Na  Na42  1  1.28100305  0.25000000  0.50000000  1
  Na  Na43  1  1.28100305  0.75000000  0.50000000  1
  Na  Na44  1  0.70191207  0.06494139  0.75000000  1
  Na  Na45  1  0.70191207  0.56494139  0.75000000  1
  Na  Na46  1  1.20191207  0.31494139  0.75000000  1
  Na  Na47  1  1.20191207  0.81494139  0.75000000  1
  Pb  Pb48  1  0.50000000  0.14746247  0.25000000  1
  Pb  Pb49  1  0.50000000  0.64746247  0.25000000  1
  Pb  Pb50  1  1.00000000  0.39746247  0.25000000  1
  Pb  Pb51  1  1.00000000  0.89746247  0.25000000  1
  Pb  Pb52  1  0.50000000  -0.14746247  0.75000000  1
  Pb  Pb53  1  0.50000000  0.35253753  0.75000000  1
  Pb  Pb54  1  1.00000000  0.10253753  0.75000000  1
  Pb  Pb55  1  1.00000000  0.60253753  0.75000000  1
  O  O56  1  0.50000000  0.16292075  0.75000000  1
  O  O57  1  0.50000000  0.66292075  0.75000000  1
  O  O58  1  1.00000000  0.41292075  0.75000000  1
  O  O59  1  1.00000000  0.91292075  0.75000000  1
  O  O60  1  0.64060548  0.09729652  0.11268613  1
  O  O61  1  0.64060548  0.59729652  0.11268613  1
  O  O62  1  1.14060548  0.34729652  0.11268613  1
  O  O63  1  1.14060548  0.84729652  0.11268613  1
  O  O64  1  0.35939452  0.09729652  0.38731387  1
  O  O65  1  0.35939452  0.59729652  0.38731387  1
  O  O66  1  0.85939452  0.34729652  0.38731387  1
  O  O67  1  0.85939452  0.84729652  0.38731387  1
  O  O68  1  0.64060548  0.09729652  0.38731387  1
  O  O69  1  0.64060548  0.59729652  0.38731387  1
  O  O70  1  1.14060548  0.34729652  0.38731387  1
  O  O71  1  1.14060548  0.84729652  0.38731387  1
  O  O72  1  0.35939452  -0.09729652  0.61268613  1
  O  O73  1  0.35939452  0.40270348  0.61268613  1
  O  O74  1  0.85939452  0.15270348  0.61268613  1
  O  O75  1  0.85939452  0.65270348  0.61268613  1
  O  O76  1  0.35939452  -0.09729652  0.88731387  1
  O  O77  1  0.35939452  0.40270348  0.88731387  1
  O  O78  1  0.85939452  0.15270348  0.88731387  1
  O  O79  1  0.85939452  0.65270348  0.88731387  1
  O  O80  1  0.35939452  0.09729652  0.11268613  1
  O  O81  1  0.35939452  0.59729652  0.11268613  1
  O  O82  1  0.85939452  0.34729652  0.11268613  1
  O  O83  1  0.85939452  0.84729652  0.11268613  1
  O  O84  1  0.64060548  -0.09729652  0.88731387  1
  O  O85  1  0.64060548  0.40270348  0.88731387  1
  O  O86  1  1.14060548  0.15270348  0.88731387  1
  O  O87  1  1.14060548  0.65270348  0.88731387  1
  O  O88  1  0.50000000  -0.16292075  0.25000000  1
  O  O89  1  0.50000000  0.33707925  0.25000000  1
  O  O90  1  1.00000000  0.08707925  0.25000000  1
  O  O91  1  1.00000000  0.58707925  0.25000000  1
  O  O92  1  0.64060548  -0.09729652  0.61268613  1
  O  O93  1  0.64060548  0.40270348  0.61268613  1
  O  O94  1  1.14060548  0.15270348  0.61268613  1
  O  O95  1  1.14060548  0.65270348  0.61268613  1
