# generated using pymatgen
data_Rb2Ti(SiO3)3
_symmetry_space_group_name_H-M   'P 1'
_cell_length_a   13.78964744
_cell_length_b   13.78964744
_cell_length_c   10.03430910
_cell_angle_alpha   90.00000000
_cell_angle_beta   90.00000000
_cell_angle_gamma   120.00000000
_symmetry_Int_Tables_number   1
_chemical_formula_structural   Rb2Ti(SiO3)3
_chemical_formula_sum   'Rb16 Ti8 Si24 O72'
_cell_volume   1652.43518011
_cell_formula_units_Z   8
loop_
 _symmetry_equiv_pos_site_id
 _symmetry_equiv_pos_as_xyz
  1  'x, y, z'
loop_
 _atom_site_type_symbol
 _atom_site_label
 _atom_site_symmetry_multiplicity
 _atom_site_fract_x
 _atom_site_fract_y
 _atom_site_fract_z
 _atom_site_occupancy
  Rb  Rb0  1  0.33333333  0.16666667  0.94303509  1
  Rb  Rb1  1  0.33333333  0.66666667  0.94303509  1
  Rb  Rb2  1  0.83333333  0.16666667  0.94303509  1
  Rb  Rb3  1  0.83333333  0.66666667  0.94303509  1
  Rb  Rb4  1  0.16666667  0.33333333  0.44303509  1
  Rb  Rb5  1  0.16666667  0.83333333  0.44303509  1
  Rb  Rb6  1  0.66666667  0.33333333  0.44303509  1
  Rb  Rb7  1  0.66666667  0.83333333  0.44303509  1
  Rb  Rb8  1  0.16666667  0.33333333  0.05696491  1
  Rb  Rb9  1  0.16666667  0.83333333  0.05696491  1
  Rb  Rb10  1  0.66666667  0.33333333  0.05696491  1
  Rb  Rb11  1  0.66666667  0.83333333  0.05696491  1
  Rb  Rb12  1  0.33333333  0.16666667  0.55696491  1
  Rb  Rb13  1  0.33333333  0.66666667  0.55696491  1
  Rb  Rb14  1  0.83333333  0.16666667  0.55696491  1
  Rb  Rb15  1  0.83333333  0.66666667  0.55696491  1
  Ti  Ti16  1  0.00000000  0.00000000  0.00000000  1
  Ti  Ti17  1  0.00000000  0.50000000  0.00000000  1
  Ti  Ti18  1  0.50000000  0.00000000  0.00000000  1
  Ti  Ti19  1  0.50000000  0.50000000  0.00000000  1
  Ti  Ti20  1  0.00000000  0.00000000  0.50000000  1
  Ti  Ti21  1  0.00000000  0.50000000  0.50000000  1
  Ti  Ti22  1  0.50000000  0.00000000  0.50000000  1
  Ti  Ti23  1  0.50000000  0.50000000  0.50000000  1
  Si  Si24  1  0.37862587  0.06727634  0.25000000  1
  Si  Si25  1  0.37862587  0.56727634  0.25000000  1
  Si  Si26  1  0.87862587  0.06727634  0.25000000  1
  Si  Si27  1  0.87862587  0.56727634  0.25000000  1
  Si  Si28  1  0.31134953  0.37862587  0.75000000  1
  Si  Si29  1  0.31134953  0.87862587  0.75000000  1
  Si  Si30  1  0.81134953  0.37862587  0.75000000  1
  Si  Si31  1  0.81134953  0.87862587  0.75000000  1
  Si  Si32  1  0.06727634  0.18865047  0.75000000  1
  Si  Si33  1  0.06727634  0.68865047  0.75000000  1
  Si  Si34  1  0.56727634  0.18865047  0.75000000  1
  Si  Si35  1  0.56727634  0.68865047  0.75000000  1
  Si  Si36  1  0.43272366  0.31134953  0.25000000  1
  Si  Si37  1  0.43272366  0.81134953  0.25000000  1
  Si  Si38  1  0.93272366  0.31134953  0.25000000  1
  Si  Si39  1  0.93272366  0.81134953  0.25000000  1
  Si  Si40  1  0.18865047  0.12137413  0.25000000  1
  Si  Si41  1  0.18865047  0.62137413  0.25000000  1
  Si  Si42  1  0.68865047  0.12137413  0.25000000  1
  Si  Si43  1  0.68865047  0.62137413  0.25000000  1
  Si  Si44  1  0.12137413  0.43272366  0.75000000  1
  Si  Si45  1  0.12137413  0.93272366  0.75000000  1
  Si  Si46  1  0.62137413  0.43272366  0.75000000  1
  Si  Si47  1  0.62137413  0.93272366  0.75000000  1
  O  O48  1  0.10794237  0.48514250  0.88757781  1
  O  O49  1  0.10794237  0.98514250  0.88757781  1
  O  O50  1  0.60794237  0.48514250  0.88757781  1
  O  O51  1  0.60794237  0.98514250  0.88757781  1
  O  O52  1  0.12279987  0.10794237  0.38757781  1
  O  O53  1  0.12279987  0.60794237  0.38757781  1
  O  O54  1  0.62279987  0.10794237  0.38757781  1
  O  O55  1  0.62279987  0.60794237  0.38757781  1
  O  O56  1  0.48514250  0.37720013  0.38757781  1
  O  O57  1  0.48514250  0.87720013  0.38757781  1
  O  O58  1  0.98514250  0.37720013  0.38757781  1
  O  O59  1  0.98514250  0.87720013  0.38757781  1
  O  O60  1  0.01485750  0.12279987  0.88757781  1
  O  O61  1  0.01485750  0.62279987  0.88757781  1
  O  O62  1  0.51485750  0.12279987  0.88757781  1
  O  O63  1  0.51485750  0.62279987  0.88757781  1
  O  O64  1  0.37720013  0.39205763  0.88757781  1
  O  O65  1  0.37720013  0.89205763  0.88757781  1
  O  O66  1  0.87720013  0.39205763  0.88757781  1
  O  O67  1  0.87720013  0.89205763  0.88757781  1
  O  O68  1  0.39205763  0.01485750  0.38757781  1
  O  O69  1  0.39205763  0.51485750  0.38757781  1
  O  O70  1  0.89205763  0.01485750  0.38757781  1
  O  O71  1  0.89205763  0.51485750  0.38757781  1
  O  O72  1  0.39205763  0.01485750  0.11242219  1
  O  O73  1  0.39205763  0.51485750  0.11242219  1
  O  O74  1  0.89205763  0.01485750  0.11242219  1
  O  O75  1  0.89205763  0.51485750  0.11242219  1
  O  O76  1  0.37720013  0.39205763  0.61242219  1
  O  O77  1  0.37720013  0.89205763  0.61242219  1
  O  O78  1  0.87720013  0.39205763  0.61242219  1
  O  O79  1  0.87720013  0.89205763  0.61242219  1
  O  O80  1  0.01485750  0.12279987  0.61242219  1
  O  O81  1  0.01485750  0.62279987  0.61242219  1
  O  O82  1  0.51485750  0.12279987  0.61242219  1
  O  O83  1  0.51485750  0.62279987  0.61242219  1
  O  O84  1  0.48514250  0.37720013  0.11242219  1
  O  O85  1  0.48514250  0.87720013  0.11242219  1
  O  O86  1  0.98514250  0.37720013  0.11242219  1
  O  O87  1  0.98514250  0.87720013  0.11242219  1
  O  O88  1  0.12279987  0.10794237  0.11242219  1
  O  O89  1  0.12279987  0.60794237  0.11242219  1
  O  O90  1  0.62279987  0.10794237  0.11242219  1
  O  O91  1  0.62279987  0.60794237  0.11242219  1
  O  O92  1  0.10794237  0.48514250  0.61242219  1
  O  O93  1  0.10794237  0.98514250  0.61242219  1
  O  O94  1  0.60794237  0.48514250  0.61242219  1
  O  O95  1  0.60794237  0.98514250  0.61242219  1
  O  O96  1  0.04126479  0.29466572  0.75000000  1
  O  O97  1  0.04126479  0.79466572  0.75000000  1
  O  O98  1  0.54126479  0.29466572  0.75000000  1
  O  O99  1  0.54126479  0.79466572  0.75000000  1
  O  O100  1  0.24659907  0.04126479  0.25000000  1
  O  O101  1  0.24659907  0.54126479  0.25000000  1
  O  O102  1  0.74659907  0.04126479  0.25000000  1
  O  O103  1  0.74659907  0.54126479  0.25000000  1
  O  O104  1  0.29466572  0.25340093  0.25000000  1
  O  O105  1  0.29466572  0.75340093  0.25000000  1
  O  O106  1  0.79466572  0.25340093  0.25000000  1
  O  O107  1  0.79466572  0.75340093  0.25000000  1
  O  O108  1  0.20533428  0.24659907  0.75000000  1
  O  O109  1  0.20533428  0.74659907  0.75000000  1
  O  O110  1  0.70533428  0.24659907  0.75000000  1
  O  O111  1  0.70533428  0.74659907  0.75000000  1
  O  O112  1  0.25340093  0.45873521  0.75000000  1
  O  O113  1  0.25340093  0.95873521  0.75000000  1
  O  O114  1  0.75340093  0.45873521  0.75000000  1
  O  O115  1  0.75340093  0.95873521  0.75000000  1
  O  O116  1  0.45873521  0.20533428  0.25000000  1
  O  O117  1  0.45873521  0.70533428  0.25000000  1
  O  O118  1  0.95873521  0.20533428  0.25000000  1
  O  O119  1  0.95873521  0.70533428  0.25000000  1
