# generated using pymatgen
data_RbAgO
_symmetry_space_group_name_H-M   'P 1'
_cell_length_a   19.89824199
_cell_length_b   19.89824199
_cell_length_c   17.33903859
_cell_angle_alpha   90.00000000
_cell_angle_beta   90.00000000
_cell_angle_gamma   90.00000000
_symmetry_Int_Tables_number   1
_chemical_formula_structural   RbAgO
_chemical_formula_sum   'Rb96 Ag96 O96'
_cell_volume   6865.21953179
_cell_formula_units_Z   96
loop_
 _symmetry_equiv_pos_site_id
 _symmetry_equiv_pos_as_xyz
  1  'x, y, z'
loop_
 _atom_site_type_symbol
 _atom_site_label
 _atom_site_symmetry_multiplicity
 _atom_site_fract_x
 _atom_site_fract_y
 _atom_site_fract_z
 _atom_site_occupancy
  Rb  Rb0  1  0.15652579  0.50000000  0.16666667  1
  Rb  Rb1  1  0.15652579  0.50000000  0.50000000  1
  Rb  Rb2  1  0.15652579  0.50000000  0.83333333  1
  Rb  Rb3  1  0.65652579  0.50000000  0.16666667  1
  Rb  Rb4  1  0.65652579  0.50000000  0.50000000  1
  Rb  Rb5  1  0.65652579  0.50000000  0.83333333  1
  Rb  Rb6  1  0.15652579  -0.00000000  0.16666667  1
  Rb  Rb7  1  0.15652579  -0.00000000  0.50000000  1
  Rb  Rb8  1  0.15652579  -0.00000000  0.83333333  1
  Rb  Rb9  1  0.65652579  -0.00000000  0.16666667  1
  Rb  Rb10  1  0.65652579  -0.00000000  0.50000000  1
  Rb  Rb11  1  0.65652579  -0.00000000  0.83333333  1
  Rb  Rb12  1  0.40652579  0.25000000  0.33333333  1
  Rb  Rb13  1  0.40652579  0.25000000  0.66666667  1
  Rb  Rb14  1  0.40652579  0.25000000  1.00000000  1
  Rb  Rb15  1  0.90652579  0.25000000  0.33333333  1
  Rb  Rb16  1  0.90652579  0.25000000  0.66666667  1
  Rb  Rb17  1  0.90652579  0.25000000  1.00000000  1
  Rb  Rb18  1  0.40652579  -0.25000000  0.33333333  1
  Rb  Rb19  1  0.40652579  -0.25000000  0.66666667  1
  Rb  Rb20  1  0.40652579  -0.25000000  1.00000000  1
  Rb  Rb21  1  0.90652579  -0.25000000  0.33333333  1
  Rb  Rb22  1  0.90652579  -0.25000000  0.66666667  1
  Rb  Rb23  1  0.90652579  -0.25000000  1.00000000  1
  Rb  Rb24  1  0.25000000  0.40652579  0.00000000  1
  Rb  Rb25  1  0.25000000  0.40652579  0.33333333  1
  Rb  Rb26  1  0.25000000  0.40652579  0.66666667  1
  Rb  Rb27  1  0.75000000  0.40652579  0.00000000  1
  Rb  Rb28  1  0.75000000  0.40652579  0.33333333  1
  Rb  Rb29  1  0.75000000  0.40652579  0.66666667  1
  Rb  Rb30  1  0.25000000  -0.09347421  0.00000000  1
  Rb  Rb31  1  0.25000000  -0.09347421  0.33333333  1
  Rb  Rb32  1  0.25000000  -0.09347421  0.66666667  1
  Rb  Rb33  1  0.75000000  -0.09347421  0.00000000  1
  Rb  Rb34  1  0.75000000  -0.09347421  0.33333333  1
  Rb  Rb35  1  0.75000000  -0.09347421  0.66666667  1
  Rb  Rb36  1  0.50000000  0.15652579  0.16666667  1
  Rb  Rb37  1  0.50000000  0.15652579  0.50000000  1
  Rb  Rb38  1  0.50000000  0.15652579  0.83333333  1
  Rb  Rb39  1  1.00000000  0.15652579  0.16666667  1
  Rb  Rb40  1  1.00000000  0.15652579  0.50000000  1
  Rb  Rb41  1  1.00000000  0.15652579  0.83333333  1
  Rb  Rb42  1  0.50000000  -0.34347421  0.16666667  1
  Rb  Rb43  1  0.50000000  -0.34347421  0.50000000  1
  Rb  Rb44  1  0.50000000  -0.34347421  0.83333333  1
  Rb  Rb45  1  1.00000000  -0.34347421  0.16666667  1
  Rb  Rb46  1  1.00000000  -0.34347421  0.50000000  1
  Rb  Rb47  1  1.00000000  -0.34347421  0.83333333  1
  Rb  Rb48  1  0.00000000  0.34347421  0.16666667  1
  Rb  Rb49  1  0.00000000  0.34347421  0.50000000  1
  Rb  Rb50  1  0.00000000  0.34347421  0.83333333  1
  Rb  Rb51  1  0.50000000  0.34347421  0.16666667  1
  Rb  Rb52  1  0.50000000  0.34347421  0.50000000  1
  Rb  Rb53  1  0.50000000  0.34347421  0.83333333  1
  Rb  Rb54  1  0.00000000  -0.15652579  0.16666667  1
  Rb  Rb55  1  0.00000000  -0.15652579  0.50000000  1
  Rb  Rb56  1  0.00000000  -0.15652579  0.83333333  1
  Rb  Rb57  1  0.50000000  -0.15652579  0.16666667  1
  Rb  Rb58  1  0.50000000  -0.15652579  0.50000000  1
  Rb  Rb59  1  0.50000000  -0.15652579  0.83333333  1
  Rb  Rb60  1  0.25000000  0.09347421  0.33333333  1
  Rb  Rb61  1  0.25000000  0.09347421  0.66666667  1
  Rb  Rb62  1  0.25000000  0.09347421  1.00000000  1
  Rb  Rb63  1  0.75000000  0.09347421  0.33333333  1
  Rb  Rb64  1  0.75000000  0.09347421  0.66666667  1
  Rb  Rb65  1  0.75000000  0.09347421  1.00000000  1
  Rb  Rb66  1  0.25000000  -0.40652579  0.33333333  1
  Rb  Rb67  1  0.25000000  -0.40652579  0.66666667  1
  Rb  Rb68  1  0.25000000  -0.40652579  1.00000000  1
  Rb  Rb69  1  0.75000000  -0.40652579  0.33333333  1
  Rb  Rb70  1  0.75000000  -0.40652579  0.66666667  1
  Rb  Rb71  1  0.75000000  -0.40652579  1.00000000  1
  Rb  Rb72  1  0.09347421  0.25000000  -0.00000000  1
  Rb  Rb73  1  0.09347421  0.25000000  0.33333333  1
  Rb  Rb74  1  0.09347421  0.25000000  0.66666667  1
  Rb  Rb75  1  0.59347421  0.25000000  -0.00000000  1
  Rb  Rb76  1  0.59347421  0.25000000  0.33333333  1
  Rb  Rb77  1  0.59347421  0.25000000  0.66666667  1
  Rb  Rb78  1  0.09347421  -0.25000000  -0.00000000  1
  Rb  Rb79  1  0.09347421  -0.25000000  0.33333333  1
  Rb  Rb80  1  0.09347421  -0.25000000  0.66666667  1
  Rb  Rb81  1  0.59347421  -0.25000000  -0.00000000  1
  Rb  Rb82  1  0.59347421  -0.25000000  0.33333333  1
  Rb  Rb83  1  0.59347421  -0.25000000  0.66666667  1
  Rb  Rb84  1  0.34347421  0.00000000  0.16666667  1
  Rb  Rb85  1  0.34347421  0.00000000  0.50000000  1
  Rb  Rb86  1  0.34347421  0.00000000  0.83333333  1
  Rb  Rb87  1  0.84347421  0.00000000  0.16666667  1
  Rb  Rb88  1  0.84347421  0.00000000  0.50000000  1
  Rb  Rb89  1  0.84347421  0.00000000  0.83333333  1
  Rb  Rb90  1  0.34347421  -0.50000000  0.16666667  1
  Rb  Rb91  1  0.34347421  -0.50000000  0.50000000  1
  Rb  Rb92  1  0.34347421  -0.50000000  0.83333333  1
  Rb  Rb93  1  0.84347421  -0.50000000  0.16666667  1
  Rb  Rb94  1  0.84347421  -0.50000000  0.50000000  1
  Rb  Rb95  1  0.84347421  -0.50000000  0.83333333  1
  Ag  Ag96  1  0.17756368  0.32243632  0.16666667  1
  Ag  Ag97  1  0.17756368  0.32243632  0.50000000  1
  Ag  Ag98  1  0.17756368  0.32243632  0.83333333  1
  Ag  Ag99  1  0.67756368  0.32243632  0.16666667  1
  Ag  Ag100  1  0.67756368  0.32243632  0.50000000  1
  Ag  Ag101  1  0.67756368  0.32243632  0.83333333  1
  Ag  Ag102  1  0.17756368  -0.17756368  0.16666667  1
  Ag  Ag103  1  0.17756368  -0.17756368  0.50000000  1
  Ag  Ag104  1  0.17756368  -0.17756368  0.83333333  1
  Ag  Ag105  1  0.67756368  -0.17756368  0.16666667  1
  Ag  Ag106  1  0.67756368  -0.17756368  0.50000000  1
  Ag  Ag107  1  0.67756368  -0.17756368  0.83333333  1
  Ag  Ag108  1  0.42756368  0.07243632  0.33333333  1
  Ag  Ag109  1  0.42756368  0.07243632  0.66666667  1
  Ag  Ag110  1  0.42756368  0.07243632  1.00000000  1
  Ag  Ag111  1  0.92756368  0.07243632  0.33333333  1
  Ag  Ag112  1  0.92756368  0.07243632  0.66666667  1
  Ag  Ag113  1  0.92756368  0.07243632  1.00000000  1
  Ag  Ag114  1  0.42756368  -0.42756368  0.33333333  1
  Ag  Ag115  1  0.42756368  -0.42756368  0.66666667  1
  Ag  Ag116  1  0.42756368  -0.42756368  1.00000000  1
  Ag  Ag117  1  0.92756368  -0.42756368  0.33333333  1
  Ag  Ag118  1  0.92756368  -0.42756368  0.66666667  1
  Ag  Ag119  1  0.92756368  -0.42756368  1.00000000  1
  Ag  Ag120  1  0.17756368  0.67756368  0.16666667  1
  Ag  Ag121  1  0.17756368  0.67756368  0.50000000  1
  Ag  Ag122  1  0.17756368  0.67756368  0.83333333  1
  Ag  Ag123  1  0.67756368  0.67756368  0.16666667  1
  Ag  Ag124  1  0.67756368  0.67756368  0.50000000  1
  Ag  Ag125  1  0.67756368  0.67756368  0.83333333  1
  Ag  Ag126  1  0.17756368  0.17756368  0.16666667  1
  Ag  Ag127  1  0.17756368  0.17756368  0.50000000  1
  Ag  Ag128  1  0.17756368  0.17756368  0.83333333  1
  Ag  Ag129  1  0.67756368  0.17756368  0.16666667  1
  Ag  Ag130  1  0.67756368  0.17756368  0.50000000  1
  Ag  Ag131  1  0.67756368  0.17756368  0.83333333  1
  Ag  Ag132  1  0.42756368  0.42756368  0.33333333  1
  Ag  Ag133  1  0.42756368  0.42756368  0.66666667  1
  Ag  Ag134  1  0.42756368  0.42756368  1.00000000  1
  Ag  Ag135  1  0.92756368  0.42756368  0.33333333  1
  Ag  Ag136  1  0.92756368  0.42756368  0.66666667  1
  Ag  Ag137  1  0.92756368  0.42756368  1.00000000  1
  Ag  Ag138  1  0.42756368  -0.07243632  0.33333333  1
  Ag  Ag139  1  0.42756368  -0.07243632  0.66666667  1
  Ag  Ag140  1  0.42756368  -0.07243632  1.00000000  1
  Ag  Ag141  1  0.92756368  -0.07243632  0.33333333  1
  Ag  Ag142  1  0.92756368  -0.07243632  0.66666667  1
  Ag  Ag143  1  0.92756368  -0.07243632  1.00000000  1
  Ag  Ag144  1  -0.17756368  0.32243632  0.16666667  1
  Ag  Ag145  1  -0.17756368  0.32243632  0.50000000  1
  Ag  Ag146  1  -0.17756368  0.32243632  0.83333333  1
  Ag  Ag147  1  0.32243632  0.32243632  0.16666667  1
  Ag  Ag148  1  0.32243632  0.32243632  0.50000000  1
  Ag  Ag149  1  0.32243632  0.32243632  0.83333333  1
  Ag  Ag150  1  -0.17756368  -0.17756368  0.16666667  1
  Ag  Ag151  1  -0.17756368  -0.17756368  0.50000000  1
  Ag  Ag152  1  -0.17756368  -0.17756368  0.83333333  1
  Ag  Ag153  1  0.32243632  -0.17756368  0.16666667  1
  Ag  Ag154  1  0.32243632  -0.17756368  0.50000000  1
  Ag  Ag155  1  0.32243632  -0.17756368  0.83333333  1
  Ag  Ag156  1  0.07243632  0.07243632  0.33333333  1
  Ag  Ag157  1  0.07243632  0.07243632  0.66666667  1
  Ag  Ag158  1  0.07243632  0.07243632  1.00000000  1
  Ag  Ag159  1  0.57243632  0.07243632  0.33333333  1
  Ag  Ag160  1  0.57243632  0.07243632  0.66666667  1
  Ag  Ag161  1  0.57243632  0.07243632  1.00000000  1
  Ag  Ag162  1  0.07243632  -0.42756368  0.33333333  1
  Ag  Ag163  1  0.07243632  -0.42756368  0.66666667  1
  Ag  Ag164  1  0.07243632  -0.42756368  1.00000000  1
  Ag  Ag165  1  0.57243632  -0.42756368  0.33333333  1
  Ag  Ag166  1  0.57243632  -0.42756368  0.66666667  1
  Ag  Ag167  1  0.57243632  -0.42756368  1.00000000  1
  Ag  Ag168  1  0.07243632  0.42756368  -0.00000000  1
  Ag  Ag169  1  0.07243632  0.42756368  0.33333333  1
  Ag  Ag170  1  0.07243632  0.42756368  0.66666667  1
  Ag  Ag171  1  0.57243632  0.42756368  -0.00000000  1
  Ag  Ag172  1  0.57243632  0.42756368  0.33333333  1
  Ag  Ag173  1  0.57243632  0.42756368  0.66666667  1
  Ag  Ag174  1  0.07243632  -0.07243632  -0.00000000  1
  Ag  Ag175  1  0.07243632  -0.07243632  0.33333333  1
  Ag  Ag176  1  0.07243632  -0.07243632  0.66666667  1
  Ag  Ag177  1  0.57243632  -0.07243632  -0.00000000  1
  Ag  Ag178  1  0.57243632  -0.07243632  0.33333333  1
  Ag  Ag179  1  0.57243632  -0.07243632  0.66666667  1
  Ag  Ag180  1  0.32243632  0.17756368  0.16666667  1
  Ag  Ag181  1  0.32243632  0.17756368  0.50000000  1
  Ag  Ag182  1  0.32243632  0.17756368  0.83333333  1
  Ag  Ag183  1  0.82243632  0.17756368  0.16666667  1
  Ag  Ag184  1  0.82243632  0.17756368  0.50000000  1
  Ag  Ag185  1  0.82243632  0.17756368  0.83333333  1
  Ag  Ag186  1  0.32243632  -0.32243632  0.16666667  1
  Ag  Ag187  1  0.32243632  -0.32243632  0.50000000  1
  Ag  Ag188  1  0.32243632  -0.32243632  0.83333333  1
  Ag  Ag189  1  0.82243632  -0.32243632  0.16666667  1
  Ag  Ag190  1  0.82243632  -0.32243632  0.50000000  1
  Ag  Ag191  1  0.82243632  -0.32243632  0.83333333  1
  O  O192  1  0.14457917  0.50000000  -0.00000000  1
  O  O193  1  0.14457917  0.50000000  0.33333333  1
  O  O194  1  0.14457917  0.50000000  0.66666667  1
  O  O195  1  0.64457917  0.50000000  -0.00000000  1
  O  O196  1  0.64457917  0.50000000  0.33333333  1
  O  O197  1  0.64457917  0.50000000  0.66666667  1
  O  O198  1  0.14457917  0.00000000  -0.00000000  1
  O  O199  1  0.14457917  0.00000000  0.33333333  1
  O  O200  1  0.14457917  0.00000000  0.66666667  1
  O  O201  1  0.64457917  0.00000000  -0.00000000  1
  O  O202  1  0.64457917  0.00000000  0.33333333  1
  O  O203  1  0.64457917  0.00000000  0.66666667  1
  O  O204  1  0.39457917  0.25000000  0.16666667  1
  O  O205  1  0.39457917  0.25000000  0.50000000  1
  O  O206  1  0.39457917  0.25000000  0.83333333  1
  O  O207  1  0.89457917  0.25000000  0.16666667  1
  O  O208  1  0.89457917  0.25000000  0.50000000  1
  O  O209  1  0.89457917  0.25000000  0.83333333  1
  O  O210  1  0.39457917  -0.25000000  0.16666667  1
  O  O211  1  0.39457917  -0.25000000  0.50000000  1
  O  O212  1  0.39457917  -0.25000000  0.83333333  1
  O  O213  1  0.89457917  -0.25000000  0.16666667  1
  O  O214  1  0.89457917  -0.25000000  0.50000000  1
  O  O215  1  0.89457917  -0.25000000  0.83333333  1
  O  O216  1  -0.00000000  0.14457917  -0.00000000  1
  O  O217  1  -0.00000000  0.14457917  0.33333333  1
  O  O218  1  -0.00000000  0.14457917  0.66666667  1
  O  O219  1  0.50000000  0.14457917  -0.00000000  1
  O  O220  1  0.50000000  0.14457917  0.33333333  1
  O  O221  1  0.50000000  0.14457917  0.66666667  1
  O  O222  1  -0.00000000  -0.35542083  -0.00000000  1
  O  O223  1  -0.00000000  -0.35542083  0.33333333  1
  O  O224  1  -0.00000000  -0.35542083  0.66666667  1
  O  O225  1  0.50000000  -0.35542083  -0.00000000  1
  O  O226  1  0.50000000  -0.35542083  0.33333333  1
  O  O227  1  0.50000000  -0.35542083  0.66666667  1
  O  O228  1  0.25000000  -0.10542083  0.16666667  1
  O  O229  1  0.25000000  -0.10542083  0.50000000  1
  O  O230  1  0.25000000  -0.10542083  0.83333333  1
  O  O231  1  0.75000000  -0.10542083  0.16666667  1
  O  O232  1  0.75000000  -0.10542083  0.50000000  1
  O  O233  1  0.75000000  -0.10542083  0.83333333  1
  O  O234  1  0.25000000  -0.60542083  0.16666667  1
  O  O235  1  0.25000000  -0.60542083  0.50000000  1
  O  O236  1  0.25000000  -0.60542083  0.83333333  1
  O  O237  1  0.75000000  -0.60542083  0.16666667  1
  O  O238  1  0.75000000  -0.60542083  0.50000000  1
  O  O239  1  0.75000000  -0.60542083  0.83333333  1
  O  O240  1  -0.00000000  0.35542083  -0.00000000  1
  O  O241  1  -0.00000000  0.35542083  0.33333333  1
  O  O242  1  -0.00000000  0.35542083  0.66666667  1
  O  O243  1  0.50000000  0.35542083  -0.00000000  1
  O  O244  1  0.50000000  0.35542083  0.33333333  1
  O  O245  1  0.50000000  0.35542083  0.66666667  1
  O  O246  1  -0.00000000  -0.14457917  -0.00000000  1
  O  O247  1  -0.00000000  -0.14457917  0.33333333  1
  O  O248  1  -0.00000000  -0.14457917  0.66666667  1
  O  O249  1  0.50000000  -0.14457917  -0.00000000  1
  O  O250  1  0.50000000  -0.14457917  0.33333333  1
  O  O251  1  0.50000000  -0.14457917  0.66666667  1
  O  O252  1  0.25000000  0.10542083  0.16666667  1
  O  O253  1  0.25000000  0.10542083  0.50000000  1
  O  O254  1  0.25000000  0.10542083  0.83333333  1
  O  O255  1  0.75000000  0.10542083  0.16666667  1
  O  O256  1  0.75000000  0.10542083  0.50000000  1
  O  O257  1  0.75000000  0.10542083  0.83333333  1
  O  O258  1  0.25000000  -0.39457917  0.16666667  1
  O  O259  1  0.25000000  -0.39457917  0.50000000  1
  O  O260  1  0.25000000  -0.39457917  0.83333333  1
  O  O261  1  0.75000000  -0.39457917  0.16666667  1
  O  O262  1  0.75000000  -0.39457917  0.50000000  1
  O  O263  1  0.75000000  -0.39457917  0.83333333  1
  O  O264  1  0.35542083  0.50000000  -0.00000000  1
  O  O265  1  0.35542083  0.50000000  0.33333333  1
  O  O266  1  0.35542083  0.50000000  0.66666667  1
  O  O267  1  0.85542083  0.50000000  -0.00000000  1
  O  O268  1  0.85542083  0.50000000  0.33333333  1
  O  O269  1  0.85542083  0.50000000  0.66666667  1
  O  O270  1  0.35542083  0.00000000  -0.00000000  1
  O  O271  1  0.35542083  0.00000000  0.33333333  1
  O  O272  1  0.35542083  0.00000000  0.66666667  1
  O  O273  1  0.85542083  0.00000000  -0.00000000  1
  O  O274  1  0.85542083  0.00000000  0.33333333  1
  O  O275  1  0.85542083  0.00000000  0.66666667  1
  O  O276  1  0.60542083  0.25000000  0.16666667  1
  O  O277  1  0.60542083  0.25000000  0.50000000  1
  O  O278  1  0.60542083  0.25000000  0.83333333  1
  O  O279  1  1.10542083  0.25000000  0.16666667  1
  O  O280  1  1.10542083  0.25000000  0.50000000  1
  O  O281  1  1.10542083  0.25000000  0.83333333  1
  O  O282  1  0.60542083  -0.25000000  0.16666667  1
  O  O283  1  0.60542083  -0.25000000  0.50000000  1
  O  O284  1  0.60542083  -0.25000000  0.83333333  1
  O  O285  1  1.10542083  -0.25000000  0.16666667  1
  O  O286  1  1.10542083  -0.25000000  0.50000000  1
  O  O287  1  1.10542083  -0.25000000  0.83333333  1
