# generated using pymatgen
data_Cd2BiAsO6
_symmetry_space_group_name_H-M   'P 1'
_cell_length_a   8.68643531
_cell_length_b   11.47676530
_cell_length_c   11.26240415
_cell_angle_alpha   90.00000000
_cell_angle_beta   90.00000000
_cell_angle_gamma   90.00000000
_symmetry_Int_Tables_number   1
_chemical_formula_structural   Cd2BiAsO6
_chemical_formula_sum   'Cd16 Bi8 As8 O48'
_cell_volume   1122.77361444
_cell_formula_units_Z   8
loop_
 _symmetry_equiv_pos_site_id
 _symmetry_equiv_pos_as_xyz
  1  'x, y, z'
loop_
 _atom_site_type_symbol
 _atom_site_label
 _atom_site_symmetry_multiplicity
 _atom_site_fract_x
 _atom_site_fract_y
 _atom_site_fract_z
 _atom_site_occupancy
  Cd  Cd0  1  0.29645169  0.11107255  0.31545465  1
  Cd  Cd1  1  0.29645169  0.11107255  0.81545465  1
  Cd  Cd2  1  0.79645169  0.61107255  0.31545465  1
  Cd  Cd3  1  0.79645169  0.61107255  0.81545465  1
  Cd  Cd4  1  0.70354831  0.11107255  0.31545465  1
  Cd  Cd5  1  0.70354831  0.11107255  0.81545465  1
  Cd  Cd6  1  1.20354831  0.61107255  0.31545465  1
  Cd  Cd7  1  1.20354831  0.61107255  0.81545465  1
  Cd  Cd8  1  0.70354831  -0.11107255  0.06545465  1
  Cd  Cd9  1  0.70354831  -0.11107255  0.56545465  1
  Cd  Cd10  1  1.20354831  0.38892745  0.06545465  1
  Cd  Cd11  1  1.20354831  0.38892745  0.56545465  1
  Cd  Cd12  1  0.29645169  -0.11107255  0.06545465  1
  Cd  Cd13  1  0.29645169  -0.11107255  0.56545465  1
  Cd  Cd14  1  0.79645169  0.38892745  0.06545465  1
  Cd  Cd15  1  0.79645169  0.38892745  0.56545465  1
  Bi  Bi16  1  0.50000000  0.40344670  0.31140915  1
  Bi  Bi17  1  0.50000000  0.40344670  0.81140915  1
  Bi  Bi18  1  1.00000000  0.90344670  0.31140915  1
  Bi  Bi19  1  1.00000000  0.90344670  0.81140915  1
  Bi  Bi20  1  0.50000000  -0.40344670  0.06140915  1
  Bi  Bi21  1  0.50000000  -0.40344670  0.56140915  1
  Bi  Bi22  1  1.00000000  0.09655330  0.06140915  1
  Bi  Bi23  1  1.00000000  0.09655330  0.56140915  1
  As  As24  1  0.50000000  -0.16654893  0.32277620  1
  As  As25  1  0.50000000  -0.16654893  0.82277620  1
  As  As26  1  1.00000000  0.33345107  0.32277620  1
  As  As27  1  1.00000000  0.33345107  0.82277620  1
  As  As28  1  0.50000000  0.16654893  0.07277620  1
  As  As29  1  0.50000000  0.16654893  0.57277620  1
  As  As30  1  1.00000000  0.66654893  0.07277620  1
  As  As31  1  1.00000000  0.66654893  0.57277620  1
  O  O32  1  0.15546776  0.00259345  0.18926878  1
  O  O33  1  0.15546776  0.00259345  0.68926878  1
  O  O34  1  0.65546776  0.50259345  0.18926878  1
  O  O35  1  0.65546776  0.50259345  0.68926878  1
  O  O36  1  0.34020773  -0.22535809  0.39186891  1
  O  O37  1  0.34020773  -0.22535809  0.89186891  1
  O  O38  1  0.84020773  0.27464191  0.39186891  1
  O  O39  1  0.84020773  0.27464191  0.89186891  1
  O  O40  1  0.15546776  -0.00259345  0.43926878  1
  O  O41  1  0.15546776  -0.00259345  0.93926878  1
  O  O42  1  0.65546776  0.49740655  0.43926878  1
  O  O43  1  0.65546776  0.49740655  0.93926878  1
  O  O44  1  0.84453224  0.00259345  0.18926878  1
  O  O45  1  0.84453224  0.00259345  0.68926878  1
  O  O46  1  1.34453224  0.50259345  0.18926878  1
  O  O47  1  1.34453224  0.50259345  0.68926878  1
  O  O48  1  0.84453224  -0.00259345  0.43926878  1
  O  O49  1  0.84453224  -0.00259345  0.93926878  1
  O  O50  1  1.34453224  0.49740655  0.43926878  1
  O  O51  1  1.34453224  0.49740655  0.93926878  1
  O  O52  1  0.50000000  0.01969105  0.09334346  1
  O  O53  1  0.50000000  0.01969105  0.59334346  1
  O  O54  1  1.00000000  0.51969105  0.09334346  1
  O  O55  1  1.00000000  0.51969105  0.59334346  1
  O  O56  1  0.50000000  -0.20255088  0.17358151  1
  O  O57  1  0.50000000  -0.20255088  0.67358151  1
  O  O58  1  1.00000000  0.29744912  0.17358151  1
  O  O59  1  1.00000000  0.29744912  0.67358151  1
  O  O60  1  0.65979227  0.22535809  0.14186891  1
  O  O61  1  0.65979227  0.22535809  0.64186891  1
  O  O62  1  1.15979227  0.72535809  0.14186891  1
  O  O63  1  1.15979227  0.72535809  0.64186891  1
  O  O64  1  0.34020773  0.22535809  0.14186891  1
  O  O65  1  0.34020773  0.22535809  0.64186891  1
  O  O66  1  0.84020773  0.72535809  0.14186891  1
  O  O67  1  0.84020773  0.72535809  0.64186891  1
  O  O68  1  0.50000000  -0.01969105  0.34334346  1
  O  O69  1  0.50000000  -0.01969105  0.84334346  1
  O  O70  1  1.00000000  0.48030895  0.34334346  1
  O  O71  1  1.00000000  0.48030895  0.84334346  1
  O  O72  1  0.50000000  0.20255088  0.42358151  1
  O  O73  1  0.50000000  0.20255088  0.92358151  1
  O  O74  1  1.00000000  0.70255088  0.42358151  1
  O  O75  1  1.00000000  0.70255088  0.92358151  1
  O  O76  1  0.65979227  -0.22535809  0.39186891  1
  O  O77  1  0.65979227  -0.22535809  0.89186891  1
  O  O78  1  1.15979227  0.27464191  0.39186891  1
  O  O79  1  1.15979227  0.27464191  0.89186891  1
