# generated using pymatgen
data_Ag2BiO3
_symmetry_space_group_name_H-M   'P 1'
_cell_length_a   18.17250531
_cell_length_b   18.72468149
_cell_length_c   19.10690318
_cell_angle_alpha   90.00000000
_cell_angle_beta   90.00000000
_cell_angle_gamma   90.00000000
_symmetry_Int_Tables_number   1
_chemical_formula_structural   Ag2BiO3
_chemical_formula_sum   'Ag144 Bi72 O216'
_cell_volume   6501.58951409
_cell_formula_units_Z   72
loop_
 _symmetry_equiv_pos_site_id
 _symmetry_equiv_pos_as_xyz
  1  'x, y, z'
loop_
 _atom_site_type_symbol
 _atom_site_label
 _atom_site_symmetry_multiplicity
 _atom_site_fract_x
 _atom_site_fract_y
 _atom_site_fract_z
 _atom_site_occupancy
  Ag  Ag0  1  0.32366331  0.25232477  0.12755901  1
  Ag  Ag1  1  0.32366331  0.25232477  0.62755901  1
  Ag  Ag2  1  0.32366331  0.58565810  0.12755901  1
  Ag  Ag3  1  0.32366331  0.58565810  0.62755901  1
  Ag  Ag4  1  0.32366331  0.91899143  0.12755901  1
  Ag  Ag5  1  0.32366331  0.91899143  0.62755901  1
  Ag  Ag6  1  0.65699664  0.25232477  0.12755901  1
  Ag  Ag7  1  0.65699664  0.25232477  0.62755901  1
  Ag  Ag8  1  0.65699664  0.58565810  0.12755901  1
  Ag  Ag9  1  0.65699664  0.58565810  0.62755901  1
  Ag  Ag10  1  0.65699664  0.91899143  0.12755901  1
  Ag  Ag11  1  0.65699664  0.91899143  0.62755901  1
  Ag  Ag12  1  0.99032997  0.25232477  0.12755901  1
  Ag  Ag13  1  0.99032997  0.25232477  0.62755901  1
  Ag  Ag14  1  0.99032997  0.58565810  0.12755901  1
  Ag  Ag15  1  0.99032997  0.58565810  0.62755901  1
  Ag  Ag16  1  0.99032997  0.91899143  0.12755901  1
  Ag  Ag17  1  0.99032997  0.91899143  0.62755901  1
  Ag  Ag18  1  0.24877389  0.00002270  0.24821109  1
  Ag  Ag19  1  0.24877389  0.00002270  0.74821109  1
  Ag  Ag20  1  0.24877389  0.33335603  0.24821109  1
  Ag  Ag21  1  0.24877389  0.33335603  0.74821109  1
  Ag  Ag22  1  0.24877389  0.66668937  0.24821109  1
  Ag  Ag23  1  0.24877389  0.66668937  0.74821109  1
  Ag  Ag24  1  0.58210722  0.00002270  0.24821109  1
  Ag  Ag25  1  0.58210722  0.00002270  0.74821109  1
  Ag  Ag26  1  0.58210722  0.33335603  0.24821109  1
  Ag  Ag27  1  0.58210722  0.33335603  0.74821109  1
  Ag  Ag28  1  0.58210722  0.66668937  0.24821109  1
  Ag  Ag29  1  0.58210722  0.66668937  0.74821109  1
  Ag  Ag30  1  0.91544056  0.00002270  0.24821109  1
  Ag  Ag31  1  0.91544056  0.00002270  0.74821109  1
  Ag  Ag32  1  0.91544056  0.33335603  0.24821109  1
  Ag  Ag33  1  0.91544056  0.33335603  0.74821109  1
  Ag  Ag34  1  0.91544056  0.66668937  0.24821109  1
  Ag  Ag35  1  0.91544056  0.66668937  0.74821109  1
  Ag  Ag36  1  0.08210722  0.16664397  0.49821109  1
  Ag  Ag37  1  0.08210722  0.16664397  0.99821109  1
  Ag  Ag38  1  0.08210722  0.49997730  0.49821109  1
  Ag  Ag39  1  0.08210722  0.49997730  0.99821109  1
  Ag  Ag40  1  0.08210722  0.83331063  0.49821109  1
  Ag  Ag41  1  0.08210722  0.83331063  0.99821109  1
  Ag  Ag42  1  0.41544056  0.16664397  0.49821109  1
  Ag  Ag43  1  0.41544056  0.16664397  0.99821109  1
  Ag  Ag44  1  0.41544056  0.49997730  0.49821109  1
  Ag  Ag45  1  0.41544056  0.49997730  0.99821109  1
  Ag  Ag46  1  0.41544056  0.83331063  0.49821109  1
  Ag  Ag47  1  0.41544056  0.83331063  0.99821109  1
  Ag  Ag48  1  0.74877389  0.16664397  0.49821109  1
  Ag  Ag49  1  0.74877389  0.16664397  0.99821109  1
  Ag  Ag50  1  0.74877389  0.49997730  0.49821109  1
  Ag  Ag51  1  0.74877389  0.49997730  0.99821109  1
  Ag  Ag52  1  0.74877389  0.83331063  0.49821109  1
  Ag  Ag53  1  0.74877389  0.83331063  0.99821109  1
  Ag  Ag54  1  0.25122611  0.16668937  0.49821109  1
  Ag  Ag55  1  0.25122611  0.16668937  0.99821109  1
  Ag  Ag56  1  0.25122611  0.50002270  0.49821109  1
  Ag  Ag57  1  0.25122611  0.50002270  0.99821109  1
  Ag  Ag58  1  0.25122611  0.83335603  0.49821109  1
  Ag  Ag59  1  0.25122611  0.83335603  0.99821109  1
  Ag  Ag60  1  0.58455944  0.16668937  0.49821109  1
  Ag  Ag61  1  0.58455944  0.16668937  0.99821109  1
  Ag  Ag62  1  0.58455944  0.50002270  0.49821109  1
  Ag  Ag63  1  0.58455944  0.50002270  0.99821109  1
  Ag  Ag64  1  0.58455944  0.83335603  0.49821109  1
  Ag  Ag65  1  0.58455944  0.83335603  0.99821109  1
  Ag  Ag66  1  0.91789278  0.16668937  0.49821109  1
  Ag  Ag67  1  0.91789278  0.16668937  0.99821109  1
  Ag  Ag68  1  0.91789278  0.50002270  0.49821109  1
  Ag  Ag69  1  0.91789278  0.50002270  0.99821109  1
  Ag  Ag70  1  0.91789278  0.83335603  0.49821109  1
  Ag  Ag71  1  0.91789278  0.83335603  0.99821109  1
  Ag  Ag72  1  0.17633669  0.08565810  0.37755901  1
  Ag  Ag73  1  0.17633669  0.08565810  0.87755901  1
  Ag  Ag74  1  0.17633669  0.41899143  0.37755901  1
  Ag  Ag75  1  0.17633669  0.41899143  0.87755901  1
  Ag  Ag76  1  0.17633669  0.75232477  0.37755901  1
  Ag  Ag77  1  0.17633669  0.75232477  0.87755901  1
  Ag  Ag78  1  0.50967003  0.08565810  0.37755901  1
  Ag  Ag79  1  0.50967003  0.08565810  0.87755901  1
  Ag  Ag80  1  0.50967003  0.41899143  0.37755901  1
  Ag  Ag81  1  0.50967003  0.41899143  0.87755901  1
  Ag  Ag82  1  0.50967003  0.75232477  0.37755901  1
  Ag  Ag83  1  0.50967003  0.75232477  0.87755901  1
  Ag  Ag84  1  0.84300336  0.08565810  0.37755901  1
  Ag  Ag85  1  0.84300336  0.08565810  0.87755901  1
  Ag  Ag86  1  0.84300336  0.41899143  0.37755901  1
  Ag  Ag87  1  0.84300336  0.41899143  0.87755901  1
  Ag  Ag88  1  0.84300336  0.75232477  0.37755901  1
  Ag  Ag89  1  0.84300336  0.75232477  0.87755901  1
  Ag  Ag90  1  0.15699664  0.24767523  0.37755901  1
  Ag  Ag91  1  0.15699664  0.24767523  0.87755901  1
  Ag  Ag92  1  0.15699664  0.58100857  0.37755901  1
  Ag  Ag93  1  0.15699664  0.58100857  0.87755901  1
  Ag  Ag94  1  0.15699664  0.91434190  0.37755901  1
  Ag  Ag95  1  0.15699664  0.91434190  0.87755901  1
  Ag  Ag96  1  0.49032997  0.24767523  0.37755901  1
  Ag  Ag97  1  0.49032997  0.24767523  0.87755901  1
  Ag  Ag98  1  0.49032997  0.58100857  0.37755901  1
  Ag  Ag99  1  0.49032997  0.58100857  0.87755901  1
  Ag  Ag100  1  0.49032997  0.91434190  0.37755901  1
  Ag  Ag101  1  0.49032997  0.91434190  0.87755901  1
  Ag  Ag102  1  0.82366331  0.24767523  0.37755901  1
  Ag  Ag103  1  0.82366331  0.24767523  0.87755901  1
  Ag  Ag104  1  0.82366331  0.58100857  0.37755901  1
  Ag  Ag105  1  0.82366331  0.58100857  0.87755901  1
  Ag  Ag106  1  0.82366331  0.91434190  0.37755901  1
  Ag  Ag107  1  0.82366331  0.91434190  0.87755901  1
  Ag  Ag108  1  0.00967003  0.08100857  0.12755901  1
  Ag  Ag109  1  0.00967003  0.08100857  0.62755901  1
  Ag  Ag110  1  0.00967003  0.41434190  0.12755901  1
  Ag  Ag111  1  0.00967003  0.41434190  0.62755901  1
  Ag  Ag112  1  0.00967003  0.74767523  0.12755901  1
  Ag  Ag113  1  0.00967003  0.74767523  0.62755901  1
  Ag  Ag114  1  0.34300336  0.08100857  0.12755901  1
  Ag  Ag115  1  0.34300336  0.08100857  0.62755901  1
  Ag  Ag116  1  0.34300336  0.41434190  0.12755901  1
  Ag  Ag117  1  0.34300336  0.41434190  0.62755901  1
  Ag  Ag118  1  0.34300336  0.74767523  0.12755901  1
  Ag  Ag119  1  0.34300336  0.74767523  0.62755901  1
  Ag  Ag120  1  0.67633669  0.08100857  0.12755901  1
  Ag  Ag121  1  0.67633669  0.08100857  0.62755901  1
  Ag  Ag122  1  0.67633669  0.41434190  0.12755901  1
  Ag  Ag123  1  0.67633669  0.41434190  0.62755901  1
  Ag  Ag124  1  0.67633669  0.74767523  0.12755901  1
  Ag  Ag125  1  0.67633669  0.74767523  0.62755901  1
  Ag  Ag126  1  0.08455944  0.33331063  0.24821109  1
  Ag  Ag127  1  0.08455944  0.33331063  0.74821109  1
  Ag  Ag128  1  0.08455944  0.66664397  0.24821109  1
  Ag  Ag129  1  0.08455944  0.66664397  0.74821109  1
  Ag  Ag130  1  0.08455944  0.99997730  0.24821109  1
  Ag  Ag131  1  0.08455944  0.99997730  0.74821109  1
  Ag  Ag132  1  0.41789278  0.33331063  0.24821109  1
  Ag  Ag133  1  0.41789278  0.33331063  0.74821109  1
  Ag  Ag134  1  0.41789278  0.66664397  0.24821109  1
  Ag  Ag135  1  0.41789278  0.66664397  0.74821109  1
  Ag  Ag136  1  0.41789278  0.99997730  0.24821109  1
  Ag  Ag137  1  0.41789278  0.99997730  0.74821109  1
  Ag  Ag138  1  0.75122611  0.33331063  0.24821109  1
  Ag  Ag139  1  0.75122611  0.33331063  0.74821109  1
  Ag  Ag140  1  0.75122611  0.66664397  0.24821109  1
  Ag  Ag141  1  0.75122611  0.66664397  0.74821109  1
  Ag  Ag142  1  0.75122611  0.99997730  0.24821109  1
  Ag  Ag143  1  0.75122611  0.99997730  0.74821109  1
  Bi  Bi144  1  0.00000000  0.00000000  0.44823676  1
  Bi  Bi145  1  0.00000000  0.00000000  0.94823676  1
  Bi  Bi146  1  0.00000000  0.33333333  0.44823676  1
  Bi  Bi147  1  0.00000000  0.33333333  0.94823676  1
  Bi  Bi148  1  0.00000000  0.66666667  0.44823676  1
  Bi  Bi149  1  0.00000000  0.66666667  0.94823676  1
  Bi  Bi150  1  0.33333333  0.00000000  0.44823676  1
  Bi  Bi151  1  0.33333333  0.00000000  0.94823676  1
  Bi  Bi152  1  0.33333333  0.33333333  0.44823676  1
  Bi  Bi153  1  0.33333333  0.33333333  0.94823676  1
  Bi  Bi154  1  0.33333333  0.66666667  0.44823676  1
  Bi  Bi155  1  0.33333333  0.66666667  0.94823676  1
  Bi  Bi156  1  0.66666667  0.00000000  0.44823676  1
  Bi  Bi157  1  0.66666667  0.00000000  0.94823676  1
  Bi  Bi158  1  0.66666667  0.33333333  0.44823676  1
  Bi  Bi159  1  0.66666667  0.33333333  0.94823676  1
  Bi  Bi160  1  0.66666667  0.66666667  0.44823676  1
  Bi  Bi161  1  0.66666667  0.66666667  0.94823676  1
  Bi  Bi162  1  0.16666667  0.16666667  0.19823676  1
  Bi  Bi163  1  0.16666667  0.16666667  0.69823676  1
  Bi  Bi164  1  0.16666667  0.50000000  0.19823676  1
  Bi  Bi165  1  0.16666667  0.50000000  0.69823676  1
  Bi  Bi166  1  0.16666667  0.83333333  0.19823676  1
  Bi  Bi167  1  0.16666667  0.83333333  0.69823676  1
  Bi  Bi168  1  0.50000000  0.16666667  0.19823676  1
  Bi  Bi169  1  0.50000000  0.16666667  0.69823676  1
  Bi  Bi170  1  0.50000000  0.50000000  0.19823676  1
  Bi  Bi171  1  0.50000000  0.50000000  0.69823676  1
  Bi  Bi172  1  0.50000000  0.83333333  0.19823676  1
  Bi  Bi173  1  0.50000000  0.83333333  0.69823676  1
  Bi  Bi174  1  0.83333333  0.16666667  0.19823676  1
  Bi  Bi175  1  0.83333333  0.16666667  0.69823676  1
  Bi  Bi176  1  0.83333333  0.50000000  0.19823676  1
  Bi  Bi177  1  0.83333333  0.50000000  0.69823676  1
  Bi  Bi178  1  0.83333333  0.83333333  0.19823676  1
  Bi  Bi179  1  0.83333333  0.83333333  0.69823676  1
  Bi  Bi180  1  0.00000000  0.16666667  0.30296766  1
  Bi  Bi181  1  0.00000000  0.16666667  0.80296766  1
  Bi  Bi182  1  0.00000000  0.50000000  0.30296766  1
  Bi  Bi183  1  0.00000000  0.50000000  0.80296766  1
  Bi  Bi184  1  0.00000000  0.83333333  0.30296766  1
  Bi  Bi185  1  0.00000000  0.83333333  0.80296766  1
  Bi  Bi186  1  0.33333333  0.16666667  0.30296766  1
  Bi  Bi187  1  0.33333333  0.16666667  0.80296766  1
  Bi  Bi188  1  0.33333333  0.50000000  0.30296766  1
  Bi  Bi189  1  0.33333333  0.50000000  0.80296766  1
  Bi  Bi190  1  0.33333333  0.83333333  0.30296766  1
  Bi  Bi191  1  0.33333333  0.83333333  0.80296766  1
  Bi  Bi192  1  0.66666667  0.16666667  0.30296766  1
  Bi  Bi193  1  0.66666667  0.16666667  0.80296766  1
  Bi  Bi194  1  0.66666667  0.50000000  0.30296766  1
  Bi  Bi195  1  0.66666667  0.50000000  0.80296766  1
  Bi  Bi196  1  0.66666667  0.83333333  0.30296766  1
  Bi  Bi197  1  0.66666667  0.83333333  0.80296766  1
  Bi  Bi198  1  0.16666667  0.00000000  0.05296766  1
  Bi  Bi199  1  0.16666667  0.00000000  0.55296766  1
  Bi  Bi200  1  0.16666667  0.33333333  0.05296766  1
  Bi  Bi201  1  0.16666667  0.33333333  0.55296766  1
  Bi  Bi202  1  0.16666667  0.66666667  0.05296766  1
  Bi  Bi203  1  0.16666667  0.66666667  0.55296766  1
  Bi  Bi204  1  0.50000000  0.00000000  0.05296766  1
  Bi  Bi205  1  0.50000000  0.00000000  0.55296766  1
  Bi  Bi206  1  0.50000000  0.33333333  0.05296766  1
  Bi  Bi207  1  0.50000000  0.33333333  0.55296766  1
  Bi  Bi208  1  0.50000000  0.66666667  0.05296766  1
  Bi  Bi209  1  0.50000000  0.66666667  0.55296766  1
  Bi  Bi210  1  0.83333333  0.00000000  0.05296766  1
  Bi  Bi211  1  0.83333333  0.00000000  0.55296766  1
  Bi  Bi212  1  0.83333333  0.33333333  0.05296766  1
  Bi  Bi213  1  0.83333333  0.33333333  0.55296766  1
  Bi  Bi214  1  0.83333333  0.66666667  0.05296766  1
  Bi  Bi215  1  0.83333333  0.66666667  0.55296766  1
  O  O216  1  0.29514707  0.07255602  0.37038357  1
  O  O217  1  0.29514707  0.07255602  0.87038357  1
  O  O218  1  0.29514707  0.40588935  0.37038357  1
  O  O219  1  0.29514707  0.40588935  0.87038357  1
  O  O220  1  0.29514707  0.73922268  0.37038357  1
  O  O221  1  0.29514707  0.73922268  0.87038357  1
  O  O222  1  0.62848041  0.07255602  0.37038357  1
  O  O223  1  0.62848041  0.07255602  0.87038357  1
  O  O224  1  0.62848041  0.40588935  0.37038357  1
  O  O225  1  0.62848041  0.40588935  0.87038357  1
  O  O226  1  0.62848041  0.73922268  0.37038357  1
  O  O227  1  0.62848041  0.73922268  0.87038357  1
  O  O228  1  0.96181374  0.07255602  0.37038357  1
  O  O229  1  0.96181374  0.07255602  0.87038357  1
  O  O230  1  0.96181374  0.40588935  0.37038357  1
  O  O231  1  0.96181374  0.40588935  0.87038357  1
  O  O232  1  0.96181374  0.73922268  0.37038357  1
  O  O233  1  0.96181374  0.73922268  0.87038357  1
  O  O234  1  0.03818626  0.26077732  0.37038357  1
  O  O235  1  0.03818626  0.26077732  0.87038357  1
  O  O236  1  0.03818626  0.59411065  0.37038357  1
  O  O237  1  0.03818626  0.59411065  0.87038357  1
  O  O238  1  0.03818626  0.92744398  0.37038357  1
  O  O239  1  0.03818626  0.92744398  0.87038357  1
  O  O240  1  0.37151959  0.26077732  0.37038357  1
  O  O241  1  0.37151959  0.26077732  0.87038357  1
  O  O242  1  0.37151959  0.59411065  0.37038357  1
  O  O243  1  0.37151959  0.59411065  0.87038357  1
  O  O244  1  0.37151959  0.92744398  0.37038357  1
  O  O245  1  0.37151959  0.92744398  0.87038357  1
  O  O246  1  0.70485293  0.26077732  0.37038357  1
  O  O247  1  0.70485293  0.26077732  0.87038357  1
  O  O248  1  0.70485293  0.59411065  0.37038357  1
  O  O249  1  0.70485293  0.59411065  0.87038357  1
  O  O250  1  0.70485293  0.92744398  0.37038357  1
  O  O251  1  0.70485293  0.92744398  0.87038357  1
  O  O252  1  0.20485293  0.23922268  0.12038357  1
  O  O253  1  0.20485293  0.23922268  0.62038357  1
  O  O254  1  0.20485293  0.57255602  0.12038357  1
  O  O255  1  0.20485293  0.57255602  0.62038357  1
  O  O256  1  0.20485293  0.90588935  0.12038357  1
  O  O257  1  0.20485293  0.90588935  0.62038357  1
  O  O258  1  0.53818626  0.23922268  0.12038357  1
  O  O259  1  0.53818626  0.23922268  0.62038357  1
  O  O260  1  0.53818626  0.57255602  0.12038357  1
  O  O261  1  0.53818626  0.57255602  0.62038357  1
  O  O262  1  0.53818626  0.90588935  0.12038357  1
  O  O263  1  0.53818626  0.90588935  0.62038357  1
  O  O264  1  0.87151959  0.23922268  0.12038357  1
  O  O265  1  0.87151959  0.23922268  0.62038357  1
  O  O266  1  0.87151959  0.57255602  0.12038357  1
  O  O267  1  0.87151959  0.57255602  0.62038357  1
  O  O268  1  0.87151959  0.90588935  0.12038357  1
  O  O269  1  0.87151959  0.90588935  0.62038357  1
  O  O270  1  0.12848041  0.09411065  0.12038357  1
  O  O271  1  0.12848041  0.09411065  0.62038357  1
  O  O272  1  0.12848041  0.42744398  0.12038357  1
  O  O273  1  0.12848041  0.42744398  0.62038357  1
  O  O274  1  0.12848041  0.76077732  0.12038357  1
  O  O275  1  0.12848041  0.76077732  0.62038357  1
  O  O276  1  0.46181374  0.09411065  0.12038357  1
  O  O277  1  0.46181374  0.09411065  0.62038357  1
  O  O278  1  0.46181374  0.42744398  0.12038357  1
  O  O279  1  0.46181374  0.42744398  0.62038357  1
  O  O280  1  0.46181374  0.76077732  0.12038357  1
  O  O281  1  0.46181374  0.76077732  0.62038357  1
  O  O282  1  0.79514707  0.09411065  0.12038357  1
  O  O283  1  0.79514707  0.09411065  0.62038357  1
  O  O284  1  0.79514707  0.42744398  0.12038357  1
  O  O285  1  0.79514707  0.42744398  0.62038357  1
  O  O286  1  0.79514707  0.76077732  0.12038357  1
  O  O287  1  0.79514707  0.76077732  0.62038357  1
  O  O288  1  0.23188543  0.27203631  0.46612093  1
  O  O289  1  0.23188543  0.27203631  0.96612093  1
  O  O290  1  0.23188543  0.60536964  0.46612093  1
  O  O291  1  0.23188543  0.60536964  0.96612093  1
  O  O292  1  0.23188543  0.93870297  0.46612093  1
  O  O293  1  0.23188543  0.93870297  0.96612093  1
  O  O294  1  0.56521876  0.27203631  0.46612093  1
  O  O295  1  0.56521876  0.27203631  0.96612093  1
  O  O296  1  0.56521876  0.60536964  0.46612093  1
  O  O297  1  0.56521876  0.60536964  0.96612093  1
  O  O298  1  0.56521876  0.93870297  0.46612093  1
  O  O299  1  0.56521876  0.93870297  0.96612093  1
  O  O300  1  0.89855210  0.27203631  0.46612093  1
  O  O301  1  0.89855210  0.27203631  0.96612093  1
  O  O302  1  0.89855210  0.60536964  0.46612093  1
  O  O303  1  0.89855210  0.60536964  0.96612093  1
  O  O304  1  0.89855210  0.93870297  0.46612093  1
  O  O305  1  0.89855210  0.93870297  0.96612093  1
  O  O306  1  0.10144790  0.06129703  0.46612093  1
  O  O307  1  0.10144790  0.06129703  0.96612093  1
  O  O308  1  0.10144790  0.39463036  0.46612093  1
  O  O309  1  0.10144790  0.39463036  0.96612093  1
  O  O310  1  0.10144790  0.72796369  0.46612093  1
  O  O311  1  0.10144790  0.72796369  0.96612093  1
  O  O312  1  0.43478124  0.06129703  0.46612093  1
  O  O313  1  0.43478124  0.06129703  0.96612093  1
  O  O314  1  0.43478124  0.39463036  0.46612093  1
  O  O315  1  0.43478124  0.39463036  0.96612093  1
  O  O316  1  0.43478124  0.72796369  0.46612093  1
  O  O317  1  0.43478124  0.72796369  0.96612093  1
  O  O318  1  0.76811457  0.06129703  0.46612093  1
  O  O319  1  0.76811457  0.06129703  0.96612093  1
  O  O320  1  0.76811457  0.39463036  0.46612093  1
  O  O321  1  0.76811457  0.39463036  0.96612093  1
  O  O322  1  0.76811457  0.72796369  0.46612093  1
  O  O323  1  0.76811457  0.72796369  0.96612093  1
  O  O324  1  0.26811457  0.10536964  0.21612093  1
  O  O325  1  0.26811457  0.10536964  0.71612093  1
  O  O326  1  0.26811457  0.43870297  0.21612093  1
  O  O327  1  0.26811457  0.43870297  0.71612093  1
  O  O328  1  0.26811457  0.77203631  0.21612093  1
  O  O329  1  0.26811457  0.77203631  0.71612093  1
  O  O330  1  0.60144790  0.10536964  0.21612093  1
  O  O331  1  0.60144790  0.10536964  0.71612093  1
  O  O332  1  0.60144790  0.43870297  0.21612093  1
  O  O333  1  0.60144790  0.43870297  0.71612093  1
  O  O334  1  0.60144790  0.77203631  0.21612093  1
  O  O335  1  0.60144790  0.77203631  0.71612093  1
  O  O336  1  0.93478124  0.10536964  0.21612093  1
  O  O337  1  0.93478124  0.10536964  0.71612093  1
  O  O338  1  0.93478124  0.43870297  0.21612093  1
  O  O339  1  0.93478124  0.43870297  0.71612093  1
  O  O340  1  0.93478124  0.77203631  0.21612093  1
  O  O341  1  0.93478124  0.77203631  0.71612093  1
  O  O342  1  0.06521876  0.22796369  0.21612093  1
  O  O343  1  0.06521876  0.22796369  0.71612093  1
  O  O344  1  0.06521876  0.56129703  0.21612093  1
  O  O345  1  0.06521876  0.56129703  0.71612093  1
  O  O346  1  0.06521876  0.89463036  0.21612093  1
  O  O347  1  0.06521876  0.89463036  0.71612093  1
  O  O348  1  0.39855210  0.22796369  0.21612093  1
  O  O349  1  0.39855210  0.22796369  0.71612093  1
  O  O350  1  0.39855210  0.56129703  0.21612093  1
  O  O351  1  0.39855210  0.56129703  0.71612093  1
  O  O352  1  0.39855210  0.89463036  0.21612093  1
  O  O353  1  0.39855210  0.89463036  0.71612093  1
  O  O354  1  0.73188543  0.22796369  0.21612093  1
  O  O355  1  0.73188543  0.22796369  0.71612093  1
  O  O356  1  0.73188543  0.56129703  0.21612093  1
  O  O357  1  0.73188543  0.56129703  0.71612093  1
  O  O358  1  0.73188543  0.89463036  0.21612093  1
  O  O359  1  0.73188543  0.89463036  0.71612093  1
  O  O360  1  0.10815258  0.10438287  0.27958794  1
  O  O361  1  0.10815258  0.10438287  0.77958794  1
  O  O362  1  0.10815258  0.43771621  0.27958794  1
  O  O363  1  0.10815258  0.43771621  0.77958794  1
  O  O364  1  0.10815258  0.77104954  0.27958794  1
  O  O365  1  0.10815258  0.77104954  0.77958794  1
  O  O366  1  0.44148591  0.10438287  0.27958794  1
  O  O367  1  0.44148591  0.10438287  0.77958794  1
  O  O368  1  0.44148591  0.43771621  0.27958794  1
  O  O369  1  0.44148591  0.43771621  0.77958794  1
  O  O370  1  0.44148591  0.77104954  0.27958794  1
  O  O371  1  0.44148591  0.77104954  0.77958794  1
  O  O372  1  0.77481924  0.10438287  0.27958794  1
  O  O373  1  0.77481924  0.10438287  0.77958794  1
  O  O374  1  0.77481924  0.43771621  0.27958794  1
  O  O375  1  0.77481924  0.43771621  0.77958794  1
  O  O376  1  0.77481924  0.77104954  0.27958794  1
  O  O377  1  0.77481924  0.77104954  0.77958794  1
  O  O378  1  0.27481924  0.06228379  0.02958794  1
  O  O379  1  0.27481924  0.06228379  0.52958794  1
  O  O380  1  0.27481924  0.39561713  0.02958794  1
  O  O381  1  0.27481924  0.39561713  0.52958794  1
  O  O382  1  0.27481924  0.72895046  0.02958794  1
  O  O383  1  0.27481924  0.72895046  0.52958794  1
  O  O384  1  0.60815258  0.06228379  0.02958794  1
  O  O385  1  0.60815258  0.06228379  0.52958794  1
  O  O386  1  0.60815258  0.39561713  0.02958794  1
  O  O387  1  0.60815258  0.39561713  0.52958794  1
  O  O388  1  0.60815258  0.72895046  0.02958794  1
  O  O389  1  0.60815258  0.72895046  0.52958794  1
  O  O390  1  0.94148591  0.06228379  0.02958794  1
  O  O391  1  0.94148591  0.06228379  0.52958794  1
  O  O392  1  0.94148591  0.39561713  0.02958794  1
  O  O393  1  0.94148591  0.39561713  0.52958794  1
  O  O394  1  0.94148591  0.72895046  0.02958794  1
  O  O395  1  0.94148591  0.72895046  0.52958794  1
  O  O396  1  0.05851409  0.27104954  0.02958794  1
  O  O397  1  0.05851409  0.27104954  0.52958794  1
  O  O398  1  0.05851409  0.60438287  0.02958794  1
  O  O399  1  0.05851409  0.60438287  0.52958794  1
  O  O400  1  0.05851409  0.93771621  0.02958794  1
  O  O401  1  0.05851409  0.93771621  0.52958794  1
  O  O402  1  0.39184742  0.27104954  0.02958794  1
  O  O403  1  0.39184742  0.27104954  0.52958794  1
  O  O404  1  0.39184742  0.60438287  0.02958794  1
  O  O405  1  0.39184742  0.60438287  0.52958794  1
  O  O406  1  0.39184742  0.93771621  0.02958794  1
  O  O407  1  0.39184742  0.93771621  0.52958794  1
  O  O408  1  0.72518076  0.27104954  0.02958794  1
  O  O409  1  0.72518076  0.27104954  0.52958794  1
  O  O410  1  0.72518076  0.60438287  0.02958794  1
  O  O411  1  0.72518076  0.60438287  0.52958794  1
  O  O412  1  0.72518076  0.93771621  0.02958794  1
  O  O413  1  0.72518076  0.93771621  0.52958794  1
  O  O414  1  0.22518076  0.22895046  0.27958794  1
  O  O415  1  0.22518076  0.22895046  0.77958794  1
  O  O416  1  0.22518076  0.56228379  0.27958794  1
  O  O417  1  0.22518076  0.56228379  0.77958794  1
  O  O418  1  0.22518076  0.89561713  0.27958794  1
  O  O419  1  0.22518076  0.89561713  0.77958794  1
  O  O420  1  0.55851409  0.22895046  0.27958794  1
  O  O421  1  0.55851409  0.22895046  0.77958794  1
  O  O422  1  0.55851409  0.56228379  0.27958794  1
  O  O423  1  0.55851409  0.56228379  0.77958794  1
  O  O424  1  0.55851409  0.89561713  0.27958794  1
  O  O425  1  0.55851409  0.89561713  0.77958794  1
  O  O426  1  0.89184742  0.22895046  0.27958794  1
  O  O427  1  0.89184742  0.22895046  0.77958794  1
  O  O428  1  0.89184742  0.56228379  0.27958794  1
  O  O429  1  0.89184742  0.56228379  0.77958794  1
  O  O430  1  0.89184742  0.89561713  0.27958794  1
  O  O431  1  0.89184742  0.89561713  0.77958794  1
