# generated using pymatgen
data_Rb2WO4
_symmetry_space_group_name_H-M   'P 1'
_cell_length_a   12.80160416
_cell_length_b   12.52927703
_cell_length_c   15.69048676
_cell_angle_alpha   90.00000000
_cell_angle_beta   115.88428116
_cell_angle_gamma   90.00000000
_symmetry_Int_Tables_number   1
_chemical_formula_structural   Rb2WO4
_chemical_formula_sum   'Rb32 W16 O64'
_cell_volume   2264.19444565
_cell_formula_units_Z   16
loop_
 _symmetry_equiv_pos_site_id
 _symmetry_equiv_pos_as_xyz
  1  'x, y, z'
loop_
 _atom_site_type_symbol
 _atom_site_label
 _atom_site_symmetry_multiplicity
 _atom_site_fract_x
 _atom_site_fract_y
 _atom_site_fract_z
 _atom_site_occupancy
  Rb  Rb0  1  0.15629429  -0.00000000  0.37324772  1
  Rb  Rb1  1  0.15629429  -0.00000000  0.87324772  1
  Rb  Rb2  1  0.15629429  0.50000000  0.37324772  1
  Rb  Rb3  1  0.15629429  0.50000000  0.87324772  1
  Rb  Rb4  1  0.65629429  0.25000000  0.37324772  1
  Rb  Rb5  1  0.65629429  0.25000000  0.87324772  1
  Rb  Rb6  1  0.65629429  0.75000000  0.37324772  1
  Rb  Rb7  1  0.65629429  0.75000000  0.87324772  1
  Rb  Rb8  1  0.84370571  -0.00000000  0.12675228  1
  Rb  Rb9  1  0.84370571  -0.00000000  0.62675228  1
  Rb  Rb10  1  0.84370571  0.50000000  0.12675228  1
  Rb  Rb11  1  0.84370571  0.50000000  0.62675228  1
  Rb  Rb12  1  1.34370571  0.25000000  0.12675228  1
  Rb  Rb13  1  1.34370571  0.25000000  0.62675228  1
  Rb  Rb14  1  1.34370571  0.75000000  0.12675228  1
  Rb  Rb15  1  1.34370571  0.75000000  0.62675228  1
  Rb  Rb16  1  0.51146062  -0.00000000  0.11854098  1
  Rb  Rb17  1  0.51146062  -0.00000000  0.61854098  1
  Rb  Rb18  1  0.51146062  0.50000000  0.11854098  1
  Rb  Rb19  1  0.51146062  0.50000000  0.61854098  1
  Rb  Rb20  1  1.01146062  0.25000000  0.11854098  1
  Rb  Rb21  1  1.01146062  0.25000000  0.61854098  1
  Rb  Rb22  1  1.01146062  0.75000000  0.11854098  1
  Rb  Rb23  1  1.01146062  0.75000000  0.61854098  1
  Rb  Rb24  1  0.48853938  -0.00000000  0.38145902  1
  Rb  Rb25  1  0.48853938  -0.00000000  0.88145902  1
  Rb  Rb26  1  0.48853938  0.50000000  0.38145902  1
  Rb  Rb27  1  0.48853938  0.50000000  0.88145902  1
  Rb  Rb28  1  0.98853938  0.25000000  0.38145902  1
  Rb  Rb29  1  0.98853938  0.25000000  0.88145902  1
  Rb  Rb30  1  0.98853938  0.75000000  0.38145902  1
  Rb  Rb31  1  0.98853938  0.75000000  0.88145902  1
  W  W32  1  0.82544064  -0.00000000  0.38850970  1
  W  W33  1  0.82544064  -0.00000000  0.88850970  1
  W  W34  1  0.82544064  0.50000000  0.38850970  1
  W  W35  1  0.82544064  0.50000000  0.88850970  1
  W  W36  1  1.32544064  0.25000000  0.38850970  1
  W  W37  1  1.32544064  0.25000000  0.88850970  1
  W  W38  1  1.32544064  0.75000000  0.38850970  1
  W  W39  1  1.32544064  0.75000000  0.88850970  1
  W  W40  1  0.17455936  -0.00000000  0.11149030  1
  W  W41  1  0.17455936  -0.00000000  0.61149030  1
  W  W42  1  0.17455936  0.50000000  0.11149030  1
  W  W43  1  0.17455936  0.50000000  0.61149030  1
  W  W44  1  0.67455936  0.25000000  0.11149030  1
  W  W45  1  0.67455936  0.25000000  0.61149030  1
  W  W46  1  0.67455936  0.75000000  0.11149030  1
  W  W47  1  0.67455936  0.75000000  0.61149030  1
  O  O48  1  0.35829047  0.13303171  0.46156120  1
  O  O49  1  0.35829047  0.13303171  0.96156120  1
  O  O50  1  0.35829047  0.63303171  0.46156120  1
  O  O51  1  0.35829047  0.63303171  0.96156120  1
  O  O52  1  0.85829047  0.38303171  0.46156120  1
  O  O53  1  0.85829047  0.38303171  0.96156120  1
  O  O54  1  0.85829047  0.88303171  0.46156120  1
  O  O55  1  0.85829047  0.88303171  0.96156120  1
  O  O56  1  0.64170953  0.13303171  0.03843880  1
  O  O57  1  0.64170953  0.13303171  0.53843880  1
  O  O58  1  0.64170953  0.63303171  0.03843880  1
  O  O59  1  0.64170953  0.63303171  0.53843880  1
  O  O60  1  1.14170953  0.38303171  0.03843880  1
  O  O61  1  1.14170953  0.38303171  0.53843880  1
  O  O62  1  1.14170953  0.88303171  0.03843880  1
  O  O63  1  1.14170953  0.88303171  0.53843880  1
  O  O64  1  0.64170953  -0.13303171  0.03843880  1
  O  O65  1  0.64170953  -0.13303171  0.53843880  1
  O  O66  1  0.64170953  0.36696829  0.03843880  1
  O  O67  1  0.64170953  0.36696829  0.53843880  1
  O  O68  1  1.14170953  0.11696829  0.03843880  1
  O  O69  1  1.14170953  0.11696829  0.53843880  1
  O  O70  1  1.14170953  0.61696829  0.03843880  1
  O  O71  1  1.14170953  0.61696829  0.53843880  1
  O  O72  1  0.35829047  -0.13303171  0.46156120  1
  O  O73  1  0.35829047  -0.13303171  0.96156120  1
  O  O74  1  0.35829047  0.36696829  0.46156120  1
  O  O75  1  0.35829047  0.36696829  0.96156120  1
  O  O76  1  0.85829047  0.11696829  0.46156120  1
  O  O77  1  0.85829047  0.11696829  0.96156120  1
  O  O78  1  0.85829047  0.61696829  0.46156120  1
  O  O79  1  0.85829047  0.61696829  0.96156120  1
  O  O80  1  0.32783820  -0.00000000  0.18772835  1
  O  O81  1  0.32783820  -0.00000000  0.68772835  1
  O  O82  1  0.32783820  0.50000000  0.18772835  1
  O  O83  1  0.32783820  0.50000000  0.68772835  1
  O  O84  1  0.82783820  0.25000000  0.18772835  1
  O  O85  1  0.82783820  0.25000000  0.68772835  1
  O  O86  1  0.82783820  0.75000000  0.18772835  1
  O  O87  1  0.82783820  0.75000000  0.68772835  1
  O  O88  1  0.67216180  -0.00000000  0.31227165  1
  O  O89  1  0.67216180  -0.00000000  0.81227165  1
  O  O90  1  0.67216180  0.50000000  0.31227165  1
  O  O91  1  0.67216180  0.50000000  0.81227165  1
  O  O92  1  1.17216180  0.25000000  0.31227165  1
  O  O93  1  1.17216180  0.25000000  0.81227165  1
  O  O94  1  1.17216180  0.75000000  0.31227165  1
  O  O95  1  1.17216180  0.75000000  0.81227165  1
  O  O96  1  0.90983121  -0.00000000  0.32223420  1
  O  O97  1  0.90983121  -0.00000000  0.82223420  1
  O  O98  1  0.90983121  0.50000000  0.32223420  1
  O  O99  1  0.90983121  0.50000000  0.82223420  1
  O  O100  1  1.40983121  0.25000000  0.32223420  1
  O  O101  1  1.40983121  0.25000000  0.82223420  1
  O  O102  1  1.40983121  0.75000000  0.32223420  1
  O  O103  1  1.40983121  0.75000000  0.82223420  1
  O  O104  1  0.09016879  -0.00000000  0.17776580  1
  O  O105  1  0.09016879  -0.00000000  0.67776580  1
  O  O106  1  0.09016879  0.50000000  0.17776580  1
  O  O107  1  0.09016879  0.50000000  0.67776580  1
  O  O108  1  0.59016879  0.25000000  0.17776580  1
  O  O109  1  0.59016879  0.25000000  0.67776580  1
  O  O110  1  0.59016879  0.75000000  0.17776580  1
  O  O111  1  0.59016879  0.75000000  0.67776580  1
