# generated using pymatgen
data_CsReO4
_symmetry_space_group_name_H-M   'P 1'
_cell_length_a   11.45347101
_cell_length_b   11.99288814
_cell_length_c   14.24011033
_cell_angle_alpha   90.00000000
_cell_angle_beta   90.00000000
_cell_angle_gamma   90.00000000
_symmetry_Int_Tables_number   1
_chemical_formula_structural   CsReO4
_chemical_formula_sum   'Cs16 Re16 O64'
_cell_volume   1956.02435492
_cell_formula_units_Z   16
loop_
 _symmetry_equiv_pos_site_id
 _symmetry_equiv_pos_as_xyz
  1  'x, y, z'
loop_
 _atom_site_type_symbol
 _atom_site_label
 _atom_site_symmetry_multiplicity
 _atom_site_fract_x
 _atom_site_fract_y
 _atom_site_fract_z
 _atom_site_occupancy
  Cs  Cs0  1  0.23781245  0.12500000  0.62896906  1
  Cs  Cs1  1  0.23781245  0.62500000  0.62896906  1
  Cs  Cs2  1  0.73781245  0.12500000  0.62896906  1
  Cs  Cs3  1  0.73781245  0.62500000  0.62896906  1
  Cs  Cs4  1  0.48781245  0.12500000  0.87103094  1
  Cs  Cs5  1  0.48781245  0.62500000  0.87103094  1
  Cs  Cs6  1  0.98781245  0.12500000  0.87103094  1
  Cs  Cs7  1  0.98781245  0.62500000  0.87103094  1
  Cs  Cs8  1  0.26218755  0.37500000  0.37103094  1
  Cs  Cs9  1  0.26218755  0.87500000  0.37103094  1
  Cs  Cs10  1  0.76218755  0.37500000  0.37103094  1
  Cs  Cs11  1  0.76218755  0.87500000  0.37103094  1
  Cs  Cs12  1  0.01218755  0.37500000  0.12896906  1
  Cs  Cs13  1  0.01218755  0.87500000  0.12896906  1
  Cs  Cs14  1  0.51218755  0.37500000  0.12896906  1
  Cs  Cs15  1  0.51218755  0.87500000  0.12896906  1
  Re  Re16  1  0.22926038  0.37500000  0.88251647  1
  Re  Re17  1  0.22926038  0.87500000  0.88251647  1
  Re  Re18  1  0.72926038  0.37500000  0.88251647  1
  Re  Re19  1  0.72926038  0.87500000  0.88251647  1
  Re  Re20  1  0.47926038  0.37500000  0.61748353  1
  Re  Re21  1  0.47926038  0.87500000  0.61748353  1
  Re  Re22  1  0.97926038  0.37500000  0.61748353  1
  Re  Re23  1  0.97926038  0.87500000  0.61748353  1
  Re  Re24  1  0.27073962  0.12500000  0.11748353  1
  Re  Re25  1  0.27073962  0.62500000  0.11748353  1
  Re  Re26  1  0.77073962  0.12500000  0.11748353  1
  Re  Re27  1  0.77073962  0.62500000  0.11748353  1
  Re  Re28  1  0.02073962  0.12500000  0.38251647  1
  Re  Re29  1  0.02073962  0.62500000  0.38251647  1
  Re  Re30  1  0.52073962  0.12500000  0.38251647  1
  Re  Re31  1  0.52073962  0.62500000  0.38251647  1
  O  O32  1  0.25900013  0.25620532  0.81581116  1
  O  O33  1  0.25900013  0.75620532  0.81581116  1
  O  O34  1  0.75900013  0.25620532  0.81581116  1
  O  O35  1  0.75900013  0.75620532  0.81581116  1
  O  O36  1  0.00900013  0.49379468  0.68418884  1
  O  O37  1  0.00900013  0.99379468  0.68418884  1
  O  O38  1  0.50900013  0.49379468  0.68418884  1
  O  O39  1  0.50900013  0.99379468  0.68418884  1
  O  O40  1  0.24099987  0.00620532  0.18418884  1
  O  O41  1  0.24099987  0.50620532  0.18418884  1
  O  O42  1  0.74099987  0.00620532  0.18418884  1
  O  O43  1  0.74099987  0.50620532  0.18418884  1
  O  O44  1  0.49099987  0.24379468  0.31581116  1
  O  O45  1  0.49099987  0.74379468  0.31581116  1
  O  O46  1  0.99099987  0.24379468  0.31581116  1
  O  O47  1  0.99099987  0.74379468  0.31581116  1
  O  O48  1  0.24099987  0.24379468  0.18418884  1
  O  O49  1  0.24099987  0.74379468  0.18418884  1
  O  O50  1  0.74099987  0.24379468  0.18418884  1
  O  O51  1  0.74099987  0.74379468  0.18418884  1
  O  O52  1  0.49099987  0.00620532  0.31581116  1
  O  O53  1  0.49099987  0.50620532  0.31581116  1
  O  O54  1  0.99099987  0.00620532  0.31581116  1
  O  O55  1  0.99099987  0.50620532  0.31581116  1
  O  O56  1  0.25900013  0.49379468  0.81581116  1
  O  O57  1  0.25900013  0.99379468  0.81581116  1
  O  O58  1  0.75900013  0.49379468  0.81581116  1
  O  O59  1  0.75900013  0.99379468  0.81581116  1
  O  O60  1  0.00900013  0.25620532  0.68418884  1
  O  O61  1  0.00900013  0.75620532  0.68418884  1
  O  O62  1  0.50900013  0.25620532  0.68418884  1
  O  O63  1  0.50900013  0.75620532  0.68418884  1
  O  O64  1  0.41818910  0.12500000  0.08492246  1
  O  O65  1  0.41818910  0.62500000  0.08492246  1
  O  O66  1  0.91818910  0.12500000  0.08492246  1
  O  O67  1  0.91818910  0.62500000  0.08492246  1
  O  O68  1  0.16818910  0.12500000  0.41507754  1
  O  O69  1  0.16818910  0.62500000  0.41507754  1
  O  O70  1  0.66818910  0.12500000  0.41507754  1
  O  O71  1  0.66818910  0.62500000  0.41507754  1
  O  O72  1  0.08181090  0.37500000  0.91507754  1
  O  O73  1  0.08181090  0.87500000  0.91507754  1
  O  O74  1  0.58181090  0.37500000  0.91507754  1
  O  O75  1  0.58181090  0.87500000  0.91507754  1
  O  O76  1  0.33181090  0.37500000  0.58492246  1
  O  O77  1  0.33181090  0.87500000  0.58492246  1
  O  O78  1  0.83181090  0.37500000  0.58492246  1
  O  O79  1  0.83181090  0.87500000  0.58492246  1
  O  O80  1  0.43303913  0.12500000  0.48266879  1
  O  O81  1  0.43303913  0.62500000  0.48266879  1
  O  O82  1  0.93303913  0.12500000  0.48266879  1
  O  O83  1  0.93303913  0.62500000  0.48266879  1
  O  O84  1  0.18303913  0.12500000  0.01733121  1
  O  O85  1  0.18303913  0.62500000  0.01733121  1
  O  O86  1  0.68303913  0.12500000  0.01733121  1
  O  O87  1  0.68303913  0.62500000  0.01733121  1
  O  O88  1  0.06696087  0.37500000  0.51733121  1
  O  O89  1  0.06696087  0.87500000  0.51733121  1
  O  O90  1  0.56696087  0.37500000  0.51733121  1
  O  O91  1  0.56696087  0.87500000  0.51733121  1
  O  O92  1  0.31696087  0.37500000  0.98266879  1
  O  O93  1  0.31696087  0.87500000  0.98266879  1
  O  O94  1  0.81696087  0.37500000  0.98266879  1
  O  O95  1  0.81696087  0.87500000  0.98266879  1
