# generated using pymatgen
data_SrBiO3
_symmetry_space_group_name_H-M   'P 1'
_cell_length_a   17.82031499
_cell_length_b   18.40265952
_cell_length_c   20.72935094
_cell_angle_alpha   90.00000000
_cell_angle_beta   125.02415348
_cell_angle_gamma   90.00000000
_symmetry_Int_Tables_number   1
_chemical_formula_structural   SrBiO3
_chemical_formula_sum   'Sr72 Bi72 O216'
_cell_volume   5566.95792944
_cell_formula_units_Z   72
loop_
 _symmetry_equiv_pos_site_id
 _symmetry_equiv_pos_as_xyz
  1  'x, y, z'
loop_
 _atom_site_type_symbol
 _atom_site_label
 _atom_site_symmetry_multiplicity
 _atom_site_fract_x
 _atom_site_fract_y
 _atom_site_fract_z
 _atom_site_occupancy
  Sr  Sr0  1  0.25545177  0.14935943  0.37540777  1
  Sr  Sr1  1  0.25545177  0.14935943  0.87540777  1
  Sr  Sr2  1  0.25545177  0.48269276  0.37540777  1
  Sr  Sr3  1  0.25545177  0.48269276  0.87540777  1
  Sr  Sr4  1  0.25545177  0.81602610  0.37540777  1
  Sr  Sr5  1  0.25545177  0.81602610  0.87540777  1
  Sr  Sr6  1  0.58878510  0.14935943  0.37540777  1
  Sr  Sr7  1  0.58878510  0.14935943  0.87540777  1
  Sr  Sr8  1  0.58878510  0.48269276  0.37540777  1
  Sr  Sr9  1  0.58878510  0.48269276  0.87540777  1
  Sr  Sr10  1  0.58878510  0.81602610  0.37540777  1
  Sr  Sr11  1  0.58878510  0.81602610  0.87540777  1
  Sr  Sr12  1  0.92211844  0.14935943  0.37540777  1
  Sr  Sr13  1  0.92211844  0.14935943  0.87540777  1
  Sr  Sr14  1  0.92211844  0.48269276  0.37540777  1
  Sr  Sr15  1  0.92211844  0.48269276  0.87540777  1
  Sr  Sr16  1  0.92211844  0.81602610  0.37540777  1
  Sr  Sr17  1  0.92211844  0.81602610  0.87540777  1
  Sr  Sr18  1  0.07788156  0.31602610  0.37459223  1
  Sr  Sr19  1  0.07788156  0.31602610  0.87459223  1
  Sr  Sr20  1  0.07788156  0.64935943  0.37459223  1
  Sr  Sr21  1  0.07788156  0.64935943  0.87459223  1
  Sr  Sr22  1  0.07788156  0.98269276  0.37459223  1
  Sr  Sr23  1  0.07788156  0.98269276  0.87459223  1
  Sr  Sr24  1  0.41121490  0.31602610  0.37459223  1
  Sr  Sr25  1  0.41121490  0.31602610  0.87459223  1
  Sr  Sr26  1  0.41121490  0.64935943  0.37459223  1
  Sr  Sr27  1  0.41121490  0.64935943  0.87459223  1
  Sr  Sr28  1  0.41121490  0.98269276  0.37459223  1
  Sr  Sr29  1  0.41121490  0.98269276  0.87459223  1
  Sr  Sr30  1  0.74454823  0.31602610  0.37459223  1
  Sr  Sr31  1  0.74454823  0.31602610  0.87459223  1
  Sr  Sr32  1  0.74454823  0.64935943  0.37459223  1
  Sr  Sr33  1  0.74454823  0.64935943  0.87459223  1
  Sr  Sr34  1  0.74454823  0.98269276  0.37459223  1
  Sr  Sr35  1  0.74454823  0.98269276  0.87459223  1
  Sr  Sr36  1  0.07788156  0.18397390  0.12459223  1
  Sr  Sr37  1  0.07788156  0.18397390  0.62459223  1
  Sr  Sr38  1  0.07788156  0.51730724  0.12459223  1
  Sr  Sr39  1  0.07788156  0.51730724  0.62459223  1
  Sr  Sr40  1  0.07788156  0.85064057  0.12459223  1
  Sr  Sr41  1  0.07788156  0.85064057  0.62459223  1
  Sr  Sr42  1  0.41121490  0.18397390  0.12459223  1
  Sr  Sr43  1  0.41121490  0.18397390  0.62459223  1
  Sr  Sr44  1  0.41121490  0.51730724  0.12459223  1
  Sr  Sr45  1  0.41121490  0.51730724  0.62459223  1
  Sr  Sr46  1  0.41121490  0.85064057  0.12459223  1
  Sr  Sr47  1  0.41121490  0.85064057  0.62459223  1
  Sr  Sr48  1  0.74454823  0.18397390  0.12459223  1
  Sr  Sr49  1  0.74454823  0.18397390  0.62459223  1
  Sr  Sr50  1  0.74454823  0.51730724  0.12459223  1
  Sr  Sr51  1  0.74454823  0.51730724  0.62459223  1
  Sr  Sr52  1  0.74454823  0.85064057  0.12459223  1
  Sr  Sr53  1  0.74454823  0.85064057  0.62459223  1
  Sr  Sr54  1  0.25545177  0.01730724  0.12540777  1
  Sr  Sr55  1  0.25545177  0.01730724  0.62540777  1
  Sr  Sr56  1  0.25545177  0.35064057  0.12540777  1
  Sr  Sr57  1  0.25545177  0.35064057  0.62540777  1
  Sr  Sr58  1  0.25545177  0.68397390  0.12540777  1
  Sr  Sr59  1  0.25545177  0.68397390  0.62540777  1
  Sr  Sr60  1  0.58878510  0.01730724  0.12540777  1
  Sr  Sr61  1  0.58878510  0.01730724  0.62540777  1
  Sr  Sr62  1  0.58878510  0.35064057  0.12540777  1
  Sr  Sr63  1  0.58878510  0.35064057  0.62540777  1
  Sr  Sr64  1  0.58878510  0.68397390  0.12540777  1
  Sr  Sr65  1  0.58878510  0.68397390  0.62540777  1
  Sr  Sr66  1  0.92211844  0.01730724  0.12540777  1
  Sr  Sr67  1  0.92211844  0.01730724  0.62540777  1
  Sr  Sr68  1  0.92211844  0.35064057  0.12540777  1
  Sr  Sr69  1  0.92211844  0.35064057  0.62540777  1
  Sr  Sr70  1  0.92211844  0.68397390  0.12540777  1
  Sr  Sr71  1  0.92211844  0.68397390  0.62540777  1
  Bi  Bi72  1  0.00000000  0.00000000  0.00000000  1
  Bi  Bi73  1  -0.00000000  0.00000000  0.50000000  1
  Bi  Bi74  1  0.00000000  0.33333333  0.00000000  1
  Bi  Bi75  1  -0.00000000  0.33333333  0.50000000  1
  Bi  Bi76  1  0.00000000  0.66666667  0.00000000  1
  Bi  Bi77  1  -0.00000000  0.66666667  0.50000000  1
  Bi  Bi78  1  0.33333333  0.00000000  0.00000000  1
  Bi  Bi79  1  0.33333333  0.00000000  0.50000000  1
  Bi  Bi80  1  0.33333333  0.33333333  0.00000000  1
  Bi  Bi81  1  0.33333333  0.33333333  0.50000000  1
  Bi  Bi82  1  0.33333333  0.66666667  0.00000000  1
  Bi  Bi83  1  0.33333333  0.66666667  0.50000000  1
  Bi  Bi84  1  0.66666667  0.00000000  0.00000000  1
  Bi  Bi85  1  0.66666667  0.00000000  0.50000000  1
  Bi  Bi86  1  0.66666667  0.33333333  0.00000000  1
  Bi  Bi87  1  0.66666667  0.33333333  0.50000000  1
  Bi  Bi88  1  0.66666667  0.66666667  0.00000000  1
  Bi  Bi89  1  0.66666667  0.66666667  0.50000000  1
  Bi  Bi90  1  0.00000000  0.16666667  0.25000000  1
  Bi  Bi91  1  -0.00000000  0.16666667  0.75000000  1
  Bi  Bi92  1  0.00000000  0.50000000  0.25000000  1
  Bi  Bi93  1  -0.00000000  0.50000000  0.75000000  1
  Bi  Bi94  1  0.00000000  0.83333333  0.25000000  1
  Bi  Bi95  1  -0.00000000  0.83333333  0.75000000  1
  Bi  Bi96  1  0.33333333  0.16666667  0.25000000  1
  Bi  Bi97  1  0.33333333  0.16666667  0.75000000  1
  Bi  Bi98  1  0.33333333  0.50000000  0.25000000  1
  Bi  Bi99  1  0.33333333  0.50000000  0.75000000  1
  Bi  Bi100  1  0.33333333  0.83333333  0.25000000  1
  Bi  Bi101  1  0.33333333  0.83333333  0.75000000  1
  Bi  Bi102  1  0.66666667  0.16666667  0.25000000  1
  Bi  Bi103  1  0.66666667  0.16666667  0.75000000  1
  Bi  Bi104  1  0.66666667  0.50000000  0.25000000  1
  Bi  Bi105  1  0.66666667  0.50000000  0.75000000  1
  Bi  Bi106  1  0.66666667  0.83333333  0.25000000  1
  Bi  Bi107  1  0.66666667  0.83333333  0.75000000  1
  Bi  Bi108  1  0.16666667  0.00000000  0.25000000  1
  Bi  Bi109  1  0.16666667  0.00000000  0.75000000  1
  Bi  Bi110  1  0.16666667  0.33333333  0.25000000  1
  Bi  Bi111  1  0.16666667  0.33333333  0.75000000  1
  Bi  Bi112  1  0.16666667  0.66666667  0.25000000  1
  Bi  Bi113  1  0.16666667  0.66666667  0.75000000  1
  Bi  Bi114  1  0.50000000  0.00000000  0.25000000  1
  Bi  Bi115  1  0.50000000  0.00000000  0.75000000  1
  Bi  Bi116  1  0.50000000  0.33333333  0.25000000  1
  Bi  Bi117  1  0.50000000  0.33333333  0.75000000  1
  Bi  Bi118  1  0.50000000  0.66666667  0.25000000  1
  Bi  Bi119  1  0.50000000  0.66666667  0.75000000  1
  Bi  Bi120  1  0.83333333  0.00000000  0.25000000  1
  Bi  Bi121  1  0.83333333  0.00000000  0.75000000  1
  Bi  Bi122  1  0.83333333  0.33333333  0.25000000  1
  Bi  Bi123  1  0.83333333  0.33333333  0.75000000  1
  Bi  Bi124  1  0.83333333  0.66666667  0.25000000  1
  Bi  Bi125  1  0.83333333  0.66666667  0.75000000  1
  Bi  Bi126  1  0.16666667  0.16666667  -0.00000000  1
  Bi  Bi127  1  0.16666667  0.16666667  0.50000000  1
  Bi  Bi128  1  0.16666667  0.50000000  -0.00000000  1
  Bi  Bi129  1  0.16666667  0.50000000  0.50000000  1
  Bi  Bi130  1  0.16666667  0.83333333  -0.00000000  1
  Bi  Bi131  1  0.16666667  0.83333333  0.50000000  1
  Bi  Bi132  1  0.50000000  0.16666667  -0.00000000  1
  Bi  Bi133  1  0.50000000  0.16666667  0.50000000  1
  Bi  Bi134  1  0.50000000  0.50000000  -0.00000000  1
  Bi  Bi135  1  0.50000000  0.50000000  0.50000000  1
  Bi  Bi136  1  0.50000000  0.83333333  -0.00000000  1
  Bi  Bi137  1  0.50000000  0.83333333  0.50000000  1
  Bi  Bi138  1  0.83333333  0.16666667  -0.00000000  1
  Bi  Bi139  1  0.83333333  0.16666667  0.50000000  1
  Bi  Bi140  1  0.83333333  0.50000000  -0.00000000  1
  Bi  Bi141  1  0.83333333  0.50000000  0.50000000  1
  Bi  Bi142  1  0.83333333  0.83333333  -0.00000000  1
  Bi  Bi143  1  0.83333333  0.83333333  0.50000000  1
  O  O144  1  0.08289149  0.07115805  0.46939758  1
  O  O145  1  0.08289149  0.07115805  0.96939758  1
  O  O146  1  0.08289149  0.40449139  0.46939758  1
  O  O147  1  0.08289149  0.40449139  0.96939758  1
  O  O148  1  0.08289149  0.73782472  0.46939758  1
  O  O149  1  0.08289149  0.73782472  0.96939758  1
  O  O150  1  0.41622483  0.07115805  0.46939758  1
  O  O151  1  0.41622483  0.07115805  0.96939758  1
  O  O152  1  0.41622483  0.40449139  0.46939758  1
  O  O153  1  0.41622483  0.40449139  0.96939758  1
  O  O154  1  0.41622483  0.73782472  0.46939758  1
  O  O155  1  0.41622483  0.73782472  0.96939758  1
  O  O156  1  0.74955816  0.07115805  0.46939758  1
  O  O157  1  0.74955816  0.07115805  0.96939758  1
  O  O158  1  0.74955816  0.40449139  0.46939758  1
  O  O159  1  0.74955816  0.40449139  0.96939758  1
  O  O160  1  0.74955816  0.73782472  0.46939758  1
  O  O161  1  0.74955816  0.73782472  0.96939758  1
  O  O162  1  0.25044184  0.23782472  0.28060242  1
  O  O163  1  0.25044184  0.23782472  0.78060242  1
  O  O164  1  0.25044184  0.57115805  0.28060242  1
  O  O165  1  0.25044184  0.57115805  0.78060242  1
  O  O166  1  0.25044184  0.90449139  0.28060242  1
  O  O167  1  0.25044184  0.90449139  0.78060242  1
  O  O168  1  0.58377517  0.23782472  0.28060242  1
  O  O169  1  0.58377517  0.23782472  0.78060242  1
  O  O170  1  0.58377517  0.57115805  0.28060242  1
  O  O171  1  0.58377517  0.57115805  0.78060242  1
  O  O172  1  0.58377517  0.90449139  0.28060242  1
  O  O173  1  0.58377517  0.90449139  0.78060242  1
  O  O174  1  0.91710851  0.23782472  0.28060242  1
  O  O175  1  0.91710851  0.23782472  0.78060242  1
  O  O176  1  0.91710851  0.57115805  0.28060242  1
  O  O177  1  0.91710851  0.57115805  0.78060242  1
  O  O178  1  0.91710851  0.90449139  0.28060242  1
  O  O179  1  0.91710851  0.90449139  0.78060242  1
  O  O180  1  0.25044184  0.26217528  0.03060242  1
  O  O181  1  0.25044184  0.26217528  0.53060242  1
  O  O182  1  0.25044184  0.59550861  0.03060242  1
  O  O183  1  0.25044184  0.59550861  0.53060242  1
  O  O184  1  0.25044184  0.92884195  0.03060242  1
  O  O185  1  0.25044184  0.92884195  0.53060242  1
  O  O186  1  0.58377517  0.26217528  0.03060242  1
  O  O187  1  0.58377517  0.26217528  0.53060242  1
  O  O188  1  0.58377517  0.59550861  0.03060242  1
  O  O189  1  0.58377517  0.59550861  0.53060242  1
  O  O190  1  0.58377517  0.92884195  0.03060242  1
  O  O191  1  0.58377517  0.92884195  0.53060242  1
  O  O192  1  0.91710851  0.26217528  0.03060242  1
  O  O193  1  0.91710851  0.26217528  0.53060242  1
  O  O194  1  0.91710851  0.59550861  0.03060242  1
  O  O195  1  0.91710851  0.59550861  0.53060242  1
  O  O196  1  0.91710851  0.92884195  0.03060242  1
  O  O197  1  0.91710851  0.92884195  0.53060242  1
  O  O198  1  0.08289149  0.09550861  0.21939758  1
  O  O199  1  0.08289149  0.09550861  0.71939758  1
  O  O200  1  0.08289149  0.42884195  0.21939758  1
  O  O201  1  0.08289149  0.42884195  0.71939758  1
  O  O202  1  0.08289149  0.76217528  0.21939758  1
  O  O203  1  0.08289149  0.76217528  0.71939758  1
  O  O204  1  0.41622483  0.09550861  0.21939758  1
  O  O205  1  0.41622483  0.09550861  0.71939758  1
  O  O206  1  0.41622483  0.42884195  0.21939758  1
  O  O207  1  0.41622483  0.42884195  0.71939758  1
  O  O208  1  0.41622483  0.76217528  0.21939758  1
  O  O209  1  0.41622483  0.76217528  0.71939758  1
  O  O210  1  0.74955816  0.09550861  0.21939758  1
  O  O211  1  0.74955816  0.09550861  0.71939758  1
  O  O212  1  0.74955816  0.42884195  0.21939758  1
  O  O213  1  0.74955816  0.42884195  0.71939758  1
  O  O214  1  0.74955816  0.76217528  0.21939758  1
  O  O215  1  0.74955816  0.76217528  0.71939758  1
  O  O216  1  0.05186582  0.23159980  0.47237627  1
  O  O217  1  0.05186582  0.23159980  0.97237627  1
  O  O218  1  0.05186582  0.56493314  0.47237627  1
  O  O219  1  0.05186582  0.56493314  0.97237627  1
  O  O220  1  0.05186582  0.89826647  0.47237627  1
  O  O221  1  0.05186582  0.89826647  0.97237627  1
  O  O222  1  0.38519915  0.23159980  0.47237627  1
  O  O223  1  0.38519915  0.23159980  0.97237627  1
  O  O224  1  0.38519915  0.56493314  0.47237627  1
  O  O225  1  0.38519915  0.56493314  0.97237627  1
  O  O226  1  0.38519915  0.89826647  0.47237627  1
  O  O227  1  0.38519915  0.89826647  0.97237627  1
  O  O228  1  0.71853248  0.23159980  0.47237627  1
  O  O229  1  0.71853248  0.23159980  0.97237627  1
  O  O230  1  0.71853248  0.56493314  0.47237627  1
  O  O231  1  0.71853248  0.56493314  0.97237627  1
  O  O232  1  0.71853248  0.89826647  0.47237627  1
  O  O233  1  0.71853248  0.89826647  0.97237627  1
  O  O234  1  0.28146752  0.06493314  0.27762373  1
  O  O235  1  0.28146752  0.06493314  0.77762373  1
  O  O236  1  0.28146752  0.39826647  0.27762373  1
  O  O237  1  0.28146752  0.39826647  0.77762373  1
  O  O238  1  0.28146752  0.73159980  0.27762373  1
  O  O239  1  0.28146752  0.73159980  0.77762373  1
  O  O240  1  0.61480085  0.06493314  0.27762373  1
  O  O241  1  0.61480085  0.06493314  0.77762373  1
  O  O242  1  0.61480085  0.39826647  0.27762373  1
  O  O243  1  0.61480085  0.39826647  0.77762373  1
  O  O244  1  0.61480085  0.73159980  0.27762373  1
  O  O245  1  0.61480085  0.73159980  0.77762373  1
  O  O246  1  0.94813418  0.06493314  0.27762373  1
  O  O247  1  0.94813418  0.06493314  0.77762373  1
  O  O248  1  0.94813418  0.39826647  0.27762373  1
  O  O249  1  0.94813418  0.39826647  0.77762373  1
  O  O250  1  0.94813418  0.73159980  0.27762373  1
  O  O251  1  0.94813418  0.73159980  0.77762373  1
  O  O252  1  0.28146752  0.10173353  0.02762373  1
  O  O253  1  0.28146752  0.10173353  0.52762373  1
  O  O254  1  0.28146752  0.43506686  0.02762373  1
  O  O255  1  0.28146752  0.43506686  0.52762373  1
  O  O256  1  0.28146752  0.76840020  0.02762373  1
  O  O257  1  0.28146752  0.76840020  0.52762373  1
  O  O258  1  0.61480085  0.10173353  0.02762373  1
  O  O259  1  0.61480085  0.10173353  0.52762373  1
  O  O260  1  0.61480085  0.43506686  0.02762373  1
  O  O261  1  0.61480085  0.43506686  0.52762373  1
  O  O262  1  0.61480085  0.76840020  0.02762373  1
  O  O263  1  0.61480085  0.76840020  0.52762373  1
  O  O264  1  0.94813418  0.10173353  0.02762373  1
  O  O265  1  0.94813418  0.10173353  0.52762373  1
  O  O266  1  0.94813418  0.43506686  0.02762373  1
  O  O267  1  0.94813418  0.43506686  0.52762373  1
  O  O268  1  0.94813418  0.76840020  0.02762373  1
  O  O269  1  0.94813418  0.76840020  0.52762373  1
  O  O270  1  0.05186582  0.26840020  0.22237627  1
  O  O271  1  0.05186582  0.26840020  0.72237627  1
  O  O272  1  0.05186582  0.60173353  0.22237627  1
  O  O273  1  0.05186582  0.60173353  0.72237627  1
  O  O274  1  0.05186582  0.93506686  0.22237627  1
  O  O275  1  0.05186582  0.93506686  0.72237627  1
  O  O276  1  0.38519915  0.26840020  0.22237627  1
  O  O277  1  0.38519915  0.26840020  0.72237627  1
  O  O278  1  0.38519915  0.60173353  0.22237627  1
  O  O279  1  0.38519915  0.60173353  0.72237627  1
  O  O280  1  0.38519915  0.93506686  0.22237627  1
  O  O281  1  0.38519915  0.93506686  0.72237627  1
  O  O282  1  0.71853248  0.26840020  0.22237627  1
  O  O283  1  0.71853248  0.26840020  0.72237627  1
  O  O284  1  0.71853248  0.60173353  0.22237627  1
  O  O285  1  0.71853248  0.60173353  0.72237627  1
  O  O286  1  0.71853248  0.93506686  0.22237627  1
  O  O287  1  0.71853248  0.93506686  0.72237627  1
  O  O288  1  0.12331773  0.18162553  0.38034514  1
  O  O289  1  0.12331773  0.18162553  0.88034514  1
  O  O290  1  0.12331773  0.51495886  0.38034514  1
  O  O291  1  0.12331773  0.51495886  0.88034514  1
  O  O292  1  0.12331773  0.84829220  0.38034514  1
  O  O293  1  0.12331773  0.84829220  0.88034514  1
  O  O294  1  0.45665106  0.18162553  0.38034514  1
  O  O295  1  0.45665106  0.18162553  0.88034514  1
  O  O296  1  0.45665106  0.51495886  0.38034514  1
  O  O297  1  0.45665106  0.51495886  0.88034514  1
  O  O298  1  0.45665106  0.84829220  0.38034514  1
  O  O299  1  0.45665106  0.84829220  0.88034514  1
  O  O300  1  0.78998440  0.18162553  0.38034514  1
  O  O301  1  0.78998440  0.18162553  0.88034514  1
  O  O302  1  0.78998440  0.51495886  0.38034514  1
  O  O303  1  0.78998440  0.51495886  0.88034514  1
  O  O304  1  0.78998440  0.84829220  0.38034514  1
  O  O305  1  0.78998440  0.84829220  0.88034514  1
  O  O306  1  0.21001560  0.01495886  0.36965486  1
  O  O307  1  0.21001560  0.01495886  0.86965486  1
  O  O308  1  0.21001560  0.34829220  0.36965486  1
  O  O309  1  0.21001560  0.34829220  0.86965486  1
  O  O310  1  0.21001560  0.68162553  0.36965486  1
  O  O311  1  0.21001560  0.68162553  0.86965486  1
  O  O312  1  0.54334894  0.01495886  0.36965486  1
  O  O313  1  0.54334894  0.01495886  0.86965486  1
  O  O314  1  0.54334894  0.34829220  0.36965486  1
  O  O315  1  0.54334894  0.34829220  0.86965486  1
  O  O316  1  0.54334894  0.68162553  0.36965486  1
  O  O317  1  0.54334894  0.68162553  0.86965486  1
  O  O318  1  0.87668227  0.01495886  0.36965486  1
  O  O319  1  0.87668227  0.01495886  0.86965486  1
  O  O320  1  0.87668227  0.34829220  0.36965486  1
  O  O321  1  0.87668227  0.34829220  0.86965486  1
  O  O322  1  0.87668227  0.68162553  0.36965486  1
  O  O323  1  0.87668227  0.68162553  0.86965486  1
  O  O324  1  0.21001560  0.15170780  0.11965486  1
  O  O325  1  0.21001560  0.15170780  0.61965486  1
  O  O326  1  0.21001560  0.48504114  0.11965486  1
  O  O327  1  0.21001560  0.48504114  0.61965486  1
  O  O328  1  0.21001560  0.81837447  0.11965486  1
  O  O329  1  0.21001560  0.81837447  0.61965486  1
  O  O330  1  0.54334894  0.15170780  0.11965486  1
  O  O331  1  0.54334894  0.15170780  0.61965486  1
  O  O332  1  0.54334894  0.48504114  0.11965486  1
  O  O333  1  0.54334894  0.48504114  0.61965486  1
  O  O334  1  0.54334894  0.81837447  0.11965486  1
  O  O335  1  0.54334894  0.81837447  0.61965486  1
  O  O336  1  0.87668227  0.15170780  0.11965486  1
  O  O337  1  0.87668227  0.15170780  0.61965486  1
  O  O338  1  0.87668227  0.48504114  0.11965486  1
  O  O339  1  0.87668227  0.48504114  0.61965486  1
  O  O340  1  0.87668227  0.81837447  0.11965486  1
  O  O341  1  0.87668227  0.81837447  0.61965486  1
  O  O342  1  0.12331773  0.31837447  0.13034514  1
  O  O343  1  0.12331773  0.31837447  0.63034514  1
  O  O344  1  0.12331773  0.65170780  0.13034514  1
  O  O345  1  0.12331773  0.65170780  0.63034514  1
  O  O346  1  0.12331773  0.98504114  0.13034514  1
  O  O347  1  0.12331773  0.98504114  0.63034514  1
  O  O348  1  0.45665106  0.31837447  0.13034514  1
  O  O349  1  0.45665106  0.31837447  0.63034514  1
  O  O350  1  0.45665106  0.65170780  0.13034514  1
  O  O351  1  0.45665106  0.65170780  0.63034514  1
  O  O352  1  0.45665106  0.98504114  0.13034514  1
  O  O353  1  0.45665106  0.98504114  0.63034514  1
  O  O354  1  0.78998440  0.31837447  0.13034514  1
  O  O355  1  0.78998440  0.31837447  0.63034514  1
  O  O356  1  0.78998440  0.65170780  0.13034514  1
  O  O357  1  0.78998440  0.65170780  0.63034514  1
  O  O358  1  0.78998440  0.98504114  0.13034514  1
  O  O359  1  0.78998440  0.98504114  0.63034514  1
