# generated using pymatgen
data_InSbO4
_symmetry_space_group_name_H-M   'P 1'
_cell_length_a   15.06688181
_cell_length_b   15.82751761
_cell_length_c   14.94055844
_cell_angle_alpha   90.00000000
_cell_angle_beta   100.51241094
_cell_angle_gamma   90.00000000
_symmetry_Int_Tables_number   1
_chemical_formula_structural   InSbO4
_chemical_formula_sum   'In48 Sb48 O192'
_cell_volume   3503.09322133
_cell_formula_units_Z   48
loop_
 _symmetry_equiv_pos_site_id
 _symmetry_equiv_pos_as_xyz
  1  'x, y, z'
loop_
 _atom_site_type_symbol
 _atom_site_label
 _atom_site_symmetry_multiplicity
 _atom_site_fract_x
 _atom_site_fract_y
 _atom_site_fract_z
 _atom_site_occupancy
  In  In0  1  0.42080309  0.24646207  0.31897573  1
  In  In1  1  0.42080309  0.24646207  0.81897573  1
  In  In2  1  0.42080309  0.57979541  0.31897573  1
  In  In3  1  0.42080309  0.57979541  0.81897573  1
  In  In4  1  0.42080309  0.91312874  0.31897573  1
  In  In5  1  0.42080309  0.91312874  0.81897573  1
  In  In6  1  0.92080309  0.24646207  0.31897573  1
  In  In7  1  0.92080309  0.24646207  0.81897573  1
  In  In8  1  0.92080309  0.57979541  0.31897573  1
  In  In9  1  0.92080309  0.57979541  0.81897573  1
  In  In10  1  0.92080309  0.91312874  0.31897573  1
  In  In11  1  0.92080309  0.91312874  0.81897573  1
  In  In12  1  0.07919691  0.08687126  0.18102427  1
  In  In13  1  0.07919691  0.08687126  0.68102427  1
  In  In14  1  0.07919691  0.42020459  0.18102427  1
  In  In15  1  0.07919691  0.42020459  0.68102427  1
  In  In16  1  0.07919691  0.75353793  0.18102427  1
  In  In17  1  0.07919691  0.75353793  0.68102427  1
  In  In18  1  0.57919691  0.08687126  0.18102427  1
  In  In19  1  0.57919691  0.08687126  0.68102427  1
  In  In20  1  0.57919691  0.42020459  0.18102427  1
  In  In21  1  0.57919691  0.42020459  0.68102427  1
  In  In22  1  0.57919691  0.75353793  0.18102427  1
  In  In23  1  0.57919691  0.75353793  0.68102427  1
  In  In24  1  0.07919691  0.07979541  0.43102427  1
  In  In25  1  0.07919691  0.07979541  0.93102427  1
  In  In26  1  0.07919691  0.41312874  0.43102427  1
  In  In27  1  0.07919691  0.41312874  0.93102427  1
  In  In28  1  0.07919691  0.74646207  0.43102427  1
  In  In29  1  0.07919691  0.74646207  0.93102427  1
  In  In30  1  0.57919691  0.07979541  0.43102427  1
  In  In31  1  0.57919691  0.07979541  0.93102427  1
  In  In32  1  0.57919691  0.41312874  0.43102427  1
  In  In33  1  0.57919691  0.41312874  0.93102427  1
  In  In34  1  0.57919691  0.74646207  0.43102427  1
  In  In35  1  0.57919691  0.74646207  0.93102427  1
  In  In36  1  0.42080309  0.25353793  0.06897573  1
  In  In37  1  0.42080309  0.25353793  0.56897573  1
  In  In38  1  0.42080309  0.58687126  0.06897573  1
  In  In39  1  0.42080309  0.58687126  0.56897573  1
  In  In40  1  0.42080309  0.92020459  0.06897573  1
  In  In41  1  0.42080309  0.92020459  0.56897573  1
  In  In42  1  0.92080309  0.25353793  0.06897573  1
  In  In43  1  0.92080309  0.25353793  0.56897573  1
  In  In44  1  0.92080309  0.58687126  0.06897573  1
  In  In45  1  0.92080309  0.58687126  0.56897573  1
  In  In46  1  0.92080309  0.92020459  0.06897573  1
  In  In47  1  0.92080309  0.92020459  0.56897573  1
  Sb  Sb48  1  0.33400458  0.08153406  0.40704165  1
  Sb  Sb49  1  0.33400458  0.08153406  0.90704165  1
  Sb  Sb50  1  0.33400458  0.41486740  0.40704165  1
  Sb  Sb51  1  0.33400458  0.41486740  0.90704165  1
  Sb  Sb52  1  0.33400458  0.74820073  0.40704165  1
  Sb  Sb53  1  0.33400458  0.74820073  0.90704165  1
  Sb  Sb54  1  0.83400458  0.08153406  0.40704165  1
  Sb  Sb55  1  0.83400458  0.08153406  0.90704165  1
  Sb  Sb56  1  0.83400458  0.41486740  0.40704165  1
  Sb  Sb57  1  0.83400458  0.41486740  0.90704165  1
  Sb  Sb58  1  0.83400458  0.74820073  0.40704165  1
  Sb  Sb59  1  0.83400458  0.74820073  0.90704165  1
  Sb  Sb60  1  0.16599542  0.25179927  0.09295835  1
  Sb  Sb61  1  0.16599542  0.25179927  0.59295835  1
  Sb  Sb62  1  0.16599542  0.58513260  0.09295835  1
  Sb  Sb63  1  0.16599542  0.58513260  0.59295835  1
  Sb  Sb64  1  0.16599542  0.91846594  0.09295835  1
  Sb  Sb65  1  0.16599542  0.91846594  0.59295835  1
  Sb  Sb66  1  0.66599542  0.25179927  0.09295835  1
  Sb  Sb67  1  0.66599542  0.25179927  0.59295835  1
  Sb  Sb68  1  0.66599542  0.58513260  0.09295835  1
  Sb  Sb69  1  0.66599542  0.58513260  0.59295835  1
  Sb  Sb70  1  0.66599542  0.91846594  0.09295835  1
  Sb  Sb71  1  0.66599542  0.91846594  0.59295835  1
  Sb  Sb72  1  0.16599542  0.24820073  0.34295835  1
  Sb  Sb73  1  0.16599542  0.24820073  0.84295835  1
  Sb  Sb74  1  0.16599542  0.58153406  0.34295835  1
  Sb  Sb75  1  0.16599542  0.58153406  0.84295835  1
  Sb  Sb76  1  0.16599542  0.91486740  0.34295835  1
  Sb  Sb77  1  0.16599542  0.91486740  0.84295835  1
  Sb  Sb78  1  0.66599542  0.24820073  0.34295835  1
  Sb  Sb79  1  0.66599542  0.24820073  0.84295835  1
  Sb  Sb80  1  0.66599542  0.58153406  0.34295835  1
  Sb  Sb81  1  0.66599542  0.58153406  0.84295835  1
  Sb  Sb82  1  0.66599542  0.91486740  0.34295835  1
  Sb  Sb83  1  0.66599542  0.91486740  0.84295835  1
  Sb  Sb84  1  0.33400458  0.08513260  0.15704165  1
  Sb  Sb85  1  0.33400458  0.08513260  0.65704165  1
  Sb  Sb86  1  0.33400458  0.41846594  0.15704165  1
  Sb  Sb87  1  0.33400458  0.41846594  0.65704165  1
  Sb  Sb88  1  0.33400458  0.75179927  0.15704165  1
  Sb  Sb89  1  0.33400458  0.75179927  0.65704165  1
  Sb  Sb90  1  0.83400458  0.08513260  0.15704165  1
  Sb  Sb91  1  0.83400458  0.08513260  0.65704165  1
  Sb  Sb92  1  0.83400458  0.41846594  0.15704165  1
  Sb  Sb93  1  0.83400458  0.41846594  0.65704165  1
  Sb  Sb94  1  0.83400458  0.75179927  0.15704165  1
  Sb  Sb95  1  0.83400458  0.75179927  0.65704165  1
  O  O96  1  0.40554743  0.18263176  0.44697506  1
  O  O97  1  0.40554743  0.18263176  0.94697506  1
  O  O98  1  0.40554743  0.51596510  0.44697506  1
  O  O99  1  0.40554743  0.51596510  0.94697506  1
  O  O100  1  0.40554743  0.84929843  0.44697506  1
  O  O101  1  0.40554743  0.84929843  0.94697506  1
  O  O102  1  0.90554743  0.18263176  0.44697506  1
  O  O103  1  0.90554743  0.18263176  0.94697506  1
  O  O104  1  0.90554743  0.51596510  0.44697506  1
  O  O105  1  0.90554743  0.51596510  0.94697506  1
  O  O106  1  0.90554743  0.84929843  0.44697506  1
  O  O107  1  0.90554743  0.84929843  0.94697506  1
  O  O108  1  0.09445257  0.15070157  0.05302494  1
  O  O109  1  0.09445257  0.15070157  0.55302494  1
  O  O110  1  0.09445257  0.48403490  0.05302494  1
  O  O111  1  0.09445257  0.48403490  0.55302494  1
  O  O112  1  0.09445257  0.81736824  0.05302494  1
  O  O113  1  0.09445257  0.81736824  0.55302494  1
  O  O114  1  0.59445257  0.15070157  0.05302494  1
  O  O115  1  0.59445257  0.15070157  0.55302494  1
  O  O116  1  0.59445257  0.48403490  0.05302494  1
  O  O117  1  0.59445257  0.48403490  0.55302494  1
  O  O118  1  0.59445257  0.81736824  0.05302494  1
  O  O119  1  0.59445257  0.81736824  0.55302494  1
  O  O120  1  0.09445257  0.01596510  0.30302494  1
  O  O121  1  0.09445257  0.01596510  0.80302494  1
  O  O122  1  0.09445257  0.34929843  0.30302494  1
  O  O123  1  0.09445257  0.34929843  0.80302494  1
  O  O124  1  0.09445257  0.68263176  0.30302494  1
  O  O125  1  0.09445257  0.68263176  0.80302494  1
  O  O126  1  0.59445257  0.01596510  0.30302494  1
  O  O127  1  0.59445257  0.01596510  0.80302494  1
  O  O128  1  0.59445257  0.34929843  0.30302494  1
  O  O129  1  0.59445257  0.34929843  0.80302494  1
  O  O130  1  0.59445257  0.68263176  0.30302494  1
  O  O131  1  0.59445257  0.68263176  0.80302494  1
  O  O132  1  0.40554743  0.31736824  0.19697506  1
  O  O133  1  0.40554743  0.31736824  0.69697506  1
  O  O134  1  0.40554743  0.65070157  0.19697506  1
  O  O135  1  0.40554743  0.65070157  0.69697506  1
  O  O136  1  0.40554743  0.98403490  0.19697506  1
  O  O137  1  0.40554743  0.98403490  0.69697506  1
  O  O138  1  0.90554743  0.31736824  0.19697506  1
  O  O139  1  0.90554743  0.31736824  0.69697506  1
  O  O140  1  0.90554743  0.65070157  0.19697506  1
  O  O141  1  0.90554743  0.65070157  0.69697506  1
  O  O142  1  0.90554743  0.98403490  0.19697506  1
  O  O143  1  0.90554743  0.98403490  0.69697506  1
  O  O144  1  0.44916293  0.02015000  0.40940990  1
  O  O145  1  0.44916293  0.02015000  0.90940990  1
  O  O146  1  0.44916293  0.35348333  0.40940990  1
  O  O147  1  0.44916293  0.35348333  0.90940990  1
  O  O148  1  0.44916293  0.68681666  0.40940990  1
  O  O149  1  0.44916293  0.68681666  0.90940990  1
  O  O150  1  0.94916293  0.02015000  0.40940990  1
  O  O151  1  0.94916293  0.02015000  0.90940990  1
  O  O152  1  0.94916293  0.35348333  0.40940990  1
  O  O153  1  0.94916293  0.35348333  0.90940990  1
  O  O154  1  0.94916293  0.68681666  0.40940990  1
  O  O155  1  0.94916293  0.68681666  0.90940990  1
  O  O156  1  0.05083707  0.31318334  0.09059010  1
  O  O157  1  0.05083707  0.31318334  0.59059010  1
  O  O158  1  0.05083707  0.64651667  0.09059010  1
  O  O159  1  0.05083707  0.64651667  0.59059010  1
  O  O160  1  0.05083707  0.97985000  0.09059010  1
  O  O161  1  0.05083707  0.97985000  0.59059010  1
  O  O162  1  0.55083707  0.31318334  0.09059010  1
  O  O163  1  0.55083707  0.31318334  0.59059010  1
  O  O164  1  0.55083707  0.64651667  0.09059010  1
  O  O165  1  0.55083707  0.64651667  0.59059010  1
  O  O166  1  0.55083707  0.97985000  0.09059010  1
  O  O167  1  0.55083707  0.97985000  0.59059010  1
  O  O168  1  0.05083707  0.18681666  0.34059010  1
  O  O169  1  0.05083707  0.18681666  0.84059010  1
  O  O170  1  0.05083707  0.52015000  0.34059010  1
  O  O171  1  0.05083707  0.52015000  0.84059010  1
  O  O172  1  0.05083707  0.85348333  0.34059010  1
  O  O173  1  0.05083707  0.85348333  0.84059010  1
  O  O174  1  0.55083707  0.18681666  0.34059010  1
  O  O175  1  0.55083707  0.18681666  0.84059010  1
  O  O176  1  0.55083707  0.52015000  0.34059010  1
  O  O177  1  0.55083707  0.52015000  0.84059010  1
  O  O178  1  0.55083707  0.85348333  0.34059010  1
  O  O179  1  0.55083707  0.85348333  0.84059010  1
  O  O180  1  0.44916293  0.14651667  0.15940990  1
  O  O181  1  0.44916293  0.14651667  0.65940990  1
  O  O182  1  0.44916293  0.47985000  0.15940990  1
  O  O183  1  0.44916293  0.47985000  0.65940990  1
  O  O184  1  0.44916293  0.81318334  0.15940990  1
  O  O185  1  0.44916293  0.81318334  0.65940990  1
  O  O186  1  0.94916293  0.14651667  0.15940990  1
  O  O187  1  0.94916293  0.14651667  0.65940990  1
  O  O188  1  0.94916293  0.47985000  0.15940990  1
  O  O189  1  0.94916293  0.47985000  0.65940990  1
  O  O190  1  0.94916293  0.81318334  0.15940990  1
  O  O191  1  0.94916293  0.81318334  0.65940990  1
  O  O192  1  0.33727486  0.13174457  0.28198326  1
  O  O193  1  0.33727486  0.13174457  0.78198326  1
  O  O194  1  0.33727486  0.46507791  0.28198326  1
  O  O195  1  0.33727486  0.46507791  0.78198326  1
  O  O196  1  0.33727486  0.79841124  0.28198326  1
  O  O197  1  0.33727486  0.79841124  0.78198326  1
  O  O198  1  0.83727486  0.13174457  0.28198326  1
  O  O199  1  0.83727486  0.13174457  0.78198326  1
  O  O200  1  0.83727486  0.46507791  0.28198326  1
  O  O201  1  0.83727486  0.46507791  0.78198326  1
  O  O202  1  0.83727486  0.79841124  0.28198326  1
  O  O203  1  0.83727486  0.79841124  0.78198326  1
  O  O204  1  0.16272514  0.20158876  0.21801674  1
  O  O205  1  0.16272514  0.20158876  0.71801674  1
  O  O206  1  0.16272514  0.53492209  0.21801674  1
  O  O207  1  0.16272514  0.53492209  0.71801674  1
  O  O208  1  0.16272514  0.86825543  0.21801674  1
  O  O209  1  0.16272514  0.86825543  0.71801674  1
  O  O210  1  0.66272514  0.20158876  0.21801674  1
  O  O211  1  0.66272514  0.20158876  0.71801674  1
  O  O212  1  0.66272514  0.53492209  0.21801674  1
  O  O213  1  0.66272514  0.53492209  0.71801674  1
  O  O214  1  0.66272514  0.86825543  0.21801674  1
  O  O215  1  0.66272514  0.86825543  0.71801674  1
  O  O216  1  0.16272514  0.29841124  0.46801674  1
  O  O217  1  0.16272514  0.29841124  0.96801674  1
  O  O218  1  0.16272514  0.63174457  0.46801674  1
  O  O219  1  0.16272514  0.63174457  0.96801674  1
  O  O220  1  0.16272514  0.96507791  0.46801674  1
  O  O221  1  0.16272514  0.96507791  0.96801674  1
  O  O222  1  0.66272514  0.29841124  0.46801674  1
  O  O223  1  0.66272514  0.29841124  0.96801674  1
  O  O224  1  0.66272514  0.63174457  0.46801674  1
  O  O225  1  0.66272514  0.63174457  0.96801674  1
  O  O226  1  0.66272514  0.96507791  0.46801674  1
  O  O227  1  0.66272514  0.96507791  0.96801674  1
  O  O228  1  0.33727486  0.03492209  0.03198326  1
  O  O229  1  0.33727486  0.03492209  0.53198326  1
  O  O230  1  0.33727486  0.36825543  0.03198326  1
  O  O231  1  0.33727486  0.36825543  0.53198326  1
  O  O232  1  0.33727486  0.70158876  0.03198326  1
  O  O233  1  0.33727486  0.70158876  0.53198326  1
  O  O234  1  0.83727486  0.03492209  0.03198326  1
  O  O235  1  0.83727486  0.03492209  0.53198326  1
  O  O236  1  0.83727486  0.36825543  0.03198326  1
  O  O237  1  0.83727486  0.36825543  0.53198326  1
  O  O238  1  0.83727486  0.70158876  0.03198326  1
  O  O239  1  0.83727486  0.70158876  0.53198326  1
  O  O240  1  0.21584909  0.13952683  0.40410517  1
  O  O241  1  0.21584909  0.13952683  0.90410517  1
  O  O242  1  0.21584909  0.47286016  0.40410517  1
  O  O243  1  0.21584909  0.47286016  0.90410517  1
  O  O244  1  0.21584909  0.80619350  0.40410517  1
  O  O245  1  0.21584909  0.80619350  0.90410517  1
  O  O246  1  0.71584909  0.13952683  0.40410517  1
  O  O247  1  0.71584909  0.13952683  0.90410517  1
  O  O248  1  0.71584909  0.47286016  0.40410517  1
  O  O249  1  0.71584909  0.47286016  0.90410517  1
  O  O250  1  0.71584909  0.80619350  0.40410517  1
  O  O251  1  0.71584909  0.80619350  0.90410517  1
  O  O252  1  0.28415091  0.19380650  0.09589483  1
  O  O253  1  0.28415091  0.19380650  0.59589483  1
  O  O254  1  0.28415091  0.52713984  0.09589483  1
  O  O255  1  0.28415091  0.52713984  0.59589483  1
  O  O256  1  0.28415091  0.86047317  0.09589483  1
  O  O257  1  0.28415091  0.86047317  0.59589483  1
  O  O258  1  0.78415091  0.19380650  0.09589483  1
  O  O259  1  0.78415091  0.19380650  0.59589483  1
  O  O260  1  0.78415091  0.52713984  0.09589483  1
  O  O261  1  0.78415091  0.52713984  0.59589483  1
  O  O262  1  0.78415091  0.86047317  0.09589483  1
  O  O263  1  0.78415091  0.86047317  0.59589483  1
  O  O264  1  0.28415091  0.30619350  0.34589483  1
  O  O265  1  0.28415091  0.30619350  0.84589483  1
  O  O266  1  0.28415091  0.63952683  0.34589483  1
  O  O267  1  0.28415091  0.63952683  0.84589483  1
  O  O268  1  0.28415091  0.97286016  0.34589483  1
  O  O269  1  0.28415091  0.97286016  0.84589483  1
  O  O270  1  0.78415091  0.30619350  0.34589483  1
  O  O271  1  0.78415091  0.30619350  0.84589483  1
  O  O272  1  0.78415091  0.63952683  0.34589483  1
  O  O273  1  0.78415091  0.63952683  0.84589483  1
  O  O274  1  0.78415091  0.97286016  0.34589483  1
  O  O275  1  0.78415091  0.97286016  0.84589483  1
  O  O276  1  0.21584909  0.02713984  0.15410517  1
  O  O277  1  0.21584909  0.02713984  0.65410517  1
  O  O278  1  0.21584909  0.36047317  0.15410517  1
  O  O279  1  0.21584909  0.36047317  0.65410517  1
  O  O280  1  0.21584909  0.69380650  0.15410517  1
  O  O281  1  0.21584909  0.69380650  0.65410517  1
  O  O282  1  0.71584909  0.02713984  0.15410517  1
  O  O283  1  0.71584909  0.02713984  0.65410517  1
  O  O284  1  0.71584909  0.36047317  0.15410517  1
  O  O285  1  0.71584909  0.36047317  0.65410517  1
  O  O286  1  0.71584909  0.69380650  0.15410517  1
  O  O287  1  0.71584909  0.69380650  0.65410517  1
