# generated using pymatgen
data_K2NaTlO3
_symmetry_space_group_name_H-M   'P 1'
_cell_length_a   12.72800913
_cell_length_b   13.86166366
_cell_length_c   11.98601083
_cell_angle_alpha   90.00000000
_cell_angle_beta   96.04782134
_cell_angle_gamma   90.00000000
_symmetry_Int_Tables_number   1
_chemical_formula_structural   K2NaTlO3
_chemical_formula_sum   'K32 Na16 Tl16 O48'
_cell_volume   2102.93862882
_cell_formula_units_Z   16
loop_
 _symmetry_equiv_pos_site_id
 _symmetry_equiv_pos_as_xyz
  1  'x, y, z'
loop_
 _atom_site_type_symbol
 _atom_site_label
 _atom_site_symmetry_multiplicity
 _atom_site_fract_x
 _atom_site_fract_y
 _atom_site_fract_z
 _atom_site_occupancy
  K  K0  1  0.21153682  0.08207027  0.85610676  1
  K  K1  1  0.21153682  0.58207027  0.85610676  1
  K  K2  1  0.71153682  0.08207027  0.85610676  1
  K  K3  1  0.71153682  0.58207027  0.85610676  1
  K  K4  1  0.03533414  0.32046999  0.14010638  1
  K  K5  1  0.03533414  0.82046999  0.14010638  1
  K  K6  1  0.53533414  0.32046999  0.14010638  1
  K  K7  1  0.53533414  0.82046999  0.14010638  1
  K  K8  1  0.46466586  0.07046999  0.35989362  1
  K  K9  1  0.46466586  0.57046999  0.35989362  1
  K  K10  1  0.96466586  0.07046999  0.35989362  1
  K  K11  1  0.96466586  0.57046999  0.35989362  1
  K  K12  1  0.21153682  0.16792973  0.35610676  1
  K  K13  1  0.21153682  0.66792973  0.35610676  1
  K  K14  1  0.71153682  0.16792973  0.35610676  1
  K  K15  1  0.71153682  0.66792973  0.35610676  1
  K  K16  1  0.28846318  0.33207027  0.64389324  1
  K  K17  1  0.28846318  0.83207027  0.64389324  1
  K  K18  1  0.78846318  0.33207027  0.64389324  1
  K  K19  1  0.78846318  0.83207027  0.64389324  1
  K  K20  1  0.46466586  0.17953001  0.85989362  1
  K  K21  1  0.46466586  0.67953001  0.85989362  1
  K  K22  1  0.96466586  0.17953001  0.85989362  1
  K  K23  1  0.96466586  0.67953001  0.85989362  1
  K  K24  1  0.28846318  0.41792973  0.14389324  1
  K  K25  1  0.28846318  0.91792973  0.14389324  1
  K  K26  1  0.78846318  0.41792973  0.14389324  1
  K  K27  1  0.78846318  0.91792973  0.14389324  1
  K  K28  1  0.03533414  0.42953001  0.64010638  1
  K  K29  1  0.03533414  0.92953001  0.64010638  1
  K  K30  1  0.53533414  0.42953001  0.64010638  1
  K  K31  1  0.53533414  0.92953001  0.64010638  1
  Na  Na32  1  0.32021415  0.06151466  0.58715892  1
  Na  Na33  1  0.32021415  0.56151466  0.58715892  1
  Na  Na34  1  0.82021415  0.06151466  0.58715892  1
  Na  Na35  1  0.82021415  0.56151466  0.58715892  1
  Na  Na36  1  0.17978585  0.43848534  0.41284108  1
  Na  Na37  1  0.17978585  0.93848534  0.41284108  1
  Na  Na38  1  0.67978585  0.43848534  0.41284108  1
  Na  Na39  1  0.67978585  0.93848534  0.41284108  1
  Na  Na40  1  0.17978585  0.31151466  0.91284108  1
  Na  Na41  1  0.17978585  0.81151466  0.91284108  1
  Na  Na42  1  0.67978585  0.31151466  0.91284108  1
  Na  Na43  1  0.67978585  0.81151466  0.91284108  1
  Na  Na44  1  0.32021415  0.18848534  0.08715892  1
  Na  Na45  1  0.32021415  0.68848534  0.08715892  1
  Na  Na46  1  0.82021415  0.18848534  0.08715892  1
  Na  Na47  1  0.82021415  0.68848534  0.08715892  1
  Tl  Tl48  1  0.42668584  0.31382875  0.40829033  1
  Tl  Tl49  1  0.42668584  0.81382875  0.40829033  1
  Tl  Tl50  1  0.92668584  0.31382875  0.40829033  1
  Tl  Tl51  1  0.92668584  0.81382875  0.40829033  1
  Tl  Tl52  1  0.42668584  0.43617125  0.90829033  1
  Tl  Tl53  1  0.42668584  0.93617125  0.90829033  1
  Tl  Tl54  1  0.92668584  0.43617125  0.90829033  1
  Tl  Tl55  1  0.92668584  0.93617125  0.90829033  1
  Tl  Tl56  1  0.07331416  0.06382875  0.09170967  1
  Tl  Tl57  1  0.07331416  0.56382875  0.09170967  1
  Tl  Tl58  1  0.57331416  0.06382875  0.09170967  1
  Tl  Tl59  1  0.57331416  0.56382875  0.09170967  1
  Tl  Tl60  1  0.07331416  0.18617125  0.59170967  1
  Tl  Tl61  1  0.07331416  0.68617125  0.59170967  1
  Tl  Tl62  1  0.57331416  0.18617125  0.59170967  1
  Tl  Tl63  1  0.57331416  0.68617125  0.59170967  1
  O  O64  1  0.37776505  0.24710516  0.25419569  1
  O  O65  1  0.37776505  0.74710516  0.25419569  1
  O  O66  1  0.87776505  0.24710516  0.25419569  1
  O  O67  1  0.87776505  0.74710516  0.25419569  1
  O  O68  1  0.14177867  0.06003015  0.53209515  1
  O  O69  1  0.14177867  0.56003015  0.53209515  1
  O  O70  1  0.64177867  0.06003015  0.53209515  1
  O  O71  1  0.64177867  0.56003015  0.53209515  1
  O  O72  1  0.14177867  0.18996985  0.03209515  1
  O  O73  1  0.14177867  0.68996985  0.03209515  1
  O  O74  1  0.64177867  0.18996985  0.03209515  1
  O  O75  1  0.64177867  0.68996985  0.03209515  1
  O  O76  1  0.35822133  0.31003015  0.96790485  1
  O  O77  1  0.35822133  0.81003015  0.96790485  1
  O  O78  1  0.85822133  0.31003015  0.96790485  1
  O  O79  1  0.85822133  0.81003015  0.96790485  1
  O  O80  1  0.09907061  0.44785818  0.96274827  1
  O  O81  1  0.09907061  0.94785818  0.96274827  1
  O  O82  1  0.59907061  0.44785818  0.96274827  1
  O  O83  1  0.59907061  0.94785818  0.96274827  1
  O  O84  1  0.40092939  0.05214182  0.03725173  1
  O  O85  1  0.40092939  0.55214182  0.03725173  1
  O  O86  1  0.90092939  0.05214182  0.03725173  1
  O  O87  1  0.90092939  0.55214182  0.03725173  1
  O  O88  1  0.40092939  0.19785818  0.53725173  1
  O  O89  1  0.40092939  0.69785818  0.53725173  1
  O  O90  1  0.90092939  0.19785818  0.53725173  1
  O  O91  1  0.90092939  0.69785818  0.53725173  1
  O  O92  1  0.37776505  0.00289484  0.75419569  1
  O  O93  1  0.37776505  0.50289484  0.75419569  1
  O  O94  1  0.87776505  0.00289484  0.75419569  1
  O  O95  1  0.87776505  0.50289484  0.75419569  1
  O  O96  1  0.12223495  0.25289484  0.74580431  1
  O  O97  1  0.12223495  0.75289484  0.74580431  1
  O  O98  1  0.62223495  0.25289484  0.74580431  1
  O  O99  1  0.62223495  0.75289484  0.74580431  1
  O  O100  1  0.12223495  0.49710516  0.24580431  1
  O  O101  1  0.12223495  0.99710516  0.24580431  1
  O  O102  1  0.62223495  0.49710516  0.24580431  1
  O  O103  1  0.62223495  0.99710516  0.24580431  1
  O  O104  1  0.35822133  0.43996985  0.46790485  1
  O  O105  1  0.35822133  0.93996985  0.46790485  1
  O  O106  1  0.85822133  0.43996985  0.46790485  1
  O  O107  1  0.85822133  0.93996985  0.46790485  1
  O  O108  1  0.09907061  0.30214182  0.46274827  1
  O  O109  1  0.09907061  0.80214182  0.46274827  1
  O  O110  1  0.59907061  0.30214182  0.46274827  1
  O  O111  1  0.59907061  0.80214182  0.46274827  1
