# generated using pymatgen
data_ScBO3
_symmetry_space_group_name_H-M   'P 1'
_cell_length_a   14.24344772
_cell_length_b   14.24344772
_cell_length_c   15.13096845
_cell_angle_alpha   90.00000000
_cell_angle_beta   90.00000000
_cell_angle_gamma   120.00000000
_symmetry_Int_Tables_number   1
_chemical_formula_structural   ScBO3
_chemical_formula_sum   'Sc54 B54 O162'
_cell_volume   2658.44456568
_cell_formula_units_Z   54
loop_
 _symmetry_equiv_pos_site_id
 _symmetry_equiv_pos_as_xyz
  1  'x, y, z'
loop_
 _atom_site_type_symbol
 _atom_site_label
 _atom_site_symmetry_multiplicity
 _atom_site_fract_x
 _atom_site_fract_y
 _atom_site_fract_z
 _atom_site_occupancy
  Sc  Sc0  1  -0.00000000  -0.00000000  -0.00000000  1
  Sc  Sc1  1  -0.00000000  0.33333333  -0.00000000  1
  Sc  Sc2  1  -0.00000000  0.66666667  -0.00000000  1
  Sc  Sc3  1  0.33333333  -0.00000000  -0.00000000  1
  Sc  Sc4  1  0.33333333  0.33333333  -0.00000000  1
  Sc  Sc5  1  0.33333333  0.66666667  -0.00000000  1
  Sc  Sc6  1  0.66666667  -0.00000000  -0.00000000  1
  Sc  Sc7  1  0.66666667  0.33333333  -0.00000000  1
  Sc  Sc8  1  0.66666667  0.66666667  -0.00000000  1
  Sc  Sc9  1  0.22222222  0.11111111  0.33333333  1
  Sc  Sc10  1  0.22222222  0.44444444  0.33333333  1
  Sc  Sc11  1  0.22222222  0.77777778  0.33333333  1
  Sc  Sc12  1  0.55555556  0.11111111  0.33333333  1
  Sc  Sc13  1  0.55555556  0.44444444  0.33333333  1
  Sc  Sc14  1  0.55555556  0.77777778  0.33333333  1
  Sc  Sc15  1  0.88888889  0.11111111  0.33333333  1
  Sc  Sc16  1  0.88888889  0.44444444  0.33333333  1
  Sc  Sc17  1  0.88888889  0.77777778  0.33333333  1
  Sc  Sc18  1  0.11111111  0.22222222  0.66666667  1
  Sc  Sc19  1  0.11111111  0.55555556  0.66666667  1
  Sc  Sc20  1  0.11111111  0.88888889  0.66666667  1
  Sc  Sc21  1  0.44444444  0.22222222  0.66666667  1
  Sc  Sc22  1  0.44444444  0.55555556  0.66666667  1
  Sc  Sc23  1  0.44444444  0.88888889  0.66666667  1
  Sc  Sc24  1  0.77777778  0.22222222  0.66666667  1
  Sc  Sc25  1  0.77777778  0.55555556  0.66666667  1
  Sc  Sc26  1  0.77777778  0.88888889  0.66666667  1
  Sc  Sc27  1  -0.00000000  0.00000000  0.50000000  1
  Sc  Sc28  1  -0.00000000  0.33333333  0.50000000  1
  Sc  Sc29  1  -0.00000000  0.66666667  0.50000000  1
  Sc  Sc30  1  0.33333333  0.00000000  0.50000000  1
  Sc  Sc31  1  0.33333333  0.33333333  0.50000000  1
  Sc  Sc32  1  0.33333333  0.66666667  0.50000000  1
  Sc  Sc33  1  0.66666667  0.00000000  0.50000000  1
  Sc  Sc34  1  0.66666667  0.33333333  0.50000000  1
  Sc  Sc35  1  0.66666667  0.66666667  0.50000000  1
  Sc  Sc36  1  0.22222222  0.11111111  0.83333333  1
  Sc  Sc37  1  0.22222222  0.44444444  0.83333333  1
  Sc  Sc38  1  0.22222222  0.77777778  0.83333333  1
  Sc  Sc39  1  0.55555556  0.11111111  0.83333333  1
  Sc  Sc40  1  0.55555556  0.44444444  0.83333333  1
  Sc  Sc41  1  0.55555556  0.77777778  0.83333333  1
  Sc  Sc42  1  0.88888889  0.11111111  0.83333333  1
  Sc  Sc43  1  0.88888889  0.44444444  0.83333333  1
  Sc  Sc44  1  0.88888889  0.77777778  0.83333333  1
  Sc  Sc45  1  0.11111111  0.22222222  1.16666667  1
  Sc  Sc46  1  0.11111111  0.55555556  1.16666667  1
  Sc  Sc47  1  0.11111111  0.88888889  1.16666667  1
  Sc  Sc48  1  0.44444444  0.22222222  1.16666667  1
  Sc  Sc49  1  0.44444444  0.55555556  1.16666667  1
  Sc  Sc50  1  0.44444444  0.88888889  1.16666667  1
  Sc  Sc51  1  0.77777778  0.22222222  1.16666667  1
  Sc  Sc52  1  0.77777778  0.55555556  1.16666667  1
  Sc  Sc53  1  0.77777778  0.88888889  1.16666667  1
  B  B54  1  0.00000000  0.00000000  0.75000000  1
  B  B55  1  -0.00000000  0.33333333  0.75000000  1
  B  B56  1  -0.00000000  0.66666667  0.75000000  1
  B  B57  1  0.33333333  0.00000000  0.75000000  1
  B  B58  1  0.33333333  0.33333333  0.75000000  1
  B  B59  1  0.33333333  0.66666667  0.75000000  1
  B  B60  1  0.66666667  0.00000000  0.75000000  1
  B  B61  1  0.66666667  0.33333333  0.75000000  1
  B  B62  1  0.66666667  0.66666667  0.75000000  1
  B  B63  1  0.22222222  0.11111111  1.08333333  1
  B  B64  1  0.22222222  0.44444444  1.08333333  1
  B  B65  1  0.22222222  0.77777778  1.08333333  1
  B  B66  1  0.55555556  0.11111111  1.08333333  1
  B  B67  1  0.55555556  0.44444444  1.08333333  1
  B  B68  1  0.55555556  0.77777778  1.08333333  1
  B  B69  1  0.88888889  0.11111111  1.08333333  1
  B  B70  1  0.88888889  0.44444444  1.08333333  1
  B  B71  1  0.88888889  0.77777778  1.08333333  1
  B  B72  1  0.11111111  0.22222222  1.41666667  1
  B  B73  1  0.11111111  0.55555556  1.41666667  1
  B  B74  1  0.11111111  0.88888889  1.41666667  1
  B  B75  1  0.44444444  0.22222222  1.41666667  1
  B  B76  1  0.44444444  0.55555556  1.41666667  1
  B  B77  1  0.44444444  0.88888889  1.41666667  1
  B  B78  1  0.77777778  0.22222222  1.41666667  1
  B  B79  1  0.77777778  0.55555556  1.41666667  1
  B  B80  1  0.77777778  0.88888889  1.41666667  1
  B  B81  1  -0.00000000  0.00000000  0.25000000  1
  B  B82  1  -0.00000000  0.33333333  0.25000000  1
  B  B83  1  -0.00000000  0.66666667  0.25000000  1
  B  B84  1  0.33333333  0.00000000  0.25000000  1
  B  B85  1  0.33333333  0.33333333  0.25000000  1
  B  B86  1  0.33333333  0.66666667  0.25000000  1
  B  B87  1  0.66666667  0.00000000  0.25000000  1
  B  B88  1  0.66666667  0.33333333  0.25000000  1
  B  B89  1  0.66666667  0.66666667  0.25000000  1
  B  B90  1  0.22222222  0.11111111  0.58333333  1
  B  B91  1  0.22222222  0.44444444  0.58333333  1
  B  B92  1  0.22222222  0.77777778  0.58333333  1
  B  B93  1  0.55555556  0.11111111  0.58333333  1
  B  B94  1  0.55555556  0.44444444  0.58333333  1
  B  B95  1  0.55555556  0.77777778  0.58333333  1
  B  B96  1  0.88888889  0.11111111  0.58333333  1
  B  B97  1  0.88888889  0.44444444  0.58333333  1
  B  B98  1  0.88888889  0.77777778  0.58333333  1
  B  B99  1  0.11111111  0.22222222  0.91666667  1
  B  B100  1  0.11111111  0.55555556  0.91666667  1
  B  B101  1  0.11111111  0.88888889  0.91666667  1
  B  B102  1  0.44444444  0.22222222  0.91666667  1
  B  B103  1  0.44444444  0.55555556  0.91666667  1
  B  B104  1  0.44444444  0.88888889  0.91666667  1
  B  B105  1  0.77777778  0.22222222  0.91666667  1
  B  B106  1  0.77777778  0.55555556  0.91666667  1
  B  B107  1  0.77777778  0.88888889  0.91666667  1
  O  O108  1  0.11111111  0.12506283  0.41666667  1
  O  O109  1  0.11111111  0.45839617  0.41666667  1
  O  O110  1  0.11111111  0.79172950  0.41666667  1
  O  O111  1  0.44444444  0.12506283  0.41666667  1
  O  O112  1  0.44444444  0.45839617  0.41666667  1
  O  O113  1  0.44444444  0.79172950  0.41666667  1
  O  O114  1  0.77777778  0.12506283  0.41666667  1
  O  O115  1  0.77777778  0.45839617  0.41666667  1
  O  O116  1  0.77777778  0.79172950  0.41666667  1
  O  O117  1  0.33333333  0.23617394  0.75000000  1
  O  O118  1  0.33333333  0.56950728  0.75000000  1
  O  O119  1  0.33333333  0.90284061  0.75000000  1
  O  O120  1  0.66666667  0.23617394  0.75000000  1
  O  O121  1  0.66666667  0.56950728  0.75000000  1
  O  O122  1  0.66666667  0.90284061  0.75000000  1
  O  O123  1  1.00000000  0.23617394  0.75000000  1
  O  O124  1  1.00000000  0.56950728  0.75000000  1
  O  O125  1  1.00000000  0.90284061  0.75000000  1
  O  O126  1  0.22222222  0.34728505  1.08333333  1
  O  O127  1  0.22222222  0.68061839  1.08333333  1
  O  O128  1  0.22222222  1.01395172  1.08333333  1
  O  O129  1  0.55555556  0.34728505  1.08333333  1
  O  O130  1  0.55555556  0.68061839  1.08333333  1
  O  O131  1  0.55555556  1.01395172  1.08333333  1
  O  O132  1  0.88888889  0.34728505  1.08333333  1
  O  O133  1  0.88888889  0.68061839  1.08333333  1
  O  O134  1  0.88888889  1.01395172  1.08333333  1
  O  O135  1  -0.12506283  -0.01395172  0.41666667  1
  O  O136  1  -0.12506283  0.31938161  0.41666667  1
  O  O137  1  -0.12506283  0.65271495  0.41666667  1
  O  O138  1  0.20827050  -0.01395172  0.41666667  1
  O  O139  1  0.20827050  0.31938161  0.41666667  1
  O  O140  1  0.20827050  0.65271495  0.41666667  1
  O  O141  1  0.54160383  -0.01395172  0.41666667  1
  O  O142  1  0.54160383  0.31938161  0.41666667  1
  O  O143  1  0.54160383  0.65271495  0.41666667  1
  O  O144  1  0.09715939  0.09715939  0.75000000  1
  O  O145  1  0.09715939  0.43049272  0.75000000  1
  O  O146  1  0.09715939  0.76382606  0.75000000  1
  O  O147  1  0.43049272  0.09715939  0.75000000  1
  O  O148  1  0.43049272  0.43049272  0.75000000  1
  O  O149  1  0.43049272  0.76382606  0.75000000  1
  O  O150  1  0.76382606  0.09715939  0.75000000  1
  O  O151  1  0.76382606  0.43049272  0.75000000  1
  O  O152  1  0.76382606  0.76382606  0.75000000  1
  O  O153  1  -0.01395172  0.20827050  1.08333333  1
  O  O154  1  -0.01395172  0.54160383  1.08333333  1
  O  O155  1  -0.01395172  0.87493717  1.08333333  1
  O  O156  1  0.31938161  0.20827050  1.08333333  1
  O  O157  1  0.31938161  0.54160383  1.08333333  1
  O  O158  1  0.31938161  0.87493717  1.08333333  1
  O  O159  1  0.65271495  0.20827050  1.08333333  1
  O  O160  1  0.65271495  0.54160383  1.08333333  1
  O  O161  1  0.65271495  0.87493717  1.08333333  1
  O  O162  1  -0.01395172  0.11111111  0.58333333  1
  O  O163  1  -0.01395172  0.44444444  0.58333333  1
  O  O164  1  -0.01395172  0.77777778  0.58333333  1
  O  O165  1  0.31938161  0.11111111  0.58333333  1
  O  O166  1  0.31938161  0.44444444  0.58333333  1
  O  O167  1  0.31938161  0.77777778  0.58333333  1
  O  O168  1  0.65271495  0.11111111  0.58333333  1
  O  O169  1  0.65271495  0.44444444  0.58333333  1
  O  O170  1  0.65271495  0.77777778  0.58333333  1
  O  O171  1  0.20827050  0.22222222  0.91666667  1
  O  O172  1  0.20827050  0.55555556  0.91666667  1
  O  O173  1  0.20827050  0.88888889  0.91666667  1
  O  O174  1  0.54160383  0.22222222  0.91666667  1
  O  O175  1  0.54160383  0.55555556  0.91666667  1
  O  O176  1  0.54160383  0.88888889  0.91666667  1
  O  O177  1  0.87493717  0.22222222  0.91666667  1
  O  O178  1  0.87493717  0.55555556  0.91666667  1
  O  O179  1  0.87493717  0.88888889  0.91666667  1
  O  O180  1  0.09715939  0.33333333  1.25000000  1
  O  O181  1  0.09715939  0.66666667  1.25000000  1
  O  O182  1  0.09715939  1.00000000  1.25000000  1
  O  O183  1  0.43049272  0.33333333  1.25000000  1
  O  O184  1  0.43049272  0.66666667  1.25000000  1
  O  O185  1  0.43049272  1.00000000  1.25000000  1
  O  O186  1  0.76382606  0.33333333  1.25000000  1
  O  O187  1  0.76382606  0.66666667  1.25000000  1
  O  O188  1  0.76382606  1.00000000  1.25000000  1
  O  O189  1  -0.11111111  -0.12506283  0.58333333  1
  O  O190  1  -0.11111111  0.20827050  0.58333333  1
  O  O191  1  -0.11111111  0.54160383  0.58333333  1
  O  O192  1  0.22222222  -0.12506283  0.58333333  1
  O  O193  1  0.22222222  0.20827050  0.58333333  1
  O  O194  1  0.22222222  0.54160383  0.58333333  1
  O  O195  1  0.55555556  -0.12506283  0.58333333  1
  O  O196  1  0.55555556  0.20827050  0.58333333  1
  O  O197  1  0.55555556  0.54160383  0.58333333  1
  O  O198  1  0.11111111  -0.01395172  0.91666667  1
  O  O199  1  0.11111111  0.31938161  0.91666667  1
  O  O200  1  0.11111111  0.65271495  0.91666667  1
  O  O201  1  0.44444444  -0.01395172  0.91666667  1
  O  O202  1  0.44444444  0.31938161  0.91666667  1
  O  O203  1  0.44444444  0.65271495  0.91666667  1
  O  O204  1  0.77777778  -0.01395172  0.91666667  1
  O  O205  1  0.77777778  0.31938161  0.91666667  1
  O  O206  1  0.77777778  0.65271495  0.91666667  1
  O  O207  1  -0.00000000  0.09715939  1.25000000  1
  O  O208  1  -0.00000000  0.43049272  1.25000000  1
  O  O209  1  -0.00000000  0.76382606  1.25000000  1
  O  O210  1  0.33333333  0.09715939  1.25000000  1
  O  O211  1  0.33333333  0.43049272  1.25000000  1
  O  O212  1  0.33333333  0.76382606  1.25000000  1
  O  O213  1  0.66666667  0.09715939  1.25000000  1
  O  O214  1  0.66666667  0.43049272  1.25000000  1
  O  O215  1  0.66666667  0.76382606  1.25000000  1
  O  O216  1  0.12506283  0.01395172  0.58333333  1
  O  O217  1  0.12506283  0.34728505  0.58333333  1
  O  O218  1  0.12506283  0.68061839  0.58333333  1
  O  O219  1  0.45839617  0.01395172  0.58333333  1
  O  O220  1  0.45839617  0.34728505  0.58333333  1
  O  O221  1  0.45839617  0.68061839  0.58333333  1
  O  O222  1  0.79172950  0.01395172  0.58333333  1
  O  O223  1  0.79172950  0.34728505  0.58333333  1
  O  O224  1  0.79172950  0.68061839  0.58333333  1
  O  O225  1  0.34728505  0.12506283  0.91666667  1
  O  O226  1  0.34728505  0.45839617  0.91666667  1
  O  O227  1  0.34728505  0.79172950  0.91666667  1
  O  O228  1  0.68061839  0.12506283  0.91666667  1
  O  O229  1  0.68061839  0.45839617  0.91666667  1
  O  O230  1  0.68061839  0.79172950  0.91666667  1
  O  O231  1  1.01395172  0.12506283  0.91666667  1
  O  O232  1  1.01395172  0.45839617  0.91666667  1
  O  O233  1  1.01395172  0.79172950  0.91666667  1
  O  O234  1  0.23617394  0.23617394  1.25000000  1
  O  O235  1  0.23617394  0.56950728  1.25000000  1
  O  O236  1  0.23617394  0.90284061  1.25000000  1
  O  O237  1  0.56950728  0.23617394  1.25000000  1
  O  O238  1  0.56950728  0.56950728  1.25000000  1
  O  O239  1  0.56950728  0.90284061  1.25000000  1
  O  O240  1  0.90284061  0.23617394  1.25000000  1
  O  O241  1  0.90284061  0.56950728  1.25000000  1
  O  O242  1  0.90284061  0.90284061  1.25000000  1
  O  O243  1  0.01395172  -0.11111111  0.41666667  1
  O  O244  1  0.01395172  0.22222222  0.41666667  1
  O  O245  1  0.01395172  0.55555556  0.41666667  1
  O  O246  1  0.34728505  -0.11111111  0.41666667  1
  O  O247  1  0.34728505  0.22222222  0.41666667  1
  O  O248  1  0.34728505  0.55555556  0.41666667  1
  O  O249  1  0.68061839  -0.11111111  0.41666667  1
  O  O250  1  0.68061839  0.22222222  0.41666667  1
  O  O251  1  0.68061839  0.55555556  0.41666667  1
  O  O252  1  0.23617394  0.00000000  0.75000000  1
  O  O253  1  0.23617394  0.33333333  0.75000000  1
  O  O254  1  0.23617394  0.66666667  0.75000000  1
  O  O255  1  0.56950728  0.00000000  0.75000000  1
  O  O256  1  0.56950728  0.33333333  0.75000000  1
  O  O257  1  0.56950728  0.66666667  0.75000000  1
  O  O258  1  0.90284061  0.00000000  0.75000000  1
  O  O259  1  0.90284061  0.33333333  0.75000000  1
  O  O260  1  0.90284061  0.66666667  0.75000000  1
  O  O261  1  0.12506283  0.11111111  1.08333333  1
  O  O262  1  0.12506283  0.44444444  1.08333333  1
  O  O263  1  0.12506283  0.77777778  1.08333333  1
  O  O264  1  0.45839617  0.11111111  1.08333333  1
  O  O265  1  0.45839617  0.44444444  1.08333333  1
  O  O266  1  0.45839617  0.77777778  1.08333333  1
  O  O267  1  0.79172950  0.11111111  1.08333333  1
  O  O268  1  0.79172950  0.44444444  1.08333333  1
  O  O269  1  0.79172950  0.77777778  1.08333333  1
