# generated using pymatgen
data_LaZnAsO
_symmetry_space_group_name_H-M   'P 1'
_cell_length_a   17.18240013
_cell_length_b   17.18240013
_cell_length_c   17.82231263
_cell_angle_alpha   90.00000000
_cell_angle_beta   90.00000000
_cell_angle_gamma   90.00000000
_symmetry_Int_Tables_number   1
_chemical_formula_structural   LaZnAsO
_chemical_formula_sum   'La72 Zn72 As72 O72'
_cell_volume   5261.76822662
_cell_formula_units_Z   72
loop_
 _symmetry_equiv_pos_site_id
 _symmetry_equiv_pos_as_xyz
  1  'x, y, z'
loop_
 _atom_site_type_symbol
 _atom_site_label
 _atom_site_symmetry_multiplicity
 _atom_site_fract_x
 _atom_site_fract_y
 _atom_site_fract_z
 _atom_site_occupancy
  La  La0  1  0.08333333  0.58333333  0.06803565  1
  La  La1  1  0.08333333  0.58333333  0.56803565  1
  La  La2  1  0.25000000  0.75000000  0.06803565  1
  La  La3  1  0.25000000  0.75000000  0.56803565  1
  La  La4  1  0.08333333  0.25000000  0.06803565  1
  La  La5  1  0.08333333  0.25000000  0.56803565  1
  La  La6  1  0.25000000  0.41666667  0.06803565  1
  La  La7  1  0.25000000  0.41666667  0.56803565  1
  La  La8  1  0.41666667  0.58333333  0.06803565  1
  La  La9  1  0.41666667  0.58333333  0.56803565  1
  La  La10  1  0.58333333  0.75000000  0.06803565  1
  La  La11  1  0.58333333  0.75000000  0.56803565  1
  La  La12  1  0.08333333  -0.08333333  0.06803565  1
  La  La13  1  0.08333333  -0.08333333  0.56803565  1
  La  La14  1  0.25000000  0.08333333  0.06803565  1
  La  La15  1  0.25000000  0.08333333  0.56803565  1
  La  La16  1  0.41666667  0.25000000  0.06803565  1
  La  La17  1  0.41666667  0.25000000  0.56803565  1
  La  La18  1  0.58333333  0.41666667  0.06803565  1
  La  La19  1  0.58333333  0.41666667  0.56803565  1
  La  La20  1  0.75000000  0.58333333  0.06803565  1
  La  La21  1  0.75000000  0.58333333  0.56803565  1
  La  La22  1  0.91666667  0.75000000  0.06803565  1
  La  La23  1  0.91666667  0.75000000  0.56803565  1
  La  La24  1  0.41666667  -0.08333333  0.06803565  1
  La  La25  1  0.41666667  -0.08333333  0.56803565  1
  La  La26  1  0.58333333  0.08333333  0.06803565  1
  La  La27  1  0.58333333  0.08333333  0.56803565  1
  La  La28  1  0.75000000  0.25000000  0.06803565  1
  La  La29  1  0.75000000  0.25000000  0.56803565  1
  La  La30  1  0.91666667  0.41666667  0.06803565  1
  La  La31  1  0.91666667  0.41666667  0.56803565  1
  La  La32  1  0.75000000  -0.08333333  0.06803565  1
  La  La33  1  0.75000000  -0.08333333  0.56803565  1
  La  La34  1  0.91666667  0.08333333  0.06803565  1
  La  La35  1  0.91666667  0.08333333  0.56803565  1
  La  La36  1  0.08333333  0.75000000  0.43196435  1
  La  La37  1  0.08333333  0.75000000  0.93196435  1
  La  La38  1  0.25000000  0.91666667  0.43196435  1
  La  La39  1  0.25000000  0.91666667  0.93196435  1
  La  La40  1  0.08333333  0.41666667  0.43196435  1
  La  La41  1  0.08333333  0.41666667  0.93196435  1
  La  La42  1  0.25000000  0.58333333  0.43196435  1
  La  La43  1  0.25000000  0.58333333  0.93196435  1
  La  La44  1  0.41666667  0.75000000  0.43196435  1
  La  La45  1  0.41666667  0.75000000  0.93196435  1
  La  La46  1  0.58333333  0.91666667  0.43196435  1
  La  La47  1  0.58333333  0.91666667  0.93196435  1
  La  La48  1  0.08333333  0.08333333  0.43196435  1
  La  La49  1  0.08333333  0.08333333  0.93196435  1
  La  La50  1  0.25000000  0.25000000  0.43196435  1
  La  La51  1  0.25000000  0.25000000  0.93196435  1
  La  La52  1  0.41666667  0.41666667  0.43196435  1
  La  La53  1  0.41666667  0.41666667  0.93196435  1
  La  La54  1  0.58333333  0.58333333  0.43196435  1
  La  La55  1  0.58333333  0.58333333  0.93196435  1
  La  La56  1  0.75000000  0.75000000  0.43196435  1
  La  La57  1  0.75000000  0.75000000  0.93196435  1
  La  La58  1  0.91666667  0.91666667  0.43196435  1
  La  La59  1  0.91666667  0.91666667  0.93196435  1
  La  La60  1  0.41666667  0.08333333  0.43196435  1
  La  La61  1  0.41666667  0.08333333  0.93196435  1
  La  La62  1  0.58333333  0.25000000  0.43196435  1
  La  La63  1  0.58333333  0.25000000  0.93196435  1
  La  La64  1  0.75000000  0.41666667  0.43196435  1
  La  La65  1  0.75000000  0.41666667  0.93196435  1
  La  La66  1  0.91666667  0.58333333  0.43196435  1
  La  La67  1  0.91666667  0.58333333  0.93196435  1
  La  La68  1  0.75000000  0.08333333  0.43196435  1
  La  La69  1  0.75000000  0.08333333  0.93196435  1
  La  La70  1  0.91666667  0.25000000  0.43196435  1
  La  La71  1  0.91666667  0.25000000  0.93196435  1
  Zn  Zn72  1  0.16666667  0.66666667  0.25000000  1
  Zn  Zn73  1  0.16666667  0.66666667  0.75000000  1
  Zn  Zn74  1  0.33333333  0.83333333  0.25000000  1
  Zn  Zn75  1  0.33333333  0.83333333  0.75000000  1
  Zn  Zn76  1  0.16666667  0.33333333  0.25000000  1
  Zn  Zn77  1  0.16666667  0.33333333  0.75000000  1
  Zn  Zn78  1  0.33333333  0.50000000  0.25000000  1
  Zn  Zn79  1  0.33333333  0.50000000  0.75000000  1
  Zn  Zn80  1  0.50000000  0.66666667  0.25000000  1
  Zn  Zn81  1  0.50000000  0.66666667  0.75000000  1
  Zn  Zn82  1  0.66666667  0.83333333  0.25000000  1
  Zn  Zn83  1  0.66666667  0.83333333  0.75000000  1
  Zn  Zn84  1  0.16666667  0.00000000  0.25000000  1
  Zn  Zn85  1  0.16666667  0.00000000  0.75000000  1
  Zn  Zn86  1  0.33333333  0.16666667  0.25000000  1
  Zn  Zn87  1  0.33333333  0.16666667  0.75000000  1
  Zn  Zn88  1  0.50000000  0.33333333  0.25000000  1
  Zn  Zn89  1  0.50000000  0.33333333  0.75000000  1
  Zn  Zn90  1  0.66666667  0.50000000  0.25000000  1
  Zn  Zn91  1  0.66666667  0.50000000  0.75000000  1
  Zn  Zn92  1  0.83333333  0.66666667  0.25000000  1
  Zn  Zn93  1  0.83333333  0.66666667  0.75000000  1
  Zn  Zn94  1  1.00000000  0.83333333  0.25000000  1
  Zn  Zn95  1  1.00000000  0.83333333  0.75000000  1
  Zn  Zn96  1  0.50000000  0.00000000  0.25000000  1
  Zn  Zn97  1  0.50000000  0.00000000  0.75000000  1
  Zn  Zn98  1  0.66666667  0.16666667  0.25000000  1
  Zn  Zn99  1  0.66666667  0.16666667  0.75000000  1
  Zn  Zn100  1  0.83333333  0.33333333  0.25000000  1
  Zn  Zn101  1  0.83333333  0.33333333  0.75000000  1
  Zn  Zn102  1  1.00000000  0.50000000  0.25000000  1
  Zn  Zn103  1  1.00000000  0.50000000  0.75000000  1
  Zn  Zn104  1  0.83333333  -0.00000000  0.25000000  1
  Zn  Zn105  1  0.83333333  -0.00000000  0.75000000  1
  Zn  Zn106  1  1.00000000  0.16666667  0.25000000  1
  Zn  Zn107  1  1.00000000  0.16666667  0.75000000  1
  Zn  Zn108  1  0.00000000  0.66666667  0.25000000  1
  Zn  Zn109  1  0.00000000  0.66666667  0.75000000  1
  Zn  Zn110  1  0.16666667  0.83333333  0.25000000  1
  Zn  Zn111  1  0.16666667  0.83333333  0.75000000  1
  Zn  Zn112  1  0.00000000  0.33333333  0.25000000  1
  Zn  Zn113  1  0.00000000  0.33333333  0.75000000  1
  Zn  Zn114  1  0.16666667  0.50000000  0.25000000  1
  Zn  Zn115  1  0.16666667  0.50000000  0.75000000  1
  Zn  Zn116  1  0.33333333  0.66666667  0.25000000  1
  Zn  Zn117  1  0.33333333  0.66666667  0.75000000  1
  Zn  Zn118  1  0.50000000  0.83333333  0.25000000  1
  Zn  Zn119  1  0.50000000  0.83333333  0.75000000  1
  Zn  Zn120  1  0.00000000  0.00000000  0.25000000  1
  Zn  Zn121  1  0.00000000  0.00000000  0.75000000  1
  Zn  Zn122  1  0.16666667  0.16666667  0.25000000  1
  Zn  Zn123  1  0.16666667  0.16666667  0.75000000  1
  Zn  Zn124  1  0.33333333  0.33333333  0.25000000  1
  Zn  Zn125  1  0.33333333  0.33333333  0.75000000  1
  Zn  Zn126  1  0.50000000  0.50000000  0.25000000  1
  Zn  Zn127  1  0.50000000  0.50000000  0.75000000  1
  Zn  Zn128  1  0.66666667  0.66666667  0.25000000  1
  Zn  Zn129  1  0.66666667  0.66666667  0.75000000  1
  Zn  Zn130  1  0.83333333  0.83333333  0.25000000  1
  Zn  Zn131  1  0.83333333  0.83333333  0.75000000  1
  Zn  Zn132  1  0.33333333  0.00000000  0.25000000  1
  Zn  Zn133  1  0.33333333  0.00000000  0.75000000  1
  Zn  Zn134  1  0.50000000  0.16666667  0.25000000  1
  Zn  Zn135  1  0.50000000  0.16666667  0.75000000  1
  Zn  Zn136  1  0.66666667  0.33333333  0.25000000  1
  Zn  Zn137  1  0.66666667  0.33333333  0.75000000  1
  Zn  Zn138  1  0.83333333  0.50000000  0.25000000  1
  Zn  Zn139  1  0.83333333  0.50000000  0.75000000  1
  Zn  Zn140  1  0.66666667  0.00000000  0.25000000  1
  Zn  Zn141  1  0.66666667  0.00000000  0.75000000  1
  Zn  Zn142  1  0.83333333  0.16666667  0.25000000  1
  Zn  Zn143  1  0.83333333  0.16666667  0.75000000  1
  As  As144  1  0.08333333  0.75000000  0.16434372  1
  As  As145  1  0.08333333  0.75000000  0.66434372  1
  As  As146  1  0.25000000  0.91666667  0.16434372  1
  As  As147  1  0.25000000  0.91666667  0.66434372  1
  As  As148  1  0.08333333  0.41666667  0.16434372  1
  As  As149  1  0.08333333  0.41666667  0.66434372  1
  As  As150  1  0.25000000  0.58333333  0.16434372  1
  As  As151  1  0.25000000  0.58333333  0.66434372  1
  As  As152  1  0.41666667  0.75000000  0.16434372  1
  As  As153  1  0.41666667  0.75000000  0.66434372  1
  As  As154  1  0.58333333  0.91666667  0.16434372  1
  As  As155  1  0.58333333  0.91666667  0.66434372  1
  As  As156  1  0.08333333  0.08333333  0.16434372  1
  As  As157  1  0.08333333  0.08333333  0.66434372  1
  As  As158  1  0.25000000  0.25000000  0.16434372  1
  As  As159  1  0.25000000  0.25000000  0.66434372  1
  As  As160  1  0.41666667  0.41666667  0.16434372  1
  As  As161  1  0.41666667  0.41666667  0.66434372  1
  As  As162  1  0.58333333  0.58333333  0.16434372  1
  As  As163  1  0.58333333  0.58333333  0.66434372  1
  As  As164  1  0.75000000  0.75000000  0.16434372  1
  As  As165  1  0.75000000  0.75000000  0.66434372  1
  As  As166  1  0.91666667  0.91666667  0.16434372  1
  As  As167  1  0.91666667  0.91666667  0.66434372  1
  As  As168  1  0.41666667  0.08333333  0.16434372  1
  As  As169  1  0.41666667  0.08333333  0.66434372  1
  As  As170  1  0.58333333  0.25000000  0.16434372  1
  As  As171  1  0.58333333  0.25000000  0.66434372  1
  As  As172  1  0.75000000  0.41666667  0.16434372  1
  As  As173  1  0.75000000  0.41666667  0.66434372  1
  As  As174  1  0.91666667  0.58333333  0.16434372  1
  As  As175  1  0.91666667  0.58333333  0.66434372  1
  As  As176  1  0.75000000  0.08333333  0.16434372  1
  As  As177  1  0.75000000  0.08333333  0.66434372  1
  As  As178  1  0.91666667  0.25000000  0.16434372  1
  As  As179  1  0.91666667  0.25000000  0.66434372  1
  As  As180  1  0.08333333  0.58333333  0.33565628  1
  As  As181  1  0.08333333  0.58333333  0.83565628  1
  As  As182  1  0.25000000  0.75000000  0.33565628  1
  As  As183  1  0.25000000  0.75000000  0.83565628  1
  As  As184  1  0.08333333  0.25000000  0.33565628  1
  As  As185  1  0.08333333  0.25000000  0.83565628  1
  As  As186  1  0.25000000  0.41666667  0.33565628  1
  As  As187  1  0.25000000  0.41666667  0.83565628  1
  As  As188  1  0.41666667  0.58333333  0.33565628  1
  As  As189  1  0.41666667  0.58333333  0.83565628  1
  As  As190  1  0.58333333  0.75000000  0.33565628  1
  As  As191  1  0.58333333  0.75000000  0.83565628  1
  As  As192  1  0.08333333  -0.08333333  0.33565628  1
  As  As193  1  0.08333333  -0.08333333  0.83565628  1
  As  As194  1  0.25000000  0.08333333  0.33565628  1
  As  As195  1  0.25000000  0.08333333  0.83565628  1
  As  As196  1  0.41666667  0.25000000  0.33565628  1
  As  As197  1  0.41666667  0.25000000  0.83565628  1
  As  As198  1  0.58333333  0.41666667  0.33565628  1
  As  As199  1  0.58333333  0.41666667  0.83565628  1
  As  As200  1  0.75000000  0.58333333  0.33565628  1
  As  As201  1  0.75000000  0.58333333  0.83565628  1
  As  As202  1  0.91666667  0.75000000  0.33565628  1
  As  As203  1  0.91666667  0.75000000  0.83565628  1
  As  As204  1  0.41666667  -0.08333333  0.33565628  1
  As  As205  1  0.41666667  -0.08333333  0.83565628  1
  As  As206  1  0.58333333  0.08333333  0.33565628  1
  As  As207  1  0.58333333  0.08333333  0.83565628  1
  As  As208  1  0.75000000  0.25000000  0.33565628  1
  As  As209  1  0.75000000  0.25000000  0.83565628  1
  As  As210  1  0.91666667  0.41666667  0.33565628  1
  As  As211  1  0.91666667  0.41666667  0.83565628  1
  As  As212  1  0.75000000  -0.08333333  0.33565628  1
  As  As213  1  0.75000000  -0.08333333  0.83565628  1
  As  As214  1  0.91666667  0.08333333  0.33565628  1
  As  As215  1  0.91666667  0.08333333  0.83565628  1
  O  O216  1  0.16666667  0.66666667  0.00000000  1
  O  O217  1  0.16666667  0.66666667  0.50000000  1
  O  O218  1  0.33333333  0.83333333  0.00000000  1
  O  O219  1  0.33333333  0.83333333  0.50000000  1
  O  O220  1  0.16666667  0.33333333  0.00000000  1
  O  O221  1  0.16666667  0.33333333  0.50000000  1
  O  O222  1  0.33333333  0.50000000  0.00000000  1
  O  O223  1  0.33333333  0.50000000  0.50000000  1
  O  O224  1  0.50000000  0.66666667  0.00000000  1
  O  O225  1  0.50000000  0.66666667  0.50000000  1
  O  O226  1  0.66666667  0.83333333  0.00000000  1
  O  O227  1  0.66666667  0.83333333  0.50000000  1
  O  O228  1  0.16666667  0.00000000  0.00000000  1
  O  O229  1  0.16666667  0.00000000  0.50000000  1
  O  O230  1  0.33333333  0.16666667  0.00000000  1
  O  O231  1  0.33333333  0.16666667  0.50000000  1
  O  O232  1  0.50000000  0.33333333  0.00000000  1
  O  O233  1  0.50000000  0.33333333  0.50000000  1
  O  O234  1  0.66666667  0.50000000  0.00000000  1
  O  O235  1  0.66666667  0.50000000  0.50000000  1
  O  O236  1  0.83333333  0.66666667  0.00000000  1
  O  O237  1  0.83333333  0.66666667  0.50000000  1
  O  O238  1  1.00000000  0.83333333  0.00000000  1
  O  O239  1  1.00000000  0.83333333  0.50000000  1
  O  O240  1  0.50000000  0.00000000  0.00000000  1
  O  O241  1  0.50000000  0.00000000  0.50000000  1
  O  O242  1  0.66666667  0.16666667  0.00000000  1
  O  O243  1  0.66666667  0.16666667  0.50000000  1
  O  O244  1  0.83333333  0.33333333  0.00000000  1
  O  O245  1  0.83333333  0.33333333  0.50000000  1
  O  O246  1  1.00000000  0.50000000  0.00000000  1
  O  O247  1  1.00000000  0.50000000  0.50000000  1
  O  O248  1  0.83333333  -0.00000000  0.00000000  1
  O  O249  1  0.83333333  -0.00000000  0.50000000  1
  O  O250  1  1.00000000  0.16666667  0.00000000  1
  O  O251  1  1.00000000  0.16666667  0.50000000  1
  O  O252  1  0.00000000  0.66666667  0.00000000  1
  O  O253  1  0.00000000  0.66666667  0.50000000  1
  O  O254  1  0.16666667  0.83333333  0.00000000  1
  O  O255  1  0.16666667  0.83333333  0.50000000  1
  O  O256  1  0.00000000  0.33333333  0.00000000  1
  O  O257  1  0.00000000  0.33333333  0.50000000  1
  O  O258  1  0.16666667  0.50000000  0.00000000  1
  O  O259  1  0.16666667  0.50000000  0.50000000  1
  O  O260  1  0.33333333  0.66666667  0.00000000  1
  O  O261  1  0.33333333  0.66666667  0.50000000  1
  O  O262  1  0.50000000  0.83333333  0.00000000  1
  O  O263  1  0.50000000  0.83333333  0.50000000  1
  O  O264  1  0.00000000  0.00000000  0.00000000  1
  O  O265  1  0.00000000  0.00000000  0.50000000  1
  O  O266  1  0.16666667  0.16666667  0.00000000  1
  O  O267  1  0.16666667  0.16666667  0.50000000  1
  O  O268  1  0.33333333  0.33333333  0.00000000  1
  O  O269  1  0.33333333  0.33333333  0.50000000  1
  O  O270  1  0.50000000  0.50000000  0.00000000  1
  O  O271  1  0.50000000  0.50000000  0.50000000  1
  O  O272  1  0.66666667  0.66666667  0.00000000  1
  O  O273  1  0.66666667  0.66666667  0.50000000  1
  O  O274  1  0.83333333  0.83333333  0.00000000  1
  O  O275  1  0.83333333  0.83333333  0.50000000  1
  O  O276  1  0.33333333  0.00000000  0.00000000  1
  O  O277  1  0.33333333  0.00000000  0.50000000  1
  O  O278  1  0.50000000  0.16666667  0.00000000  1
  O  O279  1  0.50000000  0.16666667  0.50000000  1
  O  O280  1  0.66666667  0.33333333  0.00000000  1
  O  O281  1  0.66666667  0.33333333  0.50000000  1
  O  O282  1  0.83333333  0.50000000  0.00000000  1
  O  O283  1  0.83333333  0.50000000  0.50000000  1
  O  O284  1  0.66666667  0.00000000  0.00000000  1
  O  O285  1  0.66666667  0.00000000  0.50000000  1
  O  O286  1  0.83333333  0.16666667  0.00000000  1
  O  O287  1  0.83333333  0.16666667  0.50000000  1
