# generated using pymatgen
data_NaSr3SbO6
_symmetry_space_group_name_H-M   'P 1'
_cell_length_a   9.74475437
_cell_length_b   9.74475437
_cell_length_c   11.54482908
_cell_angle_alpha   90.00000000
_cell_angle_beta   90.00000000
_cell_angle_gamma   120.00000000
_symmetry_Int_Tables_number   1
_chemical_formula_structural   NaSr3SbO6
_chemical_formula_sum   'Na6 Sr18 Sb6 O36'
_cell_volume   949.42340236
_cell_formula_units_Z   6
loop_
 _symmetry_equiv_pos_site_id
 _symmetry_equiv_pos_as_xyz
  1  'x, y, z'
loop_
 _atom_site_type_symbol
 _atom_site_label
 _atom_site_symmetry_multiplicity
 _atom_site_fract_x
 _atom_site_fract_y
 _atom_site_fract_z
 _atom_site_occupancy
  Na  Na0  1  -0.00000000  0.00000000  0.75000000  1
  Na  Na1  1  0.66666667  0.33333333  1.08333333  1
  Na  Na2  1  0.33333333  0.66666667  1.41666667  1
  Na  Na3  1  -0.00000000  -0.00000000  0.25000000  1
  Na  Na4  1  0.66666667  0.33333333  0.58333333  1
  Na  Na5  1  0.33333333  0.66666667  0.91666667  1
  Sr  Sr6  1  0.33333333  0.31530221  0.41666667  1
  Sr  Sr7  1  1.00000000  0.64863555  0.75000000  1
  Sr  Sr8  1  0.66666667  0.98196888  1.08333333  1
  Sr  Sr9  1  -0.31530221  0.01803112  0.41666667  1
  Sr  Sr10  1  0.35136445  0.35136445  0.75000000  1
  Sr  Sr11  1  0.01803112  0.68469779  1.08333333  1
  Sr  Sr12  1  0.01803112  0.33333333  0.58333333  1
  Sr  Sr13  1  0.68469779  0.66666667  0.91666667  1
  Sr  Sr14  1  0.35136445  1.00000000  1.25000000  1
  Sr  Sr15  1  -0.33333333  -0.31530221  0.58333333  1
  Sr  Sr16  1  0.33333333  0.01803112  0.91666667  1
  Sr  Sr17  1  0.00000000  0.35136445  1.25000000  1
  Sr  Sr18  1  0.31530221  -0.01803112  0.58333333  1
  Sr  Sr19  1  0.98196888  0.31530221  0.91666667  1
  Sr  Sr20  1  0.64863555  0.64863555  1.25000000  1
  Sr  Sr21  1  -0.01803112  -0.33333333  0.41666667  1
  Sr  Sr22  1  0.64863555  0.00000000  0.75000000  1
  Sr  Sr23  1  0.31530221  0.33333333  1.08333333  1
  Sb  Sb24  1  0.00000000  0.00000000  0.50000000  1
  Sb  Sb25  1  0.66666667  0.33333333  0.83333333  1
  Sb  Sb26  1  0.33333333  0.66666667  1.16666667  1
  Sb  Sb27  1  -0.00000000  -0.00000000  -0.00000000  1
  Sb  Sb28  1  0.66666667  0.33333333  0.33333333  1
  Sb  Sb29  1  0.33333333  0.66666667  0.66666667  1
  O  O30  1  -0.15302640  0.35857459  0.43408223  1
  O  O31  1  0.51364026  0.69190792  0.76741556  1
  O  O32  1  0.18030693  1.02524126  1.10074889  1
  O  O33  1  -0.35857459  -0.51160099  0.43408223  1
  O  O34  1  0.30809208  -0.17826766  0.76741556  1
  O  O35  1  -0.02524126  0.15506567  1.10074889  1
  O  O36  1  0.51160099  0.15302640  0.43408223  1
  O  O37  1  1.17826766  0.48635974  0.76741556  1
  O  O38  1  0.84493433  0.81969307  1.10074889  1
  O  O39  1  0.15506567  -0.02524126  0.39925111  1
  O  O40  1  0.82173234  0.30809208  0.73258444  1
  O  O41  1  0.48839901  0.64142541  1.06591777  1
  O  O42  1  0.02524126  0.18030693  0.39925111  1
  O  O43  1  0.69190792  0.51364026  0.73258444  1
  O  O44  1  0.35857459  0.84697360  1.06591777  1
  O  O45  1  -0.18030693  -0.15506567  0.39925111  1
  O  O46  1  0.48635974  0.17826766  0.73258444  1
  O  O47  1  0.15302640  0.51160099  1.06591777  1
  O  O48  1  0.15302640  -0.35857459  0.56591777  1
  O  O49  1  0.81969307  -0.02524126  0.89925111  1
  O  O50  1  0.48635974  0.30809208  1.23258444  1
  O  O51  1  0.35857459  0.51160099  0.56591777  1
  O  O52  1  1.02524126  0.84493433  0.89925111  1
  O  O53  1  0.69190792  1.17826766  1.23258444  1
  O  O54  1  -0.51160099  -0.15302640  0.56591777  1
  O  O55  1  0.15506567  0.18030693  0.89925111  1
  O  O56  1  -0.17826766  0.51364026  1.23258444  1
  O  O57  1  -0.15506567  0.02524126  0.60074889  1
  O  O58  1  0.51160099  0.35857459  0.93408223  1
  O  O59  1  0.17826766  0.69190792  1.26741556  1
  O  O60  1  0.18030693  0.15506567  0.60074889  1
  O  O61  1  0.84697360  0.48839901  0.93408223  1
  O  O62  1  0.51364026  0.82173234  1.26741556  1
  O  O63  1  -0.02524126  -0.18030693  0.60074889  1
  O  O64  1  0.64142541  0.15302640  0.93408223  1
  O  O65  1  0.30809208  0.48635974  1.26741556  1
