# generated using pymatgen
data_VBiO3
_symmetry_space_group_name_H-M   Pnma
_cell_length_a   5.63526644
_cell_length_b   7.82987624
_cell_length_c   5.41335664
_cell_angle_alpha   90.00000000
_cell_angle_beta   90.00000000
_cell_angle_gamma   90.00000000
_symmetry_Int_Tables_number   62
_chemical_formula_structural   VBiO3
_chemical_formula_sum   'V4 Bi4 O12'
_cell_volume   238.85591017
_cell_formula_units_Z   4
loop_
 _symmetry_equiv_pos_site_id
 _symmetry_equiv_pos_as_xyz
  1  'x, y, z'
  2  '-x, -y, -z'
  3  '-x+1/2, -y, z+1/2'
  4  'x+1/2, y, -z+1/2'
  5  'x+1/2, -y+1/2, -z+1/2'
  6  '-x+1/2, y+1/2, z+1/2'
  7  '-x, y+1/2, -z'
  8  'x, -y+1/2, z'
loop_
 _atom_type_symbol
 _atom_type_oxidation_number
  V3+  3.0
  Bi3+  3.0
  O2-  -2.0
loop_
 _atom_site_type_symbol
 _atom_site_label
 _atom_site_symmetry_multiplicity
 _atom_site_fract_x
 _atom_site_fract_y
 _atom_site_fract_z
 _atom_site_occupancy
  V3+  V0  4  0.00000000  0.00000000  0.50000000  1
  Bi3+  Bi1  4  0.04766575  0.75000000  0.01000202  1
  O2-  O2  8  0.20128170  0.04498457  0.80345933  1
  O2-  O3  4  0.02678864  0.25000000  0.40397098  1
