# generated using pymatgen
data_RbNa2BO3
_symmetry_space_group_name_H-M   'P 1'
_cell_length_a   11.27650492
_cell_length_b   12.06856080
_cell_length_c   11.01707260
_cell_angle_alpha   90.00000000
_cell_angle_beta   90.00000000
_cell_angle_gamma   90.00000000
_symmetry_Int_Tables_number   1
_chemical_formula_structural   RbNa2BO3
_chemical_formula_sum   'Rb16 Na32 B16 O48'
_cell_volume   1499.32646683
_cell_formula_units_Z   16
loop_
 _symmetry_equiv_pos_site_id
 _symmetry_equiv_pos_as_xyz
  1  'x, y, z'
loop_
 _atom_site_type_symbol
 _atom_site_label
 _atom_site_symmetry_multiplicity
 _atom_site_fract_x
 _atom_site_fract_y
 _atom_site_fract_z
 _atom_site_occupancy
  Rb  Rb0  1  0.25000000  0.25000000  0.44645204  1
  Rb  Rb1  1  0.25000000  0.25000000  0.94645204  1
  Rb  Rb2  1  0.25000000  0.75000000  0.44645204  1
  Rb  Rb3  1  0.25000000  0.75000000  0.94645204  1
  Rb  Rb4  1  0.75000000  0.25000000  0.44645204  1
  Rb  Rb5  1  0.75000000  0.25000000  0.94645204  1
  Rb  Rb6  1  0.75000000  0.75000000  0.44645204  1
  Rb  Rb7  1  0.75000000  0.75000000  0.94645204  1
  Rb  Rb8  1  0.00000000  0.00000000  0.05354796  1
  Rb  Rb9  1  0.00000000  0.00000000  0.55354796  1
  Rb  Rb10  1  0.00000000  0.50000000  0.05354796  1
  Rb  Rb11  1  0.00000000  0.50000000  0.55354796  1
  Rb  Rb12  1  0.50000000  0.00000000  0.05354796  1
  Rb  Rb13  1  0.50000000  0.00000000  0.55354796  1
  Rb  Rb14  1  0.50000000  0.50000000  0.05354796  1
  Rb  Rb15  1  0.50000000  0.50000000  0.55354796  1
  Na  Na16  1  0.25000000  0.38446333  0.18340524  1
  Na  Na17  1  0.25000000  0.38446333  0.68340524  1
  Na  Na18  1  0.25000000  0.88446333  0.18340524  1
  Na  Na19  1  0.25000000  0.88446333  0.68340524  1
  Na  Na20  1  0.75000000  0.38446333  0.18340524  1
  Na  Na21  1  0.75000000  0.38446333  0.68340524  1
  Na  Na22  1  0.75000000  0.88446333  0.18340524  1
  Na  Na23  1  0.75000000  0.88446333  0.68340524  1
  Na  Na24  1  0.25000000  0.11553667  0.18340524  1
  Na  Na25  1  0.25000000  0.11553667  0.68340524  1
  Na  Na26  1  0.25000000  0.61553667  0.18340524  1
  Na  Na27  1  0.25000000  0.61553667  0.68340524  1
  Na  Na28  1  0.75000000  0.11553667  0.18340524  1
  Na  Na29  1  0.75000000  0.11553667  0.68340524  1
  Na  Na30  1  0.75000000  0.61553667  0.18340524  1
  Na  Na31  1  0.75000000  0.61553667  0.68340524  1
  Na  Na32  1  0.00000000  0.36553667  0.31659476  1
  Na  Na33  1  0.00000000  0.36553667  0.81659476  1
  Na  Na34  1  0.00000000  0.86553667  0.31659476  1
  Na  Na35  1  0.00000000  0.86553667  0.81659476  1
  Na  Na36  1  0.50000000  0.36553667  0.31659476  1
  Na  Na37  1  0.50000000  0.36553667  0.81659476  1
  Na  Na38  1  0.50000000  0.86553667  0.31659476  1
  Na  Na39  1  0.50000000  0.86553667  0.81659476  1
  Na  Na40  1  0.00000000  0.13446333  0.31659476  1
  Na  Na41  1  0.00000000  0.13446333  0.81659476  1
  Na  Na42  1  0.00000000  0.63446333  0.31659476  1
  Na  Na43  1  0.00000000  0.63446333  0.81659476  1
  Na  Na44  1  0.50000000  0.13446333  0.31659476  1
  Na  Na45  1  0.50000000  0.13446333  0.81659476  1
  Na  Na46  1  0.50000000  0.63446333  0.31659476  1
  Na  Na47  1  0.50000000  0.63446333  0.81659476  1
  B  B48  1  0.25000000  0.00000000  0.39357050  1
  B  B49  1  0.25000000  0.00000000  0.89357050  1
  B  B50  1  0.25000000  0.50000000  0.39357050  1
  B  B51  1  0.25000000  0.50000000  0.89357050  1
  B  B52  1  0.75000000  0.00000000  0.39357050  1
  B  B53  1  0.75000000  0.00000000  0.89357050  1
  B  B54  1  0.75000000  0.50000000  0.39357050  1
  B  B55  1  0.75000000  0.50000000  0.89357050  1
  B  B56  1  0.00000000  0.25000000  0.10642950  1
  B  B57  1  0.00000000  0.25000000  0.60642950  1
  B  B58  1  0.00000000  0.75000000  0.10642950  1
  B  B59  1  0.00000000  0.75000000  0.60642950  1
  B  B60  1  0.50000000  0.25000000  0.10642950  1
  B  B61  1  0.50000000  0.25000000  0.60642950  1
  B  B62  1  0.50000000  0.75000000  0.10642950  1
  B  B63  1  0.50000000  0.75000000  0.60642950  1
  O  O64  1  0.14397245  0.00000000  0.32700003  1
  O  O65  1  0.14397245  0.00000000  0.82700003  1
  O  O66  1  0.14397245  0.50000000  0.32700003  1
  O  O67  1  0.14397245  0.50000000  0.82700003  1
  O  O68  1  0.64397245  0.00000000  0.32700003  1
  O  O69  1  0.64397245  0.00000000  0.82700003  1
  O  O70  1  0.64397245  0.50000000  0.32700003  1
  O  O71  1  0.64397245  0.50000000  0.82700003  1
  O  O72  1  0.10602755  0.25000000  0.17299997  1
  O  O73  1  0.10602755  0.25000000  0.67299997  1
  O  O74  1  0.10602755  0.75000000  0.17299997  1
  O  O75  1  0.10602755  0.75000000  0.67299997  1
  O  O76  1  0.60602755  0.25000000  0.17299997  1
  O  O77  1  0.60602755  0.25000000  0.67299997  1
  O  O78  1  0.60602755  0.75000000  0.17299997  1
  O  O79  1  0.60602755  0.75000000  0.67299997  1
  O  O80  1  0.25000000  0.00000000  0.01927693  1
  O  O81  1  0.25000000  0.00000000  0.51927693  1
  O  O82  1  0.25000000  0.50000000  0.01927693  1
  O  O83  1  0.25000000  0.50000000  0.51927693  1
  O  O84  1  0.75000000  0.00000000  0.01927693  1
  O  O85  1  0.75000000  0.00000000  0.51927693  1
  O  O86  1  0.75000000  0.50000000  0.01927693  1
  O  O87  1  0.75000000  0.50000000  0.51927693  1
  O  O88  1  0.00000000  0.25000000  0.48072307  1
  O  O89  1  0.00000000  0.25000000  0.98072307  1
  O  O90  1  0.00000000  0.75000000  0.48072307  1
  O  O91  1  0.00000000  0.75000000  0.98072307  1
  O  O92  1  0.50000000  0.25000000  0.48072307  1
  O  O93  1  0.50000000  0.25000000  0.98072307  1
  O  O94  1  0.50000000  0.75000000  0.48072307  1
  O  O95  1  0.50000000  0.75000000  0.98072307  1
  O  O96  1  0.39397245  0.25000000  0.17299997  1
  O  O97  1  0.39397245  0.25000000  0.67299997  1
  O  O98  1  0.39397245  0.75000000  0.17299997  1
  O  O99  1  0.39397245  0.75000000  0.67299997  1
  O  O100  1  0.89397245  0.25000000  0.17299997  1
  O  O101  1  0.89397245  0.25000000  0.67299997  1
  O  O102  1  0.89397245  0.75000000  0.17299997  1
  O  O103  1  0.89397245  0.75000000  0.67299997  1
  O  O104  1  0.35602755  0.00000000  0.32700003  1
  O  O105  1  0.35602755  0.00000000  0.82700003  1
  O  O106  1  0.35602755  0.50000000  0.32700003  1
  O  O107  1  0.35602755  0.50000000  0.82700003  1
  O  O108  1  0.85602755  0.00000000  0.32700003  1
  O  O109  1  0.85602755  0.00000000  0.82700003  1
  O  O110  1  0.85602755  0.50000000  0.32700003  1
  O  O111  1  0.85602755  0.50000000  0.82700003  1
