# generated using pymatgen
data_Tl4V2O7
_symmetry_space_group_name_H-M   'P 1'
_cell_length_a   17.74786851
_cell_length_b   17.74786851
_cell_length_c   15.34862885
_cell_angle_alpha   90.00000000
_cell_angle_beta   90.00000000
_cell_angle_gamma   120.00000000
_symmetry_Int_Tables_number   1
_chemical_formula_structural   Tl4V2O7
_chemical_formula_sum   'Tl72 V36 O126'
_cell_volume   4186.90031656
_cell_formula_units_Z   18
loop_
 _symmetry_equiv_pos_site_id
 _symmetry_equiv_pos_as_xyz
  1  'x, y, z'
loop_
 _atom_site_type_symbol
 _atom_site_label
 _atom_site_symmetry_multiplicity
 _atom_site_fract_x
 _atom_site_fract_y
 _atom_site_fract_z
 _atom_site_occupancy
  Tl  Tl0  1  0.22222222  0.11111111  0.46013305  1
  Tl  Tl1  1  0.22222222  0.11111111  0.96013305  1
  Tl  Tl2  1  0.22222222  0.44444444  0.46013305  1
  Tl  Tl3  1  0.22222222  0.44444444  0.96013305  1
  Tl  Tl4  1  0.22222222  0.77777778  0.46013305  1
  Tl  Tl5  1  0.22222222  0.77777778  0.96013305  1
  Tl  Tl6  1  0.55555556  0.11111111  0.46013305  1
  Tl  Tl7  1  0.55555556  0.11111111  0.96013305  1
  Tl  Tl8  1  0.55555556  0.44444444  0.46013305  1
  Tl  Tl9  1  0.55555556  0.44444444  0.96013305  1
  Tl  Tl10  1  0.55555556  0.77777778  0.46013305  1
  Tl  Tl11  1  0.55555556  0.77777778  0.96013305  1
  Tl  Tl12  1  0.88888889  0.11111111  0.46013305  1
  Tl  Tl13  1  0.88888889  0.11111111  0.96013305  1
  Tl  Tl14  1  0.88888889  0.44444444  0.46013305  1
  Tl  Tl15  1  0.88888889  0.44444444  0.96013305  1
  Tl  Tl16  1  0.88888889  0.77777778  0.46013305  1
  Tl  Tl17  1  0.88888889  0.77777778  0.96013305  1
  Tl  Tl18  1  0.11111111  0.22222222  0.03986695  1
  Tl  Tl19  1  0.11111111  0.22222222  0.53986695  1
  Tl  Tl20  1  0.11111111  0.55555556  0.03986695  1
  Tl  Tl21  1  0.11111111  0.55555556  0.53986695  1
  Tl  Tl22  1  0.11111111  0.88888889  0.03986695  1
  Tl  Tl23  1  0.11111111  0.88888889  0.53986695  1
  Tl  Tl24  1  0.44444444  0.22222222  0.03986695  1
  Tl  Tl25  1  0.44444444  0.22222222  0.53986695  1
  Tl  Tl26  1  0.44444444  0.55555556  0.03986695  1
  Tl  Tl27  1  0.44444444  0.55555556  0.53986695  1
  Tl  Tl28  1  0.44444444  0.88888889  0.03986695  1
  Tl  Tl29  1  0.44444444  0.88888889  0.53986695  1
  Tl  Tl30  1  0.77777778  0.22222222  0.03986695  1
  Tl  Tl31  1  0.77777778  0.22222222  0.53986695  1
  Tl  Tl32  1  0.77777778  0.55555556  0.03986695  1
  Tl  Tl33  1  0.77777778  0.55555556  0.53986695  1
  Tl  Tl34  1  0.77777778  0.88888889  0.03986695  1
  Tl  Tl35  1  0.77777778  0.88888889  0.53986695  1
  Tl  Tl36  1  0.22222222  0.11111111  0.20606094  1
  Tl  Tl37  1  0.22222222  0.11111111  0.70606094  1
  Tl  Tl38  1  0.22222222  0.44444444  0.20606094  1
  Tl  Tl39  1  0.22222222  0.44444444  0.70606094  1
  Tl  Tl40  1  0.22222222  0.77777778  0.20606094  1
  Tl  Tl41  1  0.22222222  0.77777778  0.70606094  1
  Tl  Tl42  1  0.55555556  0.11111111  0.20606094  1
  Tl  Tl43  1  0.55555556  0.11111111  0.70606094  1
  Tl  Tl44  1  0.55555556  0.44444444  0.20606094  1
  Tl  Tl45  1  0.55555556  0.44444444  0.70606094  1
  Tl  Tl46  1  0.55555556  0.77777778  0.20606094  1
  Tl  Tl47  1  0.55555556  0.77777778  0.70606094  1
  Tl  Tl48  1  0.88888889  0.11111111  0.20606094  1
  Tl  Tl49  1  0.88888889  0.11111111  0.70606094  1
  Tl  Tl50  1  0.88888889  0.44444444  0.20606094  1
  Tl  Tl51  1  0.88888889  0.44444444  0.70606094  1
  Tl  Tl52  1  0.88888889  0.77777778  0.20606094  1
  Tl  Tl53  1  0.88888889  0.77777778  0.70606094  1
  Tl  Tl54  1  0.11111111  0.22222222  0.29393906  1
  Tl  Tl55  1  0.11111111  0.22222222  0.79393906  1
  Tl  Tl56  1  0.11111111  0.55555556  0.29393906  1
  Tl  Tl57  1  0.11111111  0.55555556  0.79393906  1
  Tl  Tl58  1  0.11111111  0.88888889  0.29393906  1
  Tl  Tl59  1  0.11111111  0.88888889  0.79393906  1
  Tl  Tl60  1  0.44444444  0.22222222  0.29393906  1
  Tl  Tl61  1  0.44444444  0.22222222  0.79393906  1
  Tl  Tl62  1  0.44444444  0.55555556  0.29393906  1
  Tl  Tl63  1  0.44444444  0.55555556  0.79393906  1
  Tl  Tl64  1  0.44444444  0.88888889  0.29393906  1
  Tl  Tl65  1  0.44444444  0.88888889  0.79393906  1
  Tl  Tl66  1  0.77777778  0.22222222  0.29393906  1
  Tl  Tl67  1  0.77777778  0.22222222  0.79393906  1
  Tl  Tl68  1  0.77777778  0.55555556  0.29393906  1
  Tl  Tl69  1  0.77777778  0.55555556  0.79393906  1
  Tl  Tl70  1  0.77777778  0.88888889  0.29393906  1
  Tl  Tl71  1  0.77777778  0.88888889  0.79393906  1
  V  V72  1  0.00000000  0.00000000  0.36716541  1
  V  V73  1  0.00000000  0.00000000  0.86716541  1
  V  V74  1  0.00000000  0.33333333  0.36716541  1
  V  V75  1  0.00000000  0.33333333  0.86716541  1
  V  V76  1  0.00000000  0.66666667  0.36716541  1
  V  V77  1  0.00000000  0.66666667  0.86716541  1
  V  V78  1  0.33333333  0.00000000  0.36716541  1
  V  V79  1  0.33333333  0.00000000  0.86716541  1
  V  V80  1  0.33333333  0.33333333  0.36716541  1
  V  V81  1  0.33333333  0.33333333  0.86716541  1
  V  V82  1  0.33333333  0.66666667  0.36716541  1
  V  V83  1  0.33333333  0.66666667  0.86716541  1
  V  V84  1  0.66666667  0.00000000  0.36716541  1
  V  V85  1  0.66666667  0.00000000  0.86716541  1
  V  V86  1  0.66666667  0.33333333  0.36716541  1
  V  V87  1  0.66666667  0.33333333  0.86716541  1
  V  V88  1  0.66666667  0.66666667  0.36716541  1
  V  V89  1  0.66666667  0.66666667  0.86716541  1
  V  V90  1  0.00000000  0.00000000  0.13283459  1
  V  V91  1  0.00000000  0.00000000  0.63283459  1
  V  V92  1  0.00000000  0.33333333  0.13283459  1
  V  V93  1  0.00000000  0.33333333  0.63283459  1
  V  V94  1  0.00000000  0.66666667  0.13283459  1
  V  V95  1  0.00000000  0.66666667  0.63283459  1
  V  V96  1  0.33333333  0.00000000  0.13283459  1
  V  V97  1  0.33333333  0.00000000  0.63283459  1
  V  V98  1  0.33333333  0.33333333  0.13283459  1
  V  V99  1  0.33333333  0.33333333  0.63283459  1
  V  V100  1  0.33333333  0.66666667  0.13283459  1
  V  V101  1  0.33333333  0.66666667  0.63283459  1
  V  V102  1  0.66666667  0.00000000  0.13283459  1
  V  V103  1  0.66666667  0.00000000  0.63283459  1
  V  V104  1  0.66666667  0.33333333  0.13283459  1
  V  V105  1  0.66666667  0.33333333  0.63283459  1
  V  V106  1  0.66666667  0.66666667  0.13283459  1
  V  V107  1  0.66666667  0.66666667  0.63283459  1
  O  O108  1  0.28070825  0.05262509  0.09766520  1
  O  O109  1  0.28070825  0.05262509  0.59766520  1
  O  O110  1  0.28070825  0.38595842  0.09766520  1
  O  O111  1  0.28070825  0.38595842  0.59766520  1
  O  O112  1  0.28070825  0.71929175  0.09766520  1
  O  O113  1  0.28070825  0.71929175  0.59766520  1
  O  O114  1  0.61404158  0.05262509  0.09766520  1
  O  O115  1  0.61404158  0.05262509  0.59766520  1
  O  O116  1  0.61404158  0.38595842  0.09766520  1
  O  O117  1  0.61404158  0.38595842  0.59766520  1
  O  O118  1  0.61404158  0.71929175  0.09766520  1
  O  O119  1  0.61404158  0.71929175  0.59766520  1
  O  O120  1  0.94737491  0.05262509  0.09766520  1
  O  O121  1  0.94737491  0.05262509  0.59766520  1
  O  O122  1  0.94737491  0.38595842  0.09766520  1
  O  O123  1  0.94737491  0.38595842  0.59766520  1
  O  O124  1  0.94737491  0.71929175  0.09766520  1
  O  O125  1  0.94737491  0.71929175  0.59766520  1
  O  O126  1  0.28070825  0.22808316  0.09766520  1
  O  O127  1  0.28070825  0.22808316  0.59766520  1
  O  O128  1  0.28070825  0.56141650  0.09766520  1
  O  O129  1  0.28070825  0.56141650  0.59766520  1
  O  O130  1  0.28070825  0.89474983  0.09766520  1
  O  O131  1  0.28070825  0.89474983  0.59766520  1
  O  O132  1  0.61404158  0.22808316  0.09766520  1
  O  O133  1  0.61404158  0.22808316  0.59766520  1
  O  O134  1  0.61404158  0.56141650  0.09766520  1
  O  O135  1  0.61404158  0.56141650  0.59766520  1
  O  O136  1  0.61404158  0.89474983  0.09766520  1
  O  O137  1  0.61404158  0.89474983  0.59766520  1
  O  O138  1  0.94737491  0.22808316  0.09766520  1
  O  O139  1  0.94737491  0.22808316  0.59766520  1
  O  O140  1  0.94737491  0.56141650  0.09766520  1
  O  O141  1  0.94737491  0.56141650  0.59766520  1
  O  O142  1  0.94737491  0.89474983  0.09766520  1
  O  O143  1  0.94737491  0.89474983  0.59766520  1
  O  O144  1  0.10525017  0.05262509  0.09766520  1
  O  O145  1  0.10525017  0.05262509  0.59766520  1
  O  O146  1  0.10525017  0.38595842  0.09766520  1
  O  O147  1  0.10525017  0.38595842  0.59766520  1
  O  O148  1  0.10525017  0.71929175  0.09766520  1
  O  O149  1  0.10525017  0.71929175  0.59766520  1
  O  O150  1  0.43858350  0.05262509  0.09766520  1
  O  O151  1  0.43858350  0.05262509  0.59766520  1
  O  O152  1  0.43858350  0.38595842  0.09766520  1
  O  O153  1  0.43858350  0.38595842  0.59766520  1
  O  O154  1  0.43858350  0.71929175  0.09766520  1
  O  O155  1  0.43858350  0.71929175  0.59766520  1
  O  O156  1  0.77191684  0.05262509  0.09766520  1
  O  O157  1  0.77191684  0.05262509  0.59766520  1
  O  O158  1  0.77191684  0.38595842  0.09766520  1
  O  O159  1  0.77191684  0.38595842  0.59766520  1
  O  O160  1  0.77191684  0.71929175  0.09766520  1
  O  O161  1  0.77191684  0.71929175  0.59766520  1
  O  O162  1  0.22808316  0.28070825  0.40233480  1
  O  O163  1  0.22808316  0.28070825  0.90233480  1
  O  O164  1  0.22808316  0.61404158  0.40233480  1
  O  O165  1  0.22808316  0.61404158  0.90233480  1
  O  O166  1  0.22808316  0.94737491  0.40233480  1
  O  O167  1  0.22808316  0.94737491  0.90233480  1
  O  O168  1  0.56141650  0.28070825  0.40233480  1
  O  O169  1  0.56141650  0.28070825  0.90233480  1
  O  O170  1  0.56141650  0.61404158  0.40233480  1
  O  O171  1  0.56141650  0.61404158  0.90233480  1
  O  O172  1  0.56141650  0.94737491  0.40233480  1
  O  O173  1  0.56141650  0.94737491  0.90233480  1
  O  O174  1  0.89474983  0.28070825  0.40233480  1
  O  O175  1  0.89474983  0.28070825  0.90233480  1
  O  O176  1  0.89474983  0.61404158  0.40233480  1
  O  O177  1  0.89474983  0.61404158  0.90233480  1
  O  O178  1  0.89474983  0.94737491  0.40233480  1
  O  O179  1  0.89474983  0.94737491  0.90233480  1
  O  O180  1  0.05262509  0.10525017  0.40233480  1
  O  O181  1  0.05262509  0.10525017  0.90233480  1
  O  O182  1  0.05262509  0.43858350  0.40233480  1
  O  O183  1  0.05262509  0.43858350  0.90233480  1
  O  O184  1  0.05262509  0.77191684  0.40233480  1
  O  O185  1  0.05262509  0.77191684  0.90233480  1
  O  O186  1  0.38595842  0.10525017  0.40233480  1
  O  O187  1  0.38595842  0.10525017  0.90233480  1
  O  O188  1  0.38595842  0.43858350  0.40233480  1
  O  O189  1  0.38595842  0.43858350  0.90233480  1
  O  O190  1  0.38595842  0.77191684  0.40233480  1
  O  O191  1  0.38595842  0.77191684  0.90233480  1
  O  O192  1  0.71929175  0.10525017  0.40233480  1
  O  O193  1  0.71929175  0.10525017  0.90233480  1
  O  O194  1  0.71929175  0.43858350  0.40233480  1
  O  O195  1  0.71929175  0.43858350  0.90233480  1
  O  O196  1  0.71929175  0.77191684  0.40233480  1
  O  O197  1  0.71929175  0.77191684  0.90233480  1
  O  O198  1  0.05262509  0.28070825  0.40233480  1
  O  O199  1  0.05262509  0.28070825  0.90233480  1
  O  O200  1  0.05262509  0.61404158  0.40233480  1
  O  O201  1  0.05262509  0.61404158  0.90233480  1
  O  O202  1  0.05262509  0.94737491  0.40233480  1
  O  O203  1  0.05262509  0.94737491  0.90233480  1
  O  O204  1  0.38595842  0.28070825  0.40233480  1
  O  O205  1  0.38595842  0.28070825  0.90233480  1
  O  O206  1  0.38595842  0.61404158  0.40233480  1
  O  O207  1  0.38595842  0.61404158  0.90233480  1
  O  O208  1  0.38595842  0.94737491  0.40233480  1
  O  O209  1  0.38595842  0.94737491  0.90233480  1
  O  O210  1  0.71929175  0.28070825  0.40233480  1
  O  O211  1  0.71929175  0.28070825  0.90233480  1
  O  O212  1  0.71929175  0.61404158  0.40233480  1
  O  O213  1  0.71929175  0.61404158  0.90233480  1
  O  O214  1  0.71929175  0.94737491  0.40233480  1
  O  O215  1  0.71929175  0.94737491  0.90233480  1
  O  O216  1  0.00000000  0.00000000  0.25000000  1
  O  O217  1  0.00000000  0.00000000  0.75000000  1
  O  O218  1  0.00000000  0.33333333  0.25000000  1
  O  O219  1  0.00000000  0.33333333  0.75000000  1
  O  O220  1  0.00000000  0.66666667  0.25000000  1
  O  O221  1  0.00000000  0.66666667  0.75000000  1
  O  O222  1  0.33333333  0.00000000  0.25000000  1
  O  O223  1  0.33333333  0.00000000  0.75000000  1
  O  O224  1  0.33333333  0.33333333  0.25000000  1
  O  O225  1  0.33333333  0.33333333  0.75000000  1
  O  O226  1  0.33333333  0.66666667  0.25000000  1
  O  O227  1  0.33333333  0.66666667  0.75000000  1
  O  O228  1  0.66666667  0.00000000  0.25000000  1
  O  O229  1  0.66666667  0.00000000  0.75000000  1
  O  O230  1  0.66666667  0.33333333  0.25000000  1
  O  O231  1  0.66666667  0.33333333  0.75000000  1
  O  O232  1  0.66666667  0.66666667  0.25000000  1
  O  O233  1  0.66666667  0.66666667  0.75000000  1
