# generated using pymatgen
data_Rb2Be2O3
_symmetry_space_group_name_H-M   'P 1'
_cell_length_a   21.22080872
_cell_length_b   16.05888407
_cell_length_c   15.35831362
_cell_angle_alpha   90.00000000
_cell_angle_beta   90.00000000
_cell_angle_gamma   90.00000000
_symmetry_Int_Tables_number   1
_chemical_formula_structural   Rb2Be2O3
_chemical_formula_sum   'Rb96 Be96 O144'
_cell_volume   5233.84461859
_cell_formula_units_Z   48
loop_
 _symmetry_equiv_pos_site_id
 _symmetry_equiv_pos_as_xyz
  1  'x, y, z'
loop_
 _atom_site_type_symbol
 _atom_site_label
 _atom_site_symmetry_multiplicity
 _atom_site_fract_x
 _atom_site_fract_y
 _atom_site_fract_z
 _atom_site_occupancy
  Rb  Rb0  1  0.04319792  0.08333333  0.43656442  1
  Rb  Rb1  1  0.04319792  0.08333333  0.93656442  1
  Rb  Rb2  1  0.04319792  0.41666667  0.43656442  1
  Rb  Rb3  1  0.04319792  0.41666667  0.93656442  1
  Rb  Rb4  1  0.04319792  0.75000000  0.43656442  1
  Rb  Rb5  1  0.04319792  0.75000000  0.93656442  1
  Rb  Rb6  1  0.54319792  0.08333333  0.43656442  1
  Rb  Rb7  1  0.54319792  0.08333333  0.93656442  1
  Rb  Rb8  1  0.54319792  0.41666667  0.43656442  1
  Rb  Rb9  1  0.54319792  0.41666667  0.93656442  1
  Rb  Rb10  1  0.54319792  0.75000000  0.43656442  1
  Rb  Rb11  1  0.54319792  0.75000000  0.93656442  1
  Rb  Rb12  1  0.05619909  0.25000000  0.25595687  1
  Rb  Rb13  1  0.05619909  0.25000000  0.75595687  1
  Rb  Rb14  1  0.05619909  0.58333333  0.25595687  1
  Rb  Rb15  1  0.05619909  0.58333333  0.75595687  1
  Rb  Rb16  1  0.05619909  0.91666667  0.25595687  1
  Rb  Rb17  1  0.05619909  0.91666667  0.75595687  1
  Rb  Rb18  1  0.55619909  0.25000000  0.25595687  1
  Rb  Rb19  1  0.55619909  0.25000000  0.75595687  1
  Rb  Rb20  1  0.55619909  0.58333333  0.25595687  1
  Rb  Rb21  1  0.55619909  0.58333333  0.75595687  1
  Rb  Rb22  1  0.55619909  0.91666667  0.25595687  1
  Rb  Rb23  1  0.55619909  0.91666667  0.75595687  1
  Rb  Rb24  1  0.19380091  0.08333333  0.00595687  1
  Rb  Rb25  1  0.19380091  0.08333333  0.50595687  1
  Rb  Rb26  1  0.19380091  0.41666667  0.00595687  1
  Rb  Rb27  1  0.19380091  0.41666667  0.50595687  1
  Rb  Rb28  1  0.19380091  0.75000000  0.00595687  1
  Rb  Rb29  1  0.19380091  0.75000000  0.50595687  1
  Rb  Rb30  1  0.69380091  0.08333333  0.00595687  1
  Rb  Rb31  1  0.69380091  0.08333333  0.50595687  1
  Rb  Rb32  1  0.69380091  0.41666667  0.00595687  1
  Rb  Rb33  1  0.69380091  0.41666667  0.50595687  1
  Rb  Rb34  1  0.69380091  0.75000000  0.00595687  1
  Rb  Rb35  1  0.69380091  0.75000000  0.50595687  1
  Rb  Rb36  1  0.20680208  0.25000000  0.18656442  1
  Rb  Rb37  1  0.20680208  0.25000000  0.68656442  1
  Rb  Rb38  1  0.20680208  0.58333333  0.18656442  1
  Rb  Rb39  1  0.20680208  0.58333333  0.68656442  1
  Rb  Rb40  1  0.20680208  0.91666667  0.18656442  1
  Rb  Rb41  1  0.20680208  0.91666667  0.68656442  1
  Rb  Rb42  1  0.70680208  0.25000000  0.18656442  1
  Rb  Rb43  1  0.70680208  0.25000000  0.68656442  1
  Rb  Rb44  1  0.70680208  0.58333333  0.18656442  1
  Rb  Rb45  1  0.70680208  0.58333333  0.68656442  1
  Rb  Rb46  1  0.70680208  0.91666667  0.18656442  1
  Rb  Rb47  1  0.70680208  0.91666667  0.68656442  1
  Rb  Rb48  1  0.29319792  0.08333333  0.31343558  1
  Rb  Rb49  1  0.29319792  0.08333333  0.81343558  1
  Rb  Rb50  1  0.29319792  0.41666667  0.31343558  1
  Rb  Rb51  1  0.29319792  0.41666667  0.81343558  1
  Rb  Rb52  1  0.29319792  0.75000000  0.31343558  1
  Rb  Rb53  1  0.29319792  0.75000000  0.81343558  1
  Rb  Rb54  1  0.79319792  0.08333333  0.31343558  1
  Rb  Rb55  1  0.79319792  0.08333333  0.81343558  1
  Rb  Rb56  1  0.79319792  0.41666667  0.31343558  1
  Rb  Rb57  1  0.79319792  0.41666667  0.81343558  1
  Rb  Rb58  1  0.79319792  0.75000000  0.31343558  1
  Rb  Rb59  1  0.79319792  0.75000000  0.81343558  1
  Rb  Rb60  1  0.30619909  0.25000000  0.49404313  1
  Rb  Rb61  1  0.30619909  0.25000000  0.99404313  1
  Rb  Rb62  1  0.30619909  0.58333333  0.49404313  1
  Rb  Rb63  1  0.30619909  0.58333333  0.99404313  1
  Rb  Rb64  1  0.30619909  0.91666667  0.49404313  1
  Rb  Rb65  1  0.30619909  0.91666667  0.99404313  1
  Rb  Rb66  1  0.80619909  0.25000000  0.49404313  1
  Rb  Rb67  1  0.80619909  0.25000000  0.99404313  1
  Rb  Rb68  1  0.80619909  0.58333333  0.49404313  1
  Rb  Rb69  1  0.80619909  0.58333333  0.99404313  1
  Rb  Rb70  1  0.80619909  0.91666667  0.49404313  1
  Rb  Rb71  1  0.80619909  0.91666667  0.99404313  1
  Rb  Rb72  1  0.44380091  0.08333333  0.24404313  1
  Rb  Rb73  1  0.44380091  0.08333333  0.74404313  1
  Rb  Rb74  1  0.44380091  0.41666667  0.24404313  1
  Rb  Rb75  1  0.44380091  0.41666667  0.74404313  1
  Rb  Rb76  1  0.44380091  0.75000000  0.24404313  1
  Rb  Rb77  1  0.44380091  0.75000000  0.74404313  1
  Rb  Rb78  1  0.94380091  0.08333333  0.24404313  1
  Rb  Rb79  1  0.94380091  0.08333333  0.74404313  1
  Rb  Rb80  1  0.94380091  0.41666667  0.24404313  1
  Rb  Rb81  1  0.94380091  0.41666667  0.74404313  1
  Rb  Rb82  1  0.94380091  0.75000000  0.24404313  1
  Rb  Rb83  1  0.94380091  0.75000000  0.74404313  1
  Rb  Rb84  1  0.45680208  0.25000000  0.06343558  1
  Rb  Rb85  1  0.45680208  0.25000000  0.56343558  1
  Rb  Rb86  1  0.45680208  0.58333333  0.06343558  1
  Rb  Rb87  1  0.45680208  0.58333333  0.56343558  1
  Rb  Rb88  1  0.45680208  0.91666667  0.06343558  1
  Rb  Rb89  1  0.45680208  0.91666667  0.56343558  1
  Rb  Rb90  1  0.95680208  0.25000000  0.06343558  1
  Rb  Rb91  1  0.95680208  0.25000000  0.56343558  1
  Rb  Rb92  1  0.95680208  0.58333333  0.06343558  1
  Rb  Rb93  1  0.95680208  0.58333333  0.56343558  1
  Rb  Rb94  1  0.95680208  0.91666667  0.06343558  1
  Rb  Rb95  1  0.95680208  0.91666667  0.56343558  1
  Be  Be96  1  0.08177437  0.08333333  0.14094623  1
  Be  Be97  1  0.08177437  0.08333333  0.64094623  1
  Be  Be98  1  0.08177437  0.41666667  0.14094623  1
  Be  Be99  1  0.08177437  0.41666667  0.64094623  1
  Be  Be100  1  0.08177437  0.75000000  0.14094623  1
  Be  Be101  1  0.08177437  0.75000000  0.64094623  1
  Be  Be102  1  0.58177437  0.08333333  0.14094623  1
  Be  Be103  1  0.58177437  0.08333333  0.64094623  1
  Be  Be104  1  0.58177437  0.41666667  0.14094623  1
  Be  Be105  1  0.58177437  0.41666667  0.64094623  1
  Be  Be106  1  0.58177437  0.75000000  0.14094623  1
  Be  Be107  1  0.58177437  0.75000000  0.64094623  1
  Be  Be108  1  0.10411766  0.25000000  0.05567591  1
  Be  Be109  1  0.10411766  0.25000000  0.55567591  1
  Be  Be110  1  0.10411766  0.58333333  0.05567591  1
  Be  Be111  1  0.10411766  0.58333333  0.55567591  1
  Be  Be112  1  0.10411766  0.91666667  0.05567591  1
  Be  Be113  1  0.10411766  0.91666667  0.55567591  1
  Be  Be114  1  0.60411766  0.25000000  0.05567591  1
  Be  Be115  1  0.60411766  0.25000000  0.55567591  1
  Be  Be116  1  0.60411766  0.58333333  0.05567591  1
  Be  Be117  1  0.60411766  0.58333333  0.55567591  1
  Be  Be118  1  0.60411766  0.91666667  0.05567591  1
  Be  Be119  1  0.60411766  0.91666667  0.55567591  1
  Be  Be120  1  0.14588234  0.08333333  0.30567591  1
  Be  Be121  1  0.14588234  0.08333333  0.80567591  1
  Be  Be122  1  0.14588234  0.41666667  0.30567591  1
  Be  Be123  1  0.14588234  0.41666667  0.80567591  1
  Be  Be124  1  0.14588234  0.75000000  0.30567591  1
  Be  Be125  1  0.14588234  0.75000000  0.80567591  1
  Be  Be126  1  0.64588234  0.08333333  0.30567591  1
  Be  Be127  1  0.64588234  0.08333333  0.80567591  1
  Be  Be128  1  0.64588234  0.41666667  0.30567591  1
  Be  Be129  1  0.64588234  0.41666667  0.80567591  1
  Be  Be130  1  0.64588234  0.75000000  0.30567591  1
  Be  Be131  1  0.64588234  0.75000000  0.80567591  1
  Be  Be132  1  0.16822563  0.25000000  0.39094623  1
  Be  Be133  1  0.16822563  0.25000000  0.89094623  1
  Be  Be134  1  0.16822563  0.58333333  0.39094623  1
  Be  Be135  1  0.16822563  0.58333333  0.89094623  1
  Be  Be136  1  0.16822563  0.91666667  0.39094623  1
  Be  Be137  1  0.16822563  0.91666667  0.89094623  1
  Be  Be138  1  0.66822563  0.25000000  0.39094623  1
  Be  Be139  1  0.66822563  0.25000000  0.89094623  1
  Be  Be140  1  0.66822563  0.58333333  0.39094623  1
  Be  Be141  1  0.66822563  0.58333333  0.89094623  1
  Be  Be142  1  0.66822563  0.91666667  0.39094623  1
  Be  Be143  1  0.66822563  0.91666667  0.89094623  1
  Be  Be144  1  0.33177437  0.08333333  0.10905377  1
  Be  Be145  1  0.33177437  0.08333333  0.60905377  1
  Be  Be146  1  0.33177437  0.41666667  0.10905377  1
  Be  Be147  1  0.33177437  0.41666667  0.60905377  1
  Be  Be148  1  0.33177437  0.75000000  0.10905377  1
  Be  Be149  1  0.33177437  0.75000000  0.60905377  1
  Be  Be150  1  0.83177437  0.08333333  0.10905377  1
  Be  Be151  1  0.83177437  0.08333333  0.60905377  1
  Be  Be152  1  0.83177437  0.41666667  0.10905377  1
  Be  Be153  1  0.83177437  0.41666667  0.60905377  1
  Be  Be154  1  0.83177437  0.75000000  0.10905377  1
  Be  Be155  1  0.83177437  0.75000000  0.60905377  1
  Be  Be156  1  0.35411766  0.25000000  0.19432409  1
  Be  Be157  1  0.35411766  0.25000000  0.69432409  1
  Be  Be158  1  0.35411766  0.58333333  0.19432409  1
  Be  Be159  1  0.35411766  0.58333333  0.69432409  1
  Be  Be160  1  0.35411766  0.91666667  0.19432409  1
  Be  Be161  1  0.35411766  0.91666667  0.69432409  1
  Be  Be162  1  0.85411766  0.25000000  0.19432409  1
  Be  Be163  1  0.85411766  0.25000000  0.69432409  1
  Be  Be164  1  0.85411766  0.58333333  0.19432409  1
  Be  Be165  1  0.85411766  0.58333333  0.69432409  1
  Be  Be166  1  0.85411766  0.91666667  0.19432409  1
  Be  Be167  1  0.85411766  0.91666667  0.69432409  1
  Be  Be168  1  0.39588234  0.08333333  0.44432409  1
  Be  Be169  1  0.39588234  0.08333333  0.94432409  1
  Be  Be170  1  0.39588234  0.41666667  0.44432409  1
  Be  Be171  1  0.39588234  0.41666667  0.94432409  1
  Be  Be172  1  0.39588234  0.75000000  0.44432409  1
  Be  Be173  1  0.39588234  0.75000000  0.94432409  1
  Be  Be174  1  0.89588234  0.08333333  0.44432409  1
  Be  Be175  1  0.89588234  0.08333333  0.94432409  1
  Be  Be176  1  0.89588234  0.41666667  0.44432409  1
  Be  Be177  1  0.89588234  0.41666667  0.94432409  1
  Be  Be178  1  0.89588234  0.75000000  0.44432409  1
  Be  Be179  1  0.89588234  0.75000000  0.94432409  1
  Be  Be180  1  0.41822563  0.25000000  0.35905377  1
  Be  Be181  1  0.41822563  0.25000000  0.85905377  1
  Be  Be182  1  0.41822563  0.58333333  0.35905377  1
  Be  Be183  1  0.41822563  0.58333333  0.85905377  1
  Be  Be184  1  0.41822563  0.91666667  0.35905377  1
  Be  Be185  1  0.41822563  0.91666667  0.85905377  1
  Be  Be186  1  0.91822563  0.25000000  0.35905377  1
  Be  Be187  1  0.91822563  0.25000000  0.85905377  1
  Be  Be188  1  0.91822563  0.58333333  0.35905377  1
  Be  Be189  1  0.91822563  0.58333333  0.85905377  1
  Be  Be190  1  0.91822563  0.91666667  0.35905377  1
  Be  Be191  1  0.91822563  0.91666667  0.85905377  1
  O  O192  1  0.08950670  0.08333333  0.24165012  1
  O  O193  1  0.08950670  0.08333333  0.74165012  1
  O  O194  1  0.08950670  0.41666667  0.24165012  1
  O  O195  1  0.08950670  0.41666667  0.74165012  1
  O  O196  1  0.08950670  0.75000000  0.24165012  1
  O  O197  1  0.08950670  0.75000000  0.74165012  1
  O  O198  1  0.58950670  0.08333333  0.24165012  1
  O  O199  1  0.58950670  0.08333333  0.74165012  1
  O  O200  1  0.58950670  0.41666667  0.24165012  1
  O  O201  1  0.58950670  0.41666667  0.74165012  1
  O  O202  1  0.58950670  0.75000000  0.24165012  1
  O  O203  1  0.58950670  0.75000000  0.74165012  1
  O  O204  1  0.07668760  0.33300145  0.09085780  1
  O  O205  1  0.07668760  0.33300145  0.59085780  1
  O  O206  1  0.07668760  0.66633478  0.09085780  1
  O  O207  1  0.07668760  0.66633478  0.59085780  1
  O  O208  1  0.07668760  0.99966812  0.09085780  1
  O  O209  1  0.07668760  0.99966812  0.59085780  1
  O  O210  1  0.57668760  0.33300145  0.09085780  1
  O  O211  1  0.57668760  0.33300145  0.59085780  1
  O  O212  1  0.57668760  0.66633478  0.09085780  1
  O  O213  1  0.57668760  0.66633478  0.59085780  1
  O  O214  1  0.57668760  0.99966812  0.09085780  1
  O  O215  1  0.57668760  0.99966812  0.59085780  1
  O  O216  1  0.07668760  0.16699855  0.09085780  1
  O  O217  1  0.07668760  0.16699855  0.59085780  1
  O  O218  1  0.07668760  0.50033188  0.09085780  1
  O  O219  1  0.07668760  0.50033188  0.59085780  1
  O  O220  1  0.07668760  0.83366522  0.09085780  1
  O  O221  1  0.07668760  0.83366522  0.59085780  1
  O  O222  1  0.57668760  0.16699855  0.09085780  1
  O  O223  1  0.57668760  0.16699855  0.59085780  1
  O  O224  1  0.57668760  0.50033188  0.09085780  1
  O  O225  1  0.57668760  0.50033188  0.59085780  1
  O  O226  1  0.57668760  0.83366522  0.09085780  1
  O  O227  1  0.57668760  0.83366522  0.59085780  1
  O  O228  1  0.17331240  0.00033188  0.34085780  1
  O  O229  1  0.17331240  0.00033188  0.84085780  1
  O  O230  1  0.17331240  0.33366522  0.34085780  1
  O  O231  1  0.17331240  0.33366522  0.84085780  1
  O  O232  1  0.17331240  0.66699855  0.34085780  1
  O  O233  1  0.17331240  0.66699855  0.84085780  1
  O  O234  1  0.67331240  0.00033188  0.34085780  1
  O  O235  1  0.67331240  0.00033188  0.84085780  1
  O  O236  1  0.67331240  0.33366522  0.34085780  1
  O  O237  1  0.67331240  0.33366522  0.84085780  1
  O  O238  1  0.67331240  0.66699855  0.34085780  1
  O  O239  1  0.67331240  0.66699855  0.84085780  1
  O  O240  1  0.17331240  0.16633478  0.34085780  1
  O  O241  1  0.17331240  0.16633478  0.84085780  1
  O  O242  1  0.17331240  0.49966812  0.34085780  1
  O  O243  1  0.17331240  0.49966812  0.84085780  1
  O  O244  1  0.17331240  0.83300145  0.34085780  1
  O  O245  1  0.17331240  0.83300145  0.84085780  1
  O  O246  1  0.67331240  0.16633478  0.34085780  1
  O  O247  1  0.67331240  0.16633478  0.84085780  1
  O  O248  1  0.67331240  0.49966812  0.34085780  1
  O  O249  1  0.67331240  0.49966812  0.84085780  1
  O  O250  1  0.67331240  0.83300145  0.34085780  1
  O  O251  1  0.67331240  0.83300145  0.84085780  1
  O  O252  1  0.16049330  0.25000000  0.49165012  1
  O  O253  1  0.16049330  0.25000000  0.99165012  1
  O  O254  1  0.16049330  0.58333333  0.49165012  1
  O  O255  1  0.16049330  0.58333333  0.99165012  1
  O  O256  1  0.16049330  0.91666667  0.49165012  1
  O  O257  1  0.16049330  0.91666667  0.99165012  1
  O  O258  1  0.66049330  0.25000000  0.49165012  1
  O  O259  1  0.66049330  0.25000000  0.99165012  1
  O  O260  1  0.66049330  0.58333333  0.49165012  1
  O  O261  1  0.66049330  0.58333333  0.99165012  1
  O  O262  1  0.66049330  0.91666667  0.49165012  1
  O  O263  1  0.66049330  0.91666667  0.99165012  1
  O  O264  1  0.33950670  0.08333333  0.00834988  1
  O  O265  1  0.33950670  0.08333333  0.50834988  1
  O  O266  1  0.33950670  0.41666667  0.00834988  1
  O  O267  1  0.33950670  0.41666667  0.50834988  1
  O  O268  1  0.33950670  0.75000000  0.00834988  1
  O  O269  1  0.33950670  0.75000000  0.50834988  1
  O  O270  1  0.83950670  0.08333333  0.00834988  1
  O  O271  1  0.83950670  0.08333333  0.50834988  1
  O  O272  1  0.83950670  0.41666667  0.00834988  1
  O  O273  1  0.83950670  0.41666667  0.50834988  1
  O  O274  1  0.83950670  0.75000000  0.00834988  1
  O  O275  1  0.83950670  0.75000000  0.50834988  1
  O  O276  1  0.32668760  0.33300145  0.15914220  1
  O  O277  1  0.32668760  0.33300145  0.65914220  1
  O  O278  1  0.32668760  0.66633478  0.15914220  1
  O  O279  1  0.32668760  0.66633478  0.65914220  1
  O  O280  1  0.32668760  0.99966812  0.15914220  1
  O  O281  1  0.32668760  0.99966812  0.65914220  1
  O  O282  1  0.82668760  0.33300145  0.15914220  1
  O  O283  1  0.82668760  0.33300145  0.65914220  1
  O  O284  1  0.82668760  0.66633478  0.15914220  1
  O  O285  1  0.82668760  0.66633478  0.65914220  1
  O  O286  1  0.82668760  0.99966812  0.15914220  1
  O  O287  1  0.82668760  0.99966812  0.65914220  1
  O  O288  1  0.32668760  0.16699855  0.15914220  1
  O  O289  1  0.32668760  0.16699855  0.65914220  1
  O  O290  1  0.32668760  0.50033188  0.15914220  1
  O  O291  1  0.32668760  0.50033188  0.65914220  1
  O  O292  1  0.32668760  0.83366522  0.15914220  1
  O  O293  1  0.32668760  0.83366522  0.65914220  1
  O  O294  1  0.82668760  0.16699855  0.15914220  1
  O  O295  1  0.82668760  0.16699855  0.65914220  1
  O  O296  1  0.82668760  0.50033188  0.15914220  1
  O  O297  1  0.82668760  0.50033188  0.65914220  1
  O  O298  1  0.82668760  0.83366522  0.15914220  1
  O  O299  1  0.82668760  0.83366522  0.65914220  1
  O  O300  1  0.42331240  0.16633478  0.40914220  1
  O  O301  1  0.42331240  0.16633478  0.90914220  1
  O  O302  1  0.42331240  0.49966812  0.40914220  1
  O  O303  1  0.42331240  0.49966812  0.90914220  1
  O  O304  1  0.42331240  0.83300145  0.40914220  1
  O  O305  1  0.42331240  0.83300145  0.90914220  1
  O  O306  1  0.92331240  0.16633478  0.40914220  1
  O  O307  1  0.92331240  0.16633478  0.90914220  1
  O  O308  1  0.92331240  0.49966812  0.40914220  1
  O  O309  1  0.92331240  0.49966812  0.90914220  1
  O  O310  1  0.92331240  0.83300145  0.40914220  1
  O  O311  1  0.92331240  0.83300145  0.90914220  1
  O  O312  1  0.42331240  0.00033188  0.40914220  1
  O  O313  1  0.42331240  0.00033188  0.90914220  1
  O  O314  1  0.42331240  0.33366522  0.40914220  1
  O  O315  1  0.42331240  0.33366522  0.90914220  1
  O  O316  1  0.42331240  0.66699855  0.40914220  1
  O  O317  1  0.42331240  0.66699855  0.90914220  1
  O  O318  1  0.92331240  0.00033188  0.40914220  1
  O  O319  1  0.92331240  0.00033188  0.90914220  1
  O  O320  1  0.92331240  0.33366522  0.40914220  1
  O  O321  1  0.92331240  0.33366522  0.90914220  1
  O  O322  1  0.92331240  0.66699855  0.40914220  1
  O  O323  1  0.92331240  0.66699855  0.90914220  1
  O  O324  1  0.41049330  0.25000000  0.25834988  1
  O  O325  1  0.41049330  0.25000000  0.75834988  1
  O  O326  1  0.41049330  0.58333333  0.25834988  1
  O  O327  1  0.41049330  0.58333333  0.75834988  1
  O  O328  1  0.41049330  0.91666667  0.25834988  1
  O  O329  1  0.41049330  0.91666667  0.75834988  1
  O  O330  1  0.91049330  0.25000000  0.25834988  1
  O  O331  1  0.91049330  0.25000000  0.75834988  1
  O  O332  1  0.91049330  0.58333333  0.25834988  1
  O  O333  1  0.91049330  0.58333333  0.75834988  1
  O  O334  1  0.91049330  0.91666667  0.25834988  1
  O  O335  1  0.91049330  0.91666667  0.75834988  1
