# generated using pymatgen
data_KAgO2
_symmetry_space_group_name_H-M   'P 1'
_cell_length_a   12.96756683
_cell_length_b   12.05906717
_cell_length_c   11.79417687
_cell_angle_alpha   90.00000000
_cell_angle_beta   90.00000000
_cell_angle_gamma   90.00000000
_symmetry_Int_Tables_number   1
_chemical_formula_structural   KAgO2
_chemical_formula_sum   'K24 Ag24 O48'
_cell_volume   1844.33515964
_cell_formula_units_Z   24
loop_
 _symmetry_equiv_pos_site_id
 _symmetry_equiv_pos_as_xyz
  1  'x, y, z'
loop_
 _atom_site_type_symbol
 _atom_site_label
 _atom_site_symmetry_multiplicity
 _atom_site_fract_x
 _atom_site_fract_y
 _atom_site_fract_z
 _atom_site_occupancy
  K  K0  1  0.16666667  0.20481065  0.37500000  1
  K  K1  1  0.16666667  0.20481065  0.87500000  1
  K  K2  1  0.50000000  0.20481065  0.37500000  1
  K  K3  1  0.50000000  0.20481065  0.87500000  1
  K  K4  1  0.83333333  0.20481065  0.37500000  1
  K  K5  1  0.83333333  0.20481065  0.87500000  1
  K  K6  1  0.33333333  0.70481065  0.37500000  1
  K  K7  1  0.33333333  0.70481065  0.87500000  1
  K  K8  1  0.66666667  0.70481065  0.37500000  1
  K  K9  1  0.66666667  0.70481065  0.87500000  1
  K  K10  1  1.00000000  0.70481065  0.37500000  1
  K  K11  1  1.00000000  0.70481065  0.87500000  1
  K  K12  1  0.16666667  -0.20481065  0.12500000  1
  K  K13  1  0.16666667  -0.20481065  0.62500000  1
  K  K14  1  0.50000000  -0.20481065  0.12500000  1
  K  K15  1  0.50000000  -0.20481065  0.62500000  1
  K  K16  1  0.83333333  -0.20481065  0.12500000  1
  K  K17  1  0.83333333  -0.20481065  0.62500000  1
  K  K18  1  0.33333333  0.29518935  0.12500000  1
  K  K19  1  0.33333333  0.29518935  0.62500000  1
  K  K20  1  0.66666667  0.29518935  0.12500000  1
  K  K21  1  0.66666667  0.29518935  0.62500000  1
  K  K22  1  1.00000000  0.29518935  0.12500000  1
  K  K23  1  1.00000000  0.29518935  0.62500000  1
  Ag  Ag24  1  0.16666667  0.49691886  0.37500000  1
  Ag  Ag25  1  0.16666667  0.49691886  0.87500000  1
  Ag  Ag26  1  0.50000000  0.49691886  0.37500000  1
  Ag  Ag27  1  0.50000000  0.49691886  0.87500000  1
  Ag  Ag28  1  0.83333333  0.49691886  0.37500000  1
  Ag  Ag29  1  0.83333333  0.49691886  0.87500000  1
  Ag  Ag30  1  0.33333333  0.99691886  0.37500000  1
  Ag  Ag31  1  0.33333333  0.99691886  0.87500000  1
  Ag  Ag32  1  0.66666667  0.99691886  0.37500000  1
  Ag  Ag33  1  0.66666667  0.99691886  0.87500000  1
  Ag  Ag34  1  1.00000000  0.99691886  0.37500000  1
  Ag  Ag35  1  1.00000000  0.99691886  0.87500000  1
  Ag  Ag36  1  0.16666667  -0.49691886  0.12500000  1
  Ag  Ag37  1  0.16666667  -0.49691886  0.62500000  1
  Ag  Ag38  1  0.50000000  -0.49691886  0.12500000  1
  Ag  Ag39  1  0.50000000  -0.49691886  0.62500000  1
  Ag  Ag40  1  0.83333333  -0.49691886  0.12500000  1
  Ag  Ag41  1  0.83333333  -0.49691886  0.62500000  1
  Ag  Ag42  1  0.33333333  0.00308114  0.12500000  1
  Ag  Ag43  1  0.33333333  0.00308114  0.62500000  1
  Ag  Ag44  1  0.66666667  0.00308114  0.12500000  1
  Ag  Ag45  1  0.66666667  0.00308114  0.62500000  1
  Ag  Ag46  1  1.00000000  0.00308114  0.12500000  1
  Ag  Ag47  1  1.00000000  0.00308114  0.62500000  1
  O  O48  1  0.16666667  0.38899140  0.00311140  1
  O  O49  1  0.16666667  0.38899140  0.50311140  1
  O  O50  1  0.50000000  0.38899140  0.00311140  1
  O  O51  1  0.50000000  0.38899140  0.50311140  1
  O  O52  1  0.83333333  0.38899140  0.00311140  1
  O  O53  1  0.83333333  0.38899140  0.50311140  1
  O  O54  1  0.33333333  0.88899140  0.00311140  1
  O  O55  1  0.33333333  0.88899140  0.50311140  1
  O  O56  1  0.66666667  0.88899140  0.00311140  1
  O  O57  1  0.66666667  0.88899140  0.50311140  1
  O  O58  1  1.00000000  0.88899140  0.00311140  1
  O  O59  1  1.00000000  0.88899140  0.50311140  1
  O  O60  1  0.16666667  -0.38899140  0.25311140  1
  O  O61  1  0.16666667  -0.38899140  0.75311140  1
  O  O62  1  0.50000000  -0.38899140  0.25311140  1
  O  O63  1  0.50000000  -0.38899140  0.75311140  1
  O  O64  1  0.83333333  -0.38899140  0.25311140  1
  O  O65  1  0.83333333  -0.38899140  0.75311140  1
  O  O66  1  0.33333333  0.11100860  0.25311140  1
  O  O67  1  0.33333333  0.11100860  0.75311140  1
  O  O68  1  0.66666667  0.11100860  0.25311140  1
  O  O69  1  0.66666667  0.11100860  0.75311140  1
  O  O70  1  1.00000000  0.11100860  0.25311140  1
  O  O71  1  1.00000000  0.11100860  0.75311140  1
  O  O72  1  0.16666667  0.38899140  0.24688860  1
  O  O73  1  0.16666667  0.38899140  0.74688860  1
  O  O74  1  0.50000000  0.38899140  0.24688860  1
  O  O75  1  0.50000000  0.38899140  0.74688860  1
  O  O76  1  0.83333333  0.38899140  0.24688860  1
  O  O77  1  0.83333333  0.38899140  0.74688860  1
  O  O78  1  0.33333333  0.88899140  0.24688860  1
  O  O79  1  0.33333333  0.88899140  0.74688860  1
  O  O80  1  0.66666667  0.88899140  0.24688860  1
  O  O81  1  0.66666667  0.88899140  0.74688860  1
  O  O82  1  1.00000000  0.88899140  0.24688860  1
  O  O83  1  1.00000000  0.88899140  0.74688860  1
  O  O84  1  0.16666667  -0.38899140  0.49688860  1
  O  O85  1  0.16666667  -0.38899140  0.99688860  1
  O  O86  1  0.50000000  -0.38899140  0.49688860  1
  O  O87  1  0.50000000  -0.38899140  0.99688860  1
  O  O88  1  0.83333333  -0.38899140  0.49688860  1
  O  O89  1  0.83333333  -0.38899140  0.99688860  1
  O  O90  1  0.33333333  0.11100860  0.49688860  1
  O  O91  1  0.33333333  0.11100860  0.99688860  1
  O  O92  1  0.66666667  0.11100860  0.49688860  1
  O  O93  1  0.66666667  0.11100860  0.99688860  1
  O  O94  1  1.00000000  0.11100860  0.49688860  1
  O  O95  1  1.00000000  0.11100860  0.99688860  1
