# generated using pymatgen
data_Rb12Sn2As6O
_symmetry_space_group_name_H-M   'P 1'
_cell_length_a   23.40326490
_cell_length_b   23.40326490
_cell_length_c   24.00463726
_cell_angle_alpha   90.00000000
_cell_angle_beta   90.00000000
_cell_angle_gamma   120.00000000
_symmetry_Int_Tables_number   1
_chemical_formula_structural   Rb12Sn2As6O
_chemical_formula_sum   'Rb192 Sn32 As96 O16'
_cell_volume   11386.19654304
_cell_formula_units_Z   16
loop_
 _symmetry_equiv_pos_site_id
 _symmetry_equiv_pos_as_xyz
  1  'x, y, z'
loop_
 _atom_site_type_symbol
 _atom_site_label
 _atom_site_symmetry_multiplicity
 _atom_site_fract_x
 _atom_site_fract_y
 _atom_site_fract_z
 _atom_site_occupancy
  Rb  Rb0  1  0.05800704  0.44199296  0.06809940  1
  Rb  Rb1  1  0.05800704  0.44199296  0.31809940  1
  Rb  Rb2  1  0.05800704  0.44199296  0.56809940  1
  Rb  Rb3  1  0.05800704  0.44199296  0.81809940  1
  Rb  Rb4  1  0.05800704  0.94199296  0.06809940  1
  Rb  Rb5  1  0.05800704  0.94199296  0.31809940  1
  Rb  Rb6  1  0.05800704  0.94199296  0.56809940  1
  Rb  Rb7  1  0.05800704  0.94199296  0.81809940  1
  Rb  Rb8  1  0.55800704  0.44199296  0.06809940  1
  Rb  Rb9  1  0.55800704  0.44199296  0.31809940  1
  Rb  Rb10  1  0.55800704  0.44199296  0.56809940  1
  Rb  Rb11  1  0.55800704  0.44199296  0.81809940  1
  Rb  Rb12  1  0.55800704  0.94199296  0.06809940  1
  Rb  Rb13  1  0.55800704  0.94199296  0.31809940  1
  Rb  Rb14  1  0.55800704  0.94199296  0.56809940  1
  Rb  Rb15  1  0.55800704  0.94199296  0.81809940  1
  Rb  Rb16  1  0.05800704  0.11601408  0.06809940  1
  Rb  Rb17  1  0.05800704  0.11601408  0.31809940  1
  Rb  Rb18  1  0.05800704  0.11601408  0.56809940  1
  Rb  Rb19  1  0.05800704  0.11601408  0.81809940  1
  Rb  Rb20  1  0.05800704  0.61601408  0.06809940  1
  Rb  Rb21  1  0.05800704  0.61601408  0.31809940  1
  Rb  Rb22  1  0.05800704  0.61601408  0.56809940  1
  Rb  Rb23  1  0.05800704  0.61601408  0.81809940  1
  Rb  Rb24  1  0.55800704  0.11601408  0.06809940  1
  Rb  Rb25  1  0.55800704  0.11601408  0.31809940  1
  Rb  Rb26  1  0.55800704  0.11601408  0.56809940  1
  Rb  Rb27  1  0.55800704  0.11601408  0.81809940  1
  Rb  Rb28  1  0.55800704  0.61601408  0.06809940  1
  Rb  Rb29  1  0.55800704  0.61601408  0.31809940  1
  Rb  Rb30  1  0.55800704  0.61601408  0.56809940  1
  Rb  Rb31  1  0.55800704  0.61601408  0.81809940  1
  Rb  Rb32  1  0.38398592  0.44199296  0.06809940  1
  Rb  Rb33  1  0.38398592  0.44199296  0.31809940  1
  Rb  Rb34  1  0.38398592  0.44199296  0.56809940  1
  Rb  Rb35  1  0.38398592  0.44199296  0.81809940  1
  Rb  Rb36  1  0.38398592  0.94199296  0.06809940  1
  Rb  Rb37  1  0.38398592  0.94199296  0.31809940  1
  Rb  Rb38  1  0.38398592  0.94199296  0.56809940  1
  Rb  Rb39  1  0.38398592  0.94199296  0.81809940  1
  Rb  Rb40  1  0.88398592  0.44199296  0.06809940  1
  Rb  Rb41  1  0.88398592  0.44199296  0.31809940  1
  Rb  Rb42  1  0.88398592  0.44199296  0.56809940  1
  Rb  Rb43  1  0.88398592  0.44199296  0.81809940  1
  Rb  Rb44  1  0.88398592  0.94199296  0.06809940  1
  Rb  Rb45  1  0.88398592  0.94199296  0.31809940  1
  Rb  Rb46  1  0.88398592  0.94199296  0.56809940  1
  Rb  Rb47  1  0.88398592  0.94199296  0.81809940  1
  Rb  Rb48  1  0.44199296  0.05800704  0.18190060  1
  Rb  Rb49  1  0.44199296  0.05800704  0.43190060  1
  Rb  Rb50  1  0.44199296  0.05800704  0.68190060  1
  Rb  Rb51  1  0.44199296  0.05800704  0.93190060  1
  Rb  Rb52  1  0.44199296  0.55800704  0.18190060  1
  Rb  Rb53  1  0.44199296  0.55800704  0.43190060  1
  Rb  Rb54  1  0.44199296  0.55800704  0.68190060  1
  Rb  Rb55  1  0.44199296  0.55800704  0.93190060  1
  Rb  Rb56  1  0.94199296  0.05800704  0.18190060  1
  Rb  Rb57  1  0.94199296  0.05800704  0.43190060  1
  Rb  Rb58  1  0.94199296  0.05800704  0.68190060  1
  Rb  Rb59  1  0.94199296  0.05800704  0.93190060  1
  Rb  Rb60  1  0.94199296  0.55800704  0.18190060  1
  Rb  Rb61  1  0.94199296  0.55800704  0.43190060  1
  Rb  Rb62  1  0.94199296  0.55800704  0.68190060  1
  Rb  Rb63  1  0.94199296  0.55800704  0.93190060  1
  Rb  Rb64  1  0.44199296  0.38398592  0.18190060  1
  Rb  Rb65  1  0.44199296  0.38398592  0.43190060  1
  Rb  Rb66  1  0.44199296  0.38398592  0.68190060  1
  Rb  Rb67  1  0.44199296  0.38398592  0.93190060  1
  Rb  Rb68  1  0.44199296  0.88398592  0.18190060  1
  Rb  Rb69  1  0.44199296  0.88398592  0.43190060  1
  Rb  Rb70  1  0.44199296  0.88398592  0.68190060  1
  Rb  Rb71  1  0.44199296  0.88398592  0.93190060  1
  Rb  Rb72  1  0.94199296  0.38398592  0.18190060  1
  Rb  Rb73  1  0.94199296  0.38398592  0.43190060  1
  Rb  Rb74  1  0.94199296  0.38398592  0.68190060  1
  Rb  Rb75  1  0.94199296  0.38398592  0.93190060  1
  Rb  Rb76  1  0.94199296  0.88398592  0.18190060  1
  Rb  Rb77  1  0.94199296  0.88398592  0.43190060  1
  Rb  Rb78  1  0.94199296  0.88398592  0.68190060  1
  Rb  Rb79  1  0.94199296  0.88398592  0.93190060  1
  Rb  Rb80  1  0.11601408  0.05800704  0.18190060  1
  Rb  Rb81  1  0.11601408  0.05800704  0.43190060  1
  Rb  Rb82  1  0.11601408  0.05800704  0.68190060  1
  Rb  Rb83  1  0.11601408  0.05800704  0.93190060  1
  Rb  Rb84  1  0.11601408  0.55800704  0.18190060  1
  Rb  Rb85  1  0.11601408  0.55800704  0.43190060  1
  Rb  Rb86  1  0.11601408  0.55800704  0.68190060  1
  Rb  Rb87  1  0.11601408  0.55800704  0.93190060  1
  Rb  Rb88  1  0.61601408  0.05800704  0.18190060  1
  Rb  Rb89  1  0.61601408  0.05800704  0.43190060  1
  Rb  Rb90  1  0.61601408  0.05800704  0.68190060  1
  Rb  Rb91  1  0.61601408  0.05800704  0.93190060  1
  Rb  Rb92  1  0.61601408  0.55800704  0.18190060  1
  Rb  Rb93  1  0.61601408  0.55800704  0.43190060  1
  Rb  Rb94  1  0.61601408  0.55800704  0.68190060  1
  Rb  Rb95  1  0.61601408  0.55800704  0.93190060  1
  Rb  Rb96  1  0.22833720  0.27166280  0.06219634  1
  Rb  Rb97  1  0.22833720  0.27166280  0.31219634  1
  Rb  Rb98  1  0.22833720  0.27166280  0.56219634  1
  Rb  Rb99  1  0.22833720  0.27166280  0.81219634  1
  Rb  Rb100  1  0.22833720  0.77166280  0.06219634  1
  Rb  Rb101  1  0.22833720  0.77166280  0.31219634  1
  Rb  Rb102  1  0.22833720  0.77166280  0.56219634  1
  Rb  Rb103  1  0.22833720  0.77166280  0.81219634  1
  Rb  Rb104  1  0.72833720  0.27166280  0.06219634  1
  Rb  Rb105  1  0.72833720  0.27166280  0.31219634  1
  Rb  Rb106  1  0.72833720  0.27166280  0.56219634  1
  Rb  Rb107  1  0.72833720  0.27166280  0.81219634  1
  Rb  Rb108  1  0.72833720  0.77166280  0.06219634  1
  Rb  Rb109  1  0.72833720  0.77166280  0.31219634  1
  Rb  Rb110  1  0.72833720  0.77166280  0.56219634  1
  Rb  Rb111  1  0.72833720  0.77166280  0.81219634  1
  Rb  Rb112  1  0.22833720  0.45667441  0.06219634  1
  Rb  Rb113  1  0.22833720  0.45667441  0.31219634  1
  Rb  Rb114  1  0.22833720  0.45667441  0.56219634  1
  Rb  Rb115  1  0.22833720  0.45667441  0.81219634  1
  Rb  Rb116  1  0.22833720  0.95667441  0.06219634  1
  Rb  Rb117  1  0.22833720  0.95667441  0.31219634  1
  Rb  Rb118  1  0.22833720  0.95667441  0.56219634  1
  Rb  Rb119  1  0.22833720  0.95667441  0.81219634  1
  Rb  Rb120  1  0.72833720  0.45667441  0.06219634  1
  Rb  Rb121  1  0.72833720  0.45667441  0.31219634  1
  Rb  Rb122  1  0.72833720  0.45667441  0.56219634  1
  Rb  Rb123  1  0.72833720  0.45667441  0.81219634  1
  Rb  Rb124  1  0.72833720  0.95667441  0.06219634  1
  Rb  Rb125  1  0.72833720  0.95667441  0.31219634  1
  Rb  Rb126  1  0.72833720  0.95667441  0.56219634  1
  Rb  Rb127  1  0.72833720  0.95667441  0.81219634  1
  Rb  Rb128  1  0.04332559  0.27166280  0.06219634  1
  Rb  Rb129  1  0.04332559  0.27166280  0.31219634  1
  Rb  Rb130  1  0.04332559  0.27166280  0.56219634  1
  Rb  Rb131  1  0.04332559  0.27166280  0.81219634  1
  Rb  Rb132  1  0.04332559  0.77166280  0.06219634  1
  Rb  Rb133  1  0.04332559  0.77166280  0.31219634  1
  Rb  Rb134  1  0.04332559  0.77166280  0.56219634  1
  Rb  Rb135  1  0.04332559  0.77166280  0.81219634  1
  Rb  Rb136  1  0.54332559  0.27166280  0.06219634  1
  Rb  Rb137  1  0.54332559  0.27166280  0.31219634  1
  Rb  Rb138  1  0.54332559  0.27166280  0.56219634  1
  Rb  Rb139  1  0.54332559  0.27166280  0.81219634  1
  Rb  Rb140  1  0.54332559  0.77166280  0.06219634  1
  Rb  Rb141  1  0.54332559  0.77166280  0.31219634  1
  Rb  Rb142  1  0.54332559  0.77166280  0.56219634  1
  Rb  Rb143  1  0.54332559  0.77166280  0.81219634  1
  Rb  Rb144  1  0.27166280  0.22833720  0.18780366  1
  Rb  Rb145  1  0.27166280  0.22833720  0.43780366  1
  Rb  Rb146  1  0.27166280  0.22833720  0.68780366  1
  Rb  Rb147  1  0.27166280  0.22833720  0.93780366  1
  Rb  Rb148  1  0.27166280  0.72833720  0.18780366  1
  Rb  Rb149  1  0.27166280  0.72833720  0.43780366  1
  Rb  Rb150  1  0.27166280  0.72833720  0.68780366  1
  Rb  Rb151  1  0.27166280  0.72833720  0.93780366  1
  Rb  Rb152  1  0.77166280  0.22833720  0.18780366  1
  Rb  Rb153  1  0.77166280  0.22833720  0.43780366  1
  Rb  Rb154  1  0.77166280  0.22833720  0.68780366  1
  Rb  Rb155  1  0.77166280  0.22833720  0.93780366  1
  Rb  Rb156  1  0.77166280  0.72833720  0.18780366  1
  Rb  Rb157  1  0.77166280  0.72833720  0.43780366  1
  Rb  Rb158  1  0.77166280  0.72833720  0.68780366  1
  Rb  Rb159  1  0.77166280  0.72833720  0.93780366  1
  Rb  Rb160  1  0.27166280  0.04332559  0.18780366  1
  Rb  Rb161  1  0.27166280  0.04332559  0.43780366  1
  Rb  Rb162  1  0.27166280  0.04332559  0.68780366  1
  Rb  Rb163  1  0.27166280  0.04332559  0.93780366  1
  Rb  Rb164  1  0.27166280  0.54332559  0.18780366  1
  Rb  Rb165  1  0.27166280  0.54332559  0.43780366  1
  Rb  Rb166  1  0.27166280  0.54332559  0.68780366  1
  Rb  Rb167  1  0.27166280  0.54332559  0.93780366  1
  Rb  Rb168  1  0.77166280  0.04332559  0.18780366  1
  Rb  Rb169  1  0.77166280  0.04332559  0.43780366  1
  Rb  Rb170  1  0.77166280  0.04332559  0.68780366  1
  Rb  Rb171  1  0.77166280  0.04332559  0.93780366  1
  Rb  Rb172  1  0.77166280  0.54332559  0.18780366  1
  Rb  Rb173  1  0.77166280  0.54332559  0.43780366  1
  Rb  Rb174  1  0.77166280  0.54332559  0.68780366  1
  Rb  Rb175  1  0.77166280  0.54332559  0.93780366  1
  Rb  Rb176  1  0.45667441  0.22833720  0.18780366  1
  Rb  Rb177  1  0.45667441  0.22833720  0.43780366  1
  Rb  Rb178  1  0.45667441  0.22833720  0.68780366  1
  Rb  Rb179  1  0.45667441  0.22833720  0.93780366  1
  Rb  Rb180  1  0.45667441  0.72833720  0.18780366  1
  Rb  Rb181  1  0.45667441  0.72833720  0.43780366  1
  Rb  Rb182  1  0.45667441  0.72833720  0.68780366  1
  Rb  Rb183  1  0.45667441  0.72833720  0.93780366  1
  Rb  Rb184  1  0.95667441  0.22833720  0.18780366  1
  Rb  Rb185  1  0.95667441  0.22833720  0.43780366  1
  Rb  Rb186  1  0.95667441  0.22833720  0.68780366  1
  Rb  Rb187  1  0.95667441  0.22833720  0.93780366  1
  Rb  Rb188  1  0.95667441  0.72833720  0.18780366  1
  Rb  Rb189  1  0.95667441  0.72833720  0.43780366  1
  Rb  Rb190  1  0.95667441  0.72833720  0.68780366  1
  Rb  Rb191  1  0.95667441  0.72833720  0.93780366  1
  Sn  Sn192  1  0.16666667  0.33333333  0.18802165  1
  Sn  Sn193  1  0.16666667  0.33333333  0.43802165  1
  Sn  Sn194  1  0.16666667  0.33333333  0.68802165  1
  Sn  Sn195  1  0.16666667  0.33333333  0.93802165  1
  Sn  Sn196  1  0.16666667  0.83333333  0.18802165  1
  Sn  Sn197  1  0.16666667  0.83333333  0.43802165  1
  Sn  Sn198  1  0.16666667  0.83333333  0.68802165  1
  Sn  Sn199  1  0.16666667  0.83333333  0.93802165  1
  Sn  Sn200  1  0.66666667  0.33333333  0.18802165  1
  Sn  Sn201  1  0.66666667  0.33333333  0.43802165  1
  Sn  Sn202  1  0.66666667  0.33333333  0.68802165  1
  Sn  Sn203  1  0.66666667  0.33333333  0.93802165  1
  Sn  Sn204  1  0.66666667  0.83333333  0.18802165  1
  Sn  Sn205  1  0.66666667  0.83333333  0.43802165  1
  Sn  Sn206  1  0.66666667  0.83333333  0.68802165  1
  Sn  Sn207  1  0.66666667  0.83333333  0.93802165  1
  Sn  Sn208  1  0.33333333  0.16666667  0.06197835  1
  Sn  Sn209  1  0.33333333  0.16666667  0.31197835  1
  Sn  Sn210  1  0.33333333  0.16666667  0.56197835  1
  Sn  Sn211  1  0.33333333  0.16666667  0.81197835  1
  Sn  Sn212  1  0.33333333  0.66666667  0.06197835  1
  Sn  Sn213  1  0.33333333  0.66666667  0.31197835  1
  Sn  Sn214  1  0.33333333  0.66666667  0.56197835  1
  Sn  Sn215  1  0.33333333  0.66666667  0.81197835  1
  Sn  Sn216  1  0.83333333  0.16666667  0.06197835  1
  Sn  Sn217  1  0.83333333  0.16666667  0.31197835  1
  Sn  Sn218  1  0.83333333  0.16666667  0.56197835  1
  Sn  Sn219  1  0.83333333  0.16666667  0.81197835  1
  Sn  Sn220  1  0.83333333  0.66666667  0.06197835  1
  Sn  Sn221  1  0.83333333  0.66666667  0.31197835  1
  Sn  Sn222  1  0.83333333  0.66666667  0.56197835  1
  Sn  Sn223  1  0.83333333  0.66666667  0.81197835  1
  As  As224  1  0.39598322  0.10401678  0.06070909  1
  As  As225  1  0.39598322  0.10401678  0.31070909  1
  As  As226  1  0.39598322  0.10401678  0.56070909  1
  As  As227  1  0.39598322  0.10401678  0.81070909  1
  As  As228  1  0.39598322  0.60401678  0.06070909  1
  As  As229  1  0.39598322  0.60401678  0.31070909  1
  As  As230  1  0.39598322  0.60401678  0.56070909  1
  As  As231  1  0.39598322  0.60401678  0.81070909  1
  As  As232  1  0.89598322  0.10401678  0.06070909  1
  As  As233  1  0.89598322  0.10401678  0.31070909  1
  As  As234  1  0.89598322  0.10401678  0.56070909  1
  As  As235  1  0.89598322  0.10401678  0.81070909  1
  As  As236  1  0.89598322  0.60401678  0.06070909  1
  As  As237  1  0.89598322  0.60401678  0.31070909  1
  As  As238  1  0.89598322  0.60401678  0.56070909  1
  As  As239  1  0.89598322  0.60401678  0.81070909  1
  As  As240  1  0.39598322  0.29196644  0.06070909  1
  As  As241  1  0.39598322  0.29196644  0.31070909  1
  As  As242  1  0.39598322  0.29196644  0.56070909  1
  As  As243  1  0.39598322  0.29196644  0.81070909  1
  As  As244  1  0.39598322  0.79196644  0.06070909  1
  As  As245  1  0.39598322  0.79196644  0.31070909  1
  As  As246  1  0.39598322  0.79196644  0.56070909  1
  As  As247  1  0.39598322  0.79196644  0.81070909  1
  As  As248  1  0.89598322  0.29196644  0.06070909  1
  As  As249  1  0.89598322  0.29196644  0.31070909  1
  As  As250  1  0.89598322  0.29196644  0.56070909  1
  As  As251  1  0.89598322  0.29196644  0.81070909  1
  As  As252  1  0.89598322  0.79196644  0.06070909  1
  As  As253  1  0.89598322  0.79196644  0.31070909  1
  As  As254  1  0.89598322  0.79196644  0.56070909  1
  As  As255  1  0.89598322  0.79196644  0.81070909  1
  As  As256  1  0.20803356  0.10401678  0.06070909  1
  As  As257  1  0.20803356  0.10401678  0.31070909  1
  As  As258  1  0.20803356  0.10401678  0.56070909  1
  As  As259  1  0.20803356  0.10401678  0.81070909  1
  As  As260  1  0.20803356  0.60401678  0.06070909  1
  As  As261  1  0.20803356  0.60401678  0.31070909  1
  As  As262  1  0.20803356  0.60401678  0.56070909  1
  As  As263  1  0.20803356  0.60401678  0.81070909  1
  As  As264  1  0.70803356  0.10401678  0.06070909  1
  As  As265  1  0.70803356  0.10401678  0.31070909  1
  As  As266  1  0.70803356  0.10401678  0.56070909  1
  As  As267  1  0.70803356  0.10401678  0.81070909  1
  As  As268  1  0.70803356  0.60401678  0.06070909  1
  As  As269  1  0.70803356  0.60401678  0.31070909  1
  As  As270  1  0.70803356  0.60401678  0.56070909  1
  As  As271  1  0.70803356  0.60401678  0.81070909  1
  As  As272  1  0.10401678  0.39598322  0.18929091  1
  As  As273  1  0.10401678  0.39598322  0.43929091  1
  As  As274  1  0.10401678  0.39598322  0.68929091  1
  As  As275  1  0.10401678  0.39598322  0.93929091  1
  As  As276  1  0.10401678  0.89598322  0.18929091  1
  As  As277  1  0.10401678  0.89598322  0.43929091  1
  As  As278  1  0.10401678  0.89598322  0.68929091  1
  As  As279  1  0.10401678  0.89598322  0.93929091  1
  As  As280  1  0.60401678  0.39598322  0.18929091  1
  As  As281  1  0.60401678  0.39598322  0.43929091  1
  As  As282  1  0.60401678  0.39598322  0.68929091  1
  As  As283  1  0.60401678  0.39598322  0.93929091  1
  As  As284  1  0.60401678  0.89598322  0.18929091  1
  As  As285  1  0.60401678  0.89598322  0.43929091  1
  As  As286  1  0.60401678  0.89598322  0.68929091  1
  As  As287  1  0.60401678  0.89598322  0.93929091  1
  As  As288  1  0.10401678  0.20803356  0.18929091  1
  As  As289  1  0.10401678  0.20803356  0.43929091  1
  As  As290  1  0.10401678  0.20803356  0.68929091  1
  As  As291  1  0.10401678  0.20803356  0.93929091  1
  As  As292  1  0.10401678  0.70803356  0.18929091  1
  As  As293  1  0.10401678  0.70803356  0.43929091  1
  As  As294  1  0.10401678  0.70803356  0.68929091  1
  As  As295  1  0.10401678  0.70803356  0.93929091  1
  As  As296  1  0.60401678  0.20803356  0.18929091  1
  As  As297  1  0.60401678  0.20803356  0.43929091  1
  As  As298  1  0.60401678  0.20803356  0.68929091  1
  As  As299  1  0.60401678  0.20803356  0.93929091  1
  As  As300  1  0.60401678  0.70803356  0.18929091  1
  As  As301  1  0.60401678  0.70803356  0.43929091  1
  As  As302  1  0.60401678  0.70803356  0.68929091  1
  As  As303  1  0.60401678  0.70803356  0.93929091  1
  As  As304  1  0.29196644  0.39598322  0.18929091  1
  As  As305  1  0.29196644  0.39598322  0.43929091  1
  As  As306  1  0.29196644  0.39598322  0.68929091  1
  As  As307  1  0.29196644  0.39598322  0.93929091  1
  As  As308  1  0.29196644  0.89598322  0.18929091  1
  As  As309  1  0.29196644  0.89598322  0.43929091  1
  As  As310  1  0.29196644  0.89598322  0.68929091  1
  As  As311  1  0.29196644  0.89598322  0.93929091  1
  As  As312  1  0.79196644  0.39598322  0.18929091  1
  As  As313  1  0.79196644  0.39598322  0.43929091  1
  As  As314  1  0.79196644  0.39598322  0.68929091  1
  As  As315  1  0.79196644  0.39598322  0.93929091  1
  As  As316  1  0.79196644  0.89598322  0.18929091  1
  As  As317  1  0.79196644  0.89598322  0.43929091  1
  As  As318  1  0.79196644  0.89598322  0.68929091  1
  As  As319  1  0.79196644  0.89598322  0.93929091  1
  O  O320  1  0.00000000  0.00000000  0.12500000  1
  O  O321  1  0.00000000  0.00000000  0.37500000  1
  O  O322  1  0.00000000  0.00000000  0.62500000  1
  O  O323  1  0.00000000  0.00000000  0.87500000  1
  O  O324  1  0.00000000  0.50000000  0.12500000  1
  O  O325  1  0.00000000  0.50000000  0.37500000  1
  O  O326  1  0.00000000  0.50000000  0.62500000  1
  O  O327  1  0.00000000  0.50000000  0.87500000  1
  O  O328  1  0.50000000  0.00000000  0.12500000  1
  O  O329  1  0.50000000  0.00000000  0.37500000  1
  O  O330  1  0.50000000  0.00000000  0.62500000  1
  O  O331  1  0.50000000  0.00000000  0.87500000  1
  O  O332  1  0.50000000  0.50000000  0.12500000  1
  O  O333  1  0.50000000  0.50000000  0.37500000  1
  O  O334  1  0.50000000  0.50000000  0.62500000  1
  O  O335  1  0.50000000  0.50000000  0.87500000  1
