# generated using pymatgen
data_MoPb2O5
_symmetry_space_group_name_H-M   'P 1'
_cell_length_a   14.11722900
_cell_length_b   17.30817268
_cell_length_c   14.57083031
_cell_angle_alpha   90.00000000
_cell_angle_beta   112.86753603
_cell_angle_gamma   90.00000000
_symmetry_Int_Tables_number   1
_chemical_formula_structural   MoPb2O5
_chemical_formula_sum   'Mo24 Pb48 O120'
_cell_volume   3280.46864760
_cell_formula_units_Z   24
loop_
 _symmetry_equiv_pos_site_id
 _symmetry_equiv_pos_as_xyz
  1  'x, y, z'
loop_
 _atom_site_type_symbol
 _atom_site_label
 _atom_site_symmetry_multiplicity
 _atom_site_fract_x
 _atom_site_fract_y
 _atom_site_fract_z
 _atom_site_occupancy
  Mo  Mo0  1  0.83052835  0.00000000  0.16970203  1
  Mo  Mo1  1  0.83052835  0.00000000  0.66970203  1
  Mo  Mo2  1  0.83052835  0.33333333  0.16970203  1
  Mo  Mo3  1  0.83052835  0.33333333  0.66970203  1
  Mo  Mo4  1  0.83052835  0.66666667  0.16970203  1
  Mo  Mo5  1  0.83052835  0.66666667  0.66970203  1
  Mo  Mo6  1  1.33052835  0.16666667  0.16970203  1
  Mo  Mo7  1  1.33052835  0.16666667  0.66970203  1
  Mo  Mo8  1  1.33052835  0.50000000  0.16970203  1
  Mo  Mo9  1  1.33052835  0.50000000  0.66970203  1
  Mo  Mo10  1  1.33052835  0.83333333  0.16970203  1
  Mo  Mo11  1  1.33052835  0.83333333  0.66970203  1
  Mo  Mo12  1  0.16947165  -0.00000000  0.33029797  1
  Mo  Mo13  1  0.16947165  -0.00000000  0.83029797  1
  Mo  Mo14  1  0.16947165  0.33333333  0.33029797  1
  Mo  Mo15  1  0.16947165  0.33333333  0.83029797  1
  Mo  Mo16  1  0.16947165  0.66666667  0.33029797  1
  Mo  Mo17  1  0.16947165  0.66666667  0.83029797  1
  Mo  Mo18  1  0.66947165  0.16666667  0.33029797  1
  Mo  Mo19  1  0.66947165  0.16666667  0.83029797  1
  Mo  Mo20  1  0.66947165  0.50000000  0.33029797  1
  Mo  Mo21  1  0.66947165  0.50000000  0.83029797  1
  Mo  Mo22  1  0.66947165  0.83333333  0.33029797  1
  Mo  Mo23  1  0.66947165  0.83333333  0.83029797  1
  Pb  Pb24  1  0.51073630  -0.00000000  0.12798601  1
  Pb  Pb25  1  0.51073630  -0.00000000  0.62798601  1
  Pb  Pb26  1  0.51073630  0.33333333  0.12798601  1
  Pb  Pb27  1  0.51073630  0.33333333  0.62798601  1
  Pb  Pb28  1  0.51073630  0.66666667  0.12798601  1
  Pb  Pb29  1  0.51073630  0.66666667  0.62798601  1
  Pb  Pb30  1  1.01073630  0.16666667  0.12798601  1
  Pb  Pb31  1  1.01073630  0.16666667  0.62798601  1
  Pb  Pb32  1  1.01073630  0.50000000  0.12798601  1
  Pb  Pb33  1  1.01073630  0.50000000  0.62798601  1
  Pb  Pb34  1  1.01073630  0.83333333  0.12798601  1
  Pb  Pb35  1  1.01073630  0.83333333  0.62798601  1
  Pb  Pb36  1  0.48926370  0.00000000  0.37201399  1
  Pb  Pb37  1  0.48926370  0.00000000  0.87201399  1
  Pb  Pb38  1  0.48926370  0.33333333  0.37201399  1
  Pb  Pb39  1  0.48926370  0.33333333  0.87201399  1
  Pb  Pb40  1  0.48926370  0.66666667  0.37201399  1
  Pb  Pb41  1  0.48926370  0.66666667  0.87201399  1
  Pb  Pb42  1  0.98926370  0.16666667  0.37201399  1
  Pb  Pb43  1  0.98926370  0.16666667  0.87201399  1
  Pb  Pb44  1  0.98926370  0.50000000  0.37201399  1
  Pb  Pb45  1  0.98926370  0.50000000  0.87201399  1
  Pb  Pb46  1  0.98926370  0.83333333  0.37201399  1
  Pb  Pb47  1  0.98926370  0.83333333  0.87201399  1
  Pb  Pb48  1  0.13699216  -0.00000000  0.05546449  1
  Pb  Pb49  1  0.13699216  -0.00000000  0.55546449  1
  Pb  Pb50  1  0.13699216  0.33333333  0.05546449  1
  Pb  Pb51  1  0.13699216  0.33333333  0.55546449  1
  Pb  Pb52  1  0.13699216  0.66666667  0.05546449  1
  Pb  Pb53  1  0.13699216  0.66666667  0.55546449  1
  Pb  Pb54  1  0.63699216  0.16666667  0.05546449  1
  Pb  Pb55  1  0.63699216  0.16666667  0.55546449  1
  Pb  Pb56  1  0.63699216  0.50000000  0.05546449  1
  Pb  Pb57  1  0.63699216  0.50000000  0.55546449  1
  Pb  Pb58  1  0.63699216  0.83333333  0.05546449  1
  Pb  Pb59  1  0.63699216  0.83333333  0.55546449  1
  Pb  Pb60  1  0.86300784  -0.00000000  0.44453551  1
  Pb  Pb61  1  0.86300784  -0.00000000  0.94453551  1
  Pb  Pb62  1  0.86300784  0.33333333  0.44453551  1
  Pb  Pb63  1  0.86300784  0.33333333  0.94453551  1
  Pb  Pb64  1  0.86300784  0.66666667  0.44453551  1
  Pb  Pb65  1  0.86300784  0.66666667  0.94453551  1
  Pb  Pb66  1  1.36300784  0.16666667  0.44453551  1
  Pb  Pb67  1  1.36300784  0.16666667  0.94453551  1
  Pb  Pb68  1  1.36300784  0.50000000  0.44453551  1
  Pb  Pb69  1  1.36300784  0.50000000  0.94453551  1
  Pb  Pb70  1  1.36300784  0.83333333  0.44453551  1
  Pb  Pb71  1  1.36300784  0.83333333  0.94453551  1
  O  O72  1  0.50000000  -0.08225783  0.00000000  1
  O  O73  1  0.50000000  -0.08225783  0.50000000  1
  O  O74  1  0.50000000  0.25107550  0.00000000  1
  O  O75  1  0.50000000  0.25107550  0.50000000  1
  O  O76  1  0.50000000  0.58440883  0.00000000  1
  O  O77  1  0.50000000  0.58440883  0.50000000  1
  O  O78  1  1.00000000  0.08440883  0.00000000  1
  O  O79  1  1.00000000  0.08440883  0.50000000  1
  O  O80  1  1.00000000  0.41774217  0.00000000  1
  O  O81  1  1.00000000  0.41774217  0.50000000  1
  O  O82  1  1.00000000  0.75107550  0.00000000  1
  O  O83  1  1.00000000  0.75107550  0.50000000  1
  O  O84  1  0.50000000  0.08225783  0.00000000  1
  O  O85  1  0.50000000  0.08225783  0.50000000  1
  O  O86  1  0.50000000  0.41559117  0.00000000  1
  O  O87  1  0.50000000  0.41559117  0.50000000  1
  O  O88  1  0.50000000  0.74892450  0.00000000  1
  O  O89  1  0.50000000  0.74892450  0.50000000  1
  O  O90  1  1.00000000  0.24892450  0.00000000  1
  O  O91  1  1.00000000  0.24892450  0.50000000  1
  O  O92  1  1.00000000  0.58225783  0.00000000  1
  O  O93  1  1.00000000  0.58225783  0.50000000  1
  O  O94  1  1.00000000  0.91559117  0.00000000  1
  O  O95  1  1.00000000  0.91559117  0.50000000  1
  O  O96  1  0.69846732  -0.00000000  0.15388747  1
  O  O97  1  0.69846732  -0.00000000  0.65388747  1
  O  O98  1  0.69846732  0.33333333  0.15388747  1
  O  O99  1  0.69846732  0.33333333  0.65388747  1
  O  O100  1  0.69846732  0.66666667  0.15388747  1
  O  O101  1  0.69846732  0.66666667  0.65388747  1
  O  O102  1  1.19846732  0.16666667  0.15388747  1
  O  O103  1  1.19846732  0.16666667  0.65388747  1
  O  O104  1  1.19846732  0.50000000  0.15388747  1
  O  O105  1  1.19846732  0.50000000  0.65388747  1
  O  O106  1  1.19846732  0.83333333  0.15388747  1
  O  O107  1  1.19846732  0.83333333  0.65388747  1
  O  O108  1  0.30153268  0.00000000  0.34611253  1
  O  O109  1  0.30153268  0.00000000  0.84611253  1
  O  O110  1  0.30153268  0.33333333  0.34611253  1
  O  O111  1  0.30153268  0.33333333  0.84611253  1
  O  O112  1  0.30153268  0.66666667  0.34611253  1
  O  O113  1  0.30153268  0.66666667  0.84611253  1
  O  O114  1  0.80153268  0.16666667  0.34611253  1
  O  O115  1  0.80153268  0.16666667  0.84611253  1
  O  O116  1  0.80153268  0.50000000  0.34611253  1
  O  O117  1  0.80153268  0.50000000  0.84611253  1
  O  O118  1  0.80153268  0.83333333  0.34611253  1
  O  O119  1  0.80153268  0.83333333  0.84611253  1
  O  O120  1  0.64664721  -0.08452368  0.39311877  1
  O  O121  1  0.64664721  -0.08452368  0.89311877  1
  O  O122  1  0.64664721  0.24880965  0.39311877  1
  O  O123  1  0.64664721  0.24880965  0.89311877  1
  O  O124  1  0.64664721  0.58214299  0.39311877  1
  O  O125  1  0.64664721  0.58214299  0.89311877  1
  O  O126  1  1.14664721  0.08214299  0.39311877  1
  O  O127  1  1.14664721  0.08214299  0.89311877  1
  O  O128  1  1.14664721  0.41547632  0.39311877  1
  O  O129  1  1.14664721  0.41547632  0.89311877  1
  O  O130  1  1.14664721  0.74880965  0.39311877  1
  O  O131  1  1.14664721  0.74880965  0.89311877  1
  O  O132  1  0.35335279  -0.08452368  0.10688123  1
  O  O133  1  0.35335279  -0.08452368  0.60688123  1
  O  O134  1  0.35335279  0.24880965  0.10688123  1
  O  O135  1  0.35335279  0.24880965  0.60688123  1
  O  O136  1  0.35335279  0.58214299  0.10688123  1
  O  O137  1  0.35335279  0.58214299  0.60688123  1
  O  O138  1  0.85335279  0.08214299  0.10688123  1
  O  O139  1  0.85335279  0.08214299  0.60688123  1
  O  O140  1  0.85335279  0.41547632  0.10688123  1
  O  O141  1  0.85335279  0.41547632  0.60688123  1
  O  O142  1  0.85335279  0.74880965  0.10688123  1
  O  O143  1  0.85335279  0.74880965  0.60688123  1
  O  O144  1  0.91222874  -0.00000000  0.30073255  1
  O  O145  1  0.91222874  -0.00000000  0.80073255  1
  O  O146  1  0.91222874  0.33333333  0.30073255  1
  O  O147  1  0.91222874  0.33333333  0.80073255  1
  O  O148  1  0.91222874  0.66666667  0.30073255  1
  O  O149  1  0.91222874  0.66666667  0.80073255  1
  O  O150  1  1.41222874  0.16666667  0.30073255  1
  O  O151  1  1.41222874  0.16666667  0.80073255  1
  O  O152  1  1.41222874  0.50000000  0.30073255  1
  O  O153  1  1.41222874  0.50000000  0.80073255  1
  O  O154  1  1.41222874  0.83333333  0.30073255  1
  O  O155  1  1.41222874  0.83333333  0.80073255  1
  O  O156  1  0.08777126  -0.00000000  0.19926745  1
  O  O157  1  0.08777126  -0.00000000  0.69926745  1
  O  O158  1  0.08777126  0.33333333  0.19926745  1
  O  O159  1  0.08777126  0.33333333  0.69926745  1
  O  O160  1  0.08777126  0.66666667  0.19926745  1
  O  O161  1  0.08777126  0.66666667  0.69926745  1
  O  O162  1  0.58777126  0.16666667  0.19926745  1
  O  O163  1  0.58777126  0.16666667  0.69926745  1
  O  O164  1  0.58777126  0.50000000  0.19926745  1
  O  O165  1  0.58777126  0.50000000  0.69926745  1
  O  O166  1  0.58777126  0.83333333  0.19926745  1
  O  O167  1  0.58777126  0.83333333  0.69926745  1
  O  O168  1  0.64664721  0.08452368  0.39311877  1
  O  O169  1  0.64664721  0.08452368  0.89311877  1
  O  O170  1  0.64664721  0.41785701  0.39311877  1
  O  O171  1  0.64664721  0.41785701  0.89311877  1
  O  O172  1  0.64664721  0.75119035  0.39311877  1
  O  O173  1  0.64664721  0.75119035  0.89311877  1
  O  O174  1  1.14664721  0.25119035  0.39311877  1
  O  O175  1  1.14664721  0.25119035  0.89311877  1
  O  O176  1  1.14664721  0.58452368  0.39311877  1
  O  O177  1  1.14664721  0.58452368  0.89311877  1
  O  O178  1  1.14664721  0.91785701  0.39311877  1
  O  O179  1  1.14664721  0.91785701  0.89311877  1
  O  O180  1  0.35335279  0.08452368  0.10688123  1
  O  O181  1  0.35335279  0.08452368  0.60688123  1
  O  O182  1  0.35335279  0.41785701  0.10688123  1
  O  O183  1  0.35335279  0.41785701  0.60688123  1
  O  O184  1  0.35335279  0.75119035  0.10688123  1
  O  O185  1  0.35335279  0.75119035  0.60688123  1
  O  O186  1  0.85335279  0.25119035  0.10688123  1
  O  O187  1  0.85335279  0.25119035  0.60688123  1
  O  O188  1  0.85335279  0.58452368  0.10688123  1
  O  O189  1  0.85335279  0.58452368  0.60688123  1
  O  O190  1  0.85335279  0.91785701  0.10688123  1
  O  O191  1  0.85335279  0.91785701  0.60688123  1
