# generated using pymatgen
data_TaBO4
_symmetry_space_group_name_H-M   'P 1'
_cell_length_a   12.44010951
_cell_length_b   12.44010951
_cell_length_c   10.97264241
_cell_angle_alpha   90.00000000
_cell_angle_beta   90.00000000
_cell_angle_gamma   90.00000000
_symmetry_Int_Tables_number   1
_chemical_formula_structural   TaBO4
_chemical_formula_sum   'Ta32 B32 O128'
_cell_volume   1698.08580952
_cell_formula_units_Z   32
loop_
 _symmetry_equiv_pos_site_id
 _symmetry_equiv_pos_as_xyz
  1  'x, y, z'
loop_
 _atom_site_type_symbol
 _atom_site_label
 _atom_site_symmetry_multiplicity
 _atom_site_fract_x
 _atom_site_fract_y
 _atom_site_fract_z
 _atom_site_occupancy
  Ta  Ta0  1  0.25000000  0.50000000  0.12500000  1
  Ta  Ta1  1  0.25000000  0.50000000  0.62500000  1
  Ta  Ta2  1  0.75000000  0.50000000  0.12500000  1
  Ta  Ta3  1  0.75000000  0.50000000  0.62500000  1
  Ta  Ta4  1  0.25000000  0.00000000  0.12500000  1
  Ta  Ta5  1  0.25000000  0.00000000  0.62500000  1
  Ta  Ta6  1  0.75000000  0.00000000  0.12500000  1
  Ta  Ta7  1  0.75000000  0.00000000  0.62500000  1
  Ta  Ta8  1  0.50000000  0.25000000  0.37500000  1
  Ta  Ta9  1  0.50000000  0.25000000  0.87500000  1
  Ta  Ta10  1  1.00000000  0.25000000  0.37500000  1
  Ta  Ta11  1  1.00000000  0.25000000  0.87500000  1
  Ta  Ta12  1  0.50000000  -0.25000000  0.37500000  1
  Ta  Ta13  1  0.50000000  -0.25000000  0.87500000  1
  Ta  Ta14  1  1.00000000  -0.25000000  0.37500000  1
  Ta  Ta15  1  1.00000000  -0.25000000  0.87500000  1
  Ta  Ta16  1  0.00000000  0.50000000  0.00000000  1
  Ta  Ta17  1  0.00000000  0.50000000  0.50000000  1
  Ta  Ta18  1  0.50000000  0.50000000  0.00000000  1
  Ta  Ta19  1  0.50000000  0.50000000  0.50000000  1
  Ta  Ta20  1  0.00000000  0.00000000  0.00000000  1
  Ta  Ta21  1  0.00000000  0.00000000  0.50000000  1
  Ta  Ta22  1  0.50000000  0.00000000  0.00000000  1
  Ta  Ta23  1  0.50000000  0.00000000  0.50000000  1
  Ta  Ta24  1  0.25000000  0.25000000  0.25000000  1
  Ta  Ta25  1  0.25000000  0.25000000  0.75000000  1
  Ta  Ta26  1  0.75000000  0.25000000  0.25000000  1
  Ta  Ta27  1  0.75000000  0.25000000  0.75000000  1
  Ta  Ta28  1  0.25000000  -0.25000000  0.25000000  1
  Ta  Ta29  1  0.25000000  -0.25000000  0.75000000  1
  Ta  Ta30  1  0.75000000  -0.25000000  0.25000000  1
  Ta  Ta31  1  0.75000000  -0.25000000  0.75000000  1
  B  B32  1  0.00000000  0.25000000  0.12500000  1
  B  B33  1  0.00000000  0.25000000  0.62500000  1
  B  B34  1  0.50000000  0.25000000  0.12500000  1
  B  B35  1  0.50000000  0.25000000  0.62500000  1
  B  B36  1  0.00000000  -0.25000000  0.12500000  1
  B  B37  1  0.00000000  -0.25000000  0.62500000  1
  B  B38  1  0.50000000  -0.25000000  0.12500000  1
  B  B39  1  0.50000000  -0.25000000  0.62500000  1
  B  B40  1  0.25000000  0.00000000  0.37500000  1
  B  B41  1  0.25000000  0.00000000  0.87500000  1
  B  B42  1  0.75000000  0.00000000  0.37500000  1
  B  B43  1  0.75000000  0.00000000  0.87500000  1
  B  B44  1  0.25000000  -0.50000000  0.37500000  1
  B  B45  1  0.25000000  -0.50000000  0.87500000  1
  B  B46  1  0.75000000  -0.50000000  0.37500000  1
  B  B47  1  0.75000000  -0.50000000  0.87500000  1
  B  B48  1  0.00000000  0.50000000  0.25000000  1
  B  B49  1  0.00000000  0.50000000  0.75000000  1
  B  B50  1  0.50000000  0.50000000  0.25000000  1
  B  B51  1  0.50000000  0.50000000  0.75000000  1
  B  B52  1  0.00000000  0.00000000  0.25000000  1
  B  B53  1  0.00000000  0.00000000  0.75000000  1
  B  B54  1  0.50000000  0.00000000  0.25000000  1
  B  B55  1  0.50000000  0.00000000  0.75000000  1
  B  B56  1  0.25000000  0.25000000  0.50000000  1
  B  B57  1  0.25000000  0.25000000  1.00000000  1
  B  B58  1  0.75000000  0.25000000  0.50000000  1
  B  B59  1  0.75000000  0.25000000  1.00000000  1
  B  B60  1  0.25000000  -0.25000000  0.50000000  1
  B  B61  1  0.25000000  -0.25000000  1.00000000  1
  B  B62  1  0.75000000  -0.25000000  0.50000000  1
  B  B63  1  0.75000000  -0.25000000  1.00000000  1
  O  O64  1  -0.00000000  0.33929454  0.03703017  1
  O  O65  1  -0.00000000  0.33929454  0.53703017  1
  O  O66  1  0.50000000  0.33929454  0.03703017  1
  O  O67  1  0.50000000  0.33929454  0.53703017  1
  O  O68  1  -0.00000000  -0.16070546  0.03703017  1
  O  O69  1  -0.00000000  -0.16070546  0.53703017  1
  O  O70  1  0.50000000  -0.16070546  0.03703017  1
  O  O71  1  0.50000000  -0.16070546  0.53703017  1
  O  O72  1  0.25000000  0.08929454  0.28703017  1
  O  O73  1  0.25000000  0.08929454  0.78703017  1
  O  O74  1  0.75000000  0.08929454  0.28703017  1
  O  O75  1  0.75000000  0.08929454  0.78703017  1
  O  O76  1  0.25000000  -0.41070546  0.28703017  1
  O  O77  1  0.25000000  -0.41070546  0.78703017  1
  O  O78  1  0.75000000  -0.41070546  0.28703017  1
  O  O79  1  0.75000000  -0.41070546  0.78703017  1
  O  O80  1  0.08929454  0.50000000  0.16203017  1
  O  O81  1  0.08929454  0.50000000  0.66203017  1
  O  O82  1  0.58929454  0.50000000  0.16203017  1
  O  O83  1  0.58929454  0.50000000  0.66203017  1
  O  O84  1  0.08929454  -0.00000000  0.16203017  1
  O  O85  1  0.08929454  -0.00000000  0.66203017  1
  O  O86  1  0.58929454  -0.00000000  0.16203017  1
  O  O87  1  0.58929454  -0.00000000  0.66203017  1
  O  O88  1  0.33929454  0.25000000  0.41203017  1
  O  O89  1  0.33929454  0.25000000  0.91203017  1
  O  O90  1  0.83929454  0.25000000  0.41203017  1
  O  O91  1  0.83929454  0.25000000  0.91203017  1
  O  O92  1  0.33929454  -0.25000000  0.41203017  1
  O  O93  1  0.33929454  -0.25000000  0.91203017  1
  O  O94  1  0.83929454  -0.25000000  0.41203017  1
  O  O95  1  0.83929454  -0.25000000  0.91203017  1
  O  O96  1  -0.08929454  0.25000000  0.21296983  1
  O  O97  1  -0.08929454  0.25000000  0.71296983  1
  O  O98  1  0.41070546  0.25000000  0.21296983  1
  O  O99  1  0.41070546  0.25000000  0.71296983  1
  O  O100  1  -0.08929454  -0.25000000  0.21296983  1
  O  O101  1  -0.08929454  -0.25000000  0.71296983  1
  O  O102  1  0.41070546  -0.25000000  0.21296983  1
  O  O103  1  0.41070546  -0.25000000  0.71296983  1
  O  O104  1  0.16070546  0.00000000  0.46296983  1
  O  O105  1  0.16070546  0.00000000  0.96296983  1
  O  O106  1  0.66070546  0.00000000  0.46296983  1
  O  O107  1  0.66070546  0.00000000  0.96296983  1
  O  O108  1  0.16070546  -0.50000000  0.46296983  1
  O  O109  1  0.16070546  -0.50000000  0.96296983  1
  O  O110  1  0.66070546  -0.50000000  0.46296983  1
  O  O111  1  0.66070546  -0.50000000  0.96296983  1
  O  O112  1  0.00000000  0.41070546  0.33796983  1
  O  O113  1  0.00000000  0.41070546  0.83796983  1
  O  O114  1  0.50000000  0.41070546  0.33796983  1
  O  O115  1  0.50000000  0.41070546  0.83796983  1
  O  O116  1  0.00000000  -0.08929454  0.33796983  1
  O  O117  1  0.00000000  -0.08929454  0.83796983  1
  O  O118  1  0.50000000  -0.08929454  0.33796983  1
  O  O119  1  0.50000000  -0.08929454  0.83796983  1
  O  O120  1  0.25000000  0.16070546  0.58796983  1
  O  O121  1  0.25000000  0.16070546  1.08796983  1
  O  O122  1  0.75000000  0.16070546  0.58796983  1
  O  O123  1  0.75000000  0.16070546  1.08796983  1
  O  O124  1  0.25000000  -0.33929454  0.58796983  1
  O  O125  1  0.25000000  -0.33929454  1.08796983  1
  O  O126  1  0.75000000  -0.33929454  0.58796983  1
  O  O127  1  0.75000000  -0.33929454  1.08796983  1
  O  O128  1  0.25000000  0.33929454  0.08796983  1
  O  O129  1  0.25000000  0.33929454  0.58796983  1
  O  O130  1  0.75000000  0.33929454  0.08796983  1
  O  O131  1  0.75000000  0.33929454  0.58796983  1
  O  O132  1  0.25000000  -0.16070546  0.08796983  1
  O  O133  1  0.25000000  -0.16070546  0.58796983  1
  O  O134  1  0.75000000  -0.16070546  0.08796983  1
  O  O135  1  0.75000000  -0.16070546  0.58796983  1
  O  O136  1  0.50000000  0.08929454  0.33796983  1
  O  O137  1  0.50000000  0.08929454  0.83796983  1
  O  O138  1  1.00000000  0.08929454  0.33796983  1
  O  O139  1  1.00000000  0.08929454  0.83796983  1
  O  O140  1  0.50000000  -0.41070546  0.33796983  1
  O  O141  1  0.50000000  -0.41070546  0.83796983  1
  O  O142  1  1.00000000  -0.41070546  0.33796983  1
  O  O143  1  1.00000000  -0.41070546  0.83796983  1
  O  O144  1  0.08929454  0.25000000  0.21296983  1
  O  O145  1  0.08929454  0.25000000  0.71296983  1
  O  O146  1  0.58929454  0.25000000  0.21296983  1
  O  O147  1  0.58929454  0.25000000  0.71296983  1
  O  O148  1  0.08929454  -0.25000000  0.21296983  1
  O  O149  1  0.08929454  -0.25000000  0.71296983  1
  O  O150  1  0.58929454  -0.25000000  0.21296983  1
  O  O151  1  0.58929454  -0.25000000  0.71296983  1
  O  O152  1  0.33929454  0.00000000  0.46296983  1
  O  O153  1  0.33929454  0.00000000  0.96296983  1
  O  O154  1  0.83929454  0.00000000  0.46296983  1
  O  O155  1  0.83929454  0.00000000  0.96296983  1
  O  O156  1  0.33929454  -0.50000000  0.46296983  1
  O  O157  1  0.33929454  -0.50000000  0.96296983  1
  O  O158  1  0.83929454  -0.50000000  0.46296983  1
  O  O159  1  0.83929454  -0.50000000  0.96296983  1
  O  O160  1  0.00000000  0.16070546  0.03703017  1
  O  O161  1  0.00000000  0.16070546  0.53703017  1
  O  O162  1  0.50000000  0.16070546  0.03703017  1
  O  O163  1  0.50000000  0.16070546  0.53703017  1
  O  O164  1  0.00000000  -0.33929454  0.03703017  1
  O  O165  1  0.00000000  -0.33929454  0.53703017  1
  O  O166  1  0.50000000  -0.33929454  0.03703017  1
  O  O167  1  0.50000000  -0.33929454  0.53703017  1
  O  O168  1  0.25000000  -0.08929454  0.28703017  1
  O  O169  1  0.25000000  -0.08929454  0.78703017  1
  O  O170  1  0.75000000  -0.08929454  0.28703017  1
  O  O171  1  0.75000000  -0.08929454  0.78703017  1
  O  O172  1  0.25000000  -0.58929454  0.28703017  1
  O  O173  1  0.25000000  -0.58929454  0.78703017  1
  O  O174  1  0.75000000  -0.58929454  0.28703017  1
  O  O175  1  0.75000000  -0.58929454  0.78703017  1
  O  O176  1  0.16070546  0.25000000  -0.08796983  1
  O  O177  1  0.16070546  0.25000000  0.41203017  1
  O  O178  1  0.66070546  0.25000000  -0.08796983  1
  O  O179  1  0.66070546  0.25000000  0.41203017  1
  O  O180  1  0.16070546  -0.25000000  -0.08796983  1
  O  O181  1  0.16070546  -0.25000000  0.41203017  1
  O  O182  1  0.66070546  -0.25000000  -0.08796983  1
  O  O183  1  0.66070546  -0.25000000  0.41203017  1
  O  O184  1  0.41070546  0.00000000  0.16203017  1
  O  O185  1  0.41070546  0.00000000  0.66203017  1
  O  O186  1  0.91070546  0.00000000  0.16203017  1
  O  O187  1  0.91070546  0.00000000  0.66203017  1
  O  O188  1  0.41070546  -0.50000000  0.16203017  1
  O  O189  1  0.41070546  -0.50000000  0.66203017  1
  O  O190  1  0.91070546  -0.50000000  0.16203017  1
  O  O191  1  0.91070546  -0.50000000  0.66203017  1
