# generated using pymatgen
data_Ta2O5
_symmetry_space_group_name_H-M   'P 1'
_cell_length_a   11.54990427
_cell_length_b   12.98531466
_cell_length_c   11.62067740
_cell_angle_alpha   90.00000000
_cell_angle_beta   90.00000000
_cell_angle_gamma   90.00000000
_symmetry_Int_Tables_number   1
_chemical_formula_structural   Ta2O5
_chemical_formula_sum   'Ta36 O90'
_cell_volume   1742.85921749
_cell_formula_units_Z   18
loop_
 _symmetry_equiv_pos_site_id
 _symmetry_equiv_pos_as_xyz
  1  'x, y, z'
loop_
 _atom_site_type_symbol
 _atom_site_label
 _atom_site_symmetry_multiplicity
 _atom_site_fract_x
 _atom_site_fract_y
 _atom_site_fract_z
 _atom_site_occupancy
  Ta  Ta0  1  0.00000000  0.14661676  0.00715157  1
  Ta  Ta1  1  0.00000000  0.14661676  0.34048491  1
  Ta  Ta2  1  0.00000000  0.14661676  0.67381824  1
  Ta  Ta3  1  0.33333333  0.14661676  0.00715157  1
  Ta  Ta4  1  0.33333333  0.14661676  0.34048491  1
  Ta  Ta5  1  0.33333333  0.14661676  0.67381824  1
  Ta  Ta6  1  0.66666667  0.14661676  0.00715157  1
  Ta  Ta7  1  0.66666667  0.14661676  0.34048491  1
  Ta  Ta8  1  0.66666667  0.14661676  0.67381824  1
  Ta  Ta9  1  0.16666667  0.35338324  0.32618176  1
  Ta  Ta10  1  0.16666667  0.35338324  0.65951509  1
  Ta  Ta11  1  0.16666667  0.35338324  0.99284843  1
  Ta  Ta12  1  0.50000000  0.35338324  0.32618176  1
  Ta  Ta13  1  0.50000000  0.35338324  0.65951509  1
  Ta  Ta14  1  0.50000000  0.35338324  0.99284843  1
  Ta  Ta15  1  0.83333333  0.35338324  0.32618176  1
  Ta  Ta16  1  0.83333333  0.35338324  0.65951509  1
  Ta  Ta17  1  0.83333333  0.35338324  0.99284843  1
  Ta  Ta18  1  0.16666667  0.64661676  0.32618176  1
  Ta  Ta19  1  0.16666667  0.64661676  0.65951509  1
  Ta  Ta20  1  0.16666667  0.64661676  0.99284843  1
  Ta  Ta21  1  0.50000000  0.64661676  0.32618176  1
  Ta  Ta22  1  0.50000000  0.64661676  0.65951509  1
  Ta  Ta23  1  0.50000000  0.64661676  0.99284843  1
  Ta  Ta24  1  0.83333333  0.64661676  0.32618176  1
  Ta  Ta25  1  0.83333333  0.64661676  0.65951509  1
  Ta  Ta26  1  0.83333333  0.64661676  0.99284843  1
  Ta  Ta27  1  0.00000000  0.85338324  0.00715157  1
  Ta  Ta28  1  0.00000000  0.85338324  0.34048491  1
  Ta  Ta29  1  0.00000000  0.85338324  0.67381824  1
  Ta  Ta30  1  0.33333333  0.85338324  0.00715157  1
  Ta  Ta31  1  0.33333333  0.85338324  0.34048491  1
  Ta  Ta32  1  0.33333333  0.85338324  0.67381824  1
  Ta  Ta33  1  0.66666667  0.85338324  0.00715157  1
  Ta  Ta34  1  0.66666667  0.85338324  0.34048491  1
  Ta  Ta35  1  0.66666667  0.85338324  0.67381824  1
  O  O36  1  0.16666667  0.18540784  0.00062864  1
  O  O37  1  0.16666667  0.18540784  0.33396197  1
  O  O38  1  0.16666667  0.18540784  0.66729531  1
  O  O39  1  0.50000000  0.18540784  0.00062864  1
  O  O40  1  0.50000000  0.18540784  0.33396197  1
  O  O41  1  0.50000000  0.18540784  0.66729531  1
  O  O42  1  0.83333333  0.18540784  0.00062864  1
  O  O43  1  0.83333333  0.18540784  0.33396197  1
  O  O44  1  0.83333333  0.18540784  0.66729531  1
  O  O45  1  0.00000000  0.31459216  0.33270469  1
  O  O46  1  0.00000000  0.31459216  0.66603803  1
  O  O47  1  0.00000000  0.31459216  0.99937136  1
  O  O48  1  0.33333333  0.31459216  0.33270469  1
  O  O49  1  0.33333333  0.31459216  0.66603803  1
  O  O50  1  0.33333333  0.31459216  0.99937136  1
  O  O51  1  0.66666667  0.31459216  0.33270469  1
  O  O52  1  0.66666667  0.31459216  0.66603803  1
  O  O53  1  0.66666667  0.31459216  0.99937136  1
  O  O54  1  0.00000000  0.68540784  0.33270469  1
  O  O55  1  0.00000000  0.68540784  0.66603803  1
  O  O56  1  0.00000000  0.68540784  0.99937136  1
  O  O57  1  0.33333333  0.68540784  0.33270469  1
  O  O58  1  0.33333333  0.68540784  0.66603803  1
  O  O59  1  0.33333333  0.68540784  0.99937136  1
  O  O60  1  0.66666667  0.68540784  0.33270469  1
  O  O61  1  0.66666667  0.68540784  0.66603803  1
  O  O62  1  0.66666667  0.68540784  0.99937136  1
  O  O63  1  0.16666667  0.81459216  0.00062864  1
  O  O64  1  0.16666667  0.81459216  0.33396197  1
  O  O65  1  0.16666667  0.81459216  0.66729531  1
  O  O66  1  0.50000000  0.81459216  0.00062864  1
  O  O67  1  0.50000000  0.81459216  0.33396197  1
  O  O68  1  0.50000000  0.81459216  0.66729531  1
  O  O69  1  0.83333333  0.81459216  0.00062864  1
  O  O70  1  0.83333333  0.81459216  0.33396197  1
  O  O71  1  0.83333333  0.81459216  0.66729531  1
  O  O72  1  0.00000000  0.85016678  0.16918907  1
  O  O73  1  0.00000000  0.85016678  0.50252240  1
  O  O74  1  0.00000000  0.85016678  0.83585574  1
  O  O75  1  0.33333333  0.85016678  0.16918907  1
  O  O76  1  0.33333333  0.85016678  0.50252240  1
  O  O77  1  0.33333333  0.85016678  0.83585574  1
  O  O78  1  0.66666667  0.85016678  0.16918907  1
  O  O79  1  0.66666667  0.85016678  0.50252240  1
  O  O80  1  0.66666667  0.85016678  0.83585574  1
  O  O81  1  0.16666667  0.64983322  0.16414426  1
  O  O82  1  0.16666667  0.64983322  0.49747760  1
  O  O83  1  0.16666667  0.64983322  0.83081093  1
  O  O84  1  0.50000000  0.64983322  0.16414426  1
  O  O85  1  0.50000000  0.64983322  0.49747760  1
  O  O86  1  0.50000000  0.64983322  0.83081093  1
  O  O87  1  0.83333333  0.64983322  0.16414426  1
  O  O88  1  0.83333333  0.64983322  0.49747760  1
  O  O89  1  0.83333333  0.64983322  0.83081093  1
  O  O90  1  0.16666667  0.35016678  0.16414426  1
  O  O91  1  0.16666667  0.35016678  0.49747760  1
  O  O92  1  0.16666667  0.35016678  0.83081093  1
  O  O93  1  0.50000000  0.35016678  0.16414426  1
  O  O94  1  0.50000000  0.35016678  0.49747760  1
  O  O95  1  0.50000000  0.35016678  0.83081093  1
  O  O96  1  0.83333333  0.35016678  0.16414426  1
  O  O97  1  0.83333333  0.35016678  0.49747760  1
  O  O98  1  0.83333333  0.35016678  0.83081093  1
  O  O99  1  0.16666667  0.50000000  0.33179317  1
  O  O100  1  0.16666667  0.50000000  0.66512651  1
  O  O101  1  0.16666667  0.50000000  0.99845984  1
  O  O102  1  0.50000000  0.50000000  0.33179317  1
  O  O103  1  0.50000000  0.50000000  0.66512651  1
  O  O104  1  0.50000000  0.50000000  0.99845984  1
  O  O105  1  0.83333333  0.50000000  0.33179317  1
  O  O106  1  0.83333333  0.50000000  0.66512651  1
  O  O107  1  0.83333333  0.50000000  0.99845984  1
  O  O108  1  0.00000000  0.00000000  0.00154016  1
  O  O109  1  0.00000000  0.00000000  0.33487349  1
  O  O110  1  0.00000000  0.00000000  0.66820683  1
  O  O111  1  0.33333333  0.00000000  0.00154016  1
  O  O112  1  0.33333333  0.00000000  0.33487349  1
  O  O113  1  0.33333333  0.00000000  0.66820683  1
  O  O114  1  0.66666667  0.00000000  0.00154016  1
  O  O115  1  0.66666667  0.00000000  0.33487349  1
  O  O116  1  0.66666667  0.00000000  0.66820683  1
  O  O117  1  0.00000000  0.14983322  0.16918907  1
  O  O118  1  0.00000000  0.14983322  0.50252240  1
  O  O119  1  0.00000000  0.14983322  0.83585574  1
  O  O120  1  0.33333333  0.14983322  0.16918907  1
  O  O121  1  0.33333333  0.14983322  0.50252240  1
  O  O122  1  0.33333333  0.14983322  0.83585574  1
  O  O123  1  0.66666667  0.14983322  0.16918907  1
  O  O124  1  0.66666667  0.14983322  0.50252240  1
  O  O125  1  0.66666667  0.14983322  0.83585574  1
