# generated using pymatgen
data_ScTaO4
_symmetry_space_group_name_H-M   'P 1'
_cell_length_a   14.35788696
_cell_length_b   16.99687960
_cell_length_c   15.28503122
_cell_angle_alpha   90.00000000
_cell_angle_beta   91.35818638
_cell_angle_gamma   90.00000000
_symmetry_Int_Tables_number   1
_chemical_formula_structural   ScTaO4
_chemical_formula_sum   'Sc54 Ta54 O216'
_cell_volume   3729.09998101
_cell_formula_units_Z   54
loop_
 _symmetry_equiv_pos_site_id
 _symmetry_equiv_pos_as_xyz
  1  'x, y, z'
loop_
 _atom_site_type_symbol
 _atom_site_label
 _atom_site_symmetry_multiplicity
 _atom_site_fract_x
 _atom_site_fract_y
 _atom_site_fract_z
 _atom_site_occupancy
  Sc  Sc0  1  0.16666667  0.10855763  0.25000000  1
  Sc  Sc1  1  0.16666667  0.10855763  0.58333333  1
  Sc  Sc2  1  0.16666667  0.10855763  0.91666667  1
  Sc  Sc3  1  0.16666667  0.44189096  0.25000000  1
  Sc  Sc4  1  0.16666667  0.44189096  0.58333333  1
  Sc  Sc5  1  0.16666667  0.44189096  0.91666667  1
  Sc  Sc6  1  0.16666667  0.77522429  0.25000000  1
  Sc  Sc7  1  0.16666667  0.77522429  0.58333333  1
  Sc  Sc8  1  0.16666667  0.77522429  0.91666667  1
  Sc  Sc9  1  0.50000000  0.10855763  0.25000000  1
  Sc  Sc10  1  0.50000000  0.10855763  0.58333333  1
  Sc  Sc11  1  0.50000000  0.10855763  0.91666667  1
  Sc  Sc12  1  0.50000000  0.44189096  0.25000000  1
  Sc  Sc13  1  0.50000000  0.44189096  0.58333333  1
  Sc  Sc14  1  0.50000000  0.44189096  0.91666667  1
  Sc  Sc15  1  0.50000000  0.77522429  0.25000000  1
  Sc  Sc16  1  0.50000000  0.77522429  0.58333333  1
  Sc  Sc17  1  0.50000000  0.77522429  0.91666667  1
  Sc  Sc18  1  0.83333333  0.10855763  0.25000000  1
  Sc  Sc19  1  0.83333333  0.10855763  0.58333333  1
  Sc  Sc20  1  0.83333333  0.10855763  0.91666667  1
  Sc  Sc21  1  0.83333333  0.44189096  0.25000000  1
  Sc  Sc22  1  0.83333333  0.44189096  0.58333333  1
  Sc  Sc23  1  0.83333333  0.44189096  0.91666667  1
  Sc  Sc24  1  0.83333333  0.77522429  0.25000000  1
  Sc  Sc25  1  0.83333333  0.77522429  0.58333333  1
  Sc  Sc26  1  0.83333333  0.77522429  0.91666667  1
  Sc  Sc27  1  0.16666667  0.22477571  0.08333333  1
  Sc  Sc28  1  0.16666667  0.22477571  0.41666667  1
  Sc  Sc29  1  0.16666667  0.22477571  0.75000000  1
  Sc  Sc30  1  0.16666667  0.55810904  0.08333333  1
  Sc  Sc31  1  0.16666667  0.55810904  0.41666667  1
  Sc  Sc32  1  0.16666667  0.55810904  0.75000000  1
  Sc  Sc33  1  0.16666667  0.89144237  0.08333333  1
  Sc  Sc34  1  0.16666667  0.89144237  0.41666667  1
  Sc  Sc35  1  0.16666667  0.89144237  0.75000000  1
  Sc  Sc36  1  0.50000000  0.22477571  0.08333333  1
  Sc  Sc37  1  0.50000000  0.22477571  0.41666667  1
  Sc  Sc38  1  0.50000000  0.22477571  0.75000000  1
  Sc  Sc39  1  0.50000000  0.55810904  0.08333333  1
  Sc  Sc40  1  0.50000000  0.55810904  0.41666667  1
  Sc  Sc41  1  0.50000000  0.55810904  0.75000000  1
  Sc  Sc42  1  0.50000000  0.89144237  0.08333333  1
  Sc  Sc43  1  0.50000000  0.89144237  0.41666667  1
  Sc  Sc44  1  0.50000000  0.89144237  0.75000000  1
  Sc  Sc45  1  0.83333333  0.22477571  0.08333333  1
  Sc  Sc46  1  0.83333333  0.22477571  0.41666667  1
  Sc  Sc47  1  0.83333333  0.22477571  0.75000000  1
  Sc  Sc48  1  0.83333333  0.55810904  0.08333333  1
  Sc  Sc49  1  0.83333333  0.55810904  0.41666667  1
  Sc  Sc50  1  0.83333333  0.55810904  0.75000000  1
  Sc  Sc51  1  0.83333333  0.89144237  0.08333333  1
  Sc  Sc52  1  0.83333333  0.89144237  0.41666667  1
  Sc  Sc53  1  0.83333333  0.89144237  0.75000000  1
  Ta  Ta54  1  0.00000000  0.27452727  0.25000000  1
  Ta  Ta55  1  0.00000000  0.27452727  0.58333333  1
  Ta  Ta56  1  0.00000000  0.27452727  0.91666667  1
  Ta  Ta57  1  0.00000000  0.60786061  0.25000000  1
  Ta  Ta58  1  0.00000000  0.60786061  0.58333333  1
  Ta  Ta59  1  0.00000000  0.60786061  0.91666667  1
  Ta  Ta60  1  0.00000000  0.94119394  0.25000000  1
  Ta  Ta61  1  0.00000000  0.94119394  0.58333333  1
  Ta  Ta62  1  0.00000000  0.94119394  0.91666667  1
  Ta  Ta63  1  0.33333333  0.27452727  0.25000000  1
  Ta  Ta64  1  0.33333333  0.27452727  0.58333333  1
  Ta  Ta65  1  0.33333333  0.27452727  0.91666667  1
  Ta  Ta66  1  0.33333333  0.60786061  0.25000000  1
  Ta  Ta67  1  0.33333333  0.60786061  0.58333333  1
  Ta  Ta68  1  0.33333333  0.60786061  0.91666667  1
  Ta  Ta69  1  0.33333333  0.94119394  0.25000000  1
  Ta  Ta70  1  0.33333333  0.94119394  0.58333333  1
  Ta  Ta71  1  0.33333333  0.94119394  0.91666667  1
  Ta  Ta72  1  0.66666667  0.27452727  0.25000000  1
  Ta  Ta73  1  0.66666667  0.27452727  0.58333333  1
  Ta  Ta74  1  0.66666667  0.27452727  0.91666667  1
  Ta  Ta75  1  0.66666667  0.60786061  0.25000000  1
  Ta  Ta76  1  0.66666667  0.60786061  0.58333333  1
  Ta  Ta77  1  0.66666667  0.60786061  0.91666667  1
  Ta  Ta78  1  0.66666667  0.94119394  0.25000000  1
  Ta  Ta79  1  0.66666667  0.94119394  0.58333333  1
  Ta  Ta80  1  0.66666667  0.94119394  0.91666667  1
  Ta  Ta81  1  0.00000000  0.05880606  0.08333333  1
  Ta  Ta82  1  -0.00000000  0.05880606  0.41666667  1
  Ta  Ta83  1  0.00000000  0.05880606  0.75000000  1
  Ta  Ta84  1  0.00000000  0.39213939  0.08333333  1
  Ta  Ta85  1  -0.00000000  0.39213939  0.41666667  1
  Ta  Ta86  1  0.00000000  0.39213939  0.75000000  1
  Ta  Ta87  1  0.00000000  0.72547273  0.08333333  1
  Ta  Ta88  1  -0.00000000  0.72547273  0.41666667  1
  Ta  Ta89  1  0.00000000  0.72547273  0.75000000  1
  Ta  Ta90  1  0.33333333  0.05880606  0.08333333  1
  Ta  Ta91  1  0.33333333  0.05880606  0.41666667  1
  Ta  Ta92  1  0.33333333  0.05880606  0.75000000  1
  Ta  Ta93  1  0.33333333  0.39213939  0.08333333  1
  Ta  Ta94  1  0.33333333  0.39213939  0.41666667  1
  Ta  Ta95  1  0.33333333  0.39213939  0.75000000  1
  Ta  Ta96  1  0.33333333  0.72547273  0.08333333  1
  Ta  Ta97  1  0.33333333  0.72547273  0.41666667  1
  Ta  Ta98  1  0.33333333  0.72547273  0.75000000  1
  Ta  Ta99  1  0.66666667  0.05880606  0.08333333  1
  Ta  Ta100  1  0.66666667  0.05880606  0.41666667  1
  Ta  Ta101  1  0.66666667  0.05880606  0.75000000  1
  Ta  Ta102  1  0.66666667  0.39213939  0.08333333  1
  Ta  Ta103  1  0.66666667  0.39213939  0.41666667  1
  Ta  Ta104  1  0.66666667  0.39213939  0.75000000  1
  Ta  Ta105  1  0.66666667  0.72547273  0.08333333  1
  Ta  Ta106  1  0.66666667  0.72547273  0.41666667  1
  Ta  Ta107  1  0.66666667  0.72547273  0.75000000  1
  O  O108  1  0.26051875  0.03569116  0.18900164  1
  O  O109  1  0.26051875  0.03569116  0.52233497  1
  O  O110  1  0.26051875  0.03569116  0.85566831  1
  O  O111  1  0.26051875  0.36902450  0.18900164  1
  O  O112  1  0.26051875  0.36902450  0.52233497  1
  O  O113  1  0.26051875  0.36902450  0.85566831  1
  O  O114  1  0.26051875  0.70235783  0.18900164  1
  O  O115  1  0.26051875  0.70235783  0.52233497  1
  O  O116  1  0.26051875  0.70235783  0.85566831  1
  O  O117  1  0.59385208  0.03569116  0.18900164  1
  O  O118  1  0.59385208  0.03569116  0.52233497  1
  O  O119  1  0.59385208  0.03569116  0.85566831  1
  O  O120  1  0.59385208  0.36902450  0.18900164  1
  O  O121  1  0.59385208  0.36902450  0.52233497  1
  O  O122  1  0.59385208  0.36902450  0.85566831  1
  O  O123  1  0.59385208  0.70235783  0.18900164  1
  O  O124  1  0.59385208  0.70235783  0.52233497  1
  O  O125  1  0.59385208  0.70235783  0.85566831  1
  O  O126  1  0.92718541  0.03569116  0.18900164  1
  O  O127  1  0.92718541  0.03569116  0.52233497  1
  O  O128  1  0.92718541  0.03569116  0.85566831  1
  O  O129  1  0.92718541  0.36902450  0.18900164  1
  O  O130  1  0.92718541  0.36902450  0.52233497  1
  O  O131  1  0.92718541  0.36902450  0.85566831  1
  O  O132  1  0.92718541  0.70235783  0.18900164  1
  O  O133  1  0.92718541  0.70235783  0.52233497  1
  O  O134  1  0.92718541  0.70235783  0.85566831  1
  O  O135  1  0.24468256  0.20482004  0.19782937  1
  O  O136  1  0.24468256  0.20482004  0.53116271  1
  O  O137  1  0.24468256  0.20482004  0.86449604  1
  O  O138  1  0.24468256  0.53815337  0.19782937  1
  O  O139  1  0.24468256  0.53815337  0.53116271  1
  O  O140  1  0.24468256  0.53815337  0.86449604  1
  O  O141  1  0.24468256  0.87148671  0.19782937  1
  O  O142  1  0.24468256  0.87148671  0.53116271  1
  O  O143  1  0.24468256  0.87148671  0.86449604  1
  O  O144  1  0.57801590  0.20482004  0.19782937  1
  O  O145  1  0.57801590  0.20482004  0.53116271  1
  O  O146  1  0.57801590  0.20482004  0.86449604  1
  O  O147  1  0.57801590  0.53815337  0.19782937  1
  O  O148  1  0.57801590  0.53815337  0.53116271  1
  O  O149  1  0.57801590  0.53815337  0.86449604  1
  O  O150  1  0.57801590  0.87148671  0.19782937  1
  O  O151  1  0.57801590  0.87148671  0.53116271  1
  O  O152  1  0.57801590  0.87148671  0.86449604  1
  O  O153  1  0.91134923  0.20482004  0.19782937  1
  O  O154  1  0.91134923  0.20482004  0.53116271  1
  O  O155  1  0.91134923  0.20482004  0.86449604  1
  O  O156  1  0.91134923  0.53815337  0.19782937  1
  O  O157  1  0.91134923  0.53815337  0.53116271  1
  O  O158  1  0.91134923  0.53815337  0.86449604  1
  O  O159  1  0.91134923  0.87148671  0.19782937  1
  O  O160  1  0.91134923  0.87148671  0.53116271  1
  O  O161  1  0.91134923  0.87148671  0.86449604  1
  O  O162  1  0.07281459  0.03569116  0.31099836  1
  O  O163  1  0.07281459  0.03569116  0.64433169  1
  O  O164  1  0.07281459  0.03569116  0.97766503  1
  O  O165  1  0.07281459  0.36902450  0.31099836  1
  O  O166  1  0.07281459  0.36902450  0.64433169  1
  O  O167  1  0.07281459  0.36902450  0.97766503  1
  O  O168  1  0.07281459  0.70235783  0.31099836  1
  O  O169  1  0.07281459  0.70235783  0.64433169  1
  O  O170  1  0.07281459  0.70235783  0.97766503  1
  O  O171  1  0.40614792  0.03569116  0.31099836  1
  O  O172  1  0.40614792  0.03569116  0.64433169  1
  O  O173  1  0.40614792  0.03569116  0.97766503  1
  O  O174  1  0.40614792  0.36902450  0.31099836  1
  O  O175  1  0.40614792  0.36902450  0.64433169  1
  O  O176  1  0.40614792  0.36902450  0.97766503  1
  O  O177  1  0.40614792  0.70235783  0.31099836  1
  O  O178  1  0.40614792  0.70235783  0.64433169  1
  O  O179  1  0.40614792  0.70235783  0.97766503  1
  O  O180  1  0.73948125  0.03569116  0.31099836  1
  O  O181  1  0.73948125  0.03569116  0.64433169  1
  O  O182  1  0.73948125  0.03569116  0.97766503  1
  O  O183  1  0.73948125  0.36902450  0.31099836  1
  O  O184  1  0.73948125  0.36902450  0.64433169  1
  O  O185  1  0.73948125  0.36902450  0.97766503  1
  O  O186  1  0.73948125  0.70235783  0.31099836  1
  O  O187  1  0.73948125  0.70235783  0.64433169  1
  O  O188  1  0.73948125  0.70235783  0.97766503  1
  O  O189  1  0.08865077  0.12851329  0.13550396  1
  O  O190  1  0.08865077  0.12851329  0.46883729  1
  O  O191  1  0.08865077  0.12851329  0.80217063  1
  O  O192  1  0.08865077  0.46184663  0.13550396  1
  O  O193  1  0.08865077  0.46184663  0.46883729  1
  O  O194  1  0.08865077  0.46184663  0.80217063  1
  O  O195  1  0.08865077  0.79517996  0.13550396  1
  O  O196  1  0.08865077  0.79517996  0.46883729  1
  O  O197  1  0.08865077  0.79517996  0.80217063  1
  O  O198  1  0.42198410  0.12851329  0.13550396  1
  O  O199  1  0.42198410  0.12851329  0.46883729  1
  O  O200  1  0.42198410  0.12851329  0.80217063  1
  O  O201  1  0.42198410  0.46184663  0.13550396  1
  O  O202  1  0.42198410  0.46184663  0.46883729  1
  O  O203  1  0.42198410  0.46184663  0.80217063  1
  O  O204  1  0.42198410  0.79517996  0.13550396  1
  O  O205  1  0.42198410  0.79517996  0.46883729  1
  O  O206  1  0.42198410  0.79517996  0.80217063  1
  O  O207  1  0.75531744  0.12851329  0.13550396  1
  O  O208  1  0.75531744  0.12851329  0.46883729  1
  O  O209  1  0.75531744  0.12851329  0.80217063  1
  O  O210  1  0.75531744  0.46184663  0.13550396  1
  O  O211  1  0.75531744  0.46184663  0.46883729  1
  O  O212  1  0.75531744  0.46184663  0.80217063  1
  O  O213  1  0.75531744  0.79517996  0.13550396  1
  O  O214  1  0.75531744  0.79517996  0.46883729  1
  O  O215  1  0.75531744  0.79517996  0.80217063  1
  O  O216  1  0.08865077  0.20482004  0.30217063  1
  O  O217  1  0.08865077  0.20482004  0.63550396  1
  O  O218  1  0.08865077  0.20482004  0.96883729  1
  O  O219  1  0.08865077  0.53815337  0.30217063  1
  O  O220  1  0.08865077  0.53815337  0.63550396  1
  O  O221  1  0.08865077  0.53815337  0.96883729  1
  O  O222  1  0.08865077  0.87148671  0.30217063  1
  O  O223  1  0.08865077  0.87148671  0.63550396  1
  O  O224  1  0.08865077  0.87148671  0.96883729  1
  O  O225  1  0.42198410  0.20482004  0.30217063  1
  O  O226  1  0.42198410  0.20482004  0.63550396  1
  O  O227  1  0.42198410  0.20482004  0.96883729  1
  O  O228  1  0.42198410  0.53815337  0.30217063  1
  O  O229  1  0.42198410  0.53815337  0.63550396  1
  O  O230  1  0.42198410  0.53815337  0.96883729  1
  O  O231  1  0.42198410  0.87148671  0.30217063  1
  O  O232  1  0.42198410  0.87148671  0.63550396  1
  O  O233  1  0.42198410  0.87148671  0.96883729  1
  O  O234  1  0.75531744  0.20482004  0.30217063  1
  O  O235  1  0.75531744  0.20482004  0.63550396  1
  O  O236  1  0.75531744  0.20482004  0.96883729  1
  O  O237  1  0.75531744  0.53815337  0.30217063  1
  O  O238  1  0.75531744  0.53815337  0.63550396  1
  O  O239  1  0.75531744  0.53815337  0.96883729  1
  O  O240  1  0.75531744  0.87148671  0.30217063  1
  O  O241  1  0.75531744  0.87148671  0.63550396  1
  O  O242  1  0.75531744  0.87148671  0.96883729  1
  O  O243  1  0.26051875  0.29764217  0.02233497  1
  O  O244  1  0.26051875  0.29764217  0.35566831  1
  O  O245  1  0.26051875  0.29764217  0.68900164  1
  O  O246  1  0.26051875  0.63097550  0.02233497  1
  O  O247  1  0.26051875  0.63097550  0.35566831  1
  O  O248  1  0.26051875  0.63097550  0.68900164  1
  O  O249  1  0.26051875  0.96430884  0.02233497  1
  O  O250  1  0.26051875  0.96430884  0.35566831  1
  O  O251  1  0.26051875  0.96430884  0.68900164  1
  O  O252  1  0.59385208  0.29764217  0.02233497  1
  O  O253  1  0.59385208  0.29764217  0.35566831  1
  O  O254  1  0.59385208  0.29764217  0.68900164  1
  O  O255  1  0.59385208  0.63097550  0.02233497  1
  O  O256  1  0.59385208  0.63097550  0.35566831  1
  O  O257  1  0.59385208  0.63097550  0.68900164  1
  O  O258  1  0.59385208  0.96430884  0.02233497  1
  O  O259  1  0.59385208  0.96430884  0.35566831  1
  O  O260  1  0.59385208  0.96430884  0.68900164  1
  O  O261  1  0.92718541  0.29764217  0.02233497  1
  O  O262  1  0.92718541  0.29764217  0.35566831  1
  O  O263  1  0.92718541  0.29764217  0.68900164  1
  O  O264  1  0.92718541  0.63097550  0.02233497  1
  O  O265  1  0.92718541  0.63097550  0.35566831  1
  O  O266  1  0.92718541  0.63097550  0.68900164  1
  O  O267  1  0.92718541  0.96430884  0.02233497  1
  O  O268  1  0.92718541  0.96430884  0.35566831  1
  O  O269  1  0.92718541  0.96430884  0.68900164  1
  O  O270  1  0.24468256  0.12851329  0.03116271  1
  O  O271  1  0.24468256  0.12851329  0.36449604  1
  O  O272  1  0.24468256  0.12851329  0.69782937  1
  O  O273  1  0.24468256  0.46184663  0.03116271  1
  O  O274  1  0.24468256  0.46184663  0.36449604  1
  O  O275  1  0.24468256  0.46184663  0.69782937  1
  O  O276  1  0.24468256  0.79517996  0.03116271  1
  O  O277  1  0.24468256  0.79517996  0.36449604  1
  O  O278  1  0.24468256  0.79517996  0.69782937  1
  O  O279  1  0.57801590  0.12851329  0.03116271  1
  O  O280  1  0.57801590  0.12851329  0.36449604  1
  O  O281  1  0.57801590  0.12851329  0.69782937  1
  O  O282  1  0.57801590  0.46184663  0.03116271  1
  O  O283  1  0.57801590  0.46184663  0.36449604  1
  O  O284  1  0.57801590  0.46184663  0.69782937  1
  O  O285  1  0.57801590  0.79517996  0.03116271  1
  O  O286  1  0.57801590  0.79517996  0.36449604  1
  O  O287  1  0.57801590  0.79517996  0.69782937  1
  O  O288  1  0.91134923  0.12851329  0.03116271  1
  O  O289  1  0.91134923  0.12851329  0.36449604  1
  O  O290  1  0.91134923  0.12851329  0.69782937  1
  O  O291  1  0.91134923  0.46184663  0.03116271  1
  O  O292  1  0.91134923  0.46184663  0.36449604  1
  O  O293  1  0.91134923  0.46184663  0.69782937  1
  O  O294  1  0.91134923  0.79517996  0.03116271  1
  O  O295  1  0.91134923  0.79517996  0.36449604  1
  O  O296  1  0.91134923  0.79517996  0.69782937  1
  O  O297  1  0.07281459  0.29764217  0.14433169  1
  O  O298  1  0.07281459  0.29764217  0.47766503  1
  O  O299  1  0.07281459  0.29764217  0.81099836  1
  O  O300  1  0.07281459  0.63097550  0.14433169  1
  O  O301  1  0.07281459  0.63097550  0.47766503  1
  O  O302  1  0.07281459  0.63097550  0.81099836  1
  O  O303  1  0.07281459  0.96430884  0.14433169  1
  O  O304  1  0.07281459  0.96430884  0.47766503  1
  O  O305  1  0.07281459  0.96430884  0.81099836  1
  O  O306  1  0.40614792  0.29764217  0.14433169  1
  O  O307  1  0.40614792  0.29764217  0.47766503  1
  O  O308  1  0.40614792  0.29764217  0.81099836  1
  O  O309  1  0.40614792  0.63097550  0.14433169  1
  O  O310  1  0.40614792  0.63097550  0.47766503  1
  O  O311  1  0.40614792  0.63097550  0.81099836  1
  O  O312  1  0.40614792  0.96430884  0.14433169  1
  O  O313  1  0.40614792  0.96430884  0.47766503  1
  O  O314  1  0.40614792  0.96430884  0.81099836  1
  O  O315  1  0.73948125  0.29764217  0.14433169  1
  O  O316  1  0.73948125  0.29764217  0.47766503  1
  O  O317  1  0.73948125  0.29764217  0.81099836  1
  O  O318  1  0.73948125  0.63097550  0.14433169  1
  O  O319  1  0.73948125  0.63097550  0.47766503  1
  O  O320  1  0.73948125  0.63097550  0.81099836  1
  O  O321  1  0.73948125  0.96430884  0.14433169  1
  O  O322  1  0.73948125  0.96430884  0.47766503  1
  O  O323  1  0.73948125  0.96430884  0.81099836  1
