# generated using pymatgen
data_NaBiO2
_symmetry_space_group_name_H-M   'P 1'
_cell_length_a   14.37066077
_cell_length_b   14.08075627
_cell_length_c   11.78390932
_cell_angle_alpha   90.00000000
_cell_angle_beta   126.75404430
_cell_angle_gamma   90.00000000
_symmetry_Int_Tables_number   1
_chemical_formula_structural   NaBiO2
_chemical_formula_sum   'Na32 Bi32 O64'
_cell_volume   1910.46605957
_cell_formula_units_Z   32
loop_
 _symmetry_equiv_pos_site_id
 _symmetry_equiv_pos_as_xyz
  1  'x, y, z'
loop_
 _atom_site_type_symbol
 _atom_site_label
 _atom_site_symmetry_multiplicity
 _atom_site_fract_x
 _atom_site_fract_y
 _atom_site_fract_z
 _atom_site_occupancy
  Na  Na0  1  0.25000000  -0.06378664  0.37500000  1
  Na  Na1  1  0.25000000  -0.06378664  0.87500000  1
  Na  Na2  1  0.25000000  0.43621336  0.37500000  1
  Na  Na3  1  0.25000000  0.43621336  0.87500000  1
  Na  Na4  1  0.75000000  -0.06378664  0.37500000  1
  Na  Na5  1  0.75000000  -0.06378664  0.87500000  1
  Na  Na6  1  0.75000000  0.43621336  0.37500000  1
  Na  Na7  1  0.75000000  0.43621336  0.87500000  1
  Na  Na8  1  0.50000000  0.18621336  0.37500000  1
  Na  Na9  1  0.50000000  0.18621336  0.87500000  1
  Na  Na10  1  0.50000000  0.68621336  0.37500000  1
  Na  Na11  1  0.50000000  0.68621336  0.87500000  1
  Na  Na12  1  1.00000000  0.18621336  0.37500000  1
  Na  Na13  1  1.00000000  0.18621336  0.87500000  1
  Na  Na14  1  1.00000000  0.68621336  0.37500000  1
  Na  Na15  1  1.00000000  0.68621336  0.87500000  1
  Na  Na16  1  0.25000000  0.06378664  0.12500000  1
  Na  Na17  1  0.25000000  0.06378664  0.62500000  1
  Na  Na18  1  0.25000000  0.56378664  0.12500000  1
  Na  Na19  1  0.25000000  0.56378664  0.62500000  1
  Na  Na20  1  0.75000000  0.06378664  0.12500000  1
  Na  Na21  1  0.75000000  0.06378664  0.62500000  1
  Na  Na22  1  0.75000000  0.56378664  0.12500000  1
  Na  Na23  1  0.75000000  0.56378664  0.62500000  1
  Na  Na24  1  0.50000000  0.31378664  0.12500000  1
  Na  Na25  1  0.50000000  0.31378664  0.62500000  1
  Na  Na26  1  0.50000000  0.81378664  0.12500000  1
  Na  Na27  1  0.50000000  0.81378664  0.62500000  1
  Na  Na28  1  1.00000000  0.31378664  0.12500000  1
  Na  Na29  1  1.00000000  0.31378664  0.62500000  1
  Na  Na30  1  1.00000000  0.81378664  0.12500000  1
  Na  Na31  1  1.00000000  0.81378664  0.62500000  1
  Bi  Bi32  1  0.25000000  -0.18899884  0.12500000  1
  Bi  Bi33  1  0.25000000  -0.18899884  0.62500000  1
  Bi  Bi34  1  0.25000000  0.31100116  0.12500000  1
  Bi  Bi35  1  0.25000000  0.31100116  0.62500000  1
  Bi  Bi36  1  0.75000000  -0.18899884  0.12500000  1
  Bi  Bi37  1  0.75000000  -0.18899884  0.62500000  1
  Bi  Bi38  1  0.75000000  0.31100116  0.12500000  1
  Bi  Bi39  1  0.75000000  0.31100116  0.62500000  1
  Bi  Bi40  1  0.50000000  0.06100116  0.12500000  1
  Bi  Bi41  1  0.50000000  0.06100116  0.62500000  1
  Bi  Bi42  1  0.50000000  0.56100116  0.12500000  1
  Bi  Bi43  1  0.50000000  0.56100116  0.62500000  1
  Bi  Bi44  1  1.00000000  0.06100116  0.12500000  1
  Bi  Bi45  1  1.00000000  0.06100116  0.62500000  1
  Bi  Bi46  1  1.00000000  0.56100116  0.12500000  1
  Bi  Bi47  1  1.00000000  0.56100116  0.62500000  1
  Bi  Bi48  1  0.25000000  0.18899884  0.37500000  1
  Bi  Bi49  1  0.25000000  0.18899884  0.87500000  1
  Bi  Bi50  1  0.25000000  0.68899884  0.37500000  1
  Bi  Bi51  1  0.25000000  0.68899884  0.87500000  1
  Bi  Bi52  1  0.75000000  0.18899884  0.37500000  1
  Bi  Bi53  1  0.75000000  0.18899884  0.87500000  1
  Bi  Bi54  1  0.75000000  0.68899884  0.37500000  1
  Bi  Bi55  1  0.75000000  0.68899884  0.87500000  1
  Bi  Bi56  1  0.50000000  0.43899884  0.37500000  1
  Bi  Bi57  1  0.50000000  0.43899884  0.87500000  1
  Bi  Bi58  1  0.50000000  0.93899884  0.37500000  1
  Bi  Bi59  1  0.50000000  0.93899884  0.87500000  1
  Bi  Bi60  1  1.00000000  0.43899884  0.37500000  1
  Bi  Bi61  1  1.00000000  0.43899884  0.87500000  1
  Bi  Bi62  1  1.00000000  0.93899884  0.37500000  1
  Bi  Bi63  1  1.00000000  0.93899884  0.87500000  1
  O  O64  1  0.10884202  -0.04231699  0.12305651  1
  O  O65  1  0.10884202  -0.04231699  0.62305651  1
  O  O66  1  0.10884202  0.45768301  0.12305651  1
  O  O67  1  0.10884202  0.45768301  0.62305651  1
  O  O68  1  0.60884202  -0.04231699  0.12305651  1
  O  O69  1  0.60884202  -0.04231699  0.62305651  1
  O  O70  1  0.60884202  0.45768301  0.12305651  1
  O  O71  1  0.60884202  0.45768301  0.62305651  1
  O  O72  1  0.35884202  0.20768301  0.12305651  1
  O  O73  1  0.35884202  0.20768301  0.62305651  1
  O  O74  1  0.35884202  0.70768301  0.12305651  1
  O  O75  1  0.35884202  0.70768301  0.62305651  1
  O  O76  1  0.85884202  0.20768301  0.12305651  1
  O  O77  1  0.85884202  0.20768301  0.62305651  1
  O  O78  1  0.85884202  0.70768301  0.12305651  1
  O  O79  1  0.85884202  0.70768301  0.62305651  1
  O  O80  1  0.39115798  -0.04231699  0.12694349  1
  O  O81  1  0.39115798  -0.04231699  0.62694349  1
  O  O82  1  0.39115798  0.45768301  0.12694349  1
  O  O83  1  0.39115798  0.45768301  0.62694349  1
  O  O84  1  0.89115798  -0.04231699  0.12694349  1
  O  O85  1  0.89115798  -0.04231699  0.62694349  1
  O  O86  1  0.89115798  0.45768301  0.12694349  1
  O  O87  1  0.89115798  0.45768301  0.62694349  1
  O  O88  1  0.64115798  0.20768301  0.12694349  1
  O  O89  1  0.64115798  0.20768301  0.62694349  1
  O  O90  1  0.64115798  0.70768301  0.12694349  1
  O  O91  1  0.64115798  0.70768301  0.62694349  1
  O  O92  1  1.14115798  0.20768301  0.12694349  1
  O  O93  1  1.14115798  0.20768301  0.62694349  1
  O  O94  1  1.14115798  0.70768301  0.12694349  1
  O  O95  1  1.14115798  0.70768301  0.62694349  1
  O  O96  1  0.10884202  0.04231699  0.37305651  1
  O  O97  1  0.10884202  0.04231699  0.87305651  1
  O  O98  1  0.10884202  0.54231699  0.37305651  1
  O  O99  1  0.10884202  0.54231699  0.87305651  1
  O  O100  1  0.60884202  0.04231699  0.37305651  1
  O  O101  1  0.60884202  0.04231699  0.87305651  1
  O  O102  1  0.60884202  0.54231699  0.37305651  1
  O  O103  1  0.60884202  0.54231699  0.87305651  1
  O  O104  1  0.35884202  0.29231699  0.37305651  1
  O  O105  1  0.35884202  0.29231699  0.87305651  1
  O  O106  1  0.35884202  0.79231699  0.37305651  1
  O  O107  1  0.35884202  0.79231699  0.87305651  1
  O  O108  1  0.85884202  0.29231699  0.37305651  1
  O  O109  1  0.85884202  0.29231699  0.87305651  1
  O  O110  1  0.85884202  0.79231699  0.37305651  1
  O  O111  1  0.85884202  0.79231699  0.87305651  1
  O  O112  1  0.39115798  0.04231699  0.37694349  1
  O  O113  1  0.39115798  0.04231699  0.87694349  1
  O  O114  1  0.39115798  0.54231699  0.37694349  1
  O  O115  1  0.39115798  0.54231699  0.87694349  1
  O  O116  1  0.89115798  0.04231699  0.37694349  1
  O  O117  1  0.89115798  0.04231699  0.87694349  1
  O  O118  1  0.89115798  0.54231699  0.37694349  1
  O  O119  1  0.89115798  0.54231699  0.87694349  1
  O  O120  1  0.64115798  0.29231699  0.37694349  1
  O  O121  1  0.64115798  0.29231699  0.87694349  1
  O  O122  1  0.64115798  0.79231699  0.37694349  1
  O  O123  1  0.64115798  0.79231699  0.87694349  1
  O  O124  1  1.14115798  0.29231699  0.37694349  1
  O  O125  1  1.14115798  0.29231699  0.87694349  1
  O  O126  1  1.14115798  0.79231699  0.37694349  1
  O  O127  1  1.14115798  0.79231699  0.87694349  1
