# generated using pymatgen
data_KBa4Bi3O
_symmetry_space_group_name_H-M   'P 1'
_cell_length_a   17.92621195
_cell_length_b   17.92621195
_cell_length_c   16.70951380
_cell_angle_alpha   90.00000000
_cell_angle_beta   90.00000000
_cell_angle_gamma   90.00000000
_symmetry_Int_Tables_number   1
_chemical_formula_structural   KBa4Bi3O
_chemical_formula_sum   'K16 Ba64 Bi48 O16'
_cell_volume   5369.58679890
_cell_formula_units_Z   16
loop_
 _symmetry_equiv_pos_site_id
 _symmetry_equiv_pos_as_xyz
  1  'x, y, z'
loop_
 _atom_site_type_symbol
 _atom_site_label
 _atom_site_symmetry_multiplicity
 _atom_site_fract_x
 _atom_site_fract_y
 _atom_site_fract_z
 _atom_site_occupancy
  K  K0  1  0.00000000  0.50000000  0.00000000  1
  K  K1  1  0.50000000  0.50000000  0.00000000  1
  K  K2  1  0.00000000  0.00000000  0.00000000  1
  K  K3  1  0.50000000  0.00000000  0.00000000  1
  K  K4  1  0.25000000  0.25000000  0.50000000  1
  K  K5  1  0.75000000  0.25000000  0.50000000  1
  K  K6  1  0.25000000  -0.25000000  0.50000000  1
  K  K7  1  0.75000000  -0.25000000  0.50000000  1
  K  K8  1  0.00000000  0.50000000  0.50000000  1
  K  K9  1  0.50000000  0.50000000  0.50000000  1
  K  K10  1  0.00000000  0.00000000  0.50000000  1
  K  K11  1  0.50000000  0.00000000  0.50000000  1
  K  K12  1  0.25000000  0.25000000  1.00000000  1
  K  K13  1  0.75000000  0.25000000  1.00000000  1
  K  K14  1  0.25000000  -0.25000000  1.00000000  1
  K  K15  1  0.75000000  -0.25000000  1.00000000  1
  Ba  Ba16  1  0.32833661  0.42166339  -0.15509144  1
  Ba  Ba17  1  0.82833661  0.42166339  -0.15509144  1
  Ba  Ba18  1  0.32833661  -0.07833661  -0.15509144  1
  Ba  Ba19  1  0.82833661  -0.07833661  -0.15509144  1
  Ba  Ba20  1  0.57833661  0.17166339  0.34490856  1
  Ba  Ba21  1  1.07833661  0.17166339  0.34490856  1
  Ba  Ba22  1  0.57833661  -0.32833661  0.34490856  1
  Ba  Ba23  1  1.07833661  -0.32833661  0.34490856  1
  Ba  Ba24  1  0.07833661  0.32833661  -0.15509144  1
  Ba  Ba25  1  0.57833661  0.32833661  -0.15509144  1
  Ba  Ba26  1  0.07833661  -0.17166339  -0.15509144  1
  Ba  Ba27  1  0.57833661  -0.17166339  -0.15509144  1
  Ba  Ba28  1  0.32833661  0.07833661  0.34490856  1
  Ba  Ba29  1  0.82833661  0.07833661  0.34490856  1
  Ba  Ba30  1  0.32833661  -0.42166339  0.34490856  1
  Ba  Ba31  1  0.82833661  -0.42166339  0.34490856  1
  Ba  Ba32  1  -0.07833661  0.32833661  0.34490856  1
  Ba  Ba33  1  0.42166339  0.32833661  0.34490856  1
  Ba  Ba34  1  -0.07833661  -0.17166339  0.34490856  1
  Ba  Ba35  1  0.42166339  -0.17166339  0.34490856  1
  Ba  Ba36  1  0.17166339  0.07833661  0.84490856  1
  Ba  Ba37  1  0.67166339  0.07833661  0.84490856  1
  Ba  Ba38  1  0.17166339  -0.42166339  0.84490856  1
  Ba  Ba39  1  0.67166339  -0.42166339  0.84490856  1
  Ba  Ba40  1  -0.07833661  0.32833661  0.65509144  1
  Ba  Ba41  1  0.42166339  0.32833661  0.65509144  1
  Ba  Ba42  1  -0.07833661  -0.17166339  0.65509144  1
  Ba  Ba43  1  0.42166339  -0.17166339  0.65509144  1
  Ba  Ba44  1  0.17166339  0.07833661  1.15509144  1
  Ba  Ba45  1  0.67166339  0.07833661  1.15509144  1
  Ba  Ba46  1  0.17166339  -0.42166339  1.15509144  1
  Ba  Ba47  1  0.67166339  -0.42166339  1.15509144  1
  Ba  Ba48  1  0.17166339  0.42166339  0.34490856  1
  Ba  Ba49  1  0.67166339  0.42166339  0.34490856  1
  Ba  Ba50  1  0.17166339  -0.07833661  0.34490856  1
  Ba  Ba51  1  0.67166339  -0.07833661  0.34490856  1
  Ba  Ba52  1  0.42166339  0.17166339  0.84490856  1
  Ba  Ba53  1  0.92166339  0.17166339  0.84490856  1
  Ba  Ba54  1  0.42166339  -0.32833661  0.84490856  1
  Ba  Ba55  1  0.92166339  -0.32833661  0.84490856  1
  Ba  Ba56  1  0.32833661  0.42166339  0.15509144  1
  Ba  Ba57  1  0.82833661  0.42166339  0.15509144  1
  Ba  Ba58  1  0.32833661  -0.07833661  0.15509144  1
  Ba  Ba59  1  0.82833661  -0.07833661  0.15509144  1
  Ba  Ba60  1  0.57833661  0.17166339  0.65509144  1
  Ba  Ba61  1  1.07833661  0.17166339  0.65509144  1
  Ba  Ba62  1  0.57833661  -0.32833661  0.65509144  1
  Ba  Ba63  1  1.07833661  -0.32833661  0.65509144  1
  Ba  Ba64  1  0.07833661  0.32833661  0.15509144  1
  Ba  Ba65  1  0.57833661  0.32833661  0.15509144  1
  Ba  Ba66  1  0.07833661  -0.17166339  0.15509144  1
  Ba  Ba67  1  0.57833661  -0.17166339  0.15509144  1
  Ba  Ba68  1  0.32833661  0.07833661  0.65509144  1
  Ba  Ba69  1  0.82833661  0.07833661  0.65509144  1
  Ba  Ba70  1  0.32833661  -0.42166339  0.65509144  1
  Ba  Ba71  1  0.82833661  -0.42166339  0.65509144  1
  Ba  Ba72  1  0.17166339  0.42166339  0.65509144  1
  Ba  Ba73  1  0.67166339  0.42166339  0.65509144  1
  Ba  Ba74  1  0.17166339  -0.07833661  0.65509144  1
  Ba  Ba75  1  0.67166339  -0.07833661  0.65509144  1
  Ba  Ba76  1  0.42166339  0.17166339  1.15509144  1
  Ba  Ba77  1  0.92166339  0.17166339  1.15509144  1
  Ba  Ba78  1  0.42166339  -0.32833661  1.15509144  1
  Ba  Ba79  1  0.92166339  -0.32833661  1.15509144  1
  Bi  Bi80  1  0.18965668  0.43965668  0.00000000  1
  Bi  Bi81  1  0.68965668  0.43965668  0.00000000  1
  Bi  Bi82  1  0.18965668  -0.06034332  0.00000000  1
  Bi  Bi83  1  0.68965668  -0.06034332  0.00000000  1
  Bi  Bi84  1  0.43965668  0.18965668  0.50000000  1
  Bi  Bi85  1  0.93965668  0.18965668  0.50000000  1
  Bi  Bi86  1  0.43965668  -0.31034332  0.50000000  1
  Bi  Bi87  1  0.93965668  -0.31034332  0.50000000  1
  Bi  Bi88  1  0.18965668  0.56034332  0.50000000  1
  Bi  Bi89  1  0.68965668  0.56034332  0.50000000  1
  Bi  Bi90  1  0.18965668  0.06034332  0.50000000  1
  Bi  Bi91  1  0.68965668  0.06034332  0.50000000  1
  Bi  Bi92  1  0.43965668  0.31034332  1.00000000  1
  Bi  Bi93  1  0.93965668  0.31034332  1.00000000  1
  Bi  Bi94  1  0.43965668  -0.18965668  1.00000000  1
  Bi  Bi95  1  0.93965668  -0.18965668  1.00000000  1
  Bi  Bi96  1  0.00000000  0.50000000  0.25000000  1
  Bi  Bi97  1  0.50000000  0.50000000  0.25000000  1
  Bi  Bi98  1  0.00000000  0.00000000  0.25000000  1
  Bi  Bi99  1  0.50000000  0.00000000  0.25000000  1
  Bi  Bi100  1  0.25000000  0.25000000  0.75000000  1
  Bi  Bi101  1  0.75000000  0.25000000  0.75000000  1
  Bi  Bi102  1  0.25000000  -0.25000000  0.75000000  1
  Bi  Bi103  1  0.75000000  -0.25000000  0.75000000  1
  Bi  Bi104  1  -0.00000000  0.50000000  0.75000000  1
  Bi  Bi105  1  0.50000000  0.50000000  0.75000000  1
  Bi  Bi106  1  -0.00000000  -0.00000000  0.75000000  1
  Bi  Bi107  1  0.50000000  -0.00000000  0.75000000  1
  Bi  Bi108  1  0.25000000  0.25000000  1.25000000  1
  Bi  Bi109  1  0.75000000  0.25000000  1.25000000  1
  Bi  Bi110  1  0.25000000  -0.25000000  1.25000000  1
  Bi  Bi111  1  0.75000000  -0.25000000  1.25000000  1
  Bi  Bi112  1  0.06034332  0.18965668  -0.00000000  1
  Bi  Bi113  1  0.56034332  0.18965668  -0.00000000  1
  Bi  Bi114  1  0.06034332  -0.31034332  -0.00000000  1
  Bi  Bi115  1  0.56034332  -0.31034332  -0.00000000  1
  Bi  Bi116  1  0.31034332  -0.06034332  0.50000000  1
  Bi  Bi117  1  0.81034332  -0.06034332  0.50000000  1
  Bi  Bi118  1  0.31034332  -0.56034332  0.50000000  1
  Bi  Bi119  1  0.81034332  -0.56034332  0.50000000  1
  Bi  Bi120  1  0.06034332  0.31034332  0.50000000  1
  Bi  Bi121  1  0.56034332  0.31034332  0.50000000  1
  Bi  Bi122  1  0.06034332  -0.18965668  0.50000000  1
  Bi  Bi123  1  0.56034332  -0.18965668  0.50000000  1
  Bi  Bi124  1  0.31034332  0.06034332  1.00000000  1
  Bi  Bi125  1  0.81034332  0.06034332  1.00000000  1
  Bi  Bi126  1  0.31034332  -0.43965668  1.00000000  1
  Bi  Bi127  1  0.81034332  -0.43965668  1.00000000  1
  O  O128  1  0.00000000  0.25000000  0.25000000  1
  O  O129  1  0.50000000  0.25000000  0.25000000  1
  O  O130  1  0.00000000  -0.25000000  0.25000000  1
  O  O131  1  0.50000000  -0.25000000  0.25000000  1
  O  O132  1  0.25000000  0.00000000  0.75000000  1
  O  O133  1  0.75000000  0.00000000  0.75000000  1
  O  O134  1  0.25000000  -0.50000000  0.75000000  1
  O  O135  1  0.75000000  -0.50000000  0.75000000  1
  O  O136  1  0.25000000  0.50000000  0.25000000  1
  O  O137  1  0.75000000  0.50000000  0.25000000  1
  O  O138  1  0.25000000  -0.00000000  0.25000000  1
  O  O139  1  0.75000000  -0.00000000  0.25000000  1
  O  O140  1  0.50000000  0.25000000  0.75000000  1
  O  O141  1  1.00000000  0.25000000  0.75000000  1
  O  O142  1  0.50000000  -0.25000000  0.75000000  1
  O  O143  1  1.00000000  -0.25000000  0.75000000  1
