# generated using pymatgen
data_HgAsO3
_symmetry_space_group_name_H-M   'P 1'
_cell_length_a   14.71636219
_cell_length_b   14.71636219
_cell_length_c   15.25361964
_cell_angle_alpha   90.00000000
_cell_angle_beta   90.00000000
_cell_angle_gamma   120.00000000
_symmetry_Int_Tables_number   1
_chemical_formula_structural   HgAsO3
_chemical_formula_sum   'Hg36 As36 O108'
_cell_volume   2860.91187495
_cell_formula_units_Z   36
loop_
 _symmetry_equiv_pos_site_id
 _symmetry_equiv_pos_as_xyz
  1  'x, y, z'
loop_
 _atom_site_type_symbol
 _atom_site_label
 _atom_site_symmetry_multiplicity
 _atom_site_fract_x
 _atom_site_fract_y
 _atom_site_fract_z
 _atom_site_occupancy
  Hg  Hg0  1  0.00000000  0.00000000  0.41600411  1
  Hg  Hg1  1  0.00000000  0.00000000  0.91600411  1
  Hg  Hg2  1  -0.00000000  0.33333333  0.41600411  1
  Hg  Hg3  1  -0.00000000  0.33333333  0.91600411  1
  Hg  Hg4  1  -0.00000000  0.66666667  0.41600411  1
  Hg  Hg5  1  -0.00000000  0.66666667  0.91600411  1
  Hg  Hg6  1  0.33333333  0.00000000  0.41600411  1
  Hg  Hg7  1  0.33333333  0.00000000  0.91600411  1
  Hg  Hg8  1  0.33333333  0.33333333  0.41600411  1
  Hg  Hg9  1  0.33333333  0.33333333  0.91600411  1
  Hg  Hg10  1  0.33333333  0.66666667  0.41600411  1
  Hg  Hg11  1  0.33333333  0.66666667  0.91600411  1
  Hg  Hg12  1  0.66666667  0.00000000  0.41600411  1
  Hg  Hg13  1  0.66666667  0.00000000  0.91600411  1
  Hg  Hg14  1  0.66666667  0.33333333  0.41600411  1
  Hg  Hg15  1  0.66666667  0.33333333  0.91600411  1
  Hg  Hg16  1  0.66666667  0.66666667  0.41600411  1
  Hg  Hg17  1  0.66666667  0.66666667  0.91600411  1
  Hg  Hg18  1  0.00000000  0.00000000  0.08399589  1
  Hg  Hg19  1  0.00000000  0.00000000  0.58399589  1
  Hg  Hg20  1  -0.00000000  0.33333333  0.08399589  1
  Hg  Hg21  1  -0.00000000  0.33333333  0.58399589  1
  Hg  Hg22  1  -0.00000000  0.66666667  0.08399589  1
  Hg  Hg23  1  -0.00000000  0.66666667  0.58399589  1
  Hg  Hg24  1  0.33333333  0.00000000  0.08399589  1
  Hg  Hg25  1  0.33333333  0.00000000  0.58399589  1
  Hg  Hg26  1  0.33333333  0.33333333  0.08399589  1
  Hg  Hg27  1  0.33333333  0.33333333  0.58399589  1
  Hg  Hg28  1  0.33333333  0.66666667  0.08399589  1
  Hg  Hg29  1  0.33333333  0.66666667  0.58399589  1
  Hg  Hg30  1  0.66666667  0.00000000  0.08399589  1
  Hg  Hg31  1  0.66666667  0.00000000  0.58399589  1
  Hg  Hg32  1  0.66666667  0.33333333  0.08399589  1
  Hg  Hg33  1  0.66666667  0.33333333  0.58399589  1
  Hg  Hg34  1  0.66666667  0.66666667  0.08399589  1
  Hg  Hg35  1  0.66666667  0.66666667  0.58399589  1
  As  As36  1  0.11111111  0.22222222  0.25000000  1
  As  As37  1  0.11111111  0.22222222  0.75000000  1
  As  As38  1  0.11111111  0.55555556  0.25000000  1
  As  As39  1  0.11111111  0.55555556  0.75000000  1
  As  As40  1  0.11111111  0.88888889  0.25000000  1
  As  As41  1  0.11111111  0.88888889  0.75000000  1
  As  As42  1  0.44444444  0.22222222  0.25000000  1
  As  As43  1  0.44444444  0.22222222  0.75000000  1
  As  As44  1  0.44444444  0.55555556  0.25000000  1
  As  As45  1  0.44444444  0.55555556  0.75000000  1
  As  As46  1  0.44444444  0.88888889  0.25000000  1
  As  As47  1  0.44444444  0.88888889  0.75000000  1
  As  As48  1  0.77777778  0.22222222  0.25000000  1
  As  As49  1  0.77777778  0.22222222  0.75000000  1
  As  As50  1  0.77777778  0.55555556  0.25000000  1
  As  As51  1  0.77777778  0.55555556  0.75000000  1
  As  As52  1  0.77777778  0.88888889  0.25000000  1
  As  As53  1  0.77777778  0.88888889  0.75000000  1
  As  As54  1  0.22222222  0.11111111  0.25000000  1
  As  As55  1  0.22222222  0.11111111  0.75000000  1
  As  As56  1  0.22222222  0.44444444  0.25000000  1
  As  As57  1  0.22222222  0.44444444  0.75000000  1
  As  As58  1  0.22222222  0.77777778  0.25000000  1
  As  As59  1  0.22222222  0.77777778  0.75000000  1
  As  As60  1  0.55555556  0.11111111  0.25000000  1
  As  As61  1  0.55555556  0.11111111  0.75000000  1
  As  As62  1  0.55555556  0.44444444  0.25000000  1
  As  As63  1  0.55555556  0.44444444  0.75000000  1
  As  As64  1  0.55555556  0.77777778  0.25000000  1
  As  As65  1  0.55555556  0.77777778  0.75000000  1
  As  As66  1  0.88888889  0.11111111  0.25000000  1
  As  As67  1  0.88888889  0.11111111  0.75000000  1
  As  As68  1  0.88888889  0.44444444  0.25000000  1
  As  As69  1  0.88888889  0.44444444  0.75000000  1
  As  As70  1  0.88888889  0.77777778  0.25000000  1
  As  As71  1  0.88888889  0.77777778  0.75000000  1
  O  O72  1  0.12639051  0.00000000  0.31817260  1
  O  O73  1  0.12639051  0.00000000  0.81817260  1
  O  O74  1  0.12639051  0.33333333  0.31817260  1
  O  O75  1  0.12639051  0.33333333  0.81817260  1
  O  O76  1  0.12639051  0.66666667  0.31817260  1
  O  O77  1  0.12639051  0.66666667  0.81817260  1
  O  O78  1  0.45972385  0.00000000  0.31817260  1
  O  O79  1  0.45972385  0.00000000  0.81817260  1
  O  O80  1  0.45972385  0.33333333  0.31817260  1
  O  O81  1  0.45972385  0.33333333  0.81817260  1
  O  O82  1  0.45972385  0.66666667  0.31817260  1
  O  O83  1  0.45972385  0.66666667  0.81817260  1
  O  O84  1  0.79305718  0.00000000  0.31817260  1
  O  O85  1  0.79305718  0.00000000  0.81817260  1
  O  O86  1  0.79305718  0.33333333  0.31817260  1
  O  O87  1  0.79305718  0.33333333  0.81817260  1
  O  O88  1  0.79305718  0.66666667  0.31817260  1
  O  O89  1  0.79305718  0.66666667  0.81817260  1
  O  O90  1  -0.00000000  0.12639051  0.31817260  1
  O  O91  1  -0.00000000  0.12639051  0.81817260  1
  O  O92  1  0.00000000  0.45972385  0.31817260  1
  O  O93  1  0.00000000  0.45972385  0.81817260  1
  O  O94  1  -0.00000000  0.79305718  0.31817260  1
  O  O95  1  -0.00000000  0.79305718  0.81817260  1
  O  O96  1  0.33333333  0.12639051  0.31817260  1
  O  O97  1  0.33333333  0.12639051  0.81817260  1
  O  O98  1  0.33333333  0.45972385  0.31817260  1
  O  O99  1  0.33333333  0.45972385  0.81817260  1
  O  O100  1  0.33333333  0.79305718  0.31817260  1
  O  O101  1  0.33333333  0.79305718  0.81817260  1
  O  O102  1  0.66666667  0.12639051  0.31817260  1
  O  O103  1  0.66666667  0.12639051  0.81817260  1
  O  O104  1  0.66666667  0.45972385  0.31817260  1
  O  O105  1  0.66666667  0.45972385  0.81817260  1
  O  O106  1  0.66666667  0.79305718  0.31817260  1
  O  O107  1  0.66666667  0.79305718  0.81817260  1
  O  O108  1  0.20694282  0.20694282  0.31817260  1
  O  O109  1  0.20694282  0.20694282  0.81817260  1
  O  O110  1  0.20694282  0.54027615  0.31817260  1
  O  O111  1  0.20694282  0.54027615  0.81817260  1
  O  O112  1  0.20694282  0.87360949  0.31817260  1
  O  O113  1  0.20694282  0.87360949  0.81817260  1
  O  O114  1  0.54027615  0.20694282  0.31817260  1
  O  O115  1  0.54027615  0.20694282  0.81817260  1
  O  O116  1  0.54027615  0.54027615  0.31817260  1
  O  O117  1  0.54027615  0.54027615  0.81817260  1
  O  O118  1  0.54027615  0.87360949  0.31817260  1
  O  O119  1  0.54027615  0.87360949  0.81817260  1
  O  O120  1  0.87360949  0.20694282  0.31817260  1
  O  O121  1  0.87360949  0.20694282  0.81817260  1
  O  O122  1  0.87360949  0.54027615  0.31817260  1
  O  O123  1  0.87360949  0.54027615  0.81817260  1
  O  O124  1  0.87360949  0.87360949  0.31817260  1
  O  O125  1  0.87360949  0.87360949  0.81817260  1
  O  O126  1  -0.00000000  0.20694282  0.18182740  1
  O  O127  1  -0.00000000  0.20694282  0.68182740  1
  O  O128  1  -0.00000000  0.54027615  0.18182740  1
  O  O129  1  -0.00000000  0.54027615  0.68182740  1
  O  O130  1  0.00000000  0.87360949  0.18182740  1
  O  O131  1  0.00000000  0.87360949  0.68182740  1
  O  O132  1  0.33333333  0.20694282  0.18182740  1
  O  O133  1  0.33333333  0.20694282  0.68182740  1
  O  O134  1  0.33333333  0.54027615  0.18182740  1
  O  O135  1  0.33333333  0.54027615  0.68182740  1
  O  O136  1  0.33333333  0.87360949  0.18182740  1
  O  O137  1  0.33333333  0.87360949  0.68182740  1
  O  O138  1  0.66666667  0.20694282  0.18182740  1
  O  O139  1  0.66666667  0.20694282  0.68182740  1
  O  O140  1  0.66666667  0.54027615  0.18182740  1
  O  O141  1  0.66666667  0.54027615  0.68182740  1
  O  O142  1  0.66666667  0.87360949  0.18182740  1
  O  O143  1  0.66666667  0.87360949  0.68182740  1
  O  O144  1  0.12639051  0.12639051  0.18182740  1
  O  O145  1  0.12639051  0.12639051  0.68182740  1
  O  O146  1  0.12639051  0.45972385  0.18182740  1
  O  O147  1  0.12639051  0.45972385  0.68182740  1
  O  O148  1  0.12639051  0.79305718  0.18182740  1
  O  O149  1  0.12639051  0.79305718  0.68182740  1
  O  O150  1  0.45972385  0.12639051  0.18182740  1
  O  O151  1  0.45972385  0.12639051  0.68182740  1
  O  O152  1  0.45972385  0.45972385  0.18182740  1
  O  O153  1  0.45972385  0.45972385  0.68182740  1
  O  O154  1  0.45972385  0.79305718  0.18182740  1
  O  O155  1  0.45972385  0.79305718  0.68182740  1
  O  O156  1  0.79305718  0.12639051  0.18182740  1
  O  O157  1  0.79305718  0.12639051  0.68182740  1
  O  O158  1  0.79305718  0.45972385  0.18182740  1
  O  O159  1  0.79305718  0.45972385  0.68182740  1
  O  O160  1  0.79305718  0.79305718  0.18182740  1
  O  O161  1  0.79305718  0.79305718  0.68182740  1
  O  O162  1  0.20694282  0.00000000  0.18182740  1
  O  O163  1  0.20694282  0.00000000  0.68182740  1
  O  O164  1  0.20694282  0.33333333  0.18182740  1
  O  O165  1  0.20694282  0.33333333  0.68182740  1
  O  O166  1  0.20694282  0.66666667  0.18182740  1
  O  O167  1  0.20694282  0.66666667  0.68182740  1
  O  O168  1  0.54027615  0.00000000  0.18182740  1
  O  O169  1  0.54027615  0.00000000  0.68182740  1
  O  O170  1  0.54027615  0.33333333  0.18182740  1
  O  O171  1  0.54027615  0.33333333  0.68182740  1
  O  O172  1  0.54027615  0.66666667  0.18182740  1
  O  O173  1  0.54027615  0.66666667  0.68182740  1
  O  O174  1  0.87360949  0.00000000  0.18182740  1
  O  O175  1  0.87360949  0.00000000  0.68182740  1
  O  O176  1  0.87360949  0.33333333  0.18182740  1
  O  O177  1  0.87360949  0.33333333  0.68182740  1
  O  O178  1  0.87360949  0.66666667  0.18182740  1
  O  O179  1  0.87360949  0.66666667  0.68182740  1
