# generated using pymatgen
data_YNbO4
_symmetry_space_group_name_H-M   'P 1'
_cell_length_a   14.05217990
_cell_length_b   10.93144233
_cell_length_c   15.24736838
_cell_angle_alpha   90.00000000
_cell_angle_beta   131.39732980
_cell_angle_gamma   90.00000000
_symmetry_Int_Tables_number   1
_chemical_formula_structural   YNbO4
_chemical_formula_sum   'Y24 Nb24 O96'
_cell_volume   1756.95031217
_cell_formula_units_Z   24
loop_
 _symmetry_equiv_pos_site_id
 _symmetry_equiv_pos_as_xyz
  1  'x, y, z'
loop_
 _atom_site_type_symbol
 _atom_site_label
 _atom_site_symmetry_multiplicity
 _atom_site_fract_x
 _atom_site_fract_y
 _atom_site_fract_z
 _atom_site_occupancy
  Y  Y0  1  0.25000000  0.12923914  0.08333333  1
  Y  Y1  1  0.25000000  0.12923914  0.41666667  1
  Y  Y2  1  0.25000000  0.12923914  0.75000000  1
  Y  Y3  1  0.75000000  0.12923914  0.08333333  1
  Y  Y4  1  0.75000000  0.12923914  0.41666667  1
  Y  Y5  1  0.75000000  0.12923914  0.75000000  1
  Y  Y6  1  0.50000000  0.62923914  0.08333333  1
  Y  Y7  1  0.50000000  0.62923914  0.41666667  1
  Y  Y8  1  0.50000000  0.62923914  0.75000000  1
  Y  Y9  1  1.00000000  0.62923914  0.08333333  1
  Y  Y10  1  1.00000000  0.62923914  0.41666667  1
  Y  Y11  1  1.00000000  0.62923914  0.75000000  1
  Y  Y12  1  0.25000000  -0.12923914  0.25000000  1
  Y  Y13  1  0.25000000  -0.12923914  0.58333333  1
  Y  Y14  1  0.25000000  -0.12923914  0.91666667  1
  Y  Y15  1  0.75000000  -0.12923914  0.25000000  1
  Y  Y16  1  0.75000000  -0.12923914  0.58333333  1
  Y  Y17  1  0.75000000  -0.12923914  0.91666667  1
  Y  Y18  1  0.50000000  0.37076086  0.25000000  1
  Y  Y19  1  0.50000000  0.37076086  0.58333333  1
  Y  Y20  1  0.50000000  0.37076086  0.91666667  1
  Y  Y21  1  1.00000000  0.37076086  0.25000000  1
  Y  Y22  1  1.00000000  0.37076086  0.58333333  1
  Y  Y23  1  1.00000000  0.37076086  0.91666667  1
  Nb  Nb24  1  0.25000000  -0.39450314  0.08333333  1
  Nb  Nb25  1  0.25000000  -0.39450314  0.41666667  1
  Nb  Nb26  1  0.25000000  -0.39450314  0.75000000  1
  Nb  Nb27  1  0.75000000  -0.39450314  0.08333333  1
  Nb  Nb28  1  0.75000000  -0.39450314  0.41666667  1
  Nb  Nb29  1  0.75000000  -0.39450314  0.75000000  1
  Nb  Nb30  1  0.50000000  0.10549686  0.08333333  1
  Nb  Nb31  1  0.50000000  0.10549686  0.41666667  1
  Nb  Nb32  1  0.50000000  0.10549686  0.75000000  1
  Nb  Nb33  1  1.00000000  0.10549686  0.08333333  1
  Nb  Nb34  1  1.00000000  0.10549686  0.41666667  1
  Nb  Nb35  1  1.00000000  0.10549686  0.75000000  1
  Nb  Nb36  1  0.25000000  0.39450314  0.25000000  1
  Nb  Nb37  1  0.25000000  0.39450314  0.58333333  1
  Nb  Nb38  1  0.25000000  0.39450314  0.91666667  1
  Nb  Nb39  1  0.75000000  0.39450314  0.25000000  1
  Nb  Nb40  1  0.75000000  0.39450314  0.58333333  1
  Nb  Nb41  1  0.75000000  0.39450314  0.91666667  1
  Nb  Nb42  1  0.50000000  0.89450314  0.25000000  1
  Nb  Nb43  1  0.50000000  0.89450314  0.58333333  1
  Nb  Nb44  1  0.50000000  0.89450314  0.91666667  1
  Nb  Nb45  1  1.00000000  0.89450314  0.25000000  1
  Nb  Nb46  1  1.00000000  0.89450314  0.58333333  1
  Nb  Nb47  1  1.00000000  0.89450314  0.91666667  1
  O  O48  1  0.37618757  -0.03081721  0.09632631  1
  O  O49  1  0.37618757  -0.03081721  0.42965964  1
  O  O50  1  0.37618757  -0.03081721  0.76299298  1
  O  O51  1  0.87618757  -0.03081721  0.09632631  1
  O  O52  1  0.87618757  -0.03081721  0.42965964  1
  O  O53  1  0.87618757  -0.03081721  0.76299298  1
  O  O54  1  0.62618757  0.46918279  0.09632631  1
  O  O55  1  0.62618757  0.46918279  0.42965964  1
  O  O56  1  0.62618757  0.46918279  0.76299298  1
  O  O57  1  1.12618757  0.46918279  0.09632631  1
  O  O58  1  1.12618757  0.46918279  0.42965964  1
  O  O59  1  1.12618757  0.46918279  0.76299298  1
  O  O60  1  0.12381243  -0.03081721  0.07034036  1
  O  O61  1  0.12381243  -0.03081721  0.40367369  1
  O  O62  1  0.12381243  -0.03081721  0.73700702  1
  O  O63  1  0.62381243  -0.03081721  0.07034036  1
  O  O64  1  0.62381243  -0.03081721  0.40367369  1
  O  O65  1  0.62381243  -0.03081721  0.73700702  1
  O  O66  1  0.37381243  0.46918279  0.07034036  1
  O  O67  1  0.37381243  0.46918279  0.40367369  1
  O  O68  1  0.37381243  0.46918279  0.73700702  1
  O  O69  1  0.87381243  0.46918279  0.07034036  1
  O  O70  1  0.87381243  0.46918279  0.40367369  1
  O  O71  1  0.87381243  0.46918279  0.73700702  1
  O  O72  1  0.12381243  0.03081721  0.23700702  1
  O  O73  1  0.12381243  0.03081721  0.57034036  1
  O  O74  1  0.12381243  0.03081721  0.90367369  1
  O  O75  1  0.62381243  0.03081721  0.23700702  1
  O  O76  1  0.62381243  0.03081721  0.57034036  1
  O  O77  1  0.62381243  0.03081721  0.90367369  1
  O  O78  1  0.37381243  0.53081721  0.23700702  1
  O  O79  1  0.37381243  0.53081721  0.57034036  1
  O  O80  1  0.37381243  0.53081721  0.90367369  1
  O  O81  1  0.87381243  0.53081721  0.23700702  1
  O  O82  1  0.87381243  0.53081721  0.57034036  1
  O  O83  1  0.87381243  0.53081721  0.90367369  1
  O  O84  1  0.37618757  0.03081721  0.26299298  1
  O  O85  1  0.37618757  0.03081721  0.59632631  1
  O  O86  1  0.37618757  0.03081721  0.92965964  1
  O  O87  1  0.87618757  0.03081721  0.26299298  1
  O  O88  1  0.87618757  0.03081721  0.59632631  1
  O  O89  1  0.87618757  0.03081721  0.92965964  1
  O  O90  1  0.62618757  0.53081721  0.26299298  1
  O  O91  1  0.62618757  0.53081721  0.59632631  1
  O  O92  1  0.62618757  0.53081721  0.92965964  1
  O  O93  1  1.12618757  0.53081721  0.26299298  1
  O  O94  1  1.12618757  0.53081721  0.59632631  1
  O  O95  1  1.12618757  0.53081721  0.92965964  1
  O  O96  1  0.16959495  0.28797236  0.27976289  1
  O  O97  1  0.16959495  0.28797236  0.61309622  1
  O  O98  1  0.16959495  0.28797236  0.94642955  1
  O  O99  1  0.66959495  0.28797236  0.27976289  1
  O  O100  1  0.66959495  0.28797236  0.61309622  1
  O  O101  1  0.66959495  0.28797236  0.94642955  1
  O  O102  1  0.41959495  0.78797236  0.27976289  1
  O  O103  1  0.41959495  0.78797236  0.61309622  1
  O  O104  1  0.41959495  0.78797236  0.94642955  1
  O  O105  1  0.91959495  0.78797236  0.27976289  1
  O  O106  1  0.91959495  0.78797236  0.61309622  1
  O  O107  1  0.91959495  0.78797236  0.94642955  1
  O  O108  1  0.33040505  0.28797236  0.22023711  1
  O  O109  1  0.33040505  0.28797236  0.55357045  1
  O  O110  1  0.33040505  0.28797236  0.88690378  1
  O  O111  1  0.83040505  0.28797236  0.22023711  1
  O  O112  1  0.83040505  0.28797236  0.55357045  1
  O  O113  1  0.83040505  0.28797236  0.88690378  1
  O  O114  1  0.58040505  0.78797236  0.22023711  1
  O  O115  1  0.58040505  0.78797236  0.55357045  1
  O  O116  1  0.58040505  0.78797236  0.88690378  1
  O  O117  1  1.08040505  0.78797236  0.22023711  1
  O  O118  1  1.08040505  0.78797236  0.55357045  1
  O  O119  1  1.08040505  0.78797236  0.88690378  1
  O  O120  1  0.33040505  -0.28797236  0.05357045  1
  O  O121  1  0.33040505  -0.28797236  0.38690378  1
  O  O122  1  0.33040505  -0.28797236  0.72023711  1
  O  O123  1  0.83040505  -0.28797236  0.05357045  1
  O  O124  1  0.83040505  -0.28797236  0.38690378  1
  O  O125  1  0.83040505  -0.28797236  0.72023711  1
  O  O126  1  0.58040505  0.21202764  0.05357045  1
  O  O127  1  0.58040505  0.21202764  0.38690378  1
  O  O128  1  0.58040505  0.21202764  0.72023711  1
  O  O129  1  1.08040505  0.21202764  0.05357045  1
  O  O130  1  1.08040505  0.21202764  0.38690378  1
  O  O131  1  1.08040505  0.21202764  0.72023711  1
  O  O132  1  0.16959495  -0.28797236  0.11309622  1
  O  O133  1  0.16959495  -0.28797236  0.44642955  1
  O  O134  1  0.16959495  -0.28797236  0.77976289  1
  O  O135  1  0.66959495  -0.28797236  0.11309622  1
  O  O136  1  0.66959495  -0.28797236  0.44642955  1
  O  O137  1  0.66959495  -0.28797236  0.77976289  1
  O  O138  1  0.41959495  0.21202764  0.11309622  1
  O  O139  1  0.41959495  0.21202764  0.44642955  1
  O  O140  1  0.41959495  0.21202764  0.77976289  1
  O  O141  1  0.91959495  0.21202764  0.11309622  1
  O  O142  1  0.91959495  0.21202764  0.44642955  1
  O  O143  1  0.91959495  0.21202764  0.77976289  1
