# generated using pymatgen
data_Na2ZrO3
_symmetry_space_group_name_H-M   'P 1'
_cell_length_a   11.16471818
_cell_length_b   9.68357057
_cell_length_c   10.96326835
_cell_angle_alpha   90.00000000
_cell_angle_beta   100.03239578
_cell_angle_gamma   90.00000000
_symmetry_Int_Tables_number   1
_chemical_formula_structural   Na2ZrO3
_chemical_formula_sum   'Na32 Zr16 O48'
_cell_volume   1167.16275626
_cell_formula_units_Z   16
loop_
 _symmetry_equiv_pos_site_id
 _symmetry_equiv_pos_as_xyz
  1  'x, y, z'
loop_
 _atom_site_type_symbol
 _atom_site_label
 _atom_site_symmetry_multiplicity
 _atom_site_fract_x
 _atom_site_fract_y
 _atom_site_fract_z
 _atom_site_occupancy
  Na  Na0  1  0.25000000  -0.41501469  0.75000000  1
  Na  Na1  1  0.75000000  -0.41501469  0.75000000  1
  Na  Na2  1  0.50000000  0.08498531  0.75000000  1
  Na  Na3  1  1.00000000  0.08498531  0.75000000  1
  Na  Na4  1  0.25000000  0.41501469  0.25000000  1
  Na  Na5  1  0.75000000  0.41501469  0.25000000  1
  Na  Na6  1  0.50000000  0.91501469  0.25000000  1
  Na  Na7  1  1.00000000  0.91501469  0.25000000  1
  Na  Na8  1  0.12500000  0.25000000  0.00000000  1
  Na  Na9  1  0.62500000  0.25000000  0.00000000  1
  Na  Na10  1  0.37500000  0.75000000  0.00000000  1
  Na  Na11  1  0.87500000  0.75000000  0.00000000  1
  Na  Na12  1  0.12500000  -0.25000000  0.50000000  1
  Na  Na13  1  0.62500000  -0.25000000  0.50000000  1
  Na  Na14  1  0.37500000  0.25000000  0.50000000  1
  Na  Na15  1  0.87500000  0.25000000  0.50000000  1
  Na  Na16  1  0.38078341  -0.07932202  0.50029529  1
  Na  Na17  1  0.88078341  -0.07932202  0.50029529  1
  Na  Na18  1  0.63078341  0.42067798  0.50029529  1
  Na  Na19  1  1.13078341  0.42067798  0.50029529  1
  Na  Na20  1  0.11921659  -0.07932202  0.99970471  1
  Na  Na21  1  0.61921659  -0.07932202  0.99970471  1
  Na  Na22  1  0.36921659  0.42067798  0.99970471  1
  Na  Na23  1  0.86921659  0.42067798  0.99970471  1
  Na  Na24  1  0.11921659  0.07932202  0.49970471  1
  Na  Na25  1  0.61921659  0.07932202  0.49970471  1
  Na  Na26  1  0.36921659  0.57932202  0.49970471  1
  Na  Na27  1  0.86921659  0.57932202  0.49970471  1
  Na  Na28  1  0.38078341  0.07932202  0.00029529  1
  Na  Na29  1  0.88078341  0.07932202  0.00029529  1
  Na  Na30  1  0.63078341  0.57932202  0.00029529  1
  Na  Na31  1  1.13078341  0.57932202  0.00029529  1
  Zr  Zr32  1  0.25000000  -0.08185322  0.75000000  1
  Zr  Zr33  1  0.75000000  -0.08185322  0.75000000  1
  Zr  Zr34  1  0.50000000  0.41814678  0.75000000  1
  Zr  Zr35  1  1.00000000  0.41814678  0.75000000  1
  Zr  Zr36  1  0.25000000  0.08185322  0.25000000  1
  Zr  Zr37  1  0.75000000  0.08185322  0.25000000  1
  Zr  Zr38  1  0.50000000  0.58185322  0.25000000  1
  Zr  Zr39  1  1.00000000  0.58185322  0.25000000  1
  Zr  Zr40  1  0.25000000  -0.25053173  0.25000000  1
  Zr  Zr41  1  0.75000000  -0.25053173  0.25000000  1
  Zr  Zr42  1  0.50000000  0.24946827  0.25000000  1
  Zr  Zr43  1  1.00000000  0.24946827  0.25000000  1
  Zr  Zr44  1  0.25000000  0.25053173  0.75000000  1
  Zr  Zr45  1  0.75000000  0.25053173  0.75000000  1
  Zr  Zr46  1  0.50000000  0.75053173  0.75000000  1
  Zr  Zr47  1  1.00000000  0.75053173  0.75000000  1
  O  O48  1  0.29778756  -0.08486205  0.14361920  1
  O  O49  1  0.79778756  -0.08486205  0.14361920  1
  O  O50  1  0.54778756  0.41513795  0.14361920  1
  O  O51  1  1.04778756  0.41513795  0.14361920  1
  O  O52  1  0.20221244  -0.08486205  0.35638080  1
  O  O53  1  0.70221244  -0.08486205  0.35638080  1
  O  O54  1  0.45221244  0.41513795  0.35638080  1
  O  O55  1  0.95221244  0.41513795  0.35638080  1
  O  O56  1  0.20221244  0.08486205  0.85638080  1
  O  O57  1  0.70221244  0.08486205  0.85638080  1
  O  O58  1  0.45221244  0.58486205  0.85638080  1
  O  O59  1  0.95221244  0.58486205  0.85638080  1
  O  O60  1  0.29778756  0.08486205  0.64361920  1
  O  O61  1  0.79778756  0.08486205  0.64361920  1
  O  O62  1  0.54778756  0.58486205  0.64361920  1
  O  O63  1  1.04778756  0.58486205  0.64361920  1
  O  O64  1  0.32423780  -0.23041416  0.64385609  1
  O  O65  1  0.82423780  -0.23041416  0.64385609  1
  O  O66  1  0.57423780  0.26958584  0.64385609  1
  O  O67  1  1.07423780  0.26958584  0.64385609  1
  O  O68  1  0.17576220  -0.23041416  0.85614391  1
  O  O69  1  0.67576220  -0.23041416  0.85614391  1
  O  O70  1  0.42576220  0.26958584  0.85614391  1
  O  O71  1  0.92576220  0.26958584  0.85614391  1
  O  O72  1  0.17576220  0.23041416  0.35614391  1
  O  O73  1  0.67576220  0.23041416  0.35614391  1
  O  O74  1  0.42576220  0.73041416  0.35614391  1
  O  O75  1  0.92576220  0.73041416  0.35614391  1
  O  O76  1  0.32423780  0.23041416  0.14385609  1
  O  O77  1  0.82423780  0.23041416  0.14385609  1
  O  O78  1  0.57423780  0.73041416  0.14385609  1
  O  O79  1  1.07423780  0.73041416  0.14385609  1
  O  O80  1  0.42648822  -0.09903930  0.85819363  1
  O  O81  1  0.92648822  -0.09903930  0.85819363  1
  O  O82  1  0.67648822  0.40096070  0.85819363  1
  O  O83  1  1.17648822  0.40096070  0.85819363  1
  O  O84  1  0.07351178  -0.09903930  0.64180637  1
  O  O85  1  0.57351178  -0.09903930  0.64180637  1
  O  O86  1  0.32351178  0.40096070  0.64180637  1
  O  O87  1  0.82351178  0.40096070  0.64180637  1
  O  O88  1  0.07351178  0.09903930  0.14180637  1
  O  O89  1  0.57351178  0.09903930  0.14180637  1
  O  O90  1  0.32351178  0.59903930  0.14180637  1
  O  O91  1  0.82351178  0.59903930  0.14180637  1
  O  O92  1  0.42648822  0.09903930  0.35819363  1
  O  O93  1  0.92648822  0.09903930  0.35819363  1
  O  O94  1  0.67648822  0.59903930  0.35819363  1
  O  O95  1  1.17648822  0.59903930  0.35819363  1
