# generated using pymatgen
data_K2ZrO3
_symmetry_space_group_name_H-M   'P 1'
_cell_length_a   17.59582985
_cell_length_b   20.96091546
_cell_length_c   20.96063495
_cell_angle_alpha   90.00000000
_cell_angle_beta   90.00000000
_cell_angle_gamma   90.00000000
_symmetry_Int_Tables_number   1
_chemical_formula_structural   K2ZrO3
_chemical_formula_sum   'K144 Zr72 O216'
_cell_volume   7730.79993699
_cell_formula_units_Z   72
loop_
 _symmetry_equiv_pos_site_id
 _symmetry_equiv_pos_as_xyz
  1  'x, y, z'
loop_
 _atom_site_type_symbol
 _atom_site_label
 _atom_site_symmetry_multiplicity
 _atom_site_fract_x
 _atom_site_fract_y
 _atom_site_fract_z
 _atom_site_occupancy
  K  K0  1  0.07818603  0.04292547  0.20400067  1
  K  K1  1  0.07818603  0.04292547  0.53733401  1
  K  K2  1  0.07818603  0.04292547  0.87066734  1
  K  K3  1  0.07818603  0.54292547  0.20400067  1
  K  K4  1  0.07818603  0.54292547  0.53733401  1
  K  K5  1  0.07818603  0.54292547  0.87066734  1
  K  K6  1  0.41151936  0.04292547  0.20400067  1
  K  K7  1  0.41151936  0.04292547  0.53733401  1
  K  K8  1  0.41151936  0.04292547  0.87066734  1
  K  K9  1  0.41151936  0.54292547  0.20400067  1
  K  K10  1  0.41151936  0.54292547  0.53733401  1
  K  K11  1  0.41151936  0.54292547  0.87066734  1
  K  K12  1  0.74485270  0.04292547  0.20400067  1
  K  K13  1  0.74485270  0.04292547  0.53733401  1
  K  K14  1  0.74485270  0.04292547  0.87066734  1
  K  K15  1  0.74485270  0.54292547  0.20400067  1
  K  K16  1  0.74485270  0.54292547  0.53733401  1
  K  K17  1  0.74485270  0.54292547  0.87066734  1
  K  K18  1  0.07818603  0.20707453  0.20400067  1
  K  K19  1  0.07818603  0.20707453  0.53733401  1
  K  K20  1  0.07818603  0.20707453  0.87066734  1
  K  K21  1  0.07818603  0.70707453  0.20400067  1
  K  K22  1  0.07818603  0.70707453  0.53733401  1
  K  K23  1  0.07818603  0.70707453  0.87066734  1
  K  K24  1  0.41151936  0.20707453  0.20400067  1
  K  K25  1  0.41151936  0.20707453  0.53733401  1
  K  K26  1  0.41151936  0.20707453  0.87066734  1
  K  K27  1  0.41151936  0.70707453  0.20400067  1
  K  K28  1  0.41151936  0.70707453  0.53733401  1
  K  K29  1  0.41151936  0.70707453  0.87066734  1
  K  K30  1  0.74485270  0.20707453  0.20400067  1
  K  K31  1  0.74485270  0.20707453  0.53733401  1
  K  K32  1  0.74485270  0.20707453  0.87066734  1
  K  K33  1  0.74485270  0.70707453  0.20400067  1
  K  K34  1  0.74485270  0.70707453  0.53733401  1
  K  K35  1  0.74485270  0.70707453  0.87066734  1
  K  K36  1  0.25514730  0.45707453  0.12933266  1
  K  K37  1  0.25514730  0.45707453  0.46266599  1
  K  K38  1  0.25514730  0.45707453  0.79599933  1
  K  K39  1  0.25514730  0.95707453  0.12933266  1
  K  K40  1  0.25514730  0.95707453  0.46266599  1
  K  K41  1  0.25514730  0.95707453  0.79599933  1
  K  K42  1  0.58848064  0.45707453  0.12933266  1
  K  K43  1  0.58848064  0.45707453  0.46266599  1
  K  K44  1  0.58848064  0.45707453  0.79599933  1
  K  K45  1  0.58848064  0.95707453  0.12933266  1
  K  K46  1  0.58848064  0.95707453  0.46266599  1
  K  K47  1  0.58848064  0.95707453  0.79599933  1
  K  K48  1  0.92181397  0.45707453  0.12933266  1
  K  K49  1  0.92181397  0.45707453  0.46266599  1
  K  K50  1  0.92181397  0.45707453  0.79599933  1
  K  K51  1  0.92181397  0.95707453  0.12933266  1
  K  K52  1  0.92181397  0.95707453  0.46266599  1
  K  K53  1  0.92181397  0.95707453  0.79599933  1
  K  K54  1  0.08848064  0.29292547  0.03733401  1
  K  K55  1  0.08848064  0.29292547  0.37066734  1
  K  K56  1  0.08848064  0.29292547  0.70400067  1
  K  K57  1  0.08848064  0.79292547  0.03733401  1
  K  K58  1  0.08848064  0.79292547  0.37066734  1
  K  K59  1  0.08848064  0.79292547  0.70400067  1
  K  K60  1  0.42181397  0.29292547  0.03733401  1
  K  K61  1  0.42181397  0.29292547  0.37066734  1
  K  K62  1  0.42181397  0.29292547  0.70400067  1
  K  K63  1  0.42181397  0.79292547  0.03733401  1
  K  K64  1  0.42181397  0.79292547  0.37066734  1
  K  K65  1  0.42181397  0.79292547  0.70400067  1
  K  K66  1  0.75514730  0.29292547  0.03733401  1
  K  K67  1  0.75514730  0.29292547  0.37066734  1
  K  K68  1  0.75514730  0.29292547  0.70400067  1
  K  K69  1  0.75514730  0.79292547  0.03733401  1
  K  K70  1  0.75514730  0.79292547  0.37066734  1
  K  K71  1  0.75514730  0.79292547  0.70400067  1
  K  K72  1  0.08848064  0.45707453  0.03733401  1
  K  K73  1  0.08848064  0.45707453  0.37066734  1
  K  K74  1  0.08848064  0.45707453  0.70400067  1
  K  K75  1  0.08848064  0.95707453  0.03733401  1
  K  K76  1  0.08848064  0.95707453  0.37066734  1
  K  K77  1  0.08848064  0.95707453  0.70400067  1
  K  K78  1  0.42181397  0.45707453  0.03733401  1
  K  K79  1  0.42181397  0.45707453  0.37066734  1
  K  K80  1  0.42181397  0.45707453  0.70400067  1
  K  K81  1  0.42181397  0.95707453  0.03733401  1
  K  K82  1  0.42181397  0.95707453  0.37066734  1
  K  K83  1  0.42181397  0.95707453  0.70400067  1
  K  K84  1  0.75514730  0.45707453  0.03733401  1
  K  K85  1  0.75514730  0.45707453  0.37066734  1
  K  K86  1  0.75514730  0.45707453  0.70400067  1
  K  K87  1  0.75514730  0.95707453  0.03733401  1
  K  K88  1  0.75514730  0.95707453  0.37066734  1
  K  K89  1  0.75514730  0.95707453  0.70400067  1
  K  K90  1  0.25514730  0.29292547  0.12933266  1
  K  K91  1  0.25514730  0.29292547  0.46266599  1
  K  K92  1  0.25514730  0.29292547  0.79599933  1
  K  K93  1  0.25514730  0.79292547  0.12933266  1
  K  K94  1  0.25514730  0.79292547  0.46266599  1
  K  K95  1  0.25514730  0.79292547  0.79599933  1
  K  K96  1  0.58848064  0.29292547  0.12933266  1
  K  K97  1  0.58848064  0.29292547  0.46266599  1
  K  K98  1  0.58848064  0.29292547  0.79599933  1
  K  K99  1  0.58848064  0.79292547  0.12933266  1
  K  K100  1  0.58848064  0.79292547  0.46266599  1
  K  K101  1  0.58848064  0.79292547  0.79599933  1
  K  K102  1  0.92181397  0.29292547  0.12933266  1
  K  K103  1  0.92181397  0.29292547  0.46266599  1
  K  K104  1  0.92181397  0.29292547  0.79599933  1
  K  K105  1  0.92181397  0.79292547  0.12933266  1
  K  K106  1  0.92181397  0.79292547  0.46266599  1
  K  K107  1  0.92181397  0.79292547  0.79599933  1
  K  K108  1  0.24485270  0.20707453  0.29599933  1
  K  K109  1  0.24485270  0.20707453  0.62933266  1
  K  K110  1  0.24485270  0.20707453  0.96266599  1
  K  K111  1  0.24485270  0.70707453  0.29599933  1
  K  K112  1  0.24485270  0.70707453  0.62933266  1
  K  K113  1  0.24485270  0.70707453  0.96266599  1
  K  K114  1  0.57818603  0.20707453  0.29599933  1
  K  K115  1  0.57818603  0.20707453  0.62933266  1
  K  K116  1  0.57818603  0.20707453  0.96266599  1
  K  K117  1  0.57818603  0.70707453  0.29599933  1
  K  K118  1  0.57818603  0.70707453  0.62933266  1
  K  K119  1  0.57818603  0.70707453  0.96266599  1
  K  K120  1  0.91151936  0.20707453  0.29599933  1
  K  K121  1  0.91151936  0.20707453  0.62933266  1
  K  K122  1  0.91151936  0.20707453  0.96266599  1
  K  K123  1  0.91151936  0.70707453  0.29599933  1
  K  K124  1  0.91151936  0.70707453  0.62933266  1
  K  K125  1  0.91151936  0.70707453  0.96266599  1
  K  K126  1  0.24485270  0.04292547  0.29599933  1
  K  K127  1  0.24485270  0.04292547  0.62933266  1
  K  K128  1  0.24485270  0.04292547  0.96266599  1
  K  K129  1  0.24485270  0.54292547  0.29599933  1
  K  K130  1  0.24485270  0.54292547  0.62933266  1
  K  K131  1  0.24485270  0.54292547  0.96266599  1
  K  K132  1  0.57818603  0.04292547  0.29599933  1
  K  K133  1  0.57818603  0.04292547  0.62933266  1
  K  K134  1  0.57818603  0.04292547  0.96266599  1
  K  K135  1  0.57818603  0.54292547  0.29599933  1
  K  K136  1  0.57818603  0.54292547  0.62933266  1
  K  K137  1  0.57818603  0.54292547  0.96266599  1
  K  K138  1  0.91151936  0.04292547  0.29599933  1
  K  K139  1  0.91151936  0.04292547  0.62933266  1
  K  K140  1  0.91151936  0.04292547  0.96266599  1
  K  K141  1  0.91151936  0.54292547  0.29599933  1
  K  K142  1  0.91151936  0.54292547  0.62933266  1
  K  K143  1  0.91151936  0.54292547  0.96266599  1
  Zr  Zr144  1  0.09258266  0.12500000  0.05300565  1
  Zr  Zr145  1  0.09258266  0.12500000  0.38633898  1
  Zr  Zr146  1  0.09258266  0.12500000  0.71967232  1
  Zr  Zr147  1  0.09258266  0.62500000  0.05300565  1
  Zr  Zr148  1  0.09258266  0.62500000  0.38633898  1
  Zr  Zr149  1  0.09258266  0.62500000  0.71967232  1
  Zr  Zr150  1  0.42591599  0.12500000  0.05300565  1
  Zr  Zr151  1  0.42591599  0.12500000  0.38633898  1
  Zr  Zr152  1  0.42591599  0.12500000  0.71967232  1
  Zr  Zr153  1  0.42591599  0.62500000  0.05300565  1
  Zr  Zr154  1  0.42591599  0.62500000  0.38633898  1
  Zr  Zr155  1  0.42591599  0.62500000  0.71967232  1
  Zr  Zr156  1  0.75924933  0.12500000  0.05300565  1
  Zr  Zr157  1  0.75924933  0.12500000  0.38633898  1
  Zr  Zr158  1  0.75924933  0.12500000  0.71967232  1
  Zr  Zr159  1  0.75924933  0.62500000  0.05300565  1
  Zr  Zr160  1  0.75924933  0.62500000  0.38633898  1
  Zr  Zr161  1  0.75924933  0.62500000  0.71967232  1
  Zr  Zr162  1  0.25924933  0.12500000  0.11366102  1
  Zr  Zr163  1  0.25924933  0.12500000  0.44699435  1
  Zr  Zr164  1  0.25924933  0.12500000  0.78032768  1
  Zr  Zr165  1  0.25924933  0.62500000  0.11366102  1
  Zr  Zr166  1  0.25924933  0.62500000  0.44699435  1
  Zr  Zr167  1  0.25924933  0.62500000  0.78032768  1
  Zr  Zr168  1  0.59258266  0.12500000  0.11366102  1
  Zr  Zr169  1  0.59258266  0.12500000  0.44699435  1
  Zr  Zr170  1  0.59258266  0.12500000  0.78032768  1
  Zr  Zr171  1  0.59258266  0.62500000  0.11366102  1
  Zr  Zr172  1  0.59258266  0.62500000  0.44699435  1
  Zr  Zr173  1  0.59258266  0.62500000  0.78032768  1
  Zr  Zr174  1  0.92591599  0.12500000  0.11366102  1
  Zr  Zr175  1  0.92591599  0.12500000  0.44699435  1
  Zr  Zr176  1  0.92591599  0.12500000  0.78032768  1
  Zr  Zr177  1  0.92591599  0.62500000  0.11366102  1
  Zr  Zr178  1  0.92591599  0.62500000  0.44699435  1
  Zr  Zr179  1  0.92591599  0.62500000  0.78032768  1
  Zr  Zr180  1  0.07408401  0.37500000  0.21967232  1
  Zr  Zr181  1  0.07408401  0.37500000  0.55300565  1
  Zr  Zr182  1  0.07408401  0.37500000  0.88633898  1
  Zr  Zr183  1  0.07408401  0.87500000  0.21967232  1
  Zr  Zr184  1  0.07408401  0.87500000  0.55300565  1
  Zr  Zr185  1  0.07408401  0.87500000  0.88633898  1
  Zr  Zr186  1  0.40741734  0.37500000  0.21967232  1
  Zr  Zr187  1  0.40741734  0.37500000  0.55300565  1
  Zr  Zr188  1  0.40741734  0.37500000  0.88633898  1
  Zr  Zr189  1  0.40741734  0.87500000  0.21967232  1
  Zr  Zr190  1  0.40741734  0.87500000  0.55300565  1
  Zr  Zr191  1  0.40741734  0.87500000  0.88633898  1
  Zr  Zr192  1  0.74075067  0.37500000  0.21967232  1
  Zr  Zr193  1  0.74075067  0.37500000  0.55300565  1
  Zr  Zr194  1  0.74075067  0.37500000  0.88633898  1
  Zr  Zr195  1  0.74075067  0.87500000  0.21967232  1
  Zr  Zr196  1  0.74075067  0.87500000  0.55300565  1
  Zr  Zr197  1  0.74075067  0.87500000  0.88633898  1
  Zr  Zr198  1  0.24075067  0.37500000  0.28032768  1
  Zr  Zr199  1  0.24075067  0.37500000  0.61366102  1
  Zr  Zr200  1  0.24075067  0.37500000  0.94699435  1
  Zr  Zr201  1  0.24075067  0.87500000  0.28032768  1
  Zr  Zr202  1  0.24075067  0.87500000  0.61366102  1
  Zr  Zr203  1  0.24075067  0.87500000  0.94699435  1
  Zr  Zr204  1  0.57408401  0.37500000  0.28032768  1
  Zr  Zr205  1  0.57408401  0.37500000  0.61366102  1
  Zr  Zr206  1  0.57408401  0.37500000  0.94699435  1
  Zr  Zr207  1  0.57408401  0.87500000  0.28032768  1
  Zr  Zr208  1  0.57408401  0.87500000  0.61366102  1
  Zr  Zr209  1  0.57408401  0.87500000  0.94699435  1
  Zr  Zr210  1  0.90741734  0.37500000  0.28032768  1
  Zr  Zr211  1  0.90741734  0.37500000  0.61366102  1
  Zr  Zr212  1  0.90741734  0.37500000  0.94699435  1
  Zr  Zr213  1  0.90741734  0.87500000  0.28032768  1
  Zr  Zr214  1  0.90741734  0.87500000  0.61366102  1
  Zr  Zr215  1  0.90741734  0.87500000  0.94699435  1
  O  O216  1  0.32823578  0.31102431  0.25670582  1
  O  O217  1  0.32823578  0.31102431  0.59003915  1
  O  O218  1  0.32823578  0.31102431  0.92337248  1
  O  O219  1  0.32823578  0.81102431  0.25670582  1
  O  O220  1  0.32823578  0.81102431  0.59003915  1
  O  O221  1  0.32823578  0.81102431  0.92337248  1
  O  O222  1  0.66156911  0.31102431  0.25670582  1
  O  O223  1  0.66156911  0.31102431  0.59003915  1
  O  O224  1  0.66156911  0.31102431  0.92337248  1
  O  O225  1  0.66156911  0.81102431  0.25670582  1
  O  O226  1  0.66156911  0.81102431  0.59003915  1
  O  O227  1  0.66156911  0.81102431  0.92337248  1
  O  O228  1  0.99490245  0.31102431  0.25670582  1
  O  O229  1  0.99490245  0.31102431  0.59003915  1
  O  O230  1  0.99490245  0.31102431  0.92337248  1
  O  O231  1  0.99490245  0.81102431  0.25670582  1
  O  O232  1  0.99490245  0.81102431  0.59003915  1
  O  O233  1  0.99490245  0.81102431  0.92337248  1
  O  O234  1  0.16156911  0.43897569  0.24329418  1
  O  O235  1  0.16156911  0.43897569  0.57662752  1
  O  O236  1  0.16156911  0.43897569  0.90996085  1
  O  O237  1  0.16156911  0.93897569  0.24329418  1
  O  O238  1  0.16156911  0.93897569  0.57662752  1
  O  O239  1  0.16156911  0.93897569  0.90996085  1
  O  O240  1  0.49490245  0.43897569  0.24329418  1
  O  O241  1  0.49490245  0.43897569  0.57662752  1
  O  O242  1  0.49490245  0.43897569  0.90996085  1
  O  O243  1  0.49490245  0.93897569  0.24329418  1
  O  O244  1  0.49490245  0.93897569  0.57662752  1
  O  O245  1  0.49490245  0.93897569  0.90996085  1
  O  O246  1  0.82823578  0.43897569  0.24329418  1
  O  O247  1  0.82823578  0.43897569  0.57662752  1
  O  O248  1  0.82823578  0.43897569  0.90996085  1
  O  O249  1  0.82823578  0.93897569  0.24329418  1
  O  O250  1  0.82823578  0.93897569  0.57662752  1
  O  O251  1  0.82823578  0.93897569  0.90996085  1
  O  O252  1  0.17176422  0.18897569  0.09003915  1
  O  O253  1  0.17176422  0.18897569  0.42337248  1
  O  O254  1  0.17176422  0.18897569  0.75670582  1
  O  O255  1  0.17176422  0.68897569  0.09003915  1
  O  O256  1  0.17176422  0.68897569  0.42337248  1
  O  O257  1  0.17176422  0.68897569  0.75670582  1
  O  O258  1  0.50509755  0.18897569  0.09003915  1
  O  O259  1  0.50509755  0.18897569  0.42337248  1
  O  O260  1  0.50509755  0.18897569  0.75670582  1
  O  O261  1  0.50509755  0.68897569  0.09003915  1
  O  O262  1  0.50509755  0.68897569  0.42337248  1
  O  O263  1  0.50509755  0.68897569  0.75670582  1
  O  O264  1  0.83843089  0.18897569  0.09003915  1
  O  O265  1  0.83843089  0.18897569  0.42337248  1
  O  O266  1  0.83843089  0.18897569  0.75670582  1
  O  O267  1  0.83843089  0.68897569  0.09003915  1
  O  O268  1  0.83843089  0.68897569  0.42337248  1
  O  O269  1  0.83843089  0.68897569  0.75670582  1
  O  O270  1  0.00509755  0.06102431  0.07662752  1
  O  O271  1  0.00509755  0.06102431  0.40996085  1
  O  O272  1  0.00509755  0.06102431  0.74329418  1
  O  O273  1  0.00509755  0.56102431  0.07662752  1
  O  O274  1  0.00509755  0.56102431  0.40996085  1
  O  O275  1  0.00509755  0.56102431  0.74329418  1
  O  O276  1  0.33843089  0.06102431  0.07662752  1
  O  O277  1  0.33843089  0.06102431  0.40996085  1
  O  O278  1  0.33843089  0.06102431  0.74329418  1
  O  O279  1  0.33843089  0.56102431  0.07662752  1
  O  O280  1  0.33843089  0.56102431  0.40996085  1
  O  O281  1  0.33843089  0.56102431  0.74329418  1
  O  O282  1  0.67176422  0.06102431  0.07662752  1
  O  O283  1  0.67176422  0.06102431  0.40996085  1
  O  O284  1  0.67176422  0.06102431  0.74329418  1
  O  O285  1  0.67176422  0.56102431  0.07662752  1
  O  O286  1  0.67176422  0.56102431  0.40996085  1
  O  O287  1  0.67176422  0.56102431  0.74329418  1
  O  O288  1  0.00509755  0.18897569  0.07662752  1
  O  O289  1  0.00509755  0.18897569  0.40996085  1
  O  O290  1  0.00509755  0.18897569  0.74329418  1
  O  O291  1  0.00509755  0.68897569  0.07662752  1
  O  O292  1  0.00509755  0.68897569  0.40996085  1
  O  O293  1  0.00509755  0.68897569  0.74329418  1
  O  O294  1  0.33843089  0.18897569  0.07662752  1
  O  O295  1  0.33843089  0.18897569  0.40996085  1
  O  O296  1  0.33843089  0.18897569  0.74329418  1
  O  O297  1  0.33843089  0.68897569  0.07662752  1
  O  O298  1  0.33843089  0.68897569  0.40996085  1
  O  O299  1  0.33843089  0.68897569  0.74329418  1
  O  O300  1  0.67176422  0.18897569  0.07662752  1
  O  O301  1  0.67176422  0.18897569  0.40996085  1
  O  O302  1  0.67176422  0.18897569  0.74329418  1
  O  O303  1  0.67176422  0.68897569  0.07662752  1
  O  O304  1  0.67176422  0.68897569  0.40996085  1
  O  O305  1  0.67176422  0.68897569  0.74329418  1
  O  O306  1  0.17176422  0.06102431  0.09003915  1
  O  O307  1  0.17176422  0.06102431  0.42337248  1
  O  O308  1  0.17176422  0.06102431  0.75670582  1
  O  O309  1  0.17176422  0.56102431  0.09003915  1
  O  O310  1  0.17176422  0.56102431  0.42337248  1
  O  O311  1  0.17176422  0.56102431  0.75670582  1
  O  O312  1  0.50509755  0.06102431  0.09003915  1
  O  O313  1  0.50509755  0.06102431  0.42337248  1
  O  O314  1  0.50509755  0.06102431  0.75670582  1
  O  O315  1  0.50509755  0.56102431  0.09003915  1
  O  O316  1  0.50509755  0.56102431  0.42337248  1
  O  O317  1  0.50509755  0.56102431  0.75670582  1
  O  O318  1  0.83843089  0.06102431  0.09003915  1
  O  O319  1  0.83843089  0.06102431  0.42337248  1
  O  O320  1  0.83843089  0.06102431  0.75670582  1
  O  O321  1  0.83843089  0.56102431  0.09003915  1
  O  O322  1  0.83843089  0.56102431  0.42337248  1
  O  O323  1  0.83843089  0.56102431  0.75670582  1
  O  O324  1  0.16156911  0.31102431  0.24329418  1
  O  O325  1  0.16156911  0.31102431  0.57662752  1
  O  O326  1  0.16156911  0.31102431  0.90996085  1
  O  O327  1  0.16156911  0.81102431  0.24329418  1
  O  O328  1  0.16156911  0.81102431  0.57662752  1
  O  O329  1  0.16156911  0.81102431  0.90996085  1
  O  O330  1  0.49490245  0.31102431  0.24329418  1
  O  O331  1  0.49490245  0.31102431  0.57662752  1
  O  O332  1  0.49490245  0.31102431  0.90996085  1
  O  O333  1  0.49490245  0.81102431  0.24329418  1
  O  O334  1  0.49490245  0.81102431  0.57662752  1
  O  O335  1  0.49490245  0.81102431  0.90996085  1
  O  O336  1  0.82823578  0.31102431  0.24329418  1
  O  O337  1  0.82823578  0.31102431  0.57662752  1
  O  O338  1  0.82823578  0.31102431  0.90996085  1
  O  O339  1  0.82823578  0.81102431  0.24329418  1
  O  O340  1  0.82823578  0.81102431  0.57662752  1
  O  O341  1  0.82823578  0.81102431  0.90996085  1
  O  O342  1  0.32823578  0.43897569  0.25670582  1
  O  O343  1  0.32823578  0.43897569  0.59003915  1
  O  O344  1  0.32823578  0.43897569  0.92337248  1
  O  O345  1  0.32823578  0.93897569  0.25670582  1
  O  O346  1  0.32823578  0.93897569  0.59003915  1
  O  O347  1  0.32823578  0.93897569  0.92337248  1
  O  O348  1  0.66156911  0.43897569  0.25670582  1
  O  O349  1  0.66156911  0.43897569  0.59003915  1
  O  O350  1  0.66156911  0.43897569  0.92337248  1
  O  O351  1  0.66156911  0.93897569  0.25670582  1
  O  O352  1  0.66156911  0.93897569  0.59003915  1
  O  O353  1  0.66156911  0.93897569  0.92337248  1
  O  O354  1  0.99490245  0.43897569  0.25670582  1
  O  O355  1  0.99490245  0.43897569  0.59003915  1
  O  O356  1  0.99490245  0.43897569  0.92337248  1
  O  O357  1  0.99490245  0.93897569  0.25670582  1
  O  O358  1  0.99490245  0.93897569  0.59003915  1
  O  O359  1  0.99490245  0.93897569  0.92337248  1
  O  O360  1  0.05308122  0.37500000  0.13032741  1
  O  O361  1  0.05308122  0.37500000  0.46366074  1
  O  O362  1  0.05308122  0.37500000  0.79699407  1
  O  O363  1  0.05308122  0.87500000  0.13032741  1
  O  O364  1  0.05308122  0.87500000  0.46366074  1
  O  O365  1  0.05308122  0.87500000  0.79699407  1
  O  O366  1  0.38641456  0.37500000  0.13032741  1
  O  O367  1  0.38641456  0.37500000  0.46366074  1
  O  O368  1  0.38641456  0.37500000  0.79699407  1
  O  O369  1  0.38641456  0.87500000  0.13032741  1
  O  O370  1  0.38641456  0.87500000  0.46366074  1
  O  O371  1  0.38641456  0.87500000  0.79699407  1
  O  O372  1  0.71974789  0.37500000  0.13032741  1
  O  O373  1  0.71974789  0.37500000  0.46366074  1
  O  O374  1  0.71974789  0.37500000  0.79699407  1
  O  O375  1  0.71974789  0.87500000  0.13032741  1
  O  O376  1  0.71974789  0.87500000  0.46366074  1
  O  O377  1  0.71974789  0.87500000  0.79699407  1
  O  O378  1  0.28025211  0.12500000  0.20300593  1
  O  O379  1  0.28025211  0.12500000  0.53633926  1
  O  O380  1  0.28025211  0.12500000  0.86967259  1
  O  O381  1  0.28025211  0.62500000  0.20300593  1
  O  O382  1  0.28025211  0.62500000  0.53633926  1
  O  O383  1  0.28025211  0.62500000  0.86967259  1
  O  O384  1  0.61358544  0.12500000  0.20300593  1
  O  O385  1  0.61358544  0.12500000  0.53633926  1
  O  O386  1  0.61358544  0.12500000  0.86967259  1
  O  O387  1  0.61358544  0.62500000  0.20300593  1
  O  O388  1  0.61358544  0.62500000  0.53633926  1
  O  O389  1  0.61358544  0.62500000  0.86967259  1
  O  O390  1  0.94691878  0.12500000  0.20300593  1
  O  O391  1  0.94691878  0.12500000  0.53633926  1
  O  O392  1  0.94691878  0.12500000  0.86967259  1
  O  O393  1  0.94691878  0.62500000  0.20300593  1
  O  O394  1  0.94691878  0.62500000  0.53633926  1
  O  O395  1  0.94691878  0.62500000  0.86967259  1
  O  O396  1  0.11358544  0.12500000  0.29699407  1
  O  O397  1  0.11358544  0.12500000  0.63032741  1
  O  O398  1  0.11358544  0.12500000  0.96366074  1
  O  O399  1  0.11358544  0.62500000  0.29699407  1
  O  O400  1  0.11358544  0.62500000  0.63032741  1
  O  O401  1  0.11358544  0.62500000  0.96366074  1
  O  O402  1  0.44691878  0.12500000  0.29699407  1
  O  O403  1  0.44691878  0.12500000  0.63032741  1
  O  O404  1  0.44691878  0.12500000  0.96366074  1
  O  O405  1  0.44691878  0.62500000  0.29699407  1
  O  O406  1  0.44691878  0.62500000  0.63032741  1
  O  O407  1  0.44691878  0.62500000  0.96366074  1
  O  O408  1  0.78025211  0.12500000  0.29699407  1
  O  O409  1  0.78025211  0.12500000  0.63032741  1
  O  O410  1  0.78025211  0.12500000  0.96366074  1
  O  O411  1  0.78025211  0.62500000  0.29699407  1
  O  O412  1  0.78025211  0.62500000  0.63032741  1
  O  O413  1  0.78025211  0.62500000  0.96366074  1
  O  O414  1  0.21974789  0.37500000  0.03633926  1
  O  O415  1  0.21974789  0.37500000  0.36967259  1
  O  O416  1  0.21974789  0.37500000  0.70300593  1
  O  O417  1  0.21974789  0.87500000  0.03633926  1
  O  O418  1  0.21974789  0.87500000  0.36967259  1
  O  O419  1  0.21974789  0.87500000  0.70300593  1
  O  O420  1  0.55308122  0.37500000  0.03633926  1
  O  O421  1  0.55308122  0.37500000  0.36967259  1
  O  O422  1  0.55308122  0.37500000  0.70300593  1
  O  O423  1  0.55308122  0.87500000  0.03633926  1
  O  O424  1  0.55308122  0.87500000  0.36967259  1
  O  O425  1  0.55308122  0.87500000  0.70300593  1
  O  O426  1  0.88641456  0.37500000  0.03633926  1
  O  O427  1  0.88641456  0.37500000  0.36967259  1
  O  O428  1  0.88641456  0.37500000  0.70300593  1
  O  O429  1  0.88641456  0.87500000  0.03633926  1
  O  O430  1  0.88641456  0.87500000  0.36967259  1
  O  O431  1  0.88641456  0.87500000  0.70300593  1
