# generated using pymatgen
data_Al4Bi2O9
_symmetry_space_group_name_H-M   'P 1'
_cell_length_a   15.35650881
_cell_length_b   16.32213421
_cell_length_c   17.12846312
_cell_angle_alpha   90.00000000
_cell_angle_beta   90.00000000
_cell_angle_gamma   90.00000000
_symmetry_Int_Tables_number   1
_chemical_formula_structural   Al4Bi2O9
_chemical_formula_sum   'Al96 Bi48 O216'
_cell_volume   4293.26637144
_cell_formula_units_Z   24
loop_
 _symmetry_equiv_pos_site_id
 _symmetry_equiv_pos_as_xyz
  1  'x, y, z'
loop_
 _atom_site_type_symbol
 _atom_site_label
 _atom_site_symmetry_multiplicity
 _atom_site_fract_x
 _atom_site_fract_y
 _atom_site_fract_z
 _atom_site_occupancy
  Al  Al0  1  0.07382363  0.41868634  0.16666667  1
  Al  Al1  1  0.07382363  0.41868634  0.50000000  1
  Al  Al2  1  0.07382363  0.41868634  0.83333333  1
  Al  Al3  1  0.07382363  0.91868634  0.16666667  1
  Al  Al4  1  0.07382363  0.91868634  0.50000000  1
  Al  Al5  1  0.07382363  0.91868634  0.83333333  1
  Al  Al6  1  0.57382363  0.41868634  0.16666667  1
  Al  Al7  1  0.57382363  0.41868634  0.50000000  1
  Al  Al8  1  0.57382363  0.41868634  0.83333333  1
  Al  Al9  1  0.57382363  0.91868634  0.16666667  1
  Al  Al10  1  0.57382363  0.91868634  0.50000000  1
  Al  Al11  1  0.57382363  0.91868634  0.83333333  1
  Al  Al12  1  0.42617637  0.08131366  0.16666667  1
  Al  Al13  1  0.42617637  0.08131366  0.50000000  1
  Al  Al14  1  0.42617637  0.08131366  0.83333333  1
  Al  Al15  1  0.42617637  0.58131366  0.16666667  1
  Al  Al16  1  0.42617637  0.58131366  0.50000000  1
  Al  Al17  1  0.42617637  0.58131366  0.83333333  1
  Al  Al18  1  0.92617637  0.08131366  0.16666667  1
  Al  Al19  1  0.92617637  0.08131366  0.50000000  1
  Al  Al20  1  0.92617637  0.08131366  0.83333333  1
  Al  Al21  1  0.92617637  0.58131366  0.16666667  1
  Al  Al22  1  0.92617637  0.58131366  0.50000000  1
  Al  Al23  1  0.92617637  0.58131366  0.83333333  1
  Al  Al24  1  0.32382363  0.33131366  0.16666667  1
  Al  Al25  1  0.32382363  0.33131366  0.50000000  1
  Al  Al26  1  0.32382363  0.33131366  0.83333333  1
  Al  Al27  1  0.32382363  0.83131366  0.16666667  1
  Al  Al28  1  0.32382363  0.83131366  0.50000000  1
  Al  Al29  1  0.32382363  0.83131366  0.83333333  1
  Al  Al30  1  0.82382363  0.33131366  0.16666667  1
  Al  Al31  1  0.82382363  0.33131366  0.50000000  1
  Al  Al32  1  0.82382363  0.33131366  0.83333333  1
  Al  Al33  1  0.82382363  0.83131366  0.16666667  1
  Al  Al34  1  0.82382363  0.83131366  0.50000000  1
  Al  Al35  1  0.82382363  0.83131366  0.83333333  1
  Al  Al36  1  0.17617637  0.16868634  0.16666667  1
  Al  Al37  1  0.17617637  0.16868634  0.50000000  1
  Al  Al38  1  0.17617637  0.16868634  0.83333333  1
  Al  Al39  1  0.17617637  0.66868634  0.16666667  1
  Al  Al40  1  0.17617637  0.66868634  0.50000000  1
  Al  Al41  1  0.17617637  0.66868634  0.83333333  1
  Al  Al42  1  0.67617637  0.16868634  0.16666667  1
  Al  Al43  1  0.67617637  0.16868634  0.50000000  1
  Al  Al44  1  0.67617637  0.16868634  0.83333333  1
  Al  Al45  1  0.67617637  0.66868634  0.16666667  1
  Al  Al46  1  0.67617637  0.66868634  0.50000000  1
  Al  Al47  1  0.67617637  0.66868634  0.83333333  1
  Al  Al48  1  0.00000000  0.25000000  0.08665268  1
  Al  Al49  1  0.00000000  0.25000000  0.41998602  1
  Al  Al50  1  0.00000000  0.25000000  0.75331935  1
  Al  Al51  1  0.00000000  0.75000000  0.08665268  1
  Al  Al52  1  0.00000000  0.75000000  0.41998602  1
  Al  Al53  1  0.00000000  0.75000000  0.75331935  1
  Al  Al54  1  0.50000000  0.25000000  0.08665268  1
  Al  Al55  1  0.50000000  0.25000000  0.41998602  1
  Al  Al56  1  0.50000000  0.25000000  0.75331935  1
  Al  Al57  1  0.50000000  0.75000000  0.08665268  1
  Al  Al58  1  0.50000000  0.75000000  0.41998602  1
  Al  Al59  1  0.50000000  0.75000000  0.75331935  1
  Al  Al60  1  0.25000000  0.00000000  0.24668065  1
  Al  Al61  1  0.25000000  0.00000000  0.58001398  1
  Al  Al62  1  0.25000000  0.00000000  0.91334732  1
  Al  Al63  1  0.25000000  0.50000000  0.24668065  1
  Al  Al64  1  0.25000000  0.50000000  0.58001398  1
  Al  Al65  1  0.25000000  0.50000000  0.91334732  1
  Al  Al66  1  0.75000000  0.00000000  0.24668065  1
  Al  Al67  1  0.75000000  0.00000000  0.58001398  1
  Al  Al68  1  0.75000000  0.00000000  0.91334732  1
  Al  Al69  1  0.75000000  0.50000000  0.24668065  1
  Al  Al70  1  0.75000000  0.50000000  0.58001398  1
  Al  Al71  1  0.75000000  0.50000000  0.91334732  1
  Al  Al72  1  0.00000000  0.25000000  0.24668065  1
  Al  Al73  1  0.00000000  0.25000000  0.58001398  1
  Al  Al74  1  0.00000000  0.25000000  0.91334732  1
  Al  Al75  1  0.00000000  0.75000000  0.24668065  1
  Al  Al76  1  0.00000000  0.75000000  0.58001398  1
  Al  Al77  1  0.00000000  0.75000000  0.91334732  1
  Al  Al78  1  0.50000000  0.25000000  0.24668065  1
  Al  Al79  1  0.50000000  0.25000000  0.58001398  1
  Al  Al80  1  0.50000000  0.25000000  0.91334732  1
  Al  Al81  1  0.50000000  0.75000000  0.24668065  1
  Al  Al82  1  0.50000000  0.75000000  0.58001398  1
  Al  Al83  1  0.50000000  0.75000000  0.91334732  1
  Al  Al84  1  0.25000000  0.00000000  0.08665268  1
  Al  Al85  1  0.25000000  0.00000000  0.41998602  1
  Al  Al86  1  0.25000000  0.00000000  0.75331935  1
  Al  Al87  1  0.25000000  0.50000000  0.08665268  1
  Al  Al88  1  0.25000000  0.50000000  0.41998602  1
  Al  Al89  1  0.25000000  0.50000000  0.75331935  1
  Al  Al90  1  0.75000000  0.00000000  0.08665268  1
  Al  Al91  1  0.75000000  0.00000000  0.41998602  1
  Al  Al92  1  0.75000000  0.00000000  0.75331935  1
  Al  Al93  1  0.75000000  0.50000000  0.08665268  1
  Al  Al94  1  0.75000000  0.50000000  0.41998602  1
  Al  Al95  1  0.75000000  0.50000000  0.75331935  1
  Bi  Bi96  1  0.16722271  0.33368818  0.00000000  1
  Bi  Bi97  1  0.16722271  0.33368818  0.33333333  1
  Bi  Bi98  1  0.16722271  0.33368818  0.66666667  1
  Bi  Bi99  1  0.16722271  0.83368818  0.00000000  1
  Bi  Bi100  1  0.16722271  0.83368818  0.33333333  1
  Bi  Bi101  1  0.16722271  0.83368818  0.66666667  1
  Bi  Bi102  1  0.66722271  0.33368818  0.00000000  1
  Bi  Bi103  1  0.66722271  0.33368818  0.33333333  1
  Bi  Bi104  1  0.66722271  0.33368818  0.66666667  1
  Bi  Bi105  1  0.66722271  0.83368818  0.00000000  1
  Bi  Bi106  1  0.66722271  0.83368818  0.33333333  1
  Bi  Bi107  1  0.66722271  0.83368818  0.66666667  1
  Bi  Bi108  1  0.33277729  0.16631182  0.00000000  1
  Bi  Bi109  1  0.33277729  0.16631182  0.33333333  1
  Bi  Bi110  1  0.33277729  0.16631182  0.66666667  1
  Bi  Bi111  1  0.33277729  0.66631182  0.00000000  1
  Bi  Bi112  1  0.33277729  0.66631182  0.33333333  1
  Bi  Bi113  1  0.33277729  0.66631182  0.66666667  1
  Bi  Bi114  1  0.83277729  0.16631182  0.00000000  1
  Bi  Bi115  1  0.83277729  0.16631182  0.33333333  1
  Bi  Bi116  1  0.83277729  0.16631182  0.66666667  1
  Bi  Bi117  1  0.83277729  0.66631182  0.00000000  1
  Bi  Bi118  1  0.83277729  0.66631182  0.33333333  1
  Bi  Bi119  1  0.83277729  0.66631182  0.66666667  1
  Bi  Bi120  1  0.41722271  0.41631182  0.00000000  1
  Bi  Bi121  1  0.41722271  0.41631182  0.33333333  1
  Bi  Bi122  1  0.41722271  0.41631182  0.66666667  1
  Bi  Bi123  1  0.41722271  0.91631182  0.00000000  1
  Bi  Bi124  1  0.41722271  0.91631182  0.33333333  1
  Bi  Bi125  1  0.41722271  0.91631182  0.66666667  1
  Bi  Bi126  1  0.91722271  0.41631182  0.00000000  1
  Bi  Bi127  1  0.91722271  0.41631182  0.33333333  1
  Bi  Bi128  1  0.91722271  0.41631182  0.66666667  1
  Bi  Bi129  1  0.91722271  0.91631182  0.00000000  1
  Bi  Bi130  1  0.91722271  0.91631182  0.33333333  1
  Bi  Bi131  1  0.91722271  0.91631182  0.66666667  1
  Bi  Bi132  1  0.08277729  0.08368818  0.00000000  1
  Bi  Bi133  1  0.08277729  0.08368818  0.33333333  1
  Bi  Bi134  1  0.08277729  0.08368818  0.66666667  1
  Bi  Bi135  1  0.08277729  0.58368818  0.00000000  1
  Bi  Bi136  1  0.08277729  0.58368818  0.33333333  1
  Bi  Bi137  1  0.08277729  0.58368818  0.66666667  1
  Bi  Bi138  1  0.58277729  0.08368818  0.00000000  1
  Bi  Bi139  1  0.58277729  0.08368818  0.33333333  1
  Bi  Bi140  1  0.58277729  0.08368818  0.66666667  1
  Bi  Bi141  1  0.58277729  0.58368818  0.00000000  1
  Bi  Bi142  1  0.58277729  0.58368818  0.33333333  1
  Bi  Bi143  1  0.58277729  0.58368818  0.66666667  1
  O  O144  1  0.17712227  0.46710640  0.00000000  1
  O  O145  1  0.17712227  0.46710640  0.33333333  1
  O  O146  1  0.17712227  0.46710640  0.66666667  1
  O  O147  1  0.17712227  0.96710640  0.00000000  1
  O  O148  1  0.17712227  0.96710640  0.33333333  1
  O  O149  1  0.17712227  0.96710640  0.66666667  1
  O  O150  1  0.67712227  0.46710640  0.00000000  1
  O  O151  1  0.67712227  0.46710640  0.33333333  1
  O  O152  1  0.67712227  0.46710640  0.66666667  1
  O  O153  1  0.67712227  0.96710640  0.00000000  1
  O  O154  1  0.67712227  0.96710640  0.33333333  1
  O  O155  1  0.67712227  0.96710640  0.66666667  1
  O  O156  1  0.32287773  0.03289360  0.00000000  1
  O  O157  1  0.32287773  0.03289360  0.33333333  1
  O  O158  1  0.32287773  0.03289360  0.66666667  1
  O  O159  1  0.32287773  0.53289360  0.00000000  1
  O  O160  1  0.32287773  0.53289360  0.33333333  1
  O  O161  1  0.32287773  0.53289360  0.66666667  1
  O  O162  1  0.82287773  0.03289360  0.00000000  1
  O  O163  1  0.82287773  0.03289360  0.33333333  1
  O  O164  1  0.82287773  0.03289360  0.66666667  1
  O  O165  1  0.82287773  0.53289360  0.00000000  1
  O  O166  1  0.82287773  0.53289360  0.33333333  1
  O  O167  1  0.82287773  0.53289360  0.66666667  1
  O  O168  1  0.42712227  0.28289360  0.00000000  1
  O  O169  1  0.42712227  0.28289360  0.33333333  1
  O  O170  1  0.42712227  0.28289360  0.66666667  1
  O  O171  1  0.42712227  0.78289360  0.00000000  1
  O  O172  1  0.42712227  0.78289360  0.33333333  1
  O  O173  1  0.42712227  0.78289360  0.66666667  1
  O  O174  1  0.92712227  0.28289360  0.00000000  1
  O  O175  1  0.92712227  0.28289360  0.33333333  1
  O  O176  1  0.92712227  0.28289360  0.66666667  1
  O  O177  1  0.92712227  0.78289360  0.00000000  1
  O  O178  1  0.92712227  0.78289360  0.33333333  1
  O  O179  1  0.92712227  0.78289360  0.66666667  1
  O  O180  1  0.07287773  0.21710640  0.00000000  1
  O  O181  1  0.07287773  0.21710640  0.33333333  1
  O  O182  1  0.07287773  0.21710640  0.66666667  1
  O  O183  1  0.07287773  0.71710640  0.00000000  1
  O  O184  1  0.07287773  0.71710640  0.33333333  1
  O  O185  1  0.07287773  0.71710640  0.66666667  1
  O  O186  1  0.57287773  0.21710640  0.00000000  1
  O  O187  1  0.57287773  0.21710640  0.33333333  1
  O  O188  1  0.57287773  0.21710640  0.66666667  1
  O  O189  1  0.57287773  0.71710640  0.00000000  1
  O  O190  1  0.57287773  0.71710640  0.33333333  1
  O  O191  1  0.57287773  0.71710640  0.66666667  1
  O  O192  1  0.18122907  0.45653468  0.16666667  1
  O  O193  1  0.18122907  0.45653468  0.50000000  1
  O  O194  1  0.18122907  0.45653468  0.83333333  1
  O  O195  1  0.18122907  0.95653468  0.16666667  1
  O  O196  1  0.18122907  0.95653468  0.50000000  1
  O  O197  1  0.18122907  0.95653468  0.83333333  1
  O  O198  1  0.68122907  0.45653468  0.16666667  1
  O  O199  1  0.68122907  0.45653468  0.50000000  1
  O  O200  1  0.68122907  0.45653468  0.83333333  1
  O  O201  1  0.68122907  0.95653468  0.16666667  1
  O  O202  1  0.68122907  0.95653468  0.50000000  1
  O  O203  1  0.68122907  0.95653468  0.83333333  1
  O  O204  1  0.31877093  0.04346532  0.16666667  1
  O  O205  1  0.31877093  0.04346532  0.50000000  1
  O  O206  1  0.31877093  0.04346532  0.83333333  1
  O  O207  1  0.31877093  0.54346532  0.16666667  1
  O  O208  1  0.31877093  0.54346532  0.50000000  1
  O  O209  1  0.31877093  0.54346532  0.83333333  1
  O  O210  1  0.81877093  0.04346532  0.16666667  1
  O  O211  1  0.81877093  0.04346532  0.50000000  1
  O  O212  1  0.81877093  0.04346532  0.83333333  1
  O  O213  1  0.81877093  0.54346532  0.16666667  1
  O  O214  1  0.81877093  0.54346532  0.50000000  1
  O  O215  1  0.81877093  0.54346532  0.83333333  1
  O  O216  1  0.43122907  0.29346532  0.16666667  1
  O  O217  1  0.43122907  0.29346532  0.50000000  1
  O  O218  1  0.43122907  0.29346532  0.83333333  1
  O  O219  1  0.43122907  0.79346532  0.16666667  1
  O  O220  1  0.43122907  0.79346532  0.50000000  1
  O  O221  1  0.43122907  0.79346532  0.83333333  1
  O  O222  1  0.93122907  0.29346532  0.16666667  1
  O  O223  1  0.93122907  0.29346532  0.50000000  1
  O  O224  1  0.93122907  0.29346532  0.83333333  1
  O  O225  1  0.93122907  0.79346532  0.16666667  1
  O  O226  1  0.93122907  0.79346532  0.50000000  1
  O  O227  1  0.93122907  0.79346532  0.83333333  1
  O  O228  1  0.06877093  0.20653468  0.16666667  1
  O  O229  1  0.06877093  0.20653468  0.50000000  1
  O  O230  1  0.06877093  0.20653468  0.83333333  1
  O  O231  1  0.06877093  0.70653468  0.16666667  1
  O  O232  1  0.06877093  0.70653468  0.50000000  1
  O  O233  1  0.06877093  0.70653468  0.83333333  1
  O  O234  1  0.56877093  0.20653468  0.16666667  1
  O  O235  1  0.56877093  0.20653468  0.50000000  1
  O  O236  1  0.56877093  0.20653468  0.83333333  1
  O  O237  1  0.56877093  0.70653468  0.16666667  1
  O  O238  1  0.56877093  0.70653468  0.50000000  1
  O  O239  1  0.56877093  0.70653468  0.83333333  1
  O  O240  1  0.43784411  0.14656371  0.08315275  1
  O  O241  1  0.43784411  0.14656371  0.41648608  1
  O  O242  1  0.43784411  0.14656371  0.74981941  1
  O  O243  1  0.43784411  0.64656371  0.08315275  1
  O  O244  1  0.43784411  0.64656371  0.41648608  1
  O  O245  1  0.43784411  0.64656371  0.74981941  1
  O  O246  1  0.93784411  0.14656371  0.08315275  1
  O  O247  1  0.93784411  0.14656371  0.41648608  1
  O  O248  1  0.93784411  0.14656371  0.74981941  1
  O  O249  1  0.93784411  0.64656371  0.08315275  1
  O  O250  1  0.93784411  0.64656371  0.41648608  1
  O  O251  1  0.93784411  0.64656371  0.74981941  1
  O  O252  1  0.06215589  0.35343629  0.08315275  1
  O  O253  1  0.06215589  0.35343629  0.41648608  1
  O  O254  1  0.06215589  0.35343629  0.74981941  1
  O  O255  1  0.06215589  0.85343629  0.08315275  1
  O  O256  1  0.06215589  0.85343629  0.41648608  1
  O  O257  1  0.06215589  0.85343629  0.74981941  1
  O  O258  1  0.56215589  0.35343629  0.08315275  1
  O  O259  1  0.56215589  0.35343629  0.41648608  1
  O  O260  1  0.56215589  0.35343629  0.74981941  1
  O  O261  1  0.56215589  0.85343629  0.08315275  1
  O  O262  1  0.56215589  0.85343629  0.41648608  1
  O  O263  1  0.56215589  0.85343629  0.74981941  1
  O  O264  1  0.18784411  0.10343629  0.25018059  1
  O  O265  1  0.18784411  0.10343629  0.58351392  1
  O  O266  1  0.18784411  0.10343629  0.91684725  1
  O  O267  1  0.18784411  0.60343629  0.25018059  1
  O  O268  1  0.18784411  0.60343629  0.58351392  1
  O  O269  1  0.18784411  0.60343629  0.91684725  1
  O  O270  1  0.68784411  0.10343629  0.25018059  1
  O  O271  1  0.68784411  0.10343629  0.58351392  1
  O  O272  1  0.68784411  0.10343629  0.91684725  1
  O  O273  1  0.68784411  0.60343629  0.25018059  1
  O  O274  1  0.68784411  0.60343629  0.58351392  1
  O  O275  1  0.68784411  0.60343629  0.91684725  1
  O  O276  1  0.31215589  0.39656371  0.25018059  1
  O  O277  1  0.31215589  0.39656371  0.58351392  1
  O  O278  1  0.31215589  0.39656371  0.91684725  1
  O  O279  1  0.31215589  0.89656371  0.25018059  1
  O  O280  1  0.31215589  0.89656371  0.58351392  1
  O  O281  1  0.31215589  0.89656371  0.91684725  1
  O  O282  1  0.81215589  0.39656371  0.25018059  1
  O  O283  1  0.81215589  0.39656371  0.58351392  1
  O  O284  1  0.81215589  0.39656371  0.91684725  1
  O  O285  1  0.81215589  0.89656371  0.25018059  1
  O  O286  1  0.81215589  0.89656371  0.58351392  1
  O  O287  1  0.81215589  0.89656371  0.91684725  1
  O  O288  1  0.00000000  0.00000000  0.16666667  1
  O  O289  1  0.00000000  0.00000000  0.50000000  1
  O  O290  1  0.00000000  0.00000000  0.83333333  1
  O  O291  1  0.00000000  0.50000000  0.16666667  1
  O  O292  1  0.00000000  0.50000000  0.50000000  1
  O  O293  1  0.00000000  0.50000000  0.83333333  1
  O  O294  1  0.50000000  0.00000000  0.16666667  1
  O  O295  1  0.50000000  0.00000000  0.50000000  1
  O  O296  1  0.50000000  0.00000000  0.83333333  1
  O  O297  1  0.50000000  0.50000000  0.16666667  1
  O  O298  1  0.50000000  0.50000000  0.50000000  1
  O  O299  1  0.50000000  0.50000000  0.83333333  1
  O  O300  1  0.25000000  0.25000000  0.16666667  1
  O  O301  1  0.25000000  0.25000000  0.50000000  1
  O  O302  1  0.25000000  0.25000000  0.83333333  1
  O  O303  1  0.25000000  0.75000000  0.16666667  1
  O  O304  1  0.25000000  0.75000000  0.50000000  1
  O  O305  1  0.25000000  0.75000000  0.83333333  1
  O  O306  1  0.75000000  0.25000000  0.16666667  1
  O  O307  1  0.75000000  0.25000000  0.50000000  1
  O  O308  1  0.75000000  0.25000000  0.83333333  1
  O  O309  1  0.75000000  0.75000000  0.16666667  1
  O  O310  1  0.75000000  0.75000000  0.50000000  1
  O  O311  1  0.75000000  0.75000000  0.83333333  1
  O  O312  1  0.18784411  0.10343629  0.08315275  1
  O  O313  1  0.18784411  0.10343629  0.41648608  1
  O  O314  1  0.18784411  0.10343629  0.74981941  1
  O  O315  1  0.18784411  0.60343629  0.08315275  1
  O  O316  1  0.18784411  0.60343629  0.41648608  1
  O  O317  1  0.18784411  0.60343629  0.74981941  1
  O  O318  1  0.68784411  0.10343629  0.08315275  1
  O  O319  1  0.68784411  0.10343629  0.41648608  1
  O  O320  1  0.68784411  0.10343629  0.74981941  1
  O  O321  1  0.68784411  0.60343629  0.08315275  1
  O  O322  1  0.68784411  0.60343629  0.41648608  1
  O  O323  1  0.68784411  0.60343629  0.74981941  1
  O  O324  1  0.31215589  0.39656371  0.08315275  1
  O  O325  1  0.31215589  0.39656371  0.41648608  1
  O  O326  1  0.31215589  0.39656371  0.74981941  1
  O  O327  1  0.31215589  0.89656371  0.08315275  1
  O  O328  1  0.31215589  0.89656371  0.41648608  1
  O  O329  1  0.31215589  0.89656371  0.74981941  1
  O  O330  1  0.81215589  0.39656371  0.08315275  1
  O  O331  1  0.81215589  0.39656371  0.41648608  1
  O  O332  1  0.81215589  0.39656371  0.74981941  1
  O  O333  1  0.81215589  0.89656371  0.08315275  1
  O  O334  1  0.81215589  0.89656371  0.41648608  1
  O  O335  1  0.81215589  0.89656371  0.74981941  1
  O  O336  1  0.43784411  0.14656371  0.25018059  1
  O  O337  1  0.43784411  0.14656371  0.58351392  1
  O  O338  1  0.43784411  0.14656371  0.91684725  1
  O  O339  1  0.43784411  0.64656371  0.25018059  1
  O  O340  1  0.43784411  0.64656371  0.58351392  1
  O  O341  1  0.43784411  0.64656371  0.91684725  1
  O  O342  1  0.93784411  0.14656371  0.25018059  1
  O  O343  1  0.93784411  0.14656371  0.58351392  1
  O  O344  1  0.93784411  0.14656371  0.91684725  1
  O  O345  1  0.93784411  0.64656371  0.25018059  1
  O  O346  1  0.93784411  0.64656371  0.58351392  1
  O  O347  1  0.93784411  0.64656371  0.91684725  1
  O  O348  1  0.06215589  0.35343629  0.25018059  1
  O  O349  1  0.06215589  0.35343629  0.58351392  1
  O  O350  1  0.06215589  0.35343629  0.91684725  1
  O  O351  1  0.06215589  0.85343629  0.25018059  1
  O  O352  1  0.06215589  0.85343629  0.58351392  1
  O  O353  1  0.06215589  0.85343629  0.91684725  1
  O  O354  1  0.56215589  0.35343629  0.25018059  1
  O  O355  1  0.56215589  0.35343629  0.58351392  1
  O  O356  1  0.56215589  0.35343629  0.91684725  1
  O  O357  1  0.56215589  0.85343629  0.25018059  1
  O  O358  1  0.56215589  0.85343629  0.58351392  1
  O  O359  1  0.56215589  0.85343629  0.91684725  1
