# generated using pymatgen
data_Cs3ScO3
_symmetry_space_group_name_H-M   'P 1'
_cell_length_a   15.94913623
_cell_length_b   14.58309580
_cell_length_c   11.67490143
_cell_angle_alpha   90.00000000
_cell_angle_beta   95.90639650
_cell_angle_gamma   90.00000000
_symmetry_Int_Tables_number   1
_chemical_formula_structural   Cs3ScO3
_chemical_formula_sum   'Cs48 Sc16 O48'
_cell_volume   2701.02406405
_cell_formula_units_Z   16
loop_
 _symmetry_equiv_pos_site_id
 _symmetry_equiv_pos_as_xyz
  1  'x, y, z'
loop_
 _atom_site_type_symbol
 _atom_site_label
 _atom_site_symmetry_multiplicity
 _atom_site_fract_x
 _atom_site_fract_y
 _atom_site_fract_z
 _atom_site_occupancy
  Cs  Cs0  1  0.32534198  0.41883829  0.57490699  1
  Cs  Cs1  1  0.32534198  0.91883829  0.57490699  1
  Cs  Cs2  1  0.82534198  0.41883829  0.57490699  1
  Cs  Cs3  1  0.82534198  0.91883829  0.57490699  1
  Cs  Cs4  1  0.02574490  0.06154058  0.65522898  1
  Cs  Cs5  1  0.02574490  0.56154058  0.65522898  1
  Cs  Cs6  1  0.52574490  0.06154058  0.65522898  1
  Cs  Cs7  1  0.52574490  0.56154058  0.65522898  1
  Cs  Cs8  1  0.31152934  0.16105702  0.69191599  1
  Cs  Cs9  1  0.31152934  0.66105702  0.69191599  1
  Cs  Cs10  1  0.81152934  0.16105702  0.69191599  1
  Cs  Cs11  1  0.81152934  0.66105702  0.69191599  1
  Cs  Cs12  1  0.18847066  0.41105702  0.80808401  1
  Cs  Cs13  1  0.18847066  0.91105702  0.80808401  1
  Cs  Cs14  1  0.68847066  0.41105702  0.80808401  1
  Cs  Cs15  1  0.68847066  0.91105702  0.80808401  1
  Cs  Cs16  1  0.47425510  0.31154058  0.84477102  1
  Cs  Cs17  1  0.47425510  0.81154058  0.84477102  1
  Cs  Cs18  1  0.97425510  0.31154058  0.84477102  1
  Cs  Cs19  1  0.97425510  0.81154058  0.84477102  1
  Cs  Cs20  1  0.17465802  0.16883829  0.92509301  1
  Cs  Cs21  1  0.17465802  0.66883829  0.92509301  1
  Cs  Cs22  1  0.67465802  0.16883829  0.92509301  1
  Cs  Cs23  1  0.67465802  0.66883829  0.92509301  1
  Cs  Cs24  1  0.32534198  0.33116171  0.07490699  1
  Cs  Cs25  1  0.32534198  0.83116171  0.07490699  1
  Cs  Cs26  1  0.82534198  0.33116171  0.07490699  1
  Cs  Cs27  1  0.82534198  0.83116171  0.07490699  1
  Cs  Cs28  1  0.02574490  0.18845942  0.15522898  1
  Cs  Cs29  1  0.02574490  0.68845942  0.15522898  1
  Cs  Cs30  1  0.52574490  0.18845942  0.15522898  1
  Cs  Cs31  1  0.52574490  0.68845942  0.15522898  1
  Cs  Cs32  1  0.31152934  0.08894298  0.19191599  1
  Cs  Cs33  1  0.31152934  0.58894298  0.19191599  1
  Cs  Cs34  1  0.81152934  0.08894298  0.19191599  1
  Cs  Cs35  1  0.81152934  0.58894298  0.19191599  1
  Cs  Cs36  1  0.18847066  0.33894298  0.30808401  1
  Cs  Cs37  1  0.18847066  0.83894298  0.30808401  1
  Cs  Cs38  1  0.68847066  0.33894298  0.30808401  1
  Cs  Cs39  1  0.68847066  0.83894298  0.30808401  1
  Cs  Cs40  1  0.47425510  0.43845942  0.34477102  1
  Cs  Cs41  1  0.47425510  0.93845942  0.34477102  1
  Cs  Cs42  1  0.97425510  0.43845942  0.34477102  1
  Cs  Cs43  1  0.97425510  0.93845942  0.34477102  1
  Cs  Cs44  1  0.17465802  0.08116171  0.42509301  1
  Cs  Cs45  1  0.17465802  0.58116171  0.42509301  1
  Cs  Cs46  1  0.67465802  0.08116171  0.42509301  1
  Cs  Cs47  1  0.67465802  0.58116171  0.42509301  1
  Sc  Sc48  1  0.07517238  0.29162452  0.56694064  1
  Sc  Sc49  1  0.07517238  0.79162452  0.56694064  1
  Sc  Sc50  1  0.57517238  0.29162452  0.56694064  1
  Sc  Sc51  1  0.57517238  0.79162452  0.56694064  1
  Sc  Sc52  1  0.42482762  0.04162452  0.93305936  1
  Sc  Sc53  1  0.42482762  0.54162452  0.93305936  1
  Sc  Sc54  1  0.92482762  0.04162452  0.93305936  1
  Sc  Sc55  1  0.92482762  0.54162452  0.93305936  1
  Sc  Sc56  1  0.07517238  0.45837548  0.06694064  1
  Sc  Sc57  1  0.07517238  0.95837548  0.06694064  1
  Sc  Sc58  1  0.57517238  0.45837548  0.06694064  1
  Sc  Sc59  1  0.57517238  0.95837548  0.06694064  1
  Sc  Sc60  1  0.42482762  0.20837548  0.43305936  1
  Sc  Sc61  1  0.42482762  0.70837548  0.43305936  1
  Sc  Sc62  1  0.92482762  0.20837548  0.43305936  1
  Sc  Sc63  1  0.92482762  0.70837548  0.43305936  1
  O  O64  1  0.11988023  0.41518474  0.54439595  1
  O  O65  1  0.11988023  0.91518474  0.54439595  1
  O  O66  1  0.61988023  0.41518474  0.54439595  1
  O  O67  1  0.61988023  0.91518474  0.54439595  1
  O  O68  1  0.44916777  0.27810337  0.58369205  1
  O  O69  1  0.44916777  0.77810337  0.58369205  1
  O  O70  1  0.94916777  0.27810337  0.58369205  1
  O  O71  1  0.94916777  0.77810337  0.58369205  1
  O  O72  1  0.14250686  0.22598189  0.68995851  1
  O  O73  1  0.14250686  0.72598189  0.68995851  1
  O  O74  1  0.64250686  0.22598189  0.68995851  1
  O  O75  1  0.64250686  0.72598189  0.68995851  1
  O  O76  1  0.35749314  0.47598189  0.81004149  1
  O  O77  1  0.35749314  0.97598189  0.81004149  1
  O  O78  1  0.85749314  0.47598189  0.81004149  1
  O  O79  1  0.85749314  0.97598189  0.81004149  1
  O  O80  1  0.05083223  0.02810337  0.91630795  1
  O  O81  1  0.05083223  0.52810337  0.91630795  1
  O  O82  1  0.55083223  0.02810337  0.91630795  1
  O  O83  1  0.55083223  0.52810337  0.91630795  1
  O  O84  1  0.38011977  0.16518474  0.95560405  1
  O  O85  1  0.38011977  0.66518474  0.95560405  1
  O  O86  1  0.88011977  0.16518474  0.95560405  1
  O  O87  1  0.88011977  0.66518474  0.95560405  1
  O  O88  1  0.11988023  0.33481526  0.04439595  1
  O  O89  1  0.11988023  0.83481526  0.04439595  1
  O  O90  1  0.61988023  0.33481526  0.04439595  1
  O  O91  1  0.61988023  0.83481526  0.04439595  1
  O  O92  1  0.44916777  0.47189663  0.08369205  1
  O  O93  1  0.44916777  0.97189663  0.08369205  1
  O  O94  1  0.94916777  0.47189663  0.08369205  1
  O  O95  1  0.94916777  0.97189663  0.08369205  1
  O  O96  1  0.14250686  0.02401811  0.18995851  1
  O  O97  1  0.14250686  0.52401811  0.18995851  1
  O  O98  1  0.64250686  0.02401811  0.18995851  1
  O  O99  1  0.64250686  0.52401811  0.18995851  1
  O  O100  1  0.35749314  0.27401811  0.31004149  1
  O  O101  1  0.35749314  0.77401811  0.31004149  1
  O  O102  1  0.85749314  0.27401811  0.31004149  1
  O  O103  1  0.85749314  0.77401811  0.31004149  1
  O  O104  1  0.05083223  0.22189663  0.41630795  1
  O  O105  1  0.05083223  0.72189663  0.41630795  1
  O  O106  1  0.55083223  0.22189663  0.41630795  1
  O  O107  1  0.55083223  0.72189663  0.41630795  1
  O  O108  1  0.38011977  0.08481526  0.45560405  1
  O  O109  1  0.38011977  0.58481526  0.45560405  1
  O  O110  1  0.88011977  0.08481526  0.45560405  1
  O  O111  1  0.88011977  0.58481526  0.45560405  1
