# generated using pymatgen
data_NaYSiO4
_symmetry_space_group_name_H-M   'P 1'
_cell_length_a   11.12944951
_cell_length_b   12.76126999
_cell_length_c   10.20793972
_cell_angle_alpha   90.00000000
_cell_angle_beta   90.00000000
_cell_angle_gamma   90.00000000
_symmetry_Int_Tables_number   1
_chemical_formula_structural   NaYSiO4
_chemical_formula_sum   'Na16 Y16 Si16 O64'
_cell_volume   1449.79192839
_cell_formula_units_Z   16
loop_
 _symmetry_equiv_pos_site_id
 _symmetry_equiv_pos_as_xyz
  1  'x, y, z'
loop_
 _atom_site_type_symbol
 _atom_site_label
 _atom_site_symmetry_multiplicity
 _atom_site_fract_x
 _atom_site_fract_y
 _atom_site_fract_z
 _atom_site_occupancy
  Na  Na0  1  0.00000000  0.25000000  0.25000000  1
  Na  Na1  1  0.00000000  0.25000000  0.75000000  1
  Na  Na2  1  0.00000000  0.75000000  0.25000000  1
  Na  Na3  1  0.00000000  0.75000000  0.75000000  1
  Na  Na4  1  0.00000000  0.00000000  0.25000000  1
  Na  Na5  1  0.00000000  0.00000000  0.75000000  1
  Na  Na6  1  0.00000000  0.50000000  0.25000000  1
  Na  Na7  1  0.00000000  0.50000000  0.75000000  1
  Na  Na8  1  0.50000000  0.00000000  0.00000000  1
  Na  Na9  1  0.50000000  0.00000000  0.50000000  1
  Na  Na10  1  0.50000000  0.50000000  0.00000000  1
  Na  Na11  1  0.50000000  0.50000000  0.50000000  1
  Na  Na12  1  0.50000000  0.25000000  0.00000000  1
  Na  Na13  1  0.50000000  0.25000000  0.50000000  1
  Na  Na14  1  0.50000000  0.75000000  0.00000000  1
  Na  Na15  1  0.50000000  0.75000000  0.50000000  1
  Y  Y16  1  0.72026432  0.12500000  0.24980487  1
  Y  Y17  1  0.72026432  0.12500000  0.74980487  1
  Y  Y18  1  0.72026432  0.62500000  0.24980487  1
  Y  Y19  1  0.72026432  0.62500000  0.74980487  1
  Y  Y20  1  0.27973568  0.37500000  0.25019513  1
  Y  Y21  1  0.27973568  0.37500000  0.75019513  1
  Y  Y22  1  0.27973568  0.87500000  0.25019513  1
  Y  Y23  1  0.27973568  0.87500000  0.75019513  1
  Y  Y24  1  0.22026432  0.12500000  0.00019513  1
  Y  Y25  1  0.22026432  0.12500000  0.50019513  1
  Y  Y26  1  0.22026432  0.62500000  0.00019513  1
  Y  Y27  1  0.22026432  0.62500000  0.50019513  1
  Y  Y28  1  0.77973568  0.37500000  0.49980487  1
  Y  Y29  1  0.77973568  0.37500000  0.99980487  1
  Y  Y30  1  0.77973568  0.87500000  0.49980487  1
  Y  Y31  1  0.77973568  0.87500000  0.99980487  1
  Si  Si32  1  0.59837487  0.37500000  0.28108925  1
  Si  Si33  1  0.59837487  0.37500000  0.78108925  1
  Si  Si34  1  0.59837487  0.87500000  0.28108925  1
  Si  Si35  1  0.59837487  0.87500000  0.78108925  1
  Si  Si36  1  0.09837487  0.37500000  0.46891075  1
  Si  Si37  1  0.09837487  0.37500000  0.96891075  1
  Si  Si38  1  0.09837487  0.87500000  0.46891075  1
  Si  Si39  1  0.09837487  0.87500000  0.96891075  1
  Si  Si40  1  0.40162513  0.12500000  0.21891075  1
  Si  Si41  1  0.40162513  0.12500000  0.71891075  1
  Si  Si42  1  0.40162513  0.62500000  0.21891075  1
  Si  Si43  1  0.40162513  0.62500000  0.71891075  1
  Si  Si44  1  0.90162513  0.12500000  0.03108925  1
  Si  Si45  1  0.90162513  0.12500000  0.53108925  1
  Si  Si46  1  0.90162513  0.62500000  0.03108925  1
  Si  Si47  1  0.90162513  0.62500000  0.53108925  1
  O  O48  1  0.88887741  0.12500000  0.37289713  1
  O  O49  1  0.88887741  0.12500000  0.87289713  1
  O  O50  1  0.88887741  0.62500000  0.37289713  1
  O  O51  1  0.88887741  0.62500000  0.87289713  1
  O  O52  1  0.11112259  0.37500000  0.12710287  1
  O  O53  1  0.11112259  0.37500000  0.62710287  1
  O  O54  1  0.11112259  0.87500000  0.12710287  1
  O  O55  1  0.11112259  0.87500000  0.62710287  1
  O  O56  1  0.38887741  0.12500000  0.37710287  1
  O  O57  1  0.38887741  0.12500000  0.87710287  1
  O  O58  1  0.38887741  0.62500000  0.37710287  1
  O  O59  1  0.38887741  0.62500000  0.87710287  1
  O  O60  1  0.61112259  0.37500000  0.12289713  1
  O  O61  1  0.61112259  0.37500000  0.62289713  1
  O  O62  1  0.61112259  0.87500000  0.12289713  1
  O  O63  1  0.61112259  0.87500000  0.62289713  1
  O  O64  1  0.96065184  0.37500000  0.41389482  1
  O  O65  1  0.96065184  0.37500000  0.91389482  1
  O  O66  1  0.96065184  0.87500000  0.41389482  1
  O  O67  1  0.96065184  0.87500000  0.91389482  1
  O  O68  1  0.03934816  0.12500000  0.08610518  1
  O  O69  1  0.03934816  0.12500000  0.58610518  1
  O  O70  1  0.03934816  0.62500000  0.08610518  1
  O  O71  1  0.03934816  0.62500000  0.58610518  1
  O  O72  1  0.46065184  0.37500000  0.33610518  1
  O  O73  1  0.46065184  0.37500000  0.83610518  1
  O  O74  1  0.46065184  0.87500000  0.33610518  1
  O  O75  1  0.46065184  0.87500000  0.83610518  1
  O  O76  1  0.53934816  0.12500000  0.16389482  1
  O  O77  1  0.53934816  0.12500000  0.66389482  1
  O  O78  1  0.53934816  0.62500000  0.16389482  1
  O  O79  1  0.53934816  0.62500000  0.66389482  1
  O  O80  1  0.67062360  0.27511781  0.35188087  1
  O  O81  1  0.67062360  0.27511781  0.85188087  1
  O  O82  1  0.67062360  0.77511781  0.35188087  1
  O  O83  1  0.67062360  0.77511781  0.85188087  1
  O  O84  1  0.32937640  0.02511781  0.14811913  1
  O  O85  1  0.32937640  0.02511781  0.64811913  1
  O  O86  1  0.32937640  0.52511781  0.14811913  1
  O  O87  1  0.32937640  0.52511781  0.64811913  1
  O  O88  1  0.17062360  0.27511781  0.39811913  1
  O  O89  1  0.17062360  0.27511781  0.89811913  1
  O  O90  1  0.17062360  0.77511781  0.39811913  1
  O  O91  1  0.17062360  0.77511781  0.89811913  1
  O  O92  1  0.82937640  0.02511781  0.10188087  1
  O  O93  1  0.82937640  0.02511781  0.60188087  1
  O  O94  1  0.82937640  0.52511781  0.10188087  1
  O  O95  1  0.82937640  0.52511781  0.60188087  1
  O  O96  1  0.82937640  0.22488219  0.10188087  1
  O  O97  1  0.82937640  0.22488219  0.60188087  1
  O  O98  1  0.82937640  0.72488219  0.10188087  1
  O  O99  1  0.82937640  0.72488219  0.60188087  1
  O  O100  1  0.17062360  0.47488219  0.39811913  1
  O  O101  1  0.17062360  0.47488219  0.89811913  1
  O  O102  1  0.17062360  0.97488219  0.39811913  1
  O  O103  1  0.17062360  0.97488219  0.89811913  1
  O  O104  1  0.32937640  0.22488219  0.14811913  1
  O  O105  1  0.32937640  0.22488219  0.64811913  1
  O  O106  1  0.32937640  0.72488219  0.14811913  1
  O  O107  1  0.32937640  0.72488219  0.64811913  1
  O  O108  1  0.67062360  0.47488219  0.35188087  1
  O  O109  1  0.67062360  0.47488219  0.85188087  1
  O  O110  1  0.67062360  0.97488219  0.35188087  1
  O  O111  1  0.67062360  0.97488219  0.85188087  1
