# generated using pymatgen
data_Sb2O3
_symmetry_space_group_name_H-M   'P 1'
_cell_length_a   9.80935848
_cell_length_b   12.26101229
_cell_length_c   10.76410967
_cell_angle_alpha   90.00000000
_cell_angle_beta   90.00000000
_cell_angle_gamma   90.00000000
_symmetry_Int_Tables_number   1
_chemical_formula_structural   Sb2O3
_chemical_formula_sum   'Sb32 O48'
_cell_volume   1294.62815356
_cell_formula_units_Z   16
loop_
 _symmetry_equiv_pos_site_id
 _symmetry_equiv_pos_as_xyz
  1  'x, y, z'
loop_
 _atom_site_type_symbol
 _atom_site_label
 _atom_site_symmetry_multiplicity
 _atom_site_fract_x
 _atom_site_fract_y
 _atom_site_fract_z
 _atom_site_occupancy
  Sb  Sb0  1  0.48168977  0.87274585  0.41063143  1
  Sb  Sb1  1  0.48168977  0.87274585  0.91063143  1
  Sb  Sb2  1  0.98168977  0.87274585  0.41063143  1
  Sb  Sb3  1  0.98168977  0.87274585  0.91063143  1
  Sb  Sb4  1  0.23168977  0.12725415  0.33936857  1
  Sb  Sb5  1  0.23168977  0.12725415  0.83936857  1
  Sb  Sb6  1  0.73168977  0.12725415  0.33936857  1
  Sb  Sb7  1  0.73168977  0.12725415  0.83936857  1
  Sb  Sb8  1  0.26831023  0.62725415  0.41063143  1
  Sb  Sb9  1  0.26831023  0.62725415  0.91063143  1
  Sb  Sb10  1  0.76831023  0.62725415  0.41063143  1
  Sb  Sb11  1  0.76831023  0.62725415  0.91063143  1
  Sb  Sb12  1  0.01831023  0.37274585  0.33936857  1
  Sb  Sb13  1  0.01831023  0.37274585  0.83936857  1
  Sb  Sb14  1  0.51831023  0.37274585  0.33936857  1
  Sb  Sb15  1  0.51831023  0.37274585  0.83936857  1
  Sb  Sb16  1  0.01831023  0.12725415  0.08936857  1
  Sb  Sb17  1  0.01831023  0.12725415  0.58936857  1
  Sb  Sb18  1  0.51831023  0.12725415  0.08936857  1
  Sb  Sb19  1  0.51831023  0.12725415  0.58936857  1
  Sb  Sb20  1  0.26831023  0.87274585  0.16063143  1
  Sb  Sb21  1  0.26831023  0.87274585  0.66063143  1
  Sb  Sb22  1  0.76831023  0.87274585  0.16063143  1
  Sb  Sb23  1  0.76831023  0.87274585  0.66063143  1
  Sb  Sb24  1  0.23168977  0.37274585  0.08936857  1
  Sb  Sb25  1  0.23168977  0.37274585  0.58936857  1
  Sb  Sb26  1  0.73168977  0.37274585  0.08936857  1
  Sb  Sb27  1  0.73168977  0.37274585  0.58936857  1
  Sb  Sb28  1  0.48168977  0.62725415  0.16063143  1
  Sb  Sb29  1  0.48168977  0.62725415  0.66063143  1
  Sb  Sb30  1  0.98168977  0.62725415  0.16063143  1
  Sb  Sb31  1  0.98168977  0.62725415  0.66063143  1
  O  O32  1  0.37500000  0.75000000  0.49871506  1
  O  O33  1  0.37500000  0.75000000  0.99871506  1
  O  O34  1  0.87500000  0.75000000  0.49871506  1
  O  O35  1  0.87500000  0.75000000  0.99871506  1
  O  O36  1  0.12500000  0.25000000  0.25128494  1
  O  O37  1  0.12500000  0.25000000  0.75128494  1
  O  O38  1  0.62500000  0.25000000  0.25128494  1
  O  O39  1  0.62500000  0.25000000  0.75128494  1
  O  O40  1  0.12500000  0.25000000  0.00128494  1
  O  O41  1  0.12500000  0.25000000  0.50128494  1
  O  O42  1  0.62500000  0.25000000  0.00128494  1
  O  O43  1  0.62500000  0.25000000  0.50128494  1
  O  O44  1  0.37500000  0.75000000  0.24871506  1
  O  O45  1  0.37500000  0.75000000  0.74871506  1
  O  O46  1  0.87500000  0.75000000  0.24871506  1
  O  O47  1  0.87500000  0.75000000  0.74871506  1
  O  O48  1  0.42796782  0.94375261  0.07600062  1
  O  O49  1  0.42796782  0.94375261  0.57600062  1
  O  O50  1  0.92796782  0.94375261  0.07600062  1
  O  O51  1  0.92796782  0.94375261  0.57600062  1
  O  O52  1  0.17796782  0.05624739  0.17399938  1
  O  O53  1  0.17796782  0.05624739  0.67399938  1
  O  O54  1  0.67796782  0.05624739  0.17399938  1
  O  O55  1  0.67796782  0.05624739  0.67399938  1
  O  O56  1  0.32203218  0.55624739  0.07600062  1
  O  O57  1  0.32203218  0.55624739  0.57600062  1
  O  O58  1  0.82203218  0.55624739  0.07600062  1
  O  O59  1  0.82203218  0.55624739  0.57600062  1
  O  O60  1  0.07203218  0.44375261  0.17399938  1
  O  O61  1  0.07203218  0.44375261  0.67399938  1
  O  O62  1  0.57203218  0.44375261  0.17399938  1
  O  O63  1  0.57203218  0.44375261  0.67399938  1
  O  O64  1  0.07203218  0.05624739  0.42399938  1
  O  O65  1  0.07203218  0.05624739  0.92399938  1
  O  O66  1  0.57203218  0.05624739  0.42399938  1
  O  O67  1  0.57203218  0.05624739  0.92399938  1
  O  O68  1  0.32203218  0.94375261  0.32600062  1
  O  O69  1  0.32203218  0.94375261  0.82600062  1
  O  O70  1  0.82203218  0.94375261  0.32600062  1
  O  O71  1  0.82203218  0.94375261  0.82600062  1
  O  O72  1  0.17796782  0.44375261  0.42399938  1
  O  O73  1  0.17796782  0.44375261  0.92399938  1
  O  O74  1  0.67796782  0.44375261  0.42399938  1
  O  O75  1  0.67796782  0.44375261  0.92399938  1
  O  O76  1  0.42796782  0.55624739  0.32600062  1
  O  O77  1  0.42796782  0.55624739  0.82600062  1
  O  O78  1  0.92796782  0.55624739  0.32600062  1
  O  O79  1  0.92796782  0.55624739  0.82600062  1
