# generated using pymatgen
data_Na3CuO2
_symmetry_space_group_name_H-M   'P 1'
_cell_length_a   13.17786329
_cell_length_b   13.17786329
_cell_length_c   13.52286568
_cell_angle_alpha   90.00000000
_cell_angle_beta   90.00000000
_cell_angle_gamma   90.00000000
_symmetry_Int_Tables_number   1
_chemical_formula_structural   Na3CuO2
_chemical_formula_sum   'Na72 Cu24 O48'
_cell_volume   2348.32785803
_cell_formula_units_Z   24
loop_
 _symmetry_equiv_pos_site_id
 _symmetry_equiv_pos_as_xyz
  1  'x, y, z'
loop_
 _atom_site_type_symbol
 _atom_site_label
 _atom_site_symmetry_multiplicity
 _atom_site_fract_x
 _atom_site_fract_y
 _atom_site_fract_z
 _atom_site_occupancy
  Na  Na0  1  0.81562135  0.16267154  0.16666667  1
  Na  Na1  1  0.81562135  0.16267154  0.50000000  1
  Na  Na2  1  0.81562135  0.16267154  0.83333333  1
  Na  Na3  1  1.31562135  0.66267154  0.16666667  1
  Na  Na4  1  1.31562135  0.66267154  0.50000000  1
  Na  Na5  1  1.31562135  0.66267154  0.83333333  1
  Na  Na6  1  0.33732846  -0.18437865  0.00000000  1
  Na  Na7  1  0.33732846  -0.18437865  0.33333333  1
  Na  Na8  1  0.33732846  -0.18437865  0.66666667  1
  Na  Na9  1  0.83732846  0.31562135  0.00000000  1
  Na  Na10  1  0.83732846  0.31562135  0.33333333  1
  Na  Na11  1  0.83732846  0.31562135  0.66666667  1
  Na  Na12  1  0.50000000  -0.35391513  0.00000000  1
  Na  Na13  1  0.50000000  -0.35391513  0.33333333  1
  Na  Na14  1  0.50000000  -0.35391513  0.66666667  1
  Na  Na15  1  1.00000000  0.14608487  0.00000000  1
  Na  Na16  1  1.00000000  0.14608487  0.33333333  1
  Na  Na17  1  1.00000000  0.14608487  0.66666667  1
  Na  Na18  1  0.35391513  0.00000000  0.16666667  1
  Na  Na19  1  0.35391513  0.00000000  0.50000000  1
  Na  Na20  1  0.35391513  0.00000000  0.83333333  1
  Na  Na21  1  0.85391513  0.50000000  0.16666667  1
  Na  Na22  1  0.85391513  0.50000000  0.50000000  1
  Na  Na23  1  0.85391513  0.50000000  0.83333333  1
  Na  Na24  1  0.18437865  0.16267154  0.16666667  1
  Na  Na25  1  0.18437865  0.16267154  0.50000000  1
  Na  Na26  1  0.18437865  0.16267154  0.83333333  1
  Na  Na27  1  0.68437865  0.66267154  0.16666667  1
  Na  Na28  1  0.68437865  0.66267154  0.50000000  1
  Na  Na29  1  0.68437865  0.66267154  0.83333333  1
  Na  Na30  1  0.33732846  0.18437865  0.00000000  1
  Na  Na31  1  0.33732846  0.18437865  0.33333333  1
  Na  Na32  1  0.33732846  0.18437865  0.66666667  1
  Na  Na33  1  0.83732846  0.68437865  0.00000000  1
  Na  Na34  1  0.83732846  0.68437865  0.33333333  1
  Na  Na35  1  0.83732846  0.68437865  0.66666667  1
  Na  Na36  1  0.66267154  -0.18437865  0.00000000  1
  Na  Na37  1  0.66267154  -0.18437865  0.33333333  1
  Na  Na38  1  0.66267154  -0.18437865  0.66666667  1
  Na  Na39  1  1.16267154  0.31562135  0.00000000  1
  Na  Na40  1  1.16267154  0.31562135  0.33333333  1
  Na  Na41  1  1.16267154  0.31562135  0.66666667  1
  Na  Na42  1  0.81562135  -0.16267154  0.16666667  1
  Na  Na43  1  0.81562135  -0.16267154  0.50000000  1
  Na  Na44  1  0.81562135  -0.16267154  0.83333333  1
  Na  Na45  1  1.31562135  0.33732846  0.16666667  1
  Na  Na46  1  1.31562135  0.33732846  0.50000000  1
  Na  Na47  1  1.31562135  0.33732846  0.83333333  1
  Na  Na48  1  0.64608487  -0.00000000  0.16666667  1
  Na  Na49  1  0.64608487  -0.00000000  0.50000000  1
  Na  Na50  1  0.64608487  -0.00000000  0.83333333  1
  Na  Na51  1  1.14608487  0.50000000  0.16666667  1
  Na  Na52  1  1.14608487  0.50000000  0.50000000  1
  Na  Na53  1  1.14608487  0.50000000  0.83333333  1
  Na  Na54  1  0.50000000  0.35391513  0.00000000  1
  Na  Na55  1  0.50000000  0.35391513  0.33333333  1
  Na  Na56  1  0.50000000  0.35391513  0.66666667  1
  Na  Na57  1  1.00000000  0.85391513  0.00000000  1
  Na  Na58  1  1.00000000  0.85391513  0.33333333  1
  Na  Na59  1  1.00000000  0.85391513  0.66666667  1
  Na  Na60  1  0.66267154  0.18437865  0.00000000  1
  Na  Na61  1  0.66267154  0.18437865  0.33333333  1
  Na  Na62  1  0.66267154  0.18437865  0.66666667  1
  Na  Na63  1  1.16267154  0.68437865  0.00000000  1
  Na  Na64  1  1.16267154  0.68437865  0.33333333  1
  Na  Na65  1  1.16267154  0.68437865  0.66666667  1
  Na  Na66  1  0.18437865  -0.16267154  0.16666667  1
  Na  Na67  1  0.18437865  -0.16267154  0.50000000  1
  Na  Na68  1  0.18437865  -0.16267154  0.83333333  1
  Na  Na69  1  0.68437865  0.33732846  0.16666667  1
  Na  Na70  1  0.68437865  0.33732846  0.50000000  1
  Na  Na71  1  0.68437865  0.33732846  0.83333333  1
  Cu  Cu72  1  0.17108030  0.00000000  0.00000000  1
  Cu  Cu73  1  0.17108030  0.00000000  0.33333333  1
  Cu  Cu74  1  0.17108030  0.00000000  0.66666667  1
  Cu  Cu75  1  0.67108030  0.50000000  0.00000000  1
  Cu  Cu76  1  0.67108030  0.50000000  0.33333333  1
  Cu  Cu77  1  0.67108030  0.50000000  0.66666667  1
  Cu  Cu78  1  0.50000000  -0.17108030  0.16666667  1
  Cu  Cu79  1  0.50000000  -0.17108030  0.50000000  1
  Cu  Cu80  1  0.50000000  -0.17108030  0.83333333  1
  Cu  Cu81  1  1.00000000  0.32891970  0.16666667  1
  Cu  Cu82  1  1.00000000  0.32891970  0.50000000  1
  Cu  Cu83  1  1.00000000  0.32891970  0.83333333  1
  Cu  Cu84  1  0.50000000  0.17108030  0.16666667  1
  Cu  Cu85  1  0.50000000  0.17108030  0.50000000  1
  Cu  Cu86  1  0.50000000  0.17108030  0.83333333  1
  Cu  Cu87  1  1.00000000  0.67108030  0.16666667  1
  Cu  Cu88  1  1.00000000  0.67108030  0.50000000  1
  Cu  Cu89  1  1.00000000  0.67108030  0.83333333  1
  Cu  Cu90  1  0.82891970  -0.00000000  0.00000000  1
  Cu  Cu91  1  0.82891970  -0.00000000  0.33333333  1
  Cu  Cu92  1  0.82891970  -0.00000000  0.66666667  1
  Cu  Cu93  1  1.32891970  0.50000000  0.00000000  1
  Cu  Cu94  1  1.32891970  0.50000000  0.33333333  1
  Cu  Cu95  1  1.32891970  0.50000000  0.66666667  1
  O  O96  1  0.16793646  -0.13483180  0.00000000  1
  O  O97  1  0.16793646  -0.13483180  0.33333333  1
  O  O98  1  0.16793646  -0.13483180  0.66666667  1
  O  O99  1  0.66793646  0.36516820  0.00000000  1
  O  O100  1  0.66793646  0.36516820  0.33333333  1
  O  O101  1  0.66793646  0.36516820  0.66666667  1
  O  O102  1  0.36516820  -0.16793646  0.16666667  1
  O  O103  1  0.36516820  -0.16793646  0.50000000  1
  O  O104  1  0.36516820  -0.16793646  0.83333333  1
  O  O105  1  0.86516820  0.33206354  0.16666667  1
  O  O106  1  0.86516820  0.33206354  0.50000000  1
  O  O107  1  0.86516820  0.33206354  0.83333333  1
  O  O108  1  0.16793646  0.13483180  0.00000000  1
  O  O109  1  0.16793646  0.13483180  0.33333333  1
  O  O110  1  0.16793646  0.13483180  0.66666667  1
  O  O111  1  0.66793646  0.63483180  0.00000000  1
  O  O112  1  0.66793646  0.63483180  0.33333333  1
  O  O113  1  0.66793646  0.63483180  0.66666667  1
  O  O114  1  0.63483180  -0.16793646  0.16666667  1
  O  O115  1  0.63483180  -0.16793646  0.50000000  1
  O  O116  1  0.63483180  -0.16793646  0.83333333  1
  O  O117  1  1.13483180  0.33206354  0.16666667  1
  O  O118  1  1.13483180  0.33206354  0.50000000  1
  O  O119  1  1.13483180  0.33206354  0.83333333  1
  O  O120  1  0.36516820  0.16793646  0.16666667  1
  O  O121  1  0.36516820  0.16793646  0.50000000  1
  O  O122  1  0.36516820  0.16793646  0.83333333  1
  O  O123  1  0.86516820  0.66793646  0.16666667  1
  O  O124  1  0.86516820  0.66793646  0.50000000  1
  O  O125  1  0.86516820  0.66793646  0.83333333  1
  O  O126  1  0.83206354  -0.13483180  0.00000000  1
  O  O127  1  0.83206354  -0.13483180  0.33333333  1
  O  O128  1  0.83206354  -0.13483180  0.66666667  1
  O  O129  1  1.33206354  0.36516820  0.00000000  1
  O  O130  1  1.33206354  0.36516820  0.33333333  1
  O  O131  1  1.33206354  0.36516820  0.66666667  1
  O  O132  1  0.63483180  0.16793646  0.16666667  1
  O  O133  1  0.63483180  0.16793646  0.50000000  1
  O  O134  1  0.63483180  0.16793646  0.83333333  1
  O  O135  1  1.13483180  0.66793646  0.16666667  1
  O  O136  1  1.13483180  0.66793646  0.50000000  1
  O  O137  1  1.13483180  0.66793646  0.83333333  1
  O  O138  1  0.83206354  0.13483180  0.00000000  1
  O  O139  1  0.83206354  0.13483180  0.33333333  1
  O  O140  1  0.83206354  0.13483180  0.66666667  1
  O  O141  1  1.33206354  0.63483180  0.00000000  1
  O  O142  1  1.33206354  0.63483180  0.33333333  1
  O  O143  1  1.33206354  0.63483180  0.66666667  1
