# generated using pymatgen
data_BaGePbO4
_symmetry_space_group_name_H-M   'P 1'
_cell_length_a   18.81893234
_cell_length_b   15.12478181
_cell_length_c   20.48780479
_cell_angle_alpha   90.00000000
_cell_angle_beta   90.00000000
_cell_angle_gamma   90.00000000
_symmetry_Int_Tables_number   1
_chemical_formula_structural   BaGePbO4
_chemical_formula_sum   'Ba48 Ge48 Pb48 O192'
_cell_volume   5831.48988421
_cell_formula_units_Z   48
loop_
 _symmetry_equiv_pos_site_id
 _symmetry_equiv_pos_as_xyz
  1  'x, y, z'
loop_
 _atom_site_type_symbol
 _atom_site_label
 _atom_site_symmetry_multiplicity
 _atom_site_fract_x
 _atom_site_fract_y
 _atom_site_fract_z
 _atom_site_occupancy
  Ba  Ba0  1  0.15813579  0.37388031  0.39523456  1
  Ba  Ba1  1  0.15813579  0.37388031  0.89523456  1
  Ba  Ba2  1  0.15813579  0.87388031  0.39523456  1
  Ba  Ba3  1  0.15813579  0.87388031  0.89523456  1
  Ba  Ba4  1  0.49146912  0.37388031  0.39523456  1
  Ba  Ba5  1  0.49146912  0.37388031  0.89523456  1
  Ba  Ba6  1  0.49146912  0.87388031  0.39523456  1
  Ba  Ba7  1  0.49146912  0.87388031  0.89523456  1
  Ba  Ba8  1  0.82480246  0.37388031  0.39523456  1
  Ba  Ba9  1  0.82480246  0.37388031  0.89523456  1
  Ba  Ba10  1  0.82480246  0.87388031  0.39523456  1
  Ba  Ba11  1  0.82480246  0.87388031  0.89523456  1
  Ba  Ba12  1  0.32480246  0.37611969  0.10476544  1
  Ba  Ba13  1  0.32480246  0.37611969  0.60476544  1
  Ba  Ba14  1  0.32480246  0.87611969  0.10476544  1
  Ba  Ba15  1  0.32480246  0.87611969  0.60476544  1
  Ba  Ba16  1  0.65813579  0.37611969  0.10476544  1
  Ba  Ba17  1  0.65813579  0.37611969  0.60476544  1
  Ba  Ba18  1  0.65813579  0.87611969  0.10476544  1
  Ba  Ba19  1  0.65813579  0.87611969  0.60476544  1
  Ba  Ba20  1  0.99146912  0.37611969  0.10476544  1
  Ba  Ba21  1  0.99146912  0.37611969  0.60476544  1
  Ba  Ba22  1  0.99146912  0.87611969  0.10476544  1
  Ba  Ba23  1  0.99146912  0.87611969  0.60476544  1
  Ba  Ba24  1  0.00853088  0.12611969  0.14523456  1
  Ba  Ba25  1  0.00853088  0.12611969  0.64523456  1
  Ba  Ba26  1  0.00853088  0.62611969  0.14523456  1
  Ba  Ba27  1  0.00853088  0.62611969  0.64523456  1
  Ba  Ba28  1  0.34186421  0.12611969  0.14523456  1
  Ba  Ba29  1  0.34186421  0.12611969  0.64523456  1
  Ba  Ba30  1  0.34186421  0.62611969  0.14523456  1
  Ba  Ba31  1  0.34186421  0.62611969  0.64523456  1
  Ba  Ba32  1  0.67519754  0.12611969  0.14523456  1
  Ba  Ba33  1  0.67519754  0.12611969  0.64523456  1
  Ba  Ba34  1  0.67519754  0.62611969  0.14523456  1
  Ba  Ba35  1  0.67519754  0.62611969  0.64523456  1
  Ba  Ba36  1  0.17519754  0.12388031  0.35476544  1
  Ba  Ba37  1  0.17519754  0.12388031  0.85476544  1
  Ba  Ba38  1  0.17519754  0.62388031  0.35476544  1
  Ba  Ba39  1  0.17519754  0.62388031  0.85476544  1
  Ba  Ba40  1  0.50853088  0.12388031  0.35476544  1
  Ba  Ba41  1  0.50853088  0.12388031  0.85476544  1
  Ba  Ba42  1  0.50853088  0.62388031  0.35476544  1
  Ba  Ba43  1  0.50853088  0.62388031  0.85476544  1
  Ba  Ba44  1  0.84186421  0.12388031  0.35476544  1
  Ba  Ba45  1  0.84186421  0.12388031  0.85476544  1
  Ba  Ba46  1  0.84186421  0.62388031  0.35476544  1
  Ba  Ba47  1  0.84186421  0.62388031  0.85476544  1
  Ge  Ge48  1  0.17323814  0.48040905  0.04471417  1
  Ge  Ge49  1  0.17323814  0.48040905  0.54471417  1
  Ge  Ge50  1  0.17323814  0.98040905  0.04471417  1
  Ge  Ge51  1  0.17323814  0.98040905  0.54471417  1
  Ge  Ge52  1  0.50657147  0.48040905  0.04471417  1
  Ge  Ge53  1  0.50657147  0.48040905  0.54471417  1
  Ge  Ge54  1  0.50657147  0.98040905  0.04471417  1
  Ge  Ge55  1  0.50657147  0.98040905  0.54471417  1
  Ge  Ge56  1  0.83990480  0.48040905  0.04471417  1
  Ge  Ge57  1  0.83990480  0.48040905  0.54471417  1
  Ge  Ge58  1  0.83990480  0.98040905  0.04471417  1
  Ge  Ge59  1  0.83990480  0.98040905  0.54471417  1
  Ge  Ge60  1  0.00657147  0.26959095  0.45528583  1
  Ge  Ge61  1  0.00657147  0.26959095  0.95528583  1
  Ge  Ge62  1  0.00657147  0.76959095  0.45528583  1
  Ge  Ge63  1  0.00657147  0.76959095  0.95528583  1
  Ge  Ge64  1  0.33990480  0.26959095  0.45528583  1
  Ge  Ge65  1  0.33990480  0.26959095  0.95528583  1
  Ge  Ge66  1  0.33990480  0.76959095  0.45528583  1
  Ge  Ge67  1  0.33990480  0.76959095  0.95528583  1
  Ge  Ge68  1  0.67323814  0.26959095  0.45528583  1
  Ge  Ge69  1  0.67323814  0.26959095  0.95528583  1
  Ge  Ge70  1  0.67323814  0.76959095  0.45528583  1
  Ge  Ge71  1  0.67323814  0.76959095  0.95528583  1
  Ge  Ge72  1  0.32676186  0.01959095  0.29471417  1
  Ge  Ge73  1  0.32676186  0.01959095  0.79471417  1
  Ge  Ge74  1  0.32676186  0.51959095  0.29471417  1
  Ge  Ge75  1  0.32676186  0.51959095  0.79471417  1
  Ge  Ge76  1  0.66009520  0.01959095  0.29471417  1
  Ge  Ge77  1  0.66009520  0.01959095  0.79471417  1
  Ge  Ge78  1  0.66009520  0.51959095  0.29471417  1
  Ge  Ge79  1  0.66009520  0.51959095  0.79471417  1
  Ge  Ge80  1  0.99342853  0.01959095  0.29471417  1
  Ge  Ge81  1  0.99342853  0.01959095  0.79471417  1
  Ge  Ge82  1  0.99342853  0.51959095  0.29471417  1
  Ge  Ge83  1  0.99342853  0.51959095  0.79471417  1
  Ge  Ge84  1  0.16009520  0.23040905  0.20528583  1
  Ge  Ge85  1  0.16009520  0.23040905  0.70528583  1
  Ge  Ge86  1  0.16009520  0.73040905  0.20528583  1
  Ge  Ge87  1  0.16009520  0.73040905  0.70528583  1
  Ge  Ge88  1  0.49342853  0.23040905  0.20528583  1
  Ge  Ge89  1  0.49342853  0.23040905  0.70528583  1
  Ge  Ge90  1  0.49342853  0.73040905  0.20528583  1
  Ge  Ge91  1  0.49342853  0.73040905  0.70528583  1
  Ge  Ge92  1  0.82676186  0.23040905  0.20528583  1
  Ge  Ge93  1  0.82676186  0.23040905  0.70528583  1
  Ge  Ge94  1  0.82676186  0.73040905  0.20528583  1
  Ge  Ge95  1  0.82676186  0.73040905  0.70528583  1
  Pb  Pb96  1  0.14219025  0.47045089  0.20368510  1
  Pb  Pb97  1  0.14219025  0.47045089  0.70368510  1
  Pb  Pb98  1  0.14219025  0.97045089  0.20368510  1
  Pb  Pb99  1  0.14219025  0.97045089  0.70368510  1
  Pb  Pb100  1  0.47552358  0.47045089  0.20368510  1
  Pb  Pb101  1  0.47552358  0.47045089  0.70368510  1
  Pb  Pb102  1  0.47552358  0.97045089  0.20368510  1
  Pb  Pb103  1  0.47552358  0.97045089  0.70368510  1
  Pb  Pb104  1  0.80885692  0.47045089  0.20368510  1
  Pb  Pb105  1  0.80885692  0.47045089  0.70368510  1
  Pb  Pb106  1  0.80885692  0.97045089  0.20368510  1
  Pb  Pb107  1  0.80885692  0.97045089  0.70368510  1
  Pb  Pb108  1  0.30885692  0.27954911  0.29631490  1
  Pb  Pb109  1  0.30885692  0.27954911  0.79631490  1
  Pb  Pb110  1  0.30885692  0.77954911  0.29631490  1
  Pb  Pb111  1  0.30885692  0.77954911  0.79631490  1
  Pb  Pb112  1  0.64219025  0.27954911  0.29631490  1
  Pb  Pb113  1  0.64219025  0.27954911  0.79631490  1
  Pb  Pb114  1  0.64219025  0.77954911  0.29631490  1
  Pb  Pb115  1  0.64219025  0.77954911  0.79631490  1
  Pb  Pb116  1  0.97552358  0.27954911  0.29631490  1
  Pb  Pb117  1  0.97552358  0.27954911  0.79631490  1
  Pb  Pb118  1  0.97552358  0.77954911  0.29631490  1
  Pb  Pb119  1  0.97552358  0.77954911  0.79631490  1
  Pb  Pb120  1  0.02447642  0.02954911  0.45368510  1
  Pb  Pb121  1  0.02447642  0.02954911  0.95368510  1
  Pb  Pb122  1  0.02447642  0.52954911  0.45368510  1
  Pb  Pb123  1  0.02447642  0.52954911  0.95368510  1
  Pb  Pb124  1  0.35780975  0.02954911  0.45368510  1
  Pb  Pb125  1  0.35780975  0.02954911  0.95368510  1
  Pb  Pb126  1  0.35780975  0.52954911  0.45368510  1
  Pb  Pb127  1  0.35780975  0.52954911  0.95368510  1
  Pb  Pb128  1  0.69114308  0.02954911  0.45368510  1
  Pb  Pb129  1  0.69114308  0.02954911  0.95368510  1
  Pb  Pb130  1  0.69114308  0.52954911  0.45368510  1
  Pb  Pb131  1  0.69114308  0.52954911  0.95368510  1
  Pb  Pb132  1  0.19114308  0.22045089  0.04631490  1
  Pb  Pb133  1  0.19114308  0.22045089  0.54631490  1
  Pb  Pb134  1  0.19114308  0.72045089  0.04631490  1
  Pb  Pb135  1  0.19114308  0.72045089  0.54631490  1
  Pb  Pb136  1  0.52447642  0.22045089  0.04631490  1
  Pb  Pb137  1  0.52447642  0.22045089  0.54631490  1
  Pb  Pb138  1  0.52447642  0.72045089  0.04631490  1
  Pb  Pb139  1  0.52447642  0.72045089  0.54631490  1
  Pb  Pb140  1  0.85780975  0.22045089  0.04631490  1
  Pb  Pb141  1  0.85780975  0.22045089  0.54631490  1
  Pb  Pb142  1  0.85780975  0.72045089  0.04631490  1
  Pb  Pb143  1  0.85780975  0.72045089  0.54631490  1
  O  O144  1  0.14591050  0.02882636  0.46850420  1
  O  O145  1  0.14591050  0.02882636  0.96850420  1
  O  O146  1  0.14591050  0.52882636  0.46850420  1
  O  O147  1  0.14591050  0.52882636  0.96850420  1
  O  O148  1  0.47924383  0.02882636  0.46850420  1
  O  O149  1  0.47924383  0.02882636  0.96850420  1
  O  O150  1  0.47924383  0.52882636  0.46850420  1
  O  O151  1  0.47924383  0.52882636  0.96850420  1
  O  O152  1  0.81257716  0.02882636  0.46850420  1
  O  O153  1  0.81257716  0.02882636  0.96850420  1
  O  O154  1  0.81257716  0.52882636  0.46850420  1
  O  O155  1  0.81257716  0.52882636  0.96850420  1
  O  O156  1  0.31257716  0.22117364  0.03149580  1
  O  O157  1  0.31257716  0.22117364  0.53149580  1
  O  O158  1  0.31257716  0.72117364  0.03149580  1
  O  O159  1  0.31257716  0.72117364  0.53149580  1
  O  O160  1  0.64591050  0.22117364  0.03149580  1
  O  O161  1  0.64591050  0.22117364  0.53149580  1
  O  O162  1  0.64591050  0.72117364  0.03149580  1
  O  O163  1  0.64591050  0.72117364  0.53149580  1
  O  O164  1  0.97924383  0.22117364  0.03149580  1
  O  O165  1  0.97924383  0.22117364  0.53149580  1
  O  O166  1  0.97924383  0.72117364  0.03149580  1
  O  O167  1  0.97924383  0.72117364  0.53149580  1
  O  O168  1  0.02075617  0.47117364  0.21850420  1
  O  O169  1  0.02075617  0.47117364  0.71850420  1
  O  O170  1  0.02075617  0.97117364  0.21850420  1
  O  O171  1  0.02075617  0.97117364  0.71850420  1
  O  O172  1  0.35408950  0.47117364  0.21850420  1
  O  O173  1  0.35408950  0.47117364  0.71850420  1
  O  O174  1  0.35408950  0.97117364  0.21850420  1
  O  O175  1  0.35408950  0.97117364  0.71850420  1
  O  O176  1  0.68742284  0.47117364  0.21850420  1
  O  O177  1  0.68742284  0.47117364  0.71850420  1
  O  O178  1  0.68742284  0.97117364  0.21850420  1
  O  O179  1  0.68742284  0.97117364  0.71850420  1
  O  O180  1  0.18742284  0.27882636  0.28149580  1
  O  O181  1  0.18742284  0.27882636  0.78149580  1
  O  O182  1  0.18742284  0.77882636  0.28149580  1
  O  O183  1  0.18742284  0.77882636  0.78149580  1
  O  O184  1  0.52075617  0.27882636  0.28149580  1
  O  O185  1  0.52075617  0.27882636  0.78149580  1
  O  O186  1  0.52075617  0.77882636  0.28149580  1
  O  O187  1  0.52075617  0.77882636  0.78149580  1
  O  O188  1  0.85408950  0.27882636  0.28149580  1
  O  O189  1  0.85408950  0.27882636  0.78149580  1
  O  O190  1  0.85408950  0.77882636  0.28149580  1
  O  O191  1  0.85408950  0.77882636  0.78149580  1
  O  O192  1  0.24776492  0.02869967  0.08371181  1
  O  O193  1  0.24776492  0.02869967  0.58371181  1
  O  O194  1  0.24776492  0.52869967  0.08371181  1
  O  O195  1  0.24776492  0.52869967  0.58371181  1
  O  O196  1  0.58109825  0.02869967  0.08371181  1
  O  O197  1  0.58109825  0.02869967  0.58371181  1
  O  O198  1  0.58109825  0.52869967  0.08371181  1
  O  O199  1  0.58109825  0.52869967  0.58371181  1
  O  O200  1  0.91443158  0.02869967  0.08371181  1
  O  O201  1  0.91443158  0.02869967  0.58371181  1
  O  O202  1  0.91443158  0.52869967  0.08371181  1
  O  O203  1  0.91443158  0.52869967  0.58371181  1
  O  O204  1  0.08109825  0.22130033  0.41628819  1
  O  O205  1  0.08109825  0.22130033  0.91628819  1
  O  O206  1  0.08109825  0.72130033  0.41628819  1
  O  O207  1  0.08109825  0.72130033  0.91628819  1
  O  O208  1  0.41443158  0.22130033  0.41628819  1
  O  O209  1  0.41443158  0.22130033  0.91628819  1
  O  O210  1  0.41443158  0.72130033  0.41628819  1
  O  O211  1  0.41443158  0.72130033  0.91628819  1
  O  O212  1  0.74776492  0.22130033  0.41628819  1
  O  O213  1  0.74776492  0.22130033  0.91628819  1
  O  O214  1  0.74776492  0.72130033  0.41628819  1
  O  O215  1  0.74776492  0.72130033  0.91628819  1
  O  O216  1  0.25223508  0.47130033  0.33371181  1
  O  O217  1  0.25223508  0.47130033  0.83371181  1
  O  O218  1  0.25223508  0.97130033  0.33371181  1
  O  O219  1  0.25223508  0.97130033  0.83371181  1
  O  O220  1  0.58556842  0.47130033  0.33371181  1
  O  O221  1  0.58556842  0.47130033  0.83371181  1
  O  O222  1  0.58556842  0.97130033  0.33371181  1
  O  O223  1  0.58556842  0.97130033  0.83371181  1
  O  O224  1  0.91890175  0.47130033  0.33371181  1
  O  O225  1  0.91890175  0.47130033  0.83371181  1
  O  O226  1  0.91890175  0.97130033  0.33371181  1
  O  O227  1  0.91890175  0.97130033  0.83371181  1
  O  O228  1  0.08556842  0.27869967  0.16628819  1
  O  O229  1  0.08556842  0.27869967  0.66628819  1
  O  O230  1  0.08556842  0.77869967  0.16628819  1
  O  O231  1  0.08556842  0.77869967  0.66628819  1
  O  O232  1  0.41890175  0.27869967  0.16628819  1
  O  O233  1  0.41890175  0.27869967  0.66628819  1
  O  O234  1  0.41890175  0.77869967  0.16628819  1
  O  O235  1  0.41890175  0.77869967  0.66628819  1
  O  O236  1  0.75223508  0.27869967  0.16628819  1
  O  O237  1  0.75223508  0.27869967  0.66628819  1
  O  O238  1  0.75223508  0.77869967  0.16628819  1
  O  O239  1  0.75223508  0.77869967  0.66628819  1
  O  O240  1  0.19865467  0.36829072  0.02586759  1
  O  O241  1  0.19865467  0.36829072  0.52586759  1
  O  O242  1  0.19865467  0.86829072  0.02586759  1
  O  O243  1  0.19865467  0.86829072  0.52586759  1
  O  O244  1  0.53198800  0.36829072  0.02586759  1
  O  O245  1  0.53198800  0.36829072  0.52586759  1
  O  O246  1  0.53198800  0.86829072  0.02586759  1
  O  O247  1  0.53198800  0.86829072  0.52586759  1
  O  O248  1  0.86532133  0.36829072  0.02586759  1
  O  O249  1  0.86532133  0.36829072  0.52586759  1
  O  O250  1  0.86532133  0.86829072  0.02586759  1
  O  O251  1  0.86532133  0.86829072  0.52586759  1
  O  O252  1  0.03198800  0.38170928  0.47413241  1
  O  O253  1  0.03198800  0.38170928  0.97413241  1
  O  O254  1  0.03198800  0.88170928  0.47413241  1
  O  O255  1  0.03198800  0.88170928  0.97413241  1
  O  O256  1  0.36532133  0.38170928  0.47413241  1
  O  O257  1  0.36532133  0.38170928  0.97413241  1
  O  O258  1  0.36532133  0.88170928  0.47413241  1
  O  O259  1  0.36532133  0.88170928  0.97413241  1
  O  O260  1  0.69865467  0.38170928  0.47413241  1
  O  O261  1  0.69865467  0.38170928  0.97413241  1
  O  O262  1  0.69865467  0.88170928  0.47413241  1
  O  O263  1  0.69865467  0.88170928  0.97413241  1
  O  O264  1  0.30134533  0.13170928  0.27586759  1
  O  O265  1  0.30134533  0.13170928  0.77586759  1
  O  O266  1  0.30134533  0.63170928  0.27586759  1
  O  O267  1  0.30134533  0.63170928  0.77586759  1
  O  O268  1  0.63467867  0.13170928  0.27586759  1
  O  O269  1  0.63467867  0.13170928  0.77586759  1
  O  O270  1  0.63467867  0.63170928  0.27586759  1
  O  O271  1  0.63467867  0.63170928  0.77586759  1
  O  O272  1  0.96801200  0.13170928  0.27586759  1
  O  O273  1  0.96801200  0.13170928  0.77586759  1
  O  O274  1  0.96801200  0.63170928  0.27586759  1
  O  O275  1  0.96801200  0.63170928  0.77586759  1
  O  O276  1  0.13467867  0.11829072  0.22413241  1
  O  O277  1  0.13467867  0.11829072  0.72413241  1
  O  O278  1  0.13467867  0.61829072  0.22413241  1
  O  O279  1  0.13467867  0.61829072  0.72413241  1
  O  O280  1  0.46801200  0.11829072  0.22413241  1
  O  O281  1  0.46801200  0.11829072  0.72413241  1
  O  O282  1  0.46801200  0.61829072  0.22413241  1
  O  O283  1  0.46801200  0.61829072  0.72413241  1
  O  O284  1  0.80134533  0.11829072  0.22413241  1
  O  O285  1  0.80134533  0.11829072  0.72413241  1
  O  O286  1  0.80134533  0.61829072  0.22413241  1
  O  O287  1  0.80134533  0.61829072  0.72413241  1
  O  O288  1  0.09879201  0.49282457  0.09936464  1
  O  O289  1  0.09879201  0.49282457  0.59936464  1
  O  O290  1  0.09879201  0.99282457  0.09936464  1
  O  O291  1  0.09879201  0.99282457  0.59936464  1
  O  O292  1  0.43212534  0.49282457  0.09936464  1
  O  O293  1  0.43212534  0.49282457  0.59936464  1
  O  O294  1  0.43212534  0.99282457  0.09936464  1
  O  O295  1  0.43212534  0.99282457  0.59936464  1
  O  O296  1  0.76545868  0.49282457  0.09936464  1
  O  O297  1  0.76545868  0.49282457  0.59936464  1
  O  O298  1  0.76545868  0.99282457  0.09936464  1
  O  O299  1  0.76545868  0.99282457  0.59936464  1
  O  O300  1  0.26545868  0.25717543  0.40063536  1
  O  O301  1  0.26545868  0.25717543  0.90063536  1
  O  O302  1  0.26545868  0.75717543  0.40063536  1
  O  O303  1  0.26545868  0.75717543  0.90063536  1
  O  O304  1  0.59879201  0.25717543  0.40063536  1
  O  O305  1  0.59879201  0.25717543  0.90063536  1
  O  O306  1  0.59879201  0.75717543  0.40063536  1
  O  O307  1  0.59879201  0.75717543  0.90063536  1
  O  O308  1  0.93212534  0.25717543  0.40063536  1
  O  O309  1  0.93212534  0.25717543  0.90063536  1
  O  O310  1  0.93212534  0.75717543  0.40063536  1
  O  O311  1  0.93212534  0.75717543  0.90063536  1
  O  O312  1  0.06787466  0.00717543  0.34936464  1
  O  O313  1  0.06787466  0.00717543  0.84936464  1
  O  O314  1  0.06787466  0.50717543  0.34936464  1
  O  O315  1  0.06787466  0.50717543  0.84936464  1
  O  O316  1  0.40120799  0.00717543  0.34936464  1
  O  O317  1  0.40120799  0.00717543  0.84936464  1
  O  O318  1  0.40120799  0.50717543  0.34936464  1
  O  O319  1  0.40120799  0.50717543  0.84936464  1
  O  O320  1  0.73454132  0.00717543  0.34936464  1
  O  O321  1  0.73454132  0.00717543  0.84936464  1
  O  O322  1  0.73454132  0.50717543  0.34936464  1
  O  O323  1  0.73454132  0.50717543  0.84936464  1
  O  O324  1  0.23454132  0.24282457  0.15063536  1
  O  O325  1  0.23454132  0.24282457  0.65063536  1
  O  O326  1  0.23454132  0.74282457  0.15063536  1
  O  O327  1  0.23454132  0.74282457  0.65063536  1
  O  O328  1  0.56787466  0.24282457  0.15063536  1
  O  O329  1  0.56787466  0.24282457  0.65063536  1
  O  O330  1  0.56787466  0.74282457  0.15063536  1
  O  O331  1  0.56787466  0.74282457  0.65063536  1
  O  O332  1  0.90120799  0.24282457  0.15063536  1
  O  O333  1  0.90120799  0.24282457  0.65063536  1
  O  O334  1  0.90120799  0.74282457  0.15063536  1
  O  O335  1  0.90120799  0.74282457  0.65063536  1
