# generated using pymatgen
data_KTaO3
_symmetry_space_group_name_H-M   'P 1'
_cell_length_a   11.98955573
_cell_length_b   11.98955573
_cell_length_c   11.98955573
_cell_angle_alpha   90.00000000
_cell_angle_beta   90.00000000
_cell_angle_gamma   90.00000000
_symmetry_Int_Tables_number   1
_chemical_formula_structural   KTaO3
_chemical_formula_sum   'K27 Ta27 O81'
_cell_volume   1723.49200251
_cell_formula_units_Z   27
loop_
 _symmetry_equiv_pos_site_id
 _symmetry_equiv_pos_as_xyz
  1  'x, y, z'
loop_
 _atom_site_type_symbol
 _atom_site_label
 _atom_site_symmetry_multiplicity
 _atom_site_fract_x
 _atom_site_fract_y
 _atom_site_fract_z
 _atom_site_occupancy
  K  K0  1  0.16666667  0.16666667  0.16666667  1
  K  K1  1  0.16666667  0.16666667  0.50000000  1
  K  K2  1  0.16666667  0.16666667  0.83333333  1
  K  K3  1  0.16666667  0.50000000  0.16666667  1
  K  K4  1  0.16666667  0.50000000  0.50000000  1
  K  K5  1  0.16666667  0.50000000  0.83333333  1
  K  K6  1  0.16666667  0.83333333  0.16666667  1
  K  K7  1  0.16666667  0.83333333  0.50000000  1
  K  K8  1  0.16666667  0.83333333  0.83333333  1
  K  K9  1  0.50000000  0.16666667  0.16666667  1
  K  K10  1  0.50000000  0.16666667  0.50000000  1
  K  K11  1  0.50000000  0.16666667  0.83333333  1
  K  K12  1  0.50000000  0.50000000  0.16666667  1
  K  K13  1  0.50000000  0.50000000  0.50000000  1
  K  K14  1  0.50000000  0.50000000  0.83333333  1
  K  K15  1  0.50000000  0.83333333  0.16666667  1
  K  K16  1  0.50000000  0.83333333  0.50000000  1
  K  K17  1  0.50000000  0.83333333  0.83333333  1
  K  K18  1  0.83333333  0.16666667  0.16666667  1
  K  K19  1  0.83333333  0.16666667  0.50000000  1
  K  K20  1  0.83333333  0.16666667  0.83333333  1
  K  K21  1  0.83333333  0.50000000  0.16666667  1
  K  K22  1  0.83333333  0.50000000  0.50000000  1
  K  K23  1  0.83333333  0.50000000  0.83333333  1
  K  K24  1  0.83333333  0.83333333  0.16666667  1
  K  K25  1  0.83333333  0.83333333  0.50000000  1
  K  K26  1  0.83333333  0.83333333  0.83333333  1
  Ta  Ta27  1  0.00000000  0.00000000  0.00000000  1
  Ta  Ta28  1  0.00000000  0.00000000  0.33333333  1
  Ta  Ta29  1  0.00000000  0.00000000  0.66666667  1
  Ta  Ta30  1  0.00000000  0.33333333  0.00000000  1
  Ta  Ta31  1  0.00000000  0.33333333  0.33333333  1
  Ta  Ta32  1  0.00000000  0.33333333  0.66666667  1
  Ta  Ta33  1  0.00000000  0.66666667  0.00000000  1
  Ta  Ta34  1  0.00000000  0.66666667  0.33333333  1
  Ta  Ta35  1  0.00000000  0.66666667  0.66666667  1
  Ta  Ta36  1  0.33333333  0.00000000  0.00000000  1
  Ta  Ta37  1  0.33333333  0.00000000  0.33333333  1
  Ta  Ta38  1  0.33333333  0.00000000  0.66666667  1
  Ta  Ta39  1  0.33333333  0.33333333  0.00000000  1
  Ta  Ta40  1  0.33333333  0.33333333  0.33333333  1
  Ta  Ta41  1  0.33333333  0.33333333  0.66666667  1
  Ta  Ta42  1  0.33333333  0.66666667  0.00000000  1
  Ta  Ta43  1  0.33333333  0.66666667  0.33333333  1
  Ta  Ta44  1  0.33333333  0.66666667  0.66666667  1
  Ta  Ta45  1  0.66666667  0.00000000  0.00000000  1
  Ta  Ta46  1  0.66666667  0.00000000  0.33333333  1
  Ta  Ta47  1  0.66666667  0.00000000  0.66666667  1
  Ta  Ta48  1  0.66666667  0.33333333  0.00000000  1
  Ta  Ta49  1  0.66666667  0.33333333  0.33333333  1
  Ta  Ta50  1  0.66666667  0.33333333  0.66666667  1
  Ta  Ta51  1  0.66666667  0.66666667  0.00000000  1
  Ta  Ta52  1  0.66666667  0.66666667  0.33333333  1
  Ta  Ta53  1  0.66666667  0.66666667  0.66666667  1
  O  O54  1  0.00000000  0.16666667  0.00000000  1
  O  O55  1  0.00000000  0.16666667  0.33333333  1
  O  O56  1  0.00000000  0.16666667  0.66666667  1
  O  O57  1  0.00000000  0.50000000  0.00000000  1
  O  O58  1  0.00000000  0.50000000  0.33333333  1
  O  O59  1  0.00000000  0.50000000  0.66666667  1
  O  O60  1  0.00000000  0.83333333  0.00000000  1
  O  O61  1  0.00000000  0.83333333  0.33333333  1
  O  O62  1  0.00000000  0.83333333  0.66666667  1
  O  O63  1  0.33333333  0.16666667  0.00000000  1
  O  O64  1  0.33333333  0.16666667  0.33333333  1
  O  O65  1  0.33333333  0.16666667  0.66666667  1
  O  O66  1  0.33333333  0.50000000  0.00000000  1
  O  O67  1  0.33333333  0.50000000  0.33333333  1
  O  O68  1  0.33333333  0.50000000  0.66666667  1
  O  O69  1  0.33333333  0.83333333  0.00000000  1
  O  O70  1  0.33333333  0.83333333  0.33333333  1
  O  O71  1  0.33333333  0.83333333  0.66666667  1
  O  O72  1  0.66666667  0.16666667  0.00000000  1
  O  O73  1  0.66666667  0.16666667  0.33333333  1
  O  O74  1  0.66666667  0.16666667  0.66666667  1
  O  O75  1  0.66666667  0.50000000  0.00000000  1
  O  O76  1  0.66666667  0.50000000  0.33333333  1
  O  O77  1  0.66666667  0.50000000  0.66666667  1
  O  O78  1  0.66666667  0.83333333  0.00000000  1
  O  O79  1  0.66666667  0.83333333  0.33333333  1
  O  O80  1  0.66666667  0.83333333  0.66666667  1
  O  O81  1  0.00000000  0.00000000  0.16666667  1
  O  O82  1  0.00000000  0.00000000  0.50000000  1
  O  O83  1  0.00000000  0.00000000  0.83333333  1
  O  O84  1  0.00000000  0.33333333  0.16666667  1
  O  O85  1  0.00000000  0.33333333  0.50000000  1
  O  O86  1  0.00000000  0.33333333  0.83333333  1
  O  O87  1  0.00000000  0.66666667  0.16666667  1
  O  O88  1  0.00000000  0.66666667  0.50000000  1
  O  O89  1  0.00000000  0.66666667  0.83333333  1
  O  O90  1  0.33333333  0.00000000  0.16666667  1
  O  O91  1  0.33333333  0.00000000  0.50000000  1
  O  O92  1  0.33333333  0.00000000  0.83333333  1
  O  O93  1  0.33333333  0.33333333  0.16666667  1
  O  O94  1  0.33333333  0.33333333  0.50000000  1
  O  O95  1  0.33333333  0.33333333  0.83333333  1
  O  O96  1  0.33333333  0.66666667  0.16666667  1
  O  O97  1  0.33333333  0.66666667  0.50000000  1
  O  O98  1  0.33333333  0.66666667  0.83333333  1
  O  O99  1  0.66666667  0.00000000  0.16666667  1
  O  O100  1  0.66666667  0.00000000  0.50000000  1
  O  O101  1  0.66666667  0.00000000  0.83333333  1
  O  O102  1  0.66666667  0.33333333  0.16666667  1
  O  O103  1  0.66666667  0.33333333  0.50000000  1
  O  O104  1  0.66666667  0.33333333  0.83333333  1
  O  O105  1  0.66666667  0.66666667  0.16666667  1
  O  O106  1  0.66666667  0.66666667  0.50000000  1
  O  O107  1  0.66666667  0.66666667  0.83333333  1
  O  O108  1  0.16666667  0.00000000  0.00000000  1
  O  O109  1  0.16666667  0.00000000  0.33333333  1
  O  O110  1  0.16666667  0.00000000  0.66666667  1
  O  O111  1  0.16666667  0.33333333  0.00000000  1
  O  O112  1  0.16666667  0.33333333  0.33333333  1
  O  O113  1  0.16666667  0.33333333  0.66666667  1
  O  O114  1  0.16666667  0.66666667  0.00000000  1
  O  O115  1  0.16666667  0.66666667  0.33333333  1
  O  O116  1  0.16666667  0.66666667  0.66666667  1
  O  O117  1  0.50000000  0.00000000  0.00000000  1
  O  O118  1  0.50000000  0.00000000  0.33333333  1
  O  O119  1  0.50000000  0.00000000  0.66666667  1
  O  O120  1  0.50000000  0.33333333  0.00000000  1
  O  O121  1  0.50000000  0.33333333  0.33333333  1
  O  O122  1  0.50000000  0.33333333  0.66666667  1
  O  O123  1  0.50000000  0.66666667  0.00000000  1
  O  O124  1  0.50000000  0.66666667  0.33333333  1
  O  O125  1  0.50000000  0.66666667  0.66666667  1
  O  O126  1  0.83333333  0.00000000  0.00000000  1
  O  O127  1  0.83333333  0.00000000  0.33333333  1
  O  O128  1  0.83333333  0.00000000  0.66666667  1
  O  O129  1  0.83333333  0.33333333  0.00000000  1
  O  O130  1  0.83333333  0.33333333  0.33333333  1
  O  O131  1  0.83333333  0.33333333  0.66666667  1
  O  O132  1  0.83333333  0.66666667  0.00000000  1
  O  O133  1  0.83333333  0.66666667  0.33333333  1
  O  O134  1  0.83333333  0.66666667  0.66666667  1
