# generated using pymatgen
data_Li6Hf2O7
_symmetry_space_group_name_H-M   'P 1'
_cell_length_a   10.35029521
_cell_length_b   11.87150678
_cell_length_c   10.08310323
_cell_angle_alpha   90.00000000
_cell_angle_beta   100.34415644
_cell_angle_gamma   90.00000000
_symmetry_Int_Tables_number   1
_chemical_formula_structural   Li6Hf2O7
_chemical_formula_sum   'Li48 Hf16 O56'
_cell_volume   1218.81051760
_cell_formula_units_Z   8
loop_
 _symmetry_equiv_pos_site_id
 _symmetry_equiv_pos_as_xyz
  1  'x, y, z'
loop_
 _atom_site_type_symbol
 _atom_site_label
 _atom_site_symmetry_multiplicity
 _atom_site_fract_x
 _atom_site_fract_y
 _atom_site_fract_z
 _atom_site_occupancy
  Li  Li0  1  0.20642448  -0.06525874  0.39368055  1
  Li  Li1  1  0.20642448  0.43474126  0.39368055  1
  Li  Li2  1  0.70642448  0.18474126  0.39368055  1
  Li  Li3  1  0.70642448  0.68474126  0.39368055  1
  Li  Li4  1  0.20642448  0.06525874  0.89368055  1
  Li  Li5  1  0.20642448  0.56525874  0.89368055  1
  Li  Li6  1  0.70642448  0.31525874  0.89368055  1
  Li  Li7  1  0.70642448  0.81525874  0.89368055  1
  Li  Li8  1  0.43736972  -0.17784376  0.41239878  1
  Li  Li9  1  0.43736972  0.32215624  0.41239878  1
  Li  Li10  1  0.93736972  0.07215624  0.41239878  1
  Li  Li11  1  0.93736972  0.57215624  0.41239878  1
  Li  Li12  1  0.43396653  0.04939042  0.39655246  1
  Li  Li13  1  0.43396653  0.54939042  0.39655246  1
  Li  Li14  1  0.93396653  0.29939042  0.39655246  1
  Li  Li15  1  0.93396653  0.79939042  0.39655246  1
  Li  Li16  1  0.43736972  0.17784376  0.91239878  1
  Li  Li17  1  0.43736972  0.67784376  0.91239878  1
  Li  Li18  1  0.93736972  0.42784376  0.91239878  1
  Li  Li19  1  0.93736972  0.92784376  0.91239878  1
  Li  Li20  1  0.43396653  -0.04939042  0.89655246  1
  Li  Li21  1  0.43396653  0.45060958  0.89655246  1
  Li  Li22  1  0.93396653  0.20060958  0.89655246  1
  Li  Li23  1  0.93396653  0.70060958  0.89655246  1
  Li  Li24  1  0.56603347  0.04939042  0.10344754  1
  Li  Li25  1  0.56603347  0.54939042  0.10344754  1
  Li  Li26  1  1.06603347  0.29939042  0.10344754  1
  Li  Li27  1  1.06603347  0.79939042  0.10344754  1
  Li  Li28  1  0.56263028  -0.17784376  0.08760122  1
  Li  Li29  1  0.56263028  0.32215624  0.08760122  1
  Li  Li30  1  1.06263028  0.07215624  0.08760122  1
  Li  Li31  1  1.06263028  0.57215624  0.08760122  1
  Li  Li32  1  0.56603347  -0.04939042  0.60344754  1
  Li  Li33  1  0.56603347  0.45060958  0.60344754  1
  Li  Li34  1  1.06603347  0.20060958  0.60344754  1
  Li  Li35  1  1.06603347  0.70060958  0.60344754  1
  Li  Li36  1  0.56263028  0.17784376  0.58760122  1
  Li  Li37  1  0.56263028  0.67784376  0.58760122  1
  Li  Li38  1  1.06263028  0.42784376  0.58760122  1
  Li  Li39  1  1.06263028  0.92784376  0.58760122  1
  Li  Li40  1  0.79357552  -0.06525874  0.10631945  1
  Li  Li41  1  0.79357552  0.43474126  0.10631945  1
  Li  Li42  1  1.29357552  0.18474126  0.10631945  1
  Li  Li43  1  1.29357552  0.68474126  0.10631945  1
  Li  Li44  1  0.79357552  0.06525874  0.60631945  1
  Li  Li45  1  0.79357552  0.56525874  0.60631945  1
  Li  Li46  1  1.29357552  0.31525874  0.60631945  1
  Li  Li47  1  1.29357552  0.81525874  0.60631945  1
  Hf  Hf48  1  0.31622225  -0.06103365  0.13434276  1
  Hf  Hf49  1  0.31622225  0.43896635  0.13434276  1
  Hf  Hf50  1  0.81622225  0.18896635  0.13434276  1
  Hf  Hf51  1  0.81622225  0.68896635  0.13434276  1
  Hf  Hf52  1  0.31622225  0.06103365  0.63434276  1
  Hf  Hf53  1  0.31622225  0.56103365  0.63434276  1
  Hf  Hf54  1  0.81622225  0.31103365  0.63434276  1
  Hf  Hf55  1  0.81622225  0.81103365  0.63434276  1
  Hf  Hf56  1  0.68377775  -0.06103365  0.36565724  1
  Hf  Hf57  1  0.68377775  0.43896635  0.36565724  1
  Hf  Hf58  1  1.18377775  0.18896635  0.36565724  1
  Hf  Hf59  1  1.18377775  0.68896635  0.36565724  1
  Hf  Hf60  1  0.68377775  0.06103365  0.86565724  1
  Hf  Hf61  1  0.68377775  0.56103365  0.86565724  1
  Hf  Hf62  1  1.18377775  0.31103365  0.86565724  1
  Hf  Hf63  1  1.18377775  0.81103365  0.86565724  1
  O  O64  1  0.24976779  0.05699209  0.25402317  1
  O  O65  1  0.24976779  0.55699209  0.25402317  1
  O  O66  1  0.74976779  0.30699209  0.25402317  1
  O  O67  1  0.74976779  0.80699209  0.25402317  1
  O  O68  1  0.86673607  -0.06658319  0.49810878  1
  O  O69  1  0.86673607  0.43341681  0.49810878  1
  O  O70  1  1.36673607  0.18341681  0.49810878  1
  O  O71  1  1.36673607  0.68341681  0.49810878  1
  O  O72  1  0.24976779  -0.05699209  0.75402317  1
  O  O73  1  0.24976779  0.44300791  0.75402317  1
  O  O74  1  0.74976779  0.19300791  0.75402317  1
  O  O75  1  0.74976779  0.69300791  0.75402317  1
  O  O76  1  0.86673607  0.06658319  0.99810878  1
  O  O77  1  0.86673607  0.56658319  0.99810878  1
  O  O78  1  1.36673607  0.31658319  0.99810878  1
  O  O79  1  1.36673607  0.81658319  0.99810878  1
  O  O80  1  0.37833142  0.06131207  0.02163971  1
  O  O81  1  0.37833142  0.56131207  0.02163971  1
  O  O82  1  0.87833142  0.31131207  0.02163971  1
  O  O83  1  0.87833142  0.81131207  0.02163971  1
  O  O84  1  0.50000000  -0.07486634  0.25000000  1
  O  O85  1  0.50000000  0.42513366  0.25000000  1
  O  O86  1  1.00000000  0.17513366  0.25000000  1
  O  O87  1  1.00000000  0.67513366  0.25000000  1
  O  O88  1  0.37833142  -0.06131207  0.52163971  1
  O  O89  1  0.37833142  0.43868793  0.52163971  1
  O  O90  1  0.87833142  0.18868793  0.52163971  1
  O  O91  1  0.87833142  0.68868793  0.52163971  1
  O  O92  1  0.62166858  0.06131207  0.47836029  1
  O  O93  1  0.62166858  0.56131207  0.47836029  1
  O  O94  1  1.12166858  0.31131207  0.47836029  1
  O  O95  1  1.12166858  0.81131207  0.47836029  1
  O  O96  1  0.50000000  0.07486634  0.75000000  1
  O  O97  1  0.50000000  0.57486634  0.75000000  1
  O  O98  1  1.00000000  0.32486634  0.75000000  1
  O  O99  1  1.00000000  0.82486634  0.75000000  1
  O  O100  1  0.62166858  -0.06131207  0.97836029  1
  O  O101  1  0.62166858  0.43868793  0.97836029  1
  O  O102  1  1.12166858  0.18868793  0.97836029  1
  O  O103  1  1.12166858  0.68868793  0.97836029  1
  O  O104  1  0.13326393  -0.06658319  0.00189122  1
  O  O105  1  0.13326393  0.43341681  0.00189122  1
  O  O106  1  0.63326393  0.18341681  0.00189122  1
  O  O107  1  0.63326393  0.68341681  0.00189122  1
  O  O108  1  0.75023221  0.05699209  0.24597683  1
  O  O109  1  0.75023221  0.55699209  0.24597683  1
  O  O110  1  1.25023221  0.30699209  0.24597683  1
  O  O111  1  1.25023221  0.80699209  0.24597683  1
  O  O112  1  0.13326393  0.06658319  0.50189122  1
  O  O113  1  0.13326393  0.56658319  0.50189122  1
  O  O114  1  0.63326393  0.31658319  0.50189122  1
  O  O115  1  0.63326393  0.81658319  0.50189122  1
  O  O116  1  0.75023221  -0.05699209  0.74597683  1
  O  O117  1  0.75023221  0.44300791  0.74597683  1
  O  O118  1  1.25023221  0.19300791  0.74597683  1
  O  O119  1  1.25023221  0.69300791  0.74597683  1
