# generated using pymatgen
data_ZnCrO4
_symmetry_space_group_name_H-M   'P 1'
_cell_length_a   16.42152257
_cell_length_b   16.46243908
_cell_length_c   18.57815130
_cell_angle_alpha   90.00000000
_cell_angle_beta   90.00000000
_cell_angle_gamma   90.00000000
_symmetry_Int_Tables_number   1
_chemical_formula_structural   ZnCrO4
_chemical_formula_sum   'Zn72 Cr72 O288'
_cell_volume   5022.38611757
_cell_formula_units_Z   72
loop_
 _symmetry_equiv_pos_site_id
 _symmetry_equiv_pos_as_xyz
  1  'x, y, z'
loop_
 _atom_site_type_symbol
 _atom_site_label
 _atom_site_symmetry_multiplicity
 _atom_site_fract_x
 _atom_site_fract_y
 _atom_site_fract_z
 _atom_site_occupancy
  Zn  Zn0  1  0.00000000  -0.00000000  0.00000000  1
  Zn  Zn1  1  0.00000000  -0.00000000  0.33333333  1
  Zn  Zn2  1  0.00000000  -0.00000000  0.66666667  1
  Zn  Zn3  1  0.00000000  0.50000000  0.00000000  1
  Zn  Zn4  1  0.00000000  0.50000000  0.33333333  1
  Zn  Zn5  1  0.00000000  0.50000000  0.66666667  1
  Zn  Zn6  1  0.33333333  -0.00000000  0.00000000  1
  Zn  Zn7  1  0.33333333  -0.00000000  0.33333333  1
  Zn  Zn8  1  0.33333333  -0.00000000  0.66666667  1
  Zn  Zn9  1  0.33333333  0.50000000  0.00000000  1
  Zn  Zn10  1  0.33333333  0.50000000  0.33333333  1
  Zn  Zn11  1  0.33333333  0.50000000  0.66666667  1
  Zn  Zn12  1  0.66666667  -0.00000000  0.00000000  1
  Zn  Zn13  1  0.66666667  -0.00000000  0.33333333  1
  Zn  Zn14  1  0.66666667  -0.00000000  0.66666667  1
  Zn  Zn15  1  0.66666667  0.50000000  0.00000000  1
  Zn  Zn16  1  0.66666667  0.50000000  0.33333333  1
  Zn  Zn17  1  0.66666667  0.50000000  0.66666667  1
  Zn  Zn18  1  0.16666667  0.25000000  0.00000000  1
  Zn  Zn19  1  0.16666667  0.25000000  0.33333333  1
  Zn  Zn20  1  0.16666667  0.25000000  0.66666667  1
  Zn  Zn21  1  0.16666667  0.75000000  0.00000000  1
  Zn  Zn22  1  0.16666667  0.75000000  0.33333333  1
  Zn  Zn23  1  0.16666667  0.75000000  0.66666667  1
  Zn  Zn24  1  0.50000000  0.25000000  0.00000000  1
  Zn  Zn25  1  0.50000000  0.25000000  0.33333333  1
  Zn  Zn26  1  0.50000000  0.25000000  0.66666667  1
  Zn  Zn27  1  0.50000000  0.75000000  0.00000000  1
  Zn  Zn28  1  0.50000000  0.75000000  0.33333333  1
  Zn  Zn29  1  0.50000000  0.75000000  0.66666667  1
  Zn  Zn30  1  0.83333333  0.25000000  0.00000000  1
  Zn  Zn31  1  0.83333333  0.25000000  0.33333333  1
  Zn  Zn32  1  0.83333333  0.25000000  0.66666667  1
  Zn  Zn33  1  0.83333333  0.75000000  0.00000000  1
  Zn  Zn34  1  0.83333333  0.75000000  0.33333333  1
  Zn  Zn35  1  0.83333333  0.75000000  0.66666667  1
  Zn  Zn36  1  0.00000000  -0.00000000  0.16666667  1
  Zn  Zn37  1  0.00000000  -0.00000000  0.50000000  1
  Zn  Zn38  1  0.00000000  -0.00000000  0.83333333  1
  Zn  Zn39  1  0.00000000  0.50000000  0.16666667  1
  Zn  Zn40  1  0.00000000  0.50000000  0.50000000  1
  Zn  Zn41  1  0.00000000  0.50000000  0.83333333  1
  Zn  Zn42  1  0.33333333  -0.00000000  0.16666667  1
  Zn  Zn43  1  0.33333333  -0.00000000  0.50000000  1
  Zn  Zn44  1  0.33333333  -0.00000000  0.83333333  1
  Zn  Zn45  1  0.33333333  0.50000000  0.16666667  1
  Zn  Zn46  1  0.33333333  0.50000000  0.50000000  1
  Zn  Zn47  1  0.33333333  0.50000000  0.83333333  1
  Zn  Zn48  1  0.66666667  -0.00000000  0.16666667  1
  Zn  Zn49  1  0.66666667  -0.00000000  0.50000000  1
  Zn  Zn50  1  0.66666667  -0.00000000  0.83333333  1
  Zn  Zn51  1  0.66666667  0.50000000  0.16666667  1
  Zn  Zn52  1  0.66666667  0.50000000  0.50000000  1
  Zn  Zn53  1  0.66666667  0.50000000  0.83333333  1
  Zn  Zn54  1  0.16666667  0.25000000  0.16666667  1
  Zn  Zn55  1  0.16666667  0.25000000  0.50000000  1
  Zn  Zn56  1  0.16666667  0.25000000  0.83333333  1
  Zn  Zn57  1  0.16666667  0.75000000  0.16666667  1
  Zn  Zn58  1  0.16666667  0.75000000  0.50000000  1
  Zn  Zn59  1  0.16666667  0.75000000  0.83333333  1
  Zn  Zn60  1  0.50000000  0.25000000  0.16666667  1
  Zn  Zn61  1  0.50000000  0.25000000  0.50000000  1
  Zn  Zn62  1  0.50000000  0.25000000  0.83333333  1
  Zn  Zn63  1  0.50000000  0.75000000  0.16666667  1
  Zn  Zn64  1  0.50000000  0.75000000  0.50000000  1
  Zn  Zn65  1  0.50000000  0.75000000  0.83333333  1
  Zn  Zn66  1  0.83333333  0.25000000  0.16666667  1
  Zn  Zn67  1  0.83333333  0.25000000  0.50000000  1
  Zn  Zn68  1  0.83333333  0.25000000  0.83333333  1
  Zn  Zn69  1  0.83333333  0.75000000  0.16666667  1
  Zn  Zn70  1  0.83333333  0.75000000  0.50000000  1
  Zn  Zn71  1  0.83333333  0.75000000  0.83333333  1
  Cr  Cr72  1  0.16666667  -0.07060699  0.08333333  1
  Cr  Cr73  1  0.16666667  -0.07060699  0.41666667  1
  Cr  Cr74  1  0.16666667  -0.07060699  0.75000000  1
  Cr  Cr75  1  0.16666667  0.42939301  0.08333333  1
  Cr  Cr76  1  0.16666667  0.42939301  0.41666667  1
  Cr  Cr77  1  0.16666667  0.42939301  0.75000000  1
  Cr  Cr78  1  0.50000000  -0.07060699  0.08333333  1
  Cr  Cr79  1  0.50000000  -0.07060699  0.41666667  1
  Cr  Cr80  1  0.50000000  -0.07060699  0.75000000  1
  Cr  Cr81  1  0.50000000  0.42939301  0.08333333  1
  Cr  Cr82  1  0.50000000  0.42939301  0.41666667  1
  Cr  Cr83  1  0.50000000  0.42939301  0.75000000  1
  Cr  Cr84  1  0.83333333  -0.07060699  0.08333333  1
  Cr  Cr85  1  0.83333333  -0.07060699  0.41666667  1
  Cr  Cr86  1  0.83333333  -0.07060699  0.75000000  1
  Cr  Cr87  1  0.83333333  0.42939301  0.08333333  1
  Cr  Cr88  1  0.83333333  0.42939301  0.41666667  1
  Cr  Cr89  1  0.83333333  0.42939301  0.75000000  1
  Cr  Cr90  1  0.33333333  0.17939301  0.08333333  1
  Cr  Cr91  1  0.33333333  0.17939301  0.41666667  1
  Cr  Cr92  1  0.33333333  0.17939301  0.75000000  1
  Cr  Cr93  1  0.33333333  0.67939301  0.08333333  1
  Cr  Cr94  1  0.33333333  0.67939301  0.41666667  1
  Cr  Cr95  1  0.33333333  0.67939301  0.75000000  1
  Cr  Cr96  1  0.66666667  0.17939301  0.08333333  1
  Cr  Cr97  1  0.66666667  0.17939301  0.41666667  1
  Cr  Cr98  1  0.66666667  0.17939301  0.75000000  1
  Cr  Cr99  1  0.66666667  0.67939301  0.08333333  1
  Cr  Cr100  1  0.66666667  0.67939301  0.41666667  1
  Cr  Cr101  1  0.66666667  0.67939301  0.75000000  1
  Cr  Cr102  1  1.00000000  0.17939301  0.08333333  1
  Cr  Cr103  1  1.00000000  0.17939301  0.41666667  1
  Cr  Cr104  1  1.00000000  0.17939301  0.75000000  1
  Cr  Cr105  1  1.00000000  0.67939301  0.08333333  1
  Cr  Cr106  1  1.00000000  0.67939301  0.41666667  1
  Cr  Cr107  1  1.00000000  0.67939301  0.75000000  1
  Cr  Cr108  1  0.16666667  0.07060699  0.25000000  1
  Cr  Cr109  1  0.16666667  0.07060699  0.58333333  1
  Cr  Cr110  1  0.16666667  0.07060699  0.91666667  1
  Cr  Cr111  1  0.16666667  0.57060699  0.25000000  1
  Cr  Cr112  1  0.16666667  0.57060699  0.58333333  1
  Cr  Cr113  1  0.16666667  0.57060699  0.91666667  1
  Cr  Cr114  1  0.50000000  0.07060699  0.25000000  1
  Cr  Cr115  1  0.50000000  0.07060699  0.58333333  1
  Cr  Cr116  1  0.50000000  0.07060699  0.91666667  1
  Cr  Cr117  1  0.50000000  0.57060699  0.25000000  1
  Cr  Cr118  1  0.50000000  0.57060699  0.58333333  1
  Cr  Cr119  1  0.50000000  0.57060699  0.91666667  1
  Cr  Cr120  1  0.83333333  0.07060699  0.25000000  1
  Cr  Cr121  1  0.83333333  0.07060699  0.58333333  1
  Cr  Cr122  1  0.83333333  0.07060699  0.91666667  1
  Cr  Cr123  1  0.83333333  0.57060699  0.25000000  1
  Cr  Cr124  1  0.83333333  0.57060699  0.58333333  1
  Cr  Cr125  1  0.83333333  0.57060699  0.91666667  1
  Cr  Cr126  1  0.33333333  0.32060699  0.25000000  1
  Cr  Cr127  1  0.33333333  0.32060699  0.58333333  1
  Cr  Cr128  1  0.33333333  0.32060699  0.91666667  1
  Cr  Cr129  1  0.33333333  0.82060699  0.25000000  1
  Cr  Cr130  1  0.33333333  0.82060699  0.58333333  1
  Cr  Cr131  1  0.33333333  0.82060699  0.91666667  1
  Cr  Cr132  1  0.66666667  0.32060699  0.25000000  1
  Cr  Cr133  1  0.66666667  0.32060699  0.58333333  1
  Cr  Cr134  1  0.66666667  0.32060699  0.91666667  1
  Cr  Cr135  1  0.66666667  0.82060699  0.25000000  1
  Cr  Cr136  1  0.66666667  0.82060699  0.58333333  1
  Cr  Cr137  1  0.66666667  0.82060699  0.91666667  1
  Cr  Cr138  1  1.00000000  0.32060699  0.25000000  1
  Cr  Cr139  1  1.00000000  0.32060699  0.58333333  1
  Cr  Cr140  1  1.00000000  0.32060699  0.91666667  1
  Cr  Cr141  1  1.00000000  0.82060699  0.25000000  1
  Cr  Cr142  1  1.00000000  0.82060699  0.58333333  1
  Cr  Cr143  1  1.00000000  0.82060699  0.91666667  1
  O  O144  1  0.08147379  0.01228974  0.25000000  1
  O  O145  1  0.08147379  0.01228974  0.58333333  1
  O  O146  1  0.08147379  0.01228974  0.91666667  1
  O  O147  1  0.08147379  0.51228974  0.25000000  1
  O  O148  1  0.08147379  0.51228974  0.58333333  1
  O  O149  1  0.08147379  0.51228974  0.91666667  1
  O  O150  1  0.41480712  0.01228974  0.25000000  1
  O  O151  1  0.41480712  0.01228974  0.58333333  1
  O  O152  1  0.41480712  0.01228974  0.91666667  1
  O  O153  1  0.41480712  0.51228974  0.25000000  1
  O  O154  1  0.41480712  0.51228974  0.58333333  1
  O  O155  1  0.41480712  0.51228974  0.91666667  1
  O  O156  1  0.74814045  0.01228974  0.25000000  1
  O  O157  1  0.74814045  0.01228974  0.58333333  1
  O  O158  1  0.74814045  0.01228974  0.91666667  1
  O  O159  1  0.74814045  0.51228974  0.25000000  1
  O  O160  1  0.74814045  0.51228974  0.58333333  1
  O  O161  1  0.74814045  0.51228974  0.91666667  1
  O  O162  1  0.24814045  0.26228974  0.25000000  1
  O  O163  1  0.24814045  0.26228974  0.58333333  1
  O  O164  1  0.24814045  0.26228974  0.91666667  1
  O  O165  1  0.24814045  0.76228974  0.25000000  1
  O  O166  1  0.24814045  0.76228974  0.58333333  1
  O  O167  1  0.24814045  0.76228974  0.91666667  1
  O  O168  1  0.58147379  0.26228974  0.25000000  1
  O  O169  1  0.58147379  0.26228974  0.58333333  1
  O  O170  1  0.58147379  0.26228974  0.91666667  1
  O  O171  1  0.58147379  0.76228974  0.25000000  1
  O  O172  1  0.58147379  0.76228974  0.58333333  1
  O  O173  1  0.58147379  0.76228974  0.91666667  1
  O  O174  1  0.91480712  0.26228974  0.25000000  1
  O  O175  1  0.91480712  0.26228974  0.58333333  1
  O  O176  1  0.91480712  0.26228974  0.91666667  1
  O  O177  1  0.91480712  0.76228974  0.25000000  1
  O  O178  1  0.91480712  0.76228974  0.58333333  1
  O  O179  1  0.91480712  0.76228974  0.91666667  1
  O  O180  1  0.08147379  -0.01228974  0.08333333  1
  O  O181  1  0.08147379  -0.01228974  0.41666667  1
  O  O182  1  0.08147379  -0.01228974  0.75000000  1
  O  O183  1  0.08147379  0.48771026  0.08333333  1
  O  O184  1  0.08147379  0.48771026  0.41666667  1
  O  O185  1  0.08147379  0.48771026  0.75000000  1
  O  O186  1  0.41480712  -0.01228974  0.08333333  1
  O  O187  1  0.41480712  -0.01228974  0.41666667  1
  O  O188  1  0.41480712  -0.01228974  0.75000000  1
  O  O189  1  0.41480712  0.48771026  0.08333333  1
  O  O190  1  0.41480712  0.48771026  0.41666667  1
  O  O191  1  0.41480712  0.48771026  0.75000000  1
  O  O192  1  0.74814045  -0.01228974  0.08333333  1
  O  O193  1  0.74814045  -0.01228974  0.41666667  1
  O  O194  1  0.74814045  -0.01228974  0.75000000  1
  O  O195  1  0.74814045  0.48771026  0.08333333  1
  O  O196  1  0.74814045  0.48771026  0.41666667  1
  O  O197  1  0.74814045  0.48771026  0.75000000  1
  O  O198  1  0.24814045  0.23771026  0.08333333  1
  O  O199  1  0.24814045  0.23771026  0.41666667  1
  O  O200  1  0.24814045  0.23771026  0.75000000  1
  O  O201  1  0.24814045  0.73771026  0.08333333  1
  O  O202  1  0.24814045  0.73771026  0.41666667  1
  O  O203  1  0.24814045  0.73771026  0.75000000  1
  O  O204  1  0.58147379  0.23771026  0.08333333  1
  O  O205  1  0.58147379  0.23771026  0.41666667  1
  O  O206  1  0.58147379  0.23771026  0.75000000  1
  O  O207  1  0.58147379  0.73771026  0.08333333  1
  O  O208  1  0.58147379  0.73771026  0.41666667  1
  O  O209  1  0.58147379  0.73771026  0.75000000  1
  O  O210  1  0.91480712  0.23771026  0.08333333  1
  O  O211  1  0.91480712  0.23771026  0.41666667  1
  O  O212  1  0.91480712  0.23771026  0.75000000  1
  O  O213  1  0.91480712  0.73771026  0.08333333  1
  O  O214  1  0.91480712  0.73771026  0.41666667  1
  O  O215  1  0.91480712  0.73771026  0.75000000  1
  O  O216  1  0.16666667  0.12824550  0.17877424  1
  O  O217  1  0.16666667  0.12824550  0.51210758  1
  O  O218  1  0.16666667  0.12824550  0.84544091  1
  O  O219  1  0.16666667  0.62824550  0.17877424  1
  O  O220  1  0.16666667  0.62824550  0.51210758  1
  O  O221  1  0.16666667  0.62824550  0.84544091  1
  O  O222  1  0.50000000  0.12824550  0.17877424  1
  O  O223  1  0.50000000  0.12824550  0.51210758  1
  O  O224  1  0.50000000  0.12824550  0.84544091  1
  O  O225  1  0.50000000  0.62824550  0.17877424  1
  O  O226  1  0.50000000  0.62824550  0.51210758  1
  O  O227  1  0.50000000  0.62824550  0.84544091  1
  O  O228  1  0.83333333  0.12824550  0.17877424  1
  O  O229  1  0.83333333  0.12824550  0.51210758  1
  O  O230  1  0.83333333  0.12824550  0.84544091  1
  O  O231  1  0.83333333  0.62824550  0.17877424  1
  O  O232  1  0.83333333  0.62824550  0.51210758  1
  O  O233  1  0.83333333  0.62824550  0.84544091  1
  O  O234  1  0.33333333  0.37824550  0.17877424  1
  O  O235  1  0.33333333  0.37824550  0.51210758  1
  O  O236  1  0.33333333  0.37824550  0.84544091  1
  O  O237  1  0.33333333  0.87824550  0.17877424  1
  O  O238  1  0.33333333  0.87824550  0.51210758  1
  O  O239  1  0.33333333  0.87824550  0.84544091  1
  O  O240  1  0.66666667  0.37824550  0.17877424  1
  O  O241  1  0.66666667  0.37824550  0.51210758  1
  O  O242  1  0.66666667  0.37824550  0.84544091  1
  O  O243  1  0.66666667  0.87824550  0.17877424  1
  O  O244  1  0.66666667  0.87824550  0.51210758  1
  O  O245  1  0.66666667  0.87824550  0.84544091  1
  O  O246  1  1.00000000  0.37824550  0.17877424  1
  O  O247  1  1.00000000  0.37824550  0.51210758  1
  O  O248  1  1.00000000  0.37824550  0.84544091  1
  O  O249  1  1.00000000  0.87824550  0.17877424  1
  O  O250  1  1.00000000  0.87824550  0.51210758  1
  O  O251  1  1.00000000  0.87824550  0.84544091  1
  O  O252  1  0.16666667  -0.12824550  0.01210758  1
  O  O253  1  0.16666667  -0.12824550  0.34544091  1
  O  O254  1  0.16666667  -0.12824550  0.67877424  1
  O  O255  1  0.16666667  0.37175450  0.01210758  1
  O  O256  1  0.16666667  0.37175450  0.34544091  1
  O  O257  1  0.16666667  0.37175450  0.67877424  1
  O  O258  1  0.50000000  -0.12824550  0.01210758  1
  O  O259  1  0.50000000  -0.12824550  0.34544091  1
  O  O260  1  0.50000000  -0.12824550  0.67877424  1
  O  O261  1  0.50000000  0.37175450  0.01210758  1
  O  O262  1  0.50000000  0.37175450  0.34544091  1
  O  O263  1  0.50000000  0.37175450  0.67877424  1
  O  O264  1  0.83333333  -0.12824550  0.01210758  1
  O  O265  1  0.83333333  -0.12824550  0.34544091  1
  O  O266  1  0.83333333  -0.12824550  0.67877424  1
  O  O267  1  0.83333333  0.37175450  0.01210758  1
  O  O268  1  0.83333333  0.37175450  0.34544091  1
  O  O269  1  0.83333333  0.37175450  0.67877424  1
  O  O270  1  0.33333333  0.12175450  0.01210758  1
  O  O271  1  0.33333333  0.12175450  0.34544091  1
  O  O272  1  0.33333333  0.12175450  0.67877424  1
  O  O273  1  0.33333333  0.62175450  0.01210758  1
  O  O274  1  0.33333333  0.62175450  0.34544091  1
  O  O275  1  0.33333333  0.62175450  0.67877424  1
  O  O276  1  0.66666667  0.12175450  0.01210758  1
  O  O277  1  0.66666667  0.12175450  0.34544091  1
  O  O278  1  0.66666667  0.12175450  0.67877424  1
  O  O279  1  0.66666667  0.62175450  0.01210758  1
  O  O280  1  0.66666667  0.62175450  0.34544091  1
  O  O281  1  0.66666667  0.62175450  0.67877424  1
  O  O282  1  1.00000000  0.12175450  0.01210758  1
  O  O283  1  1.00000000  0.12175450  0.34544091  1
  O  O284  1  1.00000000  0.12175450  0.67877424  1
  O  O285  1  1.00000000  0.62175450  0.01210758  1
  O  O286  1  1.00000000  0.62175450  0.34544091  1
  O  O287  1  1.00000000  0.62175450  0.67877424  1
  O  O288  1  0.16666667  0.12824550  0.32122576  1
  O  O289  1  0.16666667  0.12824550  0.65455909  1
  O  O290  1  0.16666667  0.12824550  0.98789242  1
  O  O291  1  0.16666667  0.62824550  0.32122576  1
  O  O292  1  0.16666667  0.62824550  0.65455909  1
  O  O293  1  0.16666667  0.62824550  0.98789242  1
  O  O294  1  0.50000000  0.12824550  0.32122576  1
  O  O295  1  0.50000000  0.12824550  0.65455909  1
  O  O296  1  0.50000000  0.12824550  0.98789242  1
  O  O297  1  0.50000000  0.62824550  0.32122576  1
  O  O298  1  0.50000000  0.62824550  0.65455909  1
  O  O299  1  0.50000000  0.62824550  0.98789242  1
  O  O300  1  0.83333333  0.12824550  0.32122576  1
  O  O301  1  0.83333333  0.12824550  0.65455909  1
  O  O302  1  0.83333333  0.12824550  0.98789242  1
  O  O303  1  0.83333333  0.62824550  0.32122576  1
  O  O304  1  0.83333333  0.62824550  0.65455909  1
  O  O305  1  0.83333333  0.62824550  0.98789242  1
  O  O306  1  0.33333333  0.37824550  0.32122576  1
  O  O307  1  0.33333333  0.37824550  0.65455909  1
  O  O308  1  0.33333333  0.37824550  0.98789242  1
  O  O309  1  0.33333333  0.87824550  0.32122576  1
  O  O310  1  0.33333333  0.87824550  0.65455909  1
  O  O311  1  0.33333333  0.87824550  0.98789242  1
  O  O312  1  0.66666667  0.37824550  0.32122576  1
  O  O313  1  0.66666667  0.37824550  0.65455909  1
  O  O314  1  0.66666667  0.37824550  0.98789242  1
  O  O315  1  0.66666667  0.87824550  0.32122576  1
  O  O316  1  0.66666667  0.87824550  0.65455909  1
  O  O317  1  0.66666667  0.87824550  0.98789242  1
  O  O318  1  1.00000000  0.37824550  0.32122576  1
  O  O319  1  1.00000000  0.37824550  0.65455909  1
  O  O320  1  1.00000000  0.37824550  0.98789242  1
  O  O321  1  1.00000000  0.87824550  0.32122576  1
  O  O322  1  1.00000000  0.87824550  0.65455909  1
  O  O323  1  1.00000000  0.87824550  0.98789242  1
  O  O324  1  0.16666667  -0.12824550  0.15455909  1
  O  O325  1  0.16666667  -0.12824550  0.48789242  1
  O  O326  1  0.16666667  -0.12824550  0.82122576  1
  O  O327  1  0.16666667  0.37175450  0.15455909  1
  O  O328  1  0.16666667  0.37175450  0.48789242  1
  O  O329  1  0.16666667  0.37175450  0.82122576  1
  O  O330  1  0.50000000  -0.12824550  0.15455909  1
  O  O331  1  0.50000000  -0.12824550  0.48789242  1
  O  O332  1  0.50000000  -0.12824550  0.82122576  1
  O  O333  1  0.50000000  0.37175450  0.15455909  1
  O  O334  1  0.50000000  0.37175450  0.48789242  1
  O  O335  1  0.50000000  0.37175450  0.82122576  1
  O  O336  1  0.83333333  -0.12824550  0.15455909  1
  O  O337  1  0.83333333  -0.12824550  0.48789242  1
  O  O338  1  0.83333333  -0.12824550  0.82122576  1
  O  O339  1  0.83333333  0.37175450  0.15455909  1
  O  O340  1  0.83333333  0.37175450  0.48789242  1
  O  O341  1  0.83333333  0.37175450  0.82122576  1
  O  O342  1  0.33333333  0.12175450  0.15455909  1
  O  O343  1  0.33333333  0.12175450  0.48789242  1
  O  O344  1  0.33333333  0.12175450  0.82122576  1
  O  O345  1  0.33333333  0.62175450  0.15455909  1
  O  O346  1  0.33333333  0.62175450  0.48789242  1
  O  O347  1  0.33333333  0.62175450  0.82122576  1
  O  O348  1  0.66666667  0.12175450  0.15455909  1
  O  O349  1  0.66666667  0.12175450  0.48789242  1
  O  O350  1  0.66666667  0.12175450  0.82122576  1
  O  O351  1  0.66666667  0.62175450  0.15455909  1
  O  O352  1  0.66666667  0.62175450  0.48789242  1
  O  O353  1  0.66666667  0.62175450  0.82122576  1
  O  O354  1  1.00000000  0.12175450  0.15455909  1
  O  O355  1  1.00000000  0.12175450  0.48789242  1
  O  O356  1  1.00000000  0.12175450  0.82122576  1
  O  O357  1  1.00000000  0.62175450  0.15455909  1
  O  O358  1  1.00000000  0.62175450  0.48789242  1
  O  O359  1  1.00000000  0.62175450  0.82122576  1
  O  O360  1  0.25185955  -0.01228974  0.08333333  1
  O  O361  1  0.25185955  -0.01228974  0.41666667  1
  O  O362  1  0.25185955  -0.01228974  0.75000000  1
  O  O363  1  0.25185955  0.48771026  0.08333333  1
  O  O364  1  0.25185955  0.48771026  0.41666667  1
  O  O365  1  0.25185955  0.48771026  0.75000000  1
  O  O366  1  0.58519288  -0.01228974  0.08333333  1
  O  O367  1  0.58519288  -0.01228974  0.41666667  1
  O  O368  1  0.58519288  -0.01228974  0.75000000  1
  O  O369  1  0.58519288  0.48771026  0.08333333  1
  O  O370  1  0.58519288  0.48771026  0.41666667  1
  O  O371  1  0.58519288  0.48771026  0.75000000  1
  O  O372  1  0.91852621  -0.01228974  0.08333333  1
  O  O373  1  0.91852621  -0.01228974  0.41666667  1
  O  O374  1  0.91852621  -0.01228974  0.75000000  1
  O  O375  1  0.91852621  0.48771026  0.08333333  1
  O  O376  1  0.91852621  0.48771026  0.41666667  1
  O  O377  1  0.91852621  0.48771026  0.75000000  1
  O  O378  1  0.41852621  0.23771026  0.08333333  1
  O  O379  1  0.41852621  0.23771026  0.41666667  1
  O  O380  1  0.41852621  0.23771026  0.75000000  1
  O  O381  1  0.41852621  0.73771026  0.08333333  1
  O  O382  1  0.41852621  0.73771026  0.41666667  1
  O  O383  1  0.41852621  0.73771026  0.75000000  1
  O  O384  1  0.75185955  0.23771026  0.08333333  1
  O  O385  1  0.75185955  0.23771026  0.41666667  1
  O  O386  1  0.75185955  0.23771026  0.75000000  1
  O  O387  1  0.75185955  0.73771026  0.08333333  1
  O  O388  1  0.75185955  0.73771026  0.41666667  1
  O  O389  1  0.75185955  0.73771026  0.75000000  1
  O  O390  1  1.08519288  0.23771026  0.08333333  1
  O  O391  1  1.08519288  0.23771026  0.41666667  1
  O  O392  1  1.08519288  0.23771026  0.75000000  1
  O  O393  1  1.08519288  0.73771026  0.08333333  1
  O  O394  1  1.08519288  0.73771026  0.41666667  1
  O  O395  1  1.08519288  0.73771026  0.75000000  1
  O  O396  1  0.25185955  0.01228974  0.25000000  1
  O  O397  1  0.25185955  0.01228974  0.58333333  1
  O  O398  1  0.25185955  0.01228974  0.91666667  1
  O  O399  1  0.25185955  0.51228974  0.25000000  1
  O  O400  1  0.25185955  0.51228974  0.58333333  1
  O  O401  1  0.25185955  0.51228974  0.91666667  1
  O  O402  1  0.58519288  0.01228974  0.25000000  1
  O  O403  1  0.58519288  0.01228974  0.58333333  1
  O  O404  1  0.58519288  0.01228974  0.91666667  1
  O  O405  1  0.58519288  0.51228974  0.25000000  1
  O  O406  1  0.58519288  0.51228974  0.58333333  1
  O  O407  1  0.58519288  0.51228974  0.91666667  1
  O  O408  1  0.91852621  0.01228974  0.25000000  1
  O  O409  1  0.91852621  0.01228974  0.58333333  1
  O  O410  1  0.91852621  0.01228974  0.91666667  1
  O  O411  1  0.91852621  0.51228974  0.25000000  1
  O  O412  1  0.91852621  0.51228974  0.58333333  1
  O  O413  1  0.91852621  0.51228974  0.91666667  1
  O  O414  1  0.41852621  0.26228974  0.25000000  1
  O  O415  1  0.41852621  0.26228974  0.58333333  1
  O  O416  1  0.41852621  0.26228974  0.91666667  1
  O  O417  1  0.41852621  0.76228974  0.25000000  1
  O  O418  1  0.41852621  0.76228974  0.58333333  1
  O  O419  1  0.41852621  0.76228974  0.91666667  1
  O  O420  1  0.75185955  0.26228974  0.25000000  1
  O  O421  1  0.75185955  0.26228974  0.58333333  1
  O  O422  1  0.75185955  0.26228974  0.91666667  1
  O  O423  1  0.75185955  0.76228974  0.25000000  1
  O  O424  1  0.75185955  0.76228974  0.58333333  1
  O  O425  1  0.75185955  0.76228974  0.91666667  1
  O  O426  1  1.08519288  0.26228974  0.25000000  1
  O  O427  1  1.08519288  0.26228974  0.58333333  1
  O  O428  1  1.08519288  0.26228974  0.91666667  1
  O  O429  1  1.08519288  0.76228974  0.25000000  1
  O  O430  1  1.08519288  0.76228974  0.58333333  1
  O  O431  1  1.08519288  0.76228974  0.91666667  1
