# generated using pymatgen
data_Tl3BO3
_symmetry_space_group_name_H-M   'P 1'
_cell_length_a   18.44414984
_cell_length_b   18.44414984
_cell_length_c   18.43299824
_cell_angle_alpha   90.00000000
_cell_angle_beta   90.00000000
_cell_angle_gamma   120.00000000
_symmetry_Int_Tables_number   1
_chemical_formula_structural   Tl3BO3
_chemical_formula_sum   'Tl120 B40 O120'
_cell_volume   5430.55100279
_cell_formula_units_Z   40
loop_
 _symmetry_equiv_pos_site_id
 _symmetry_equiv_pos_as_xyz
  1  'x, y, z'
loop_
 _atom_site_type_symbol
 _atom_site_label
 _atom_site_symmetry_multiplicity
 _atom_site_fract_x
 _atom_site_fract_y
 _atom_site_fract_z
 _atom_site_occupancy
  Tl  Tl0  1  0.32494847  0.47320972  0.05000000  1
  Tl  Tl1  1  0.32494847  0.47320972  0.25000000  1
  Tl  Tl2  1  0.32494847  0.47320972  0.45000000  1
  Tl  Tl3  1  0.32494847  0.47320972  0.65000000  1
  Tl  Tl4  1  0.32494847  0.47320972  0.85000000  1
  Tl  Tl5  1  0.32494847  0.97320972  0.05000000  1
  Tl  Tl6  1  0.32494847  0.97320972  0.25000000  1
  Tl  Tl7  1  0.32494847  0.97320972  0.45000000  1
  Tl  Tl8  1  0.32494847  0.97320972  0.65000000  1
  Tl  Tl9  1  0.32494847  0.97320972  0.85000000  1
  Tl  Tl10  1  0.82494847  0.47320972  0.05000000  1
  Tl  Tl11  1  0.82494847  0.47320972  0.25000000  1
  Tl  Tl12  1  0.82494847  0.47320972  0.45000000  1
  Tl  Tl13  1  0.82494847  0.47320972  0.65000000  1
  Tl  Tl14  1  0.82494847  0.47320972  0.85000000  1
  Tl  Tl15  1  0.82494847  0.97320972  0.05000000  1
  Tl  Tl16  1  0.82494847  0.97320972  0.25000000  1
  Tl  Tl17  1  0.82494847  0.97320972  0.45000000  1
  Tl  Tl18  1  0.82494847  0.97320972  0.65000000  1
  Tl  Tl19  1  0.82494847  0.97320972  0.85000000  1
  Tl  Tl20  1  0.35173875  0.32494847  0.15000000  1
  Tl  Tl21  1  0.35173875  0.32494847  0.35000000  1
  Tl  Tl22  1  0.35173875  0.32494847  0.55000000  1
  Tl  Tl23  1  0.35173875  0.32494847  0.75000000  1
  Tl  Tl24  1  0.35173875  0.32494847  0.95000000  1
  Tl  Tl25  1  0.35173875  0.82494847  0.15000000  1
  Tl  Tl26  1  0.35173875  0.82494847  0.35000000  1
  Tl  Tl27  1  0.35173875  0.82494847  0.55000000  1
  Tl  Tl28  1  0.35173875  0.82494847  0.75000000  1
  Tl  Tl29  1  0.35173875  0.82494847  0.95000000  1
  Tl  Tl30  1  0.85173875  0.32494847  0.15000000  1
  Tl  Tl31  1  0.85173875  0.32494847  0.35000000  1
  Tl  Tl32  1  0.85173875  0.32494847  0.55000000  1
  Tl  Tl33  1  0.85173875  0.32494847  0.75000000  1
  Tl  Tl34  1  0.85173875  0.32494847  0.95000000  1
  Tl  Tl35  1  0.85173875  0.82494847  0.15000000  1
  Tl  Tl36  1  0.85173875  0.82494847  0.35000000  1
  Tl  Tl37  1  0.85173875  0.82494847  0.55000000  1
  Tl  Tl38  1  0.85173875  0.82494847  0.75000000  1
  Tl  Tl39  1  0.85173875  0.82494847  0.95000000  1
  Tl  Tl40  1  0.47320972  0.14826125  0.15000000  1
  Tl  Tl41  1  0.47320972  0.14826125  0.35000000  1
  Tl  Tl42  1  0.47320972  0.14826125  0.55000000  1
  Tl  Tl43  1  0.47320972  0.14826125  0.75000000  1
  Tl  Tl44  1  0.47320972  0.14826125  0.95000000  1
  Tl  Tl45  1  0.47320972  0.64826125  0.15000000  1
  Tl  Tl46  1  0.47320972  0.64826125  0.35000000  1
  Tl  Tl47  1  0.47320972  0.64826125  0.55000000  1
  Tl  Tl48  1  0.47320972  0.64826125  0.75000000  1
  Tl  Tl49  1  0.47320972  0.64826125  0.95000000  1
  Tl  Tl50  1  0.97320972  0.14826125  0.15000000  1
  Tl  Tl51  1  0.97320972  0.14826125  0.35000000  1
  Tl  Tl52  1  0.97320972  0.14826125  0.55000000  1
  Tl  Tl53  1  0.97320972  0.14826125  0.75000000  1
  Tl  Tl54  1  0.97320972  0.14826125  0.95000000  1
  Tl  Tl55  1  0.97320972  0.64826125  0.15000000  1
  Tl  Tl56  1  0.97320972  0.64826125  0.35000000  1
  Tl  Tl57  1  0.97320972  0.64826125  0.55000000  1
  Tl  Tl58  1  0.97320972  0.64826125  0.75000000  1
  Tl  Tl59  1  0.97320972  0.64826125  0.95000000  1
  Tl  Tl60  1  0.02679028  0.35173875  0.05000000  1
  Tl  Tl61  1  0.02679028  0.35173875  0.25000000  1
  Tl  Tl62  1  0.02679028  0.35173875  0.45000000  1
  Tl  Tl63  1  0.02679028  0.35173875  0.65000000  1
  Tl  Tl64  1  0.02679028  0.35173875  0.85000000  1
  Tl  Tl65  1  0.02679028  0.85173875  0.05000000  1
  Tl  Tl66  1  0.02679028  0.85173875  0.25000000  1
  Tl  Tl67  1  0.02679028  0.85173875  0.45000000  1
  Tl  Tl68  1  0.02679028  0.85173875  0.65000000  1
  Tl  Tl69  1  0.02679028  0.85173875  0.85000000  1
  Tl  Tl70  1  0.52679028  0.35173875  0.05000000  1
  Tl  Tl71  1  0.52679028  0.35173875  0.25000000  1
  Tl  Tl72  1  0.52679028  0.35173875  0.45000000  1
  Tl  Tl73  1  0.52679028  0.35173875  0.65000000  1
  Tl  Tl74  1  0.52679028  0.35173875  0.85000000  1
  Tl  Tl75  1  0.52679028  0.85173875  0.05000000  1
  Tl  Tl76  1  0.52679028  0.85173875  0.25000000  1
  Tl  Tl77  1  0.52679028  0.85173875  0.45000000  1
  Tl  Tl78  1  0.52679028  0.85173875  0.65000000  1
  Tl  Tl79  1  0.52679028  0.85173875  0.85000000  1
  Tl  Tl80  1  0.14826125  0.17505153  0.05000000  1
  Tl  Tl81  1  0.14826125  0.17505153  0.25000000  1
  Tl  Tl82  1  0.14826125  0.17505153  0.45000000  1
  Tl  Tl83  1  0.14826125  0.17505153  0.65000000  1
  Tl  Tl84  1  0.14826125  0.17505153  0.85000000  1
  Tl  Tl85  1  0.14826125  0.67505153  0.05000000  1
  Tl  Tl86  1  0.14826125  0.67505153  0.25000000  1
  Tl  Tl87  1  0.14826125  0.67505153  0.45000000  1
  Tl  Tl88  1  0.14826125  0.67505153  0.65000000  1
  Tl  Tl89  1  0.14826125  0.67505153  0.85000000  1
  Tl  Tl90  1  0.64826125  0.17505153  0.05000000  1
  Tl  Tl91  1  0.64826125  0.17505153  0.25000000  1
  Tl  Tl92  1  0.64826125  0.17505153  0.45000000  1
  Tl  Tl93  1  0.64826125  0.17505153  0.65000000  1
  Tl  Tl94  1  0.64826125  0.17505153  0.85000000  1
  Tl  Tl95  1  0.64826125  0.67505153  0.05000000  1
  Tl  Tl96  1  0.64826125  0.67505153  0.25000000  1
  Tl  Tl97  1  0.64826125  0.67505153  0.45000000  1
  Tl  Tl98  1  0.64826125  0.67505153  0.65000000  1
  Tl  Tl99  1  0.64826125  0.67505153  0.85000000  1
  Tl  Tl100  1  0.17505153  0.02679028  0.15000000  1
  Tl  Tl101  1  0.17505153  0.02679028  0.35000000  1
  Tl  Tl102  1  0.17505153  0.02679028  0.55000000  1
  Tl  Tl103  1  0.17505153  0.02679028  0.75000000  1
  Tl  Tl104  1  0.17505153  0.02679028  0.95000000  1
  Tl  Tl105  1  0.17505153  0.52679028  0.15000000  1
  Tl  Tl106  1  0.17505153  0.52679028  0.35000000  1
  Tl  Tl107  1  0.17505153  0.52679028  0.55000000  1
  Tl  Tl108  1  0.17505153  0.52679028  0.75000000  1
  Tl  Tl109  1  0.17505153  0.52679028  0.95000000  1
  Tl  Tl110  1  0.67505153  0.02679028  0.15000000  1
  Tl  Tl111  1  0.67505153  0.02679028  0.35000000  1
  Tl  Tl112  1  0.67505153  0.02679028  0.55000000  1
  Tl  Tl113  1  0.67505153  0.02679028  0.75000000  1
  Tl  Tl114  1  0.67505153  0.02679028  0.95000000  1
  Tl  Tl115  1  0.67505153  0.52679028  0.15000000  1
  Tl  Tl116  1  0.67505153  0.52679028  0.35000000  1
  Tl  Tl117  1  0.67505153  0.52679028  0.55000000  1
  Tl  Tl118  1  0.67505153  0.52679028  0.75000000  1
  Tl  Tl119  1  0.67505153  0.52679028  0.95000000  1
  B  B120  1  0.33333333  0.16666667  0.05000000  1
  B  B121  1  0.33333333  0.16666667  0.25000000  1
  B  B122  1  0.33333333  0.16666667  0.45000000  1
  B  B123  1  0.33333333  0.16666667  0.65000000  1
  B  B124  1  0.33333333  0.16666667  0.85000000  1
  B  B125  1  0.33333333  0.66666667  0.05000000  1
  B  B126  1  0.33333333  0.66666667  0.25000000  1
  B  B127  1  0.33333333  0.66666667  0.45000000  1
  B  B128  1  0.33333333  0.66666667  0.65000000  1
  B  B129  1  0.33333333  0.66666667  0.85000000  1
  B  B130  1  0.83333333  0.16666667  0.05000000  1
  B  B131  1  0.83333333  0.16666667  0.25000000  1
  B  B132  1  0.83333333  0.16666667  0.45000000  1
  B  B133  1  0.83333333  0.16666667  0.65000000  1
  B  B134  1  0.83333333  0.16666667  0.85000000  1
  B  B135  1  0.83333333  0.66666667  0.05000000  1
  B  B136  1  0.83333333  0.66666667  0.25000000  1
  B  B137  1  0.83333333  0.66666667  0.45000000  1
  B  B138  1  0.83333333  0.66666667  0.65000000  1
  B  B139  1  0.83333333  0.66666667  0.85000000  1
  B  B140  1  0.16666667  0.33333333  0.15000000  1
  B  B141  1  0.16666667  0.33333333  0.35000000  1
  B  B142  1  0.16666667  0.33333333  0.55000000  1
  B  B143  1  0.16666667  0.33333333  0.75000000  1
  B  B144  1  0.16666667  0.33333333  0.95000000  1
  B  B145  1  0.16666667  0.83333333  0.15000000  1
  B  B146  1  0.16666667  0.83333333  0.35000000  1
  B  B147  1  0.16666667  0.83333333  0.55000000  1
  B  B148  1  0.16666667  0.83333333  0.75000000  1
  B  B149  1  0.16666667  0.83333333  0.95000000  1
  B  B150  1  0.66666667  0.33333333  0.15000000  1
  B  B151  1  0.66666667  0.33333333  0.35000000  1
  B  B152  1  0.66666667  0.33333333  0.55000000  1
  B  B153  1  0.66666667  0.33333333  0.75000000  1
  B  B154  1  0.66666667  0.33333333  0.95000000  1
  B  B155  1  0.66666667  0.83333333  0.15000000  1
  B  B156  1  0.66666667  0.83333333  0.35000000  1
  B  B157  1  0.66666667  0.83333333  0.55000000  1
  B  B158  1  0.66666667  0.83333333  0.75000000  1
  B  B159  1  0.66666667  0.83333333  0.95000000  1
  O  O160  1  0.42005256  0.20371876  0.05000000  1
  O  O161  1  0.42005256  0.20371876  0.25000000  1
  O  O162  1  0.42005256  0.20371876  0.45000000  1
  O  O163  1  0.42005256  0.20371876  0.65000000  1
  O  O164  1  0.42005256  0.20371876  0.85000000  1
  O  O165  1  0.42005256  0.70371876  0.05000000  1
  O  O166  1  0.42005256  0.70371876  0.25000000  1
  O  O167  1  0.42005256  0.70371876  0.45000000  1
  O  O168  1  0.42005256  0.70371876  0.65000000  1
  O  O169  1  0.42005256  0.70371876  0.85000000  1
  O  O170  1  0.92005256  0.20371876  0.05000000  1
  O  O171  1  0.92005256  0.20371876  0.25000000  1
  O  O172  1  0.92005256  0.20371876  0.45000000  1
  O  O173  1  0.92005256  0.20371876  0.65000000  1
  O  O174  1  0.92005256  0.20371876  0.85000000  1
  O  O175  1  0.92005256  0.70371876  0.05000000  1
  O  O176  1  0.92005256  0.70371876  0.25000000  1
  O  O177  1  0.92005256  0.70371876  0.45000000  1
  O  O178  1  0.92005256  0.70371876  0.65000000  1
  O  O179  1  0.92005256  0.70371876  0.85000000  1
  O  O180  1  0.21633380  0.42005256  0.15000000  1
  O  O181  1  0.21633380  0.42005256  0.35000000  1
  O  O182  1  0.21633380  0.42005256  0.55000000  1
  O  O183  1  0.21633380  0.42005256  0.75000000  1
  O  O184  1  0.21633380  0.42005256  0.95000000  1
  O  O185  1  0.21633380  0.92005256  0.15000000  1
  O  O186  1  0.21633380  0.92005256  0.35000000  1
  O  O187  1  0.21633380  0.92005256  0.55000000  1
  O  O188  1  0.21633380  0.92005256  0.75000000  1
  O  O189  1  0.21633380  0.92005256  0.95000000  1
  O  O190  1  0.71633380  0.42005256  0.15000000  1
  O  O191  1  0.71633380  0.42005256  0.35000000  1
  O  O192  1  0.71633380  0.42005256  0.55000000  1
  O  O193  1  0.71633380  0.42005256  0.75000000  1
  O  O194  1  0.71633380  0.42005256  0.95000000  1
  O  O195  1  0.71633380  0.92005256  0.15000000  1
  O  O196  1  0.71633380  0.92005256  0.35000000  1
  O  O197  1  0.71633380  0.92005256  0.55000000  1
  O  O198  1  0.71633380  0.92005256  0.75000000  1
  O  O199  1  0.71633380  0.92005256  0.95000000  1
  O  O200  1  0.20371876  0.28366620  0.15000000  1
  O  O201  1  0.20371876  0.28366620  0.35000000  1
  O  O202  1  0.20371876  0.28366620  0.55000000  1
  O  O203  1  0.20371876  0.28366620  0.75000000  1
  O  O204  1  0.20371876  0.28366620  0.95000000  1
  O  O205  1  0.20371876  0.78366620  0.15000000  1
  O  O206  1  0.20371876  0.78366620  0.35000000  1
  O  O207  1  0.20371876  0.78366620  0.55000000  1
  O  O208  1  0.20371876  0.78366620  0.75000000  1
  O  O209  1  0.20371876  0.78366620  0.95000000  1
  O  O210  1  0.70371876  0.28366620  0.15000000  1
  O  O211  1  0.70371876  0.28366620  0.35000000  1
  O  O212  1  0.70371876  0.28366620  0.55000000  1
  O  O213  1  0.70371876  0.28366620  0.75000000  1
  O  O214  1  0.70371876  0.28366620  0.95000000  1
  O  O215  1  0.70371876  0.78366620  0.15000000  1
  O  O216  1  0.70371876  0.78366620  0.35000000  1
  O  O217  1  0.70371876  0.78366620  0.55000000  1
  O  O218  1  0.70371876  0.78366620  0.75000000  1
  O  O219  1  0.70371876  0.78366620  0.95000000  1
  O  O220  1  0.29628124  0.21633380  0.05000000  1
  O  O221  1  0.29628124  0.21633380  0.25000000  1
  O  O222  1  0.29628124  0.21633380  0.45000000  1
  O  O223  1  0.29628124  0.21633380  0.65000000  1
  O  O224  1  0.29628124  0.21633380  0.85000000  1
  O  O225  1  0.29628124  0.71633380  0.05000000  1
  O  O226  1  0.29628124  0.71633380  0.25000000  1
  O  O227  1  0.29628124  0.71633380  0.45000000  1
  O  O228  1  0.29628124  0.71633380  0.65000000  1
  O  O229  1  0.29628124  0.71633380  0.85000000  1
  O  O230  1  0.79628124  0.21633380  0.05000000  1
  O  O231  1  0.79628124  0.21633380  0.25000000  1
  O  O232  1  0.79628124  0.21633380  0.45000000  1
  O  O233  1  0.79628124  0.21633380  0.65000000  1
  O  O234  1  0.79628124  0.21633380  0.85000000  1
  O  O235  1  0.79628124  0.71633380  0.05000000  1
  O  O236  1  0.79628124  0.71633380  0.25000000  1
  O  O237  1  0.79628124  0.71633380  0.45000000  1
  O  O238  1  0.79628124  0.71633380  0.65000000  1
  O  O239  1  0.79628124  0.71633380  0.85000000  1
  O  O240  1  0.07994744  0.29628124  0.15000000  1
  O  O241  1  0.07994744  0.29628124  0.35000000  1
  O  O242  1  0.07994744  0.29628124  0.55000000  1
  O  O243  1  0.07994744  0.29628124  0.75000000  1
  O  O244  1  0.07994744  0.29628124  0.95000000  1
  O  O245  1  0.07994744  0.79628124  0.15000000  1
  O  O246  1  0.07994744  0.79628124  0.35000000  1
  O  O247  1  0.07994744  0.79628124  0.55000000  1
  O  O248  1  0.07994744  0.79628124  0.75000000  1
  O  O249  1  0.07994744  0.79628124  0.95000000  1
  O  O250  1  0.57994744  0.29628124  0.15000000  1
  O  O251  1  0.57994744  0.29628124  0.35000000  1
  O  O252  1  0.57994744  0.29628124  0.55000000  1
  O  O253  1  0.57994744  0.29628124  0.75000000  1
  O  O254  1  0.57994744  0.29628124  0.95000000  1
  O  O255  1  0.57994744  0.79628124  0.15000000  1
  O  O256  1  0.57994744  0.79628124  0.35000000  1
  O  O257  1  0.57994744  0.79628124  0.55000000  1
  O  O258  1  0.57994744  0.79628124  0.75000000  1
  O  O259  1  0.57994744  0.79628124  0.95000000  1
  O  O260  1  0.28366620  0.07994744  0.05000000  1
  O  O261  1  0.28366620  0.07994744  0.25000000  1
  O  O262  1  0.28366620  0.07994744  0.45000000  1
  O  O263  1  0.28366620  0.07994744  0.65000000  1
  O  O264  1  0.28366620  0.07994744  0.85000000  1
  O  O265  1  0.28366620  0.57994744  0.05000000  1
  O  O266  1  0.28366620  0.57994744  0.25000000  1
  O  O267  1  0.28366620  0.57994744  0.45000000  1
  O  O268  1  0.28366620  0.57994744  0.65000000  1
  O  O269  1  0.28366620  0.57994744  0.85000000  1
  O  O270  1  0.78366620  0.07994744  0.05000000  1
  O  O271  1  0.78366620  0.07994744  0.25000000  1
  O  O272  1  0.78366620  0.07994744  0.45000000  1
  O  O273  1  0.78366620  0.07994744  0.65000000  1
  O  O274  1  0.78366620  0.07994744  0.85000000  1
  O  O275  1  0.78366620  0.57994744  0.05000000  1
  O  O276  1  0.78366620  0.57994744  0.25000000  1
  O  O277  1  0.78366620  0.57994744  0.45000000  1
  O  O278  1  0.78366620  0.57994744  0.65000000  1
  O  O279  1  0.78366620  0.57994744  0.85000000  1
