# generated using pymatgen
data_Cs2SrV4O12
_symmetry_space_group_name_H-M   'P 1'
_cell_length_a   11.19115069
_cell_length_b   11.19115069
_cell_length_c   11.18378661
_cell_angle_alpha   90.00000000
_cell_angle_beta   90.00000000
_cell_angle_gamma   90.00000000
_symmetry_Int_Tables_number   1
_chemical_formula_structural   Cs2SrV4O12
_chemical_formula_sum   'Cs8 Sr4 V16 O48'
_cell_volume   1400.67816811
_cell_formula_units_Z   4
loop_
 _symmetry_equiv_pos_site_id
 _symmetry_equiv_pos_as_xyz
  1  'x, y, z'
loop_
 _atom_site_type_symbol
 _atom_site_label
 _atom_site_symmetry_multiplicity
 _atom_site_fract_x
 _atom_site_fract_y
 _atom_site_fract_z
 _atom_site_occupancy
  Cs  Cs0  1  0.25000000  0.25000000  0.25000000  1
  Cs  Cs1  1  0.25000000  0.25000000  0.75000000  1
  Cs  Cs2  1  0.75000000  0.75000000  0.25000000  1
  Cs  Cs3  1  0.75000000  0.75000000  0.75000000  1
  Cs  Cs4  1  0.25000000  -0.25000000  0.25000000  1
  Cs  Cs5  1  0.25000000  -0.25000000  0.75000000  1
  Cs  Cs6  1  0.75000000  0.25000000  0.25000000  1
  Cs  Cs7  1  0.75000000  0.25000000  0.75000000  1
  Sr  Sr8  1  0.50000000  0.00000000  0.25000000  1
  Sr  Sr9  1  0.50000000  0.00000000  0.75000000  1
  Sr  Sr10  1  1.00000000  0.50000000  0.25000000  1
  Sr  Sr11  1  1.00000000  0.50000000  0.75000000  1
  V  V12  1  0.22270779  0.00000000  0.00000000  1
  V  V13  1  0.22270779  0.00000000  0.50000000  1
  V  V14  1  0.72270779  0.50000000  0.00000000  1
  V  V15  1  0.72270779  0.50000000  0.50000000  1
  V  V16  1  0.50000000  -0.27729221  0.00000000  1
  V  V17  1  0.50000000  -0.27729221  0.50000000  1
  V  V18  1  1.00000000  0.22270779  0.00000000  1
  V  V19  1  1.00000000  0.22270779  0.50000000  1
  V  V20  1  0.50000000  0.27729221  0.00000000  1
  V  V21  1  0.50000000  0.27729221  0.50000000  1
  V  V22  1  1.00000000  0.77729221  0.00000000  1
  V  V23  1  1.00000000  0.77729221  0.50000000  1
  V  V24  1  0.77729221  -0.00000000  0.00000000  1
  V  V25  1  0.77729221  -0.00000000  0.50000000  1
  V  V26  1  1.27729221  0.50000000  0.00000000  1
  V  V27  1  1.27729221  0.50000000  0.50000000  1
  O  O28  1  0.69267714  -0.00000000  0.37806058  1
  O  O29  1  0.69267714  -0.00000000  0.87806058  1
  O  O30  1  1.19267714  0.50000000  0.37806058  1
  O  O31  1  1.19267714  0.50000000  0.87806058  1
  O  O32  1  0.30732286  0.00000000  0.37806058  1
  O  O33  1  0.30732286  0.00000000  0.87806058  1
  O  O34  1  0.80732286  0.50000000  0.37806058  1
  O  O35  1  0.80732286  0.50000000  0.87806058  1
  O  O36  1  0.50000000  -0.19267714  0.37806058  1
  O  O37  1  0.50000000  -0.19267714  0.87806058  1
  O  O38  1  1.00000000  0.30732286  0.37806058  1
  O  O39  1  1.00000000  0.30732286  0.87806058  1
  O  O40  1  0.50000000  0.19267714  0.37806058  1
  O  O41  1  0.50000000  0.19267714  0.87806058  1
  O  O42  1  1.00000000  0.69267714  0.37806058  1
  O  O43  1  1.00000000  0.69267714  0.87806058  1
  O  O44  1  0.50000000  0.19267714  0.12193942  1
  O  O45  1  0.50000000  0.19267714  0.62193942  1
  O  O46  1  1.00000000  0.69267714  0.12193942  1
  O  O47  1  1.00000000  0.69267714  0.62193942  1
  O  O48  1  0.30732286  0.00000000  0.12193942  1
  O  O49  1  0.30732286  0.00000000  0.62193942  1
  O  O50  1  0.80732286  0.50000000  0.12193942  1
  O  O51  1  0.80732286  0.50000000  0.62193942  1
  O  O52  1  0.69267714  -0.00000000  0.12193942  1
  O  O53  1  0.69267714  -0.00000000  0.62193942  1
  O  O54  1  1.19267714  0.50000000  0.12193942  1
  O  O55  1  1.19267714  0.50000000  0.62193942  1
  O  O56  1  0.50000000  -0.19267714  0.12193942  1
  O  O57  1  0.50000000  -0.19267714  0.62193942  1
  O  O58  1  1.00000000  0.30732286  0.12193942  1
  O  O59  1  1.00000000  0.30732286  0.62193942  1
  O  O60  1  0.13206819  -0.13206819  0.00000000  1
  O  O61  1  0.13206819  -0.13206819  0.50000000  1
  O  O62  1  0.63206819  0.36793181  0.00000000  1
  O  O63  1  0.63206819  0.36793181  0.50000000  1
  O  O64  1  0.13206819  0.13206819  0.00000000  1
  O  O65  1  0.13206819  0.13206819  0.50000000  1
  O  O66  1  0.63206819  0.63206819  0.00000000  1
  O  O67  1  0.63206819  0.63206819  0.50000000  1
  O  O68  1  0.36793181  0.36793181  0.00000000  1
  O  O69  1  0.36793181  0.36793181  0.50000000  1
  O  O70  1  0.86793181  0.86793181  0.00000000  1
  O  O71  1  0.86793181  0.86793181  0.50000000  1
  O  O72  1  0.36793181  -0.36793181  0.00000000  1
  O  O73  1  0.36793181  -0.36793181  0.50000000  1
  O  O74  1  0.86793181  0.13206819  0.00000000  1
  O  O75  1  0.86793181  0.13206819  0.50000000  1
