# generated using pymatgen
data_Na2Zn2O3
_symmetry_space_group_name_H-M   'P 1'
_cell_length_a   17.11996829
_cell_length_b   17.11996829
_cell_length_c   18.54280539
_cell_angle_alpha   90.00000000
_cell_angle_beta   90.00000000
_cell_angle_gamma   90.00000000
_symmetry_Int_Tables_number   1
_chemical_formula_structural   Na2Zn2O3
_chemical_formula_sum   'Na128 Zn128 O192'
_cell_volume   5434.77228549
_cell_formula_units_Z   64
loop_
 _symmetry_equiv_pos_site_id
 _symmetry_equiv_pos_as_xyz
  1  'x, y, z'
loop_
 _atom_site_type_symbol
 _atom_site_label
 _atom_site_symmetry_multiplicity
 _atom_site_fract_x
 _atom_site_fract_y
 _atom_site_fract_z
 _atom_site_occupancy
  Na  Na0  1  0.69778812  0.42918551  0.32294262  1
  Na  Na1  1  0.69778812  0.42918551  0.82294262  1
  Na  Na2  1  0.19778812  0.42918551  0.32294262  1
  Na  Na3  1  0.19778812  0.42918551  0.82294262  1
  Na  Na4  1  0.44778812  0.17918551  0.32294262  1
  Na  Na5  1  0.44778812  0.17918551  0.82294262  1
  Na  Na6  1  0.69778812  -0.07081449  0.32294262  1
  Na  Na7  1  0.69778812  -0.07081449  0.82294262  1
  Na  Na8  1  -0.05221188  0.17918551  0.32294262  1
  Na  Na9  1  -0.05221188  0.17918551  0.82294262  1
  Na  Na10  1  0.19778812  -0.07081449  0.32294262  1
  Na  Na11  1  0.19778812  -0.07081449  0.82294262  1
  Na  Na12  1  0.44778812  -0.32081449  0.32294262  1
  Na  Na13  1  0.44778812  -0.32081449  0.82294262  1
  Na  Na14  1  -0.05221188  -0.32081449  0.32294262  1
  Na  Na15  1  -0.05221188  -0.32081449  0.82294262  1
  Na  Na16  1  0.57081449  0.44778812  0.19794262  1
  Na  Na17  1  0.57081449  0.44778812  0.69794262  1
  Na  Na18  1  0.07081449  0.44778812  0.19794262  1
  Na  Na19  1  0.07081449  0.44778812  0.69794262  1
  Na  Na20  1  0.32081449  0.19778812  0.19794262  1
  Na  Na21  1  0.32081449  0.19778812  0.69794262  1
  Na  Na22  1  0.57081449  -0.05221188  0.19794262  1
  Na  Na23  1  0.57081449  -0.05221188  0.69794262  1
  Na  Na24  1  -0.17918551  0.19778812  0.19794262  1
  Na  Na25  1  -0.17918551  0.19778812  0.69794262  1
  Na  Na26  1  0.07081449  -0.05221188  0.19794262  1
  Na  Na27  1  0.07081449  -0.05221188  0.69794262  1
  Na  Na28  1  0.32081449  -0.30221188  0.19794262  1
  Na  Na29  1  0.32081449  -0.30221188  0.69794262  1
  Na  Na30  1  -0.17918551  -0.30221188  0.19794262  1
  Na  Na31  1  -0.17918551  -0.30221188  0.69794262  1
  Na  Na32  1  0.69778812  0.57081449  0.42705738  1
  Na  Na33  1  0.69778812  0.57081449  0.92705738  1
  Na  Na34  1  0.19778812  0.57081449  0.42705738  1
  Na  Na35  1  0.19778812  0.57081449  0.92705738  1
  Na  Na36  1  0.44778812  0.32081449  0.42705738  1
  Na  Na37  1  0.44778812  0.32081449  0.92705738  1
  Na  Na38  1  0.69778812  0.07081449  0.42705738  1
  Na  Na39  1  0.69778812  0.07081449  0.92705738  1
  Na  Na40  1  -0.05221188  0.32081449  0.42705738  1
  Na  Na41  1  -0.05221188  0.32081449  0.92705738  1
  Na  Na42  1  0.19778812  0.07081449  0.42705738  1
  Na  Na43  1  0.19778812  0.07081449  0.92705738  1
  Na  Na44  1  0.44778812  -0.17918551  0.42705738  1
  Na  Na45  1  0.44778812  -0.17918551  0.92705738  1
  Na  Na46  1  -0.05221188  -0.17918551  0.42705738  1
  Na  Na47  1  -0.05221188  -0.17918551  0.92705738  1
  Na  Na48  1  0.80221188  0.57081449  0.07294262  1
  Na  Na49  1  0.80221188  0.57081449  0.57294262  1
  Na  Na50  1  0.30221188  0.57081449  0.07294262  1
  Na  Na51  1  0.30221188  0.57081449  0.57294262  1
  Na  Na52  1  0.55221188  0.32081449  0.07294262  1
  Na  Na53  1  0.55221188  0.32081449  0.57294262  1
  Na  Na54  1  0.80221188  0.07081449  0.07294262  1
  Na  Na55  1  0.80221188  0.07081449  0.57294262  1
  Na  Na56  1  0.05221188  0.32081449  0.07294262  1
  Na  Na57  1  0.05221188  0.32081449  0.57294262  1
  Na  Na58  1  0.30221188  0.07081449  0.07294262  1
  Na  Na59  1  0.30221188  0.07081449  0.57294262  1
  Na  Na60  1  0.55221188  -0.17918551  0.07294262  1
  Na  Na61  1  0.55221188  -0.17918551  0.57294262  1
  Na  Na62  1  0.05221188  -0.17918551  0.07294262  1
  Na  Na63  1  0.05221188  -0.17918551  0.57294262  1
  Na  Na64  1  0.92918551  0.55221188  0.44794262  1
  Na  Na65  1  0.92918551  0.55221188  0.94794262  1
  Na  Na66  1  0.42918551  0.55221188  0.44794262  1
  Na  Na67  1  0.42918551  0.55221188  0.94794262  1
  Na  Na68  1  0.67918551  0.30221188  0.44794262  1
  Na  Na69  1  0.67918551  0.30221188  0.94794262  1
  Na  Na70  1  0.92918551  0.05221188  0.44794262  1
  Na  Na71  1  0.92918551  0.05221188  0.94794262  1
  Na  Na72  1  0.17918551  0.30221188  0.44794262  1
  Na  Na73  1  0.17918551  0.30221188  0.94794262  1
  Na  Na74  1  0.42918551  0.05221188  0.44794262  1
  Na  Na75  1  0.42918551  0.05221188  0.94794262  1
  Na  Na76  1  0.67918551  -0.19778812  0.44794262  1
  Na  Na77  1  0.67918551  -0.19778812  0.94794262  1
  Na  Na78  1  0.17918551  -0.19778812  0.44794262  1
  Na  Na79  1  0.17918551  -0.19778812  0.94794262  1
  Na  Na80  1  0.57081449  0.55221188  0.05205738  1
  Na  Na81  1  0.57081449  0.55221188  0.55205738  1
  Na  Na82  1  0.07081449  0.55221188  0.05205738  1
  Na  Na83  1  0.07081449  0.55221188  0.55205738  1
  Na  Na84  1  0.32081449  0.30221188  0.05205738  1
  Na  Na85  1  0.32081449  0.30221188  0.55205738  1
  Na  Na86  1  0.57081449  0.05221188  0.05205738  1
  Na  Na87  1  0.57081449  0.05221188  0.55205738  1
  Na  Na88  1  -0.17918551  0.30221188  0.05205738  1
  Na  Na89  1  -0.17918551  0.30221188  0.55205738  1
  Na  Na90  1  0.07081449  0.05221188  0.05205738  1
  Na  Na91  1  0.07081449  0.05221188  0.55205738  1
  Na  Na92  1  0.32081449  -0.19778812  0.05205738  1
  Na  Na93  1  0.32081449  -0.19778812  0.55205738  1
  Na  Na94  1  -0.17918551  -0.19778812  0.05205738  1
  Na  Na95  1  -0.17918551  -0.19778812  0.55205738  1
  Na  Na96  1  0.80221188  0.42918551  0.17705738  1
  Na  Na97  1  0.80221188  0.42918551  0.67705738  1
  Na  Na98  1  0.30221188  0.42918551  0.17705738  1
  Na  Na99  1  0.30221188  0.42918551  0.67705738  1
  Na  Na100  1  0.55221188  0.17918551  0.17705738  1
  Na  Na101  1  0.55221188  0.17918551  0.67705738  1
  Na  Na102  1  0.80221188  -0.07081449  0.17705738  1
  Na  Na103  1  0.80221188  -0.07081449  0.67705738  1
  Na  Na104  1  0.05221188  0.17918551  0.17705738  1
  Na  Na105  1  0.05221188  0.17918551  0.67705738  1
  Na  Na106  1  0.30221188  -0.07081449  0.17705738  1
  Na  Na107  1  0.30221188  -0.07081449  0.67705738  1
  Na  Na108  1  0.55221188  -0.32081449  0.17705738  1
  Na  Na109  1  0.55221188  -0.32081449  0.67705738  1
  Na  Na110  1  0.05221188  -0.32081449  0.17705738  1
  Na  Na111  1  0.05221188  -0.32081449  0.67705738  1
  Na  Na112  1  0.92918551  0.44778812  0.30205738  1
  Na  Na113  1  0.92918551  0.44778812  0.80205738  1
  Na  Na114  1  0.42918551  0.44778812  0.30205738  1
  Na  Na115  1  0.42918551  0.44778812  0.80205738  1
  Na  Na116  1  0.67918551  0.19778812  0.30205738  1
  Na  Na117  1  0.67918551  0.19778812  0.80205738  1
  Na  Na118  1  0.92918551  -0.05221188  0.30205738  1
  Na  Na119  1  0.92918551  -0.05221188  0.80205738  1
  Na  Na120  1  0.17918551  0.19778812  0.30205738  1
  Na  Na121  1  0.17918551  0.19778812  0.80205738  1
  Na  Na122  1  0.42918551  -0.05221188  0.30205738  1
  Na  Na123  1  0.42918551  -0.05221188  0.80205738  1
  Na  Na124  1  0.67918551  -0.30221188  0.30205738  1
  Na  Na125  1  0.67918551  -0.30221188  0.80205738  1
  Na  Na126  1  0.17918551  -0.30221188  0.30205738  1
  Na  Na127  1  0.17918551  -0.30221188  0.80205738  1
  Zn  Zn128  1  0.79871910  0.57225599  0.30700708  1
  Zn  Zn129  1  0.79871910  0.57225599  0.80700708  1
  Zn  Zn130  1  0.29871910  0.57225599  0.30700708  1
  Zn  Zn131  1  0.29871910  0.57225599  0.80700708  1
  Zn  Zn132  1  0.54871910  0.32225599  0.30700708  1
  Zn  Zn133  1  0.54871910  0.32225599  0.80700708  1
  Zn  Zn134  1  0.79871910  0.07225599  0.30700708  1
  Zn  Zn135  1  0.79871910  0.07225599  0.80700708  1
  Zn  Zn136  1  0.04871910  0.32225599  0.30700708  1
  Zn  Zn137  1  0.04871910  0.32225599  0.80700708  1
  Zn  Zn138  1  0.29871910  0.07225599  0.30700708  1
  Zn  Zn139  1  0.29871910  0.07225599  0.80700708  1
  Zn  Zn140  1  0.54871910  -0.17774401  0.30700708  1
  Zn  Zn141  1  0.54871910  -0.17774401  0.80700708  1
  Zn  Zn142  1  0.04871910  -0.17774401  0.30700708  1
  Zn  Zn143  1  0.04871910  -0.17774401  0.80700708  1
  Zn  Zn144  1  0.92774401  0.54871910  0.18200708  1
  Zn  Zn145  1  0.92774401  0.54871910  0.68200708  1
  Zn  Zn146  1  0.42774401  0.54871910  0.18200708  1
  Zn  Zn147  1  0.42774401  0.54871910  0.68200708  1
  Zn  Zn148  1  0.67774401  0.29871910  0.18200708  1
  Zn  Zn149  1  0.67774401  0.29871910  0.68200708  1
  Zn  Zn150  1  0.92774401  0.04871910  0.18200708  1
  Zn  Zn151  1  0.92774401  0.04871910  0.68200708  1
  Zn  Zn152  1  0.17774401  0.29871910  0.18200708  1
  Zn  Zn153  1  0.17774401  0.29871910  0.68200708  1
  Zn  Zn154  1  0.42774401  0.04871910  0.18200708  1
  Zn  Zn155  1  0.42774401  0.04871910  0.68200708  1
  Zn  Zn156  1  0.67774401  -0.20128090  0.18200708  1
  Zn  Zn157  1  0.67774401  -0.20128090  0.68200708  1
  Zn  Zn158  1  0.17774401  -0.20128090  0.18200708  1
  Zn  Zn159  1  0.17774401  -0.20128090  0.68200708  1
  Zn  Zn160  1  0.70128090  0.57225599  0.19299292  1
  Zn  Zn161  1  0.70128090  0.57225599  0.69299292  1
  Zn  Zn162  1  0.20128090  0.57225599  0.19299292  1
  Zn  Zn163  1  0.20128090  0.57225599  0.69299292  1
  Zn  Zn164  1  0.45128090  0.32225599  0.19299292  1
  Zn  Zn165  1  0.45128090  0.32225599  0.69299292  1
  Zn  Zn166  1  0.70128090  0.07225599  0.19299292  1
  Zn  Zn167  1  0.70128090  0.07225599  0.69299292  1
  Zn  Zn168  1  -0.04871910  0.32225599  0.19299292  1
  Zn  Zn169  1  -0.04871910  0.32225599  0.69299292  1
  Zn  Zn170  1  0.20128090  0.07225599  0.19299292  1
  Zn  Zn171  1  0.20128090  0.07225599  0.69299292  1
  Zn  Zn172  1  0.45128090  -0.17774401  0.19299292  1
  Zn  Zn173  1  0.45128090  -0.17774401  0.69299292  1
  Zn  Zn174  1  -0.04871910  -0.17774401  0.19299292  1
  Zn  Zn175  1  -0.04871910  -0.17774401  0.69299292  1
  Zn  Zn176  1  0.57225599  0.54871910  0.31799292  1
  Zn  Zn177  1  0.57225599  0.54871910  0.81799292  1
  Zn  Zn178  1  0.07225599  0.54871910  0.31799292  1
  Zn  Zn179  1  0.07225599  0.54871910  0.81799292  1
  Zn  Zn180  1  0.32225599  0.29871910  0.31799292  1
  Zn  Zn181  1  0.32225599  0.29871910  0.81799292  1
  Zn  Zn182  1  0.57225599  0.04871910  0.31799292  1
  Zn  Zn183  1  0.57225599  0.04871910  0.81799292  1
  Zn  Zn184  1  -0.17774401  0.29871910  0.31799292  1
  Zn  Zn185  1  -0.17774401  0.29871910  0.81799292  1
  Zn  Zn186  1  0.07225599  0.04871910  0.31799292  1
  Zn  Zn187  1  0.07225599  0.04871910  0.81799292  1
  Zn  Zn188  1  0.32225599  -0.20128090  0.31799292  1
  Zn  Zn189  1  0.32225599  -0.20128090  0.81799292  1
  Zn  Zn190  1  -0.17774401  -0.20128090  0.31799292  1
  Zn  Zn191  1  -0.17774401  -0.20128090  0.81799292  1
  Zn  Zn192  1  0.92774401  0.45128090  0.06799292  1
  Zn  Zn193  1  0.92774401  0.45128090  0.56799292  1
  Zn  Zn194  1  0.42774401  0.45128090  0.06799292  1
  Zn  Zn195  1  0.42774401  0.45128090  0.56799292  1
  Zn  Zn196  1  0.67774401  0.20128090  0.06799292  1
  Zn  Zn197  1  0.67774401  0.20128090  0.56799292  1
  Zn  Zn198  1  0.92774401  -0.04871910  0.06799292  1
  Zn  Zn199  1  0.92774401  -0.04871910  0.56799292  1
  Zn  Zn200  1  0.17774401  0.20128090  0.06799292  1
  Zn  Zn201  1  0.17774401  0.20128090  0.56799292  1
  Zn  Zn202  1  0.42774401  -0.04871910  0.06799292  1
  Zn  Zn203  1  0.42774401  -0.04871910  0.56799292  1
  Zn  Zn204  1  0.67774401  -0.29871910  0.06799292  1
  Zn  Zn205  1  0.67774401  -0.29871910  0.56799292  1
  Zn  Zn206  1  0.17774401  -0.29871910  0.06799292  1
  Zn  Zn207  1  0.17774401  -0.29871910  0.56799292  1
  Zn  Zn208  1  0.79871910  0.42774401  0.44299292  1
  Zn  Zn209  1  0.79871910  0.42774401  0.94299292  1
  Zn  Zn210  1  0.29871910  0.42774401  0.44299292  1
  Zn  Zn211  1  0.29871910  0.42774401  0.94299292  1
  Zn  Zn212  1  0.54871910  0.17774401  0.44299292  1
  Zn  Zn213  1  0.54871910  0.17774401  0.94299292  1
  Zn  Zn214  1  0.79871910  -0.07225599  0.44299292  1
  Zn  Zn215  1  0.79871910  -0.07225599  0.94299292  1
  Zn  Zn216  1  0.04871910  0.17774401  0.44299292  1
  Zn  Zn217  1  0.04871910  0.17774401  0.94299292  1
  Zn  Zn218  1  0.29871910  -0.07225599  0.44299292  1
  Zn  Zn219  1  0.29871910  -0.07225599  0.94299292  1
  Zn  Zn220  1  0.54871910  -0.32225599  0.44299292  1
  Zn  Zn221  1  0.54871910  -0.32225599  0.94299292  1
  Zn  Zn222  1  0.04871910  -0.32225599  0.44299292  1
  Zn  Zn223  1  0.04871910  -0.32225599  0.94299292  1
  Zn  Zn224  1  0.57225599  0.45128090  0.43200708  1
  Zn  Zn225  1  0.57225599  0.45128090  0.93200708  1
  Zn  Zn226  1  0.07225599  0.45128090  0.43200708  1
  Zn  Zn227  1  0.07225599  0.45128090  0.93200708  1
  Zn  Zn228  1  0.32225599  0.20128090  0.43200708  1
  Zn  Zn229  1  0.32225599  0.20128090  0.93200708  1
  Zn  Zn230  1  0.57225599  -0.04871910  0.43200708  1
  Zn  Zn231  1  0.57225599  -0.04871910  0.93200708  1
  Zn  Zn232  1  -0.17774401  0.20128090  0.43200708  1
  Zn  Zn233  1  -0.17774401  0.20128090  0.93200708  1
  Zn  Zn234  1  0.07225599  -0.04871910  0.43200708  1
  Zn  Zn235  1  0.07225599  -0.04871910  0.93200708  1
  Zn  Zn236  1  0.32225599  -0.29871910  0.43200708  1
  Zn  Zn237  1  0.32225599  -0.29871910  0.93200708  1
  Zn  Zn238  1  -0.17774401  -0.29871910  0.43200708  1
  Zn  Zn239  1  -0.17774401  -0.29871910  0.93200708  1
  Zn  Zn240  1  0.70128090  0.42774401  0.05700708  1
  Zn  Zn241  1  0.70128090  0.42774401  0.55700708  1
  Zn  Zn242  1  0.20128090  0.42774401  0.05700708  1
  Zn  Zn243  1  0.20128090  0.42774401  0.55700708  1
  Zn  Zn244  1  0.45128090  0.17774401  0.05700708  1
  Zn  Zn245  1  0.45128090  0.17774401  0.55700708  1
  Zn  Zn246  1  0.70128090  -0.07225599  0.05700708  1
  Zn  Zn247  1  0.70128090  -0.07225599  0.55700708  1
  Zn  Zn248  1  -0.04871910  0.17774401  0.05700708  1
  Zn  Zn249  1  -0.04871910  0.17774401  0.55700708  1
  Zn  Zn250  1  0.20128090  -0.07225599  0.05700708  1
  Zn  Zn251  1  0.20128090  -0.07225599  0.55700708  1
  Zn  Zn252  1  0.45128090  -0.32225599  0.05700708  1
  Zn  Zn253  1  0.45128090  -0.32225599  0.55700708  1
  Zn  Zn254  1  -0.04871910  -0.32225599  0.05700708  1
  Zn  Zn255  1  -0.04871910  -0.32225599  0.55700708  1
  O  O256  1  0.83548397  0.50000000  0.37500000  1
  O  O257  1  0.83548397  0.50000000  0.87500000  1
  O  O258  1  0.33548397  0.50000000  0.37500000  1
  O  O259  1  0.33548397  0.50000000  0.87500000  1
  O  O260  1  0.58548397  0.25000000  0.37500000  1
  O  O261  1  0.58548397  0.25000000  0.87500000  1
  O  O262  1  0.83548397  -0.00000000  0.37500000  1
  O  O263  1  0.83548397  -0.00000000  0.87500000  1
  O  O264  1  0.08548397  0.25000000  0.37500000  1
  O  O265  1  0.08548397  0.25000000  0.87500000  1
  O  O266  1  0.33548397  0.00000000  0.37500000  1
  O  O267  1  0.33548397  0.00000000  0.87500000  1
  O  O268  1  0.58548397  -0.25000000  0.37500000  1
  O  O269  1  0.58548397  -0.25000000  0.87500000  1
  O  O270  1  0.08548397  -0.25000000  0.37500000  1
  O  O271  1  0.08548397  -0.25000000  0.87500000  1
  O  O272  1  0.81849726  0.56082827  0.20448724  1
  O  O273  1  0.81849726  0.56082827  0.70448724  1
  O  O274  1  0.31849726  0.56082827  0.20448724  1
  O  O275  1  0.31849726  0.56082827  0.70448724  1
  O  O276  1  0.56849726  0.31082827  0.20448724  1
  O  O277  1  0.56849726  0.31082827  0.70448724  1
  O  O278  1  0.81849726  0.06082827  0.20448724  1
  O  O279  1  0.81849726  0.06082827  0.70448724  1
  O  O280  1  0.06849726  0.31082827  0.20448724  1
  O  O281  1  0.06849726  0.31082827  0.70448724  1
  O  O282  1  0.31849726  0.06082827  0.20448724  1
  O  O283  1  0.31849726  0.06082827  0.70448724  1
  O  O284  1  0.56849726  -0.18917173  0.20448724  1
  O  O285  1  0.56849726  -0.18917173  0.70448724  1
  O  O286  1  0.06849726  -0.18917173  0.20448724  1
  O  O287  1  0.06849726  -0.18917173  0.70448724  1
  O  O288  1  0.81849726  0.43917173  0.04551276  1
  O  O289  1  0.81849726  0.43917173  0.54551276  1
  O  O290  1  0.31849726  0.43917173  0.04551276  1
  O  O291  1  0.31849726  0.43917173  0.54551276  1
  O  O292  1  0.56849726  0.18917173  0.04551276  1
  O  O293  1  0.56849726  0.18917173  0.54551276  1
  O  O294  1  0.81849726  -0.06082827  0.04551276  1
  O  O295  1  0.81849726  -0.06082827  0.54551276  1
  O  O296  1  0.06849726  0.18917173  0.04551276  1
  O  O297  1  0.06849726  0.18917173  0.54551276  1
  O  O298  1  0.31849726  -0.06082827  0.04551276  1
  O  O299  1  0.31849726  -0.06082827  0.54551276  1
  O  O300  1  0.56849726  -0.31082827  0.04551276  1
  O  O301  1  0.56849726  -0.31082827  0.54551276  1
  O  O302  1  0.06849726  -0.31082827  0.04551276  1
  O  O303  1  0.06849726  -0.31082827  0.54551276  1
  O  O304  1  0.68150274  0.43917173  0.45448724  1
  O  O305  1  0.68150274  0.43917173  0.95448724  1
  O  O306  1  0.18150274  0.43917173  0.45448724  1
  O  O307  1  0.18150274  0.43917173  0.95448724  1
  O  O308  1  0.43150274  0.18917173  0.45448724  1
  O  O309  1  0.43150274  0.18917173  0.95448724  1
  O  O310  1  0.68150274  -0.06082827  0.45448724  1
  O  O311  1  0.68150274  -0.06082827  0.95448724  1
  O  O312  1  -0.06849726  0.18917173  0.45448724  1
  O  O313  1  -0.06849726  0.18917173  0.95448724  1
  O  O314  1  0.18150274  -0.06082827  0.45448724  1
  O  O315  1  0.18150274  -0.06082827  0.95448724  1
  O  O316  1  0.43150274  -0.31082827  0.45448724  1
  O  O317  1  0.43150274  -0.31082827  0.95448724  1
  O  O318  1  -0.06849726  -0.31082827  0.45448724  1
  O  O319  1  -0.06849726  -0.31082827  0.95448724  1
  O  O320  1  0.66451603  0.50000000  0.12500000  1
  O  O321  1  0.66451603  0.50000000  0.62500000  1
  O  O322  1  0.16451603  0.50000000  0.12500000  1
  O  O323  1  0.16451603  0.50000000  0.62500000  1
  O  O324  1  0.41451603  0.25000000  0.12500000  1
  O  O325  1  0.41451603  0.25000000  0.62500000  1
  O  O326  1  0.66451603  -0.00000000  0.12500000  1
  O  O327  1  0.66451603  -0.00000000  0.62500000  1
  O  O328  1  -0.08548397  0.25000000  0.12500000  1
  O  O329  1  -0.08548397  0.25000000  0.62500000  1
  O  O330  1  0.16451603  0.00000000  0.12500000  1
  O  O331  1  0.16451603  0.00000000  0.62500000  1
  O  O332  1  0.41451603  -0.25000000  0.12500000  1
  O  O333  1  0.41451603  -0.25000000  0.62500000  1
  O  O334  1  -0.08548397  -0.25000000  0.12500000  1
  O  O335  1  -0.08548397  -0.25000000  0.62500000  1
  O  O336  1  0.68917173  0.31849726  0.07948724  1
  O  O337  1  0.68917173  0.31849726  0.57948724  1
  O  O338  1  0.18917173  0.31849726  0.07948724  1
  O  O339  1  0.18917173  0.31849726  0.57948724  1
  O  O340  1  0.43917173  0.06849726  0.07948724  1
  O  O341  1  0.43917173  0.06849726  0.57948724  1
  O  O342  1  0.68917173  -0.18150274  0.07948724  1
  O  O343  1  0.68917173  -0.18150274  0.57948724  1
  O  O344  1  -0.06082827  0.06849726  0.07948724  1
  O  O345  1  -0.06082827  0.06849726  0.57948724  1
  O  O346  1  0.18917173  -0.18150274  0.07948724  1
  O  O347  1  0.18917173  -0.18150274  0.57948724  1
  O  O348  1  0.43917173  -0.43150274  0.07948724  1
  O  O349  1  0.43917173  -0.43150274  0.57948724  1
  O  O350  1  -0.06082827  -0.43150274  0.07948724  1
  O  O351  1  -0.06082827  -0.43150274  0.57948724  1
  O  O352  1  0.75000000  0.33548397  0.25000000  1
  O  O353  1  0.75000000  0.33548397  0.75000000  1
  O  O354  1  0.25000000  0.33548397  0.25000000  1
  O  O355  1  0.25000000  0.33548397  0.75000000  1
  O  O356  1  0.50000000  0.08548397  0.25000000  1
  O  O357  1  0.50000000  0.08548397  0.75000000  1
  O  O358  1  0.75000000  -0.16451603  0.25000000  1
  O  O359  1  0.75000000  -0.16451603  0.75000000  1
  O  O360  1  0.00000000  0.08548397  0.25000000  1
  O  O361  1  0.00000000  0.08548397  0.75000000  1
  O  O362  1  0.25000000  -0.16451603  0.25000000  1
  O  O363  1  0.25000000  -0.16451603  0.75000000  1
  O  O364  1  0.50000000  -0.41451603  0.25000000  1
  O  O365  1  0.50000000  -0.41451603  0.75000000  1
  O  O366  1  -0.00000000  -0.41451603  0.25000000  1
  O  O367  1  -0.00000000  -0.41451603  0.75000000  1
  O  O368  1  0.68150274  0.56082827  0.29551276  1
  O  O369  1  0.68150274  0.56082827  0.79551276  1
  O  O370  1  0.18150274  0.56082827  0.29551276  1
  O  O371  1  0.18150274  0.56082827  0.79551276  1
  O  O372  1  0.43150274  0.31082827  0.29551276  1
  O  O373  1  0.43150274  0.31082827  0.79551276  1
  O  O374  1  0.68150274  0.06082827  0.29551276  1
  O  O375  1  0.68150274  0.06082827  0.79551276  1
  O  O376  1  -0.06849726  0.31082827  0.29551276  1
  O  O377  1  -0.06849726  0.31082827  0.79551276  1
  O  O378  1  0.18150274  0.06082827  0.29551276  1
  O  O379  1  0.18150274  0.06082827  0.79551276  1
  O  O380  1  0.43150274  -0.18917173  0.29551276  1
  O  O381  1  0.43150274  -0.18917173  0.79551276  1
  O  O382  1  -0.06849726  -0.18917173  0.29551276  1
  O  O383  1  -0.06849726  -0.18917173  0.79551276  1
  O  O384  1  0.81082827  0.68150274  0.32948724  1
  O  O385  1  0.81082827  0.68150274  0.82948724  1
  O  O386  1  0.31082827  0.68150274  0.32948724  1
  O  O387  1  0.31082827  0.68150274  0.82948724  1
  O  O388  1  0.56082827  0.43150274  0.32948724  1
  O  O389  1  0.56082827  0.43150274  0.82948724  1
  O  O390  1  0.81082827  0.18150274  0.32948724  1
  O  O391  1  0.81082827  0.18150274  0.82948724  1
  O  O392  1  0.06082827  0.43150274  0.32948724  1
  O  O393  1  0.06082827  0.43150274  0.82948724  1
  O  O394  1  0.31082827  0.18150274  0.32948724  1
  O  O395  1  0.31082827  0.18150274  0.82948724  1
  O  O396  1  0.56082827  -0.06849726  0.32948724  1
  O  O397  1  0.56082827  -0.06849726  0.82948724  1
  O  O398  1  0.06082827  -0.06849726  0.32948724  1
  O  O399  1  0.06082827  -0.06849726  0.82948724  1
  O  O400  1  0.68917173  0.68150274  0.17051276  1
  O  O401  1  0.68917173  0.68150274  0.67051276  1
  O  O402  1  0.18917173  0.68150274  0.17051276  1
  O  O403  1  0.18917173  0.68150274  0.67051276  1
  O  O404  1  0.43917173  0.43150274  0.17051276  1
  O  O405  1  0.43917173  0.43150274  0.67051276  1
  O  O406  1  0.68917173  0.18150274  0.17051276  1
  O  O407  1  0.68917173  0.18150274  0.67051276  1
  O  O408  1  -0.06082827  0.43150274  0.17051276  1
  O  O409  1  -0.06082827  0.43150274  0.67051276  1
  O  O410  1  0.18917173  0.18150274  0.17051276  1
  O  O411  1  0.18917173  0.18150274  0.67051276  1
  O  O412  1  0.43917173  -0.06849726  0.17051276  1
  O  O413  1  0.43917173  -0.06849726  0.67051276  1
  O  O414  1  -0.06082827  -0.06849726  0.17051276  1
  O  O415  1  -0.06082827  -0.06849726  0.67051276  1
  O  O416  1  0.81082827  0.31849726  0.42051276  1
  O  O417  1  0.81082827  0.31849726  0.92051276  1
  O  O418  1  0.31082827  0.31849726  0.42051276  1
  O  O419  1  0.31082827  0.31849726  0.92051276  1
  O  O420  1  0.56082827  0.06849726  0.42051276  1
  O  O421  1  0.56082827  0.06849726  0.92051276  1
  O  O422  1  0.81082827  -0.18150274  0.42051276  1
  O  O423  1  0.81082827  -0.18150274  0.92051276  1
  O  O424  1  0.06082827  0.06849726  0.42051276  1
  O  O425  1  0.06082827  0.06849726  0.92051276  1
  O  O426  1  0.31082827  -0.18150274  0.42051276  1
  O  O427  1  0.31082827  -0.18150274  0.92051276  1
  O  O428  1  0.56082827  -0.43150274  0.42051276  1
  O  O429  1  0.56082827  -0.43150274  0.92051276  1
  O  O430  1  0.06082827  -0.43150274  0.42051276  1
  O  O431  1  0.06082827  -0.43150274  0.92051276  1
  O  O432  1  0.75000000  0.66451603  0.00000000  1
  O  O433  1  0.75000000  0.66451603  0.50000000  1
  O  O434  1  0.25000000  0.66451603  0.00000000  1
  O  O435  1  0.25000000  0.66451603  0.50000000  1
  O  O436  1  0.50000000  0.41451603  0.00000000  1
  O  O437  1  0.50000000  0.41451603  0.50000000  1
  O  O438  1  0.75000000  0.16451603  0.00000000  1
  O  O439  1  0.75000000  0.16451603  0.50000000  1
  O  O440  1  0.00000000  0.41451603  0.00000000  1
  O  O441  1  0.00000000  0.41451603  0.50000000  1
  O  O442  1  0.25000000  0.16451603  0.00000000  1
  O  O443  1  0.25000000  0.16451603  0.50000000  1
  O  O444  1  0.50000000  -0.08548397  0.00000000  1
  O  O445  1  0.50000000  -0.08548397  0.50000000  1
  O  O446  1  -0.00000000  -0.08548397  0.00000000  1
  O  O447  1  -0.00000000  -0.08548397  0.50000000  1
