# generated using pymatgen
data_Ga2O3
_symmetry_space_group_name_H-M   'P 1'
_cell_length_a   12.27969668
_cell_length_b   12.20167639
_cell_length_c   11.62752280
_cell_angle_alpha   90.00000000
_cell_angle_beta   103.71779566
_cell_angle_gamma   90.00000000
_symmetry_Int_Tables_number   1
_chemical_formula_structural   Ga2O3
_chemical_formula_sum   'Ga64 O96'
_cell_volume   1692.49034599
_cell_formula_units_Z   32
loop_
 _symmetry_equiv_pos_site_id
 _symmetry_equiv_pos_as_xyz
  1  'x, y, z'
loop_
 _atom_site_type_symbol
 _atom_site_label
 _atom_site_symmetry_multiplicity
 _atom_site_fract_x
 _atom_site_fract_y
 _atom_site_fract_z
 _atom_site_occupancy
  Ga  Ga0  1  0.34126975  0.00000000  0.34294904  1
  Ga  Ga1  1  0.34126975  0.00000000  0.84294904  1
  Ga  Ga2  1  0.34126975  0.25000000  0.34294904  1
  Ga  Ga3  1  0.34126975  0.25000000  0.84294904  1
  Ga  Ga4  1  0.34126975  0.50000000  0.34294904  1
  Ga  Ga5  1  0.34126975  0.50000000  0.84294904  1
  Ga  Ga6  1  0.34126975  0.75000000  0.34294904  1
  Ga  Ga7  1  0.34126975  0.75000000  0.84294904  1
  Ga  Ga8  1  0.84126975  0.12500000  0.34294904  1
  Ga  Ga9  1  0.84126975  0.12500000  0.84294904  1
  Ga  Ga10  1  0.84126975  0.37500000  0.34294904  1
  Ga  Ga11  1  0.84126975  0.37500000  0.84294904  1
  Ga  Ga12  1  0.84126975  0.62500000  0.34294904  1
  Ga  Ga13  1  0.84126975  0.62500000  0.84294904  1
  Ga  Ga14  1  0.84126975  0.87500000  0.34294904  1
  Ga  Ga15  1  0.84126975  0.87500000  0.84294904  1
  Ga  Ga16  1  0.65873025  -0.00000000  0.15705096  1
  Ga  Ga17  1  0.65873025  -0.00000000  0.65705096  1
  Ga  Ga18  1  0.65873025  0.25000000  0.15705096  1
  Ga  Ga19  1  0.65873025  0.25000000  0.65705096  1
  Ga  Ga20  1  0.65873025  0.50000000  0.15705096  1
  Ga  Ga21  1  0.65873025  0.50000000  0.65705096  1
  Ga  Ga22  1  0.65873025  0.75000000  0.15705096  1
  Ga  Ga23  1  0.65873025  0.75000000  0.65705096  1
  Ga  Ga24  1  1.15873025  0.12500000  0.15705096  1
  Ga  Ga25  1  1.15873025  0.12500000  0.65705096  1
  Ga  Ga26  1  1.15873025  0.37500000  0.15705096  1
  Ga  Ga27  1  1.15873025  0.37500000  0.65705096  1
  Ga  Ga28  1  1.15873025  0.62500000  0.15705096  1
  Ga  Ga29  1  1.15873025  0.62500000  0.65705096  1
  Ga  Ga30  1  1.15873025  0.87500000  0.15705096  1
  Ga  Ga31  1  1.15873025  0.87500000  0.65705096  1
  Ga  Ga32  1  0.90959460  -0.00000000  0.10244350  1
  Ga  Ga33  1  0.90959460  -0.00000000  0.60244350  1
  Ga  Ga34  1  0.90959460  0.25000000  0.10244350  1
  Ga  Ga35  1  0.90959460  0.25000000  0.60244350  1
  Ga  Ga36  1  0.90959460  0.50000000  0.10244350  1
  Ga  Ga37  1  0.90959460  0.50000000  0.60244350  1
  Ga  Ga38  1  0.90959460  0.75000000  0.10244350  1
  Ga  Ga39  1  0.90959460  0.75000000  0.60244350  1
  Ga  Ga40  1  1.40959460  0.12500000  0.10244350  1
  Ga  Ga41  1  1.40959460  0.12500000  0.60244350  1
  Ga  Ga42  1  1.40959460  0.37500000  0.10244350  1
  Ga  Ga43  1  1.40959460  0.37500000  0.60244350  1
  Ga  Ga44  1  1.40959460  0.62500000  0.10244350  1
  Ga  Ga45  1  1.40959460  0.62500000  0.60244350  1
  Ga  Ga46  1  1.40959460  0.87500000  0.10244350  1
  Ga  Ga47  1  1.40959460  0.87500000  0.60244350  1
  Ga  Ga48  1  0.09040540  0.00000000  0.39755650  1
  Ga  Ga49  1  0.09040540  0.00000000  0.89755650  1
  Ga  Ga50  1  0.09040540  0.25000000  0.39755650  1
  Ga  Ga51  1  0.09040540  0.25000000  0.89755650  1
  Ga  Ga52  1  0.09040540  0.50000000  0.39755650  1
  Ga  Ga53  1  0.09040540  0.50000000  0.89755650  1
  Ga  Ga54  1  0.09040540  0.75000000  0.39755650  1
  Ga  Ga55  1  0.09040540  0.75000000  0.89755650  1
  Ga  Ga56  1  0.59040540  0.12500000  0.39755650  1
  Ga  Ga57  1  0.59040540  0.12500000  0.89755650  1
  Ga  Ga58  1  0.59040540  0.37500000  0.39755650  1
  Ga  Ga59  1  0.59040540  0.37500000  0.89755650  1
  Ga  Ga60  1  0.59040540  0.62500000  0.39755650  1
  Ga  Ga61  1  0.59040540  0.62500000  0.89755650  1
  Ga  Ga62  1  0.59040540  0.87500000  0.39755650  1
  Ga  Ga63  1  0.59040540  0.87500000  0.89755650  1
  O  O64  1  0.50376180  -0.00000000  0.37201033  1
  O  O65  1  0.50376180  -0.00000000  0.87201033  1
  O  O66  1  0.50376180  0.25000000  0.37201033  1
  O  O67  1  0.50376180  0.25000000  0.87201033  1
  O  O68  1  0.50376180  0.50000000  0.37201033  1
  O  O69  1  0.50376180  0.50000000  0.87201033  1
  O  O70  1  0.50376180  0.75000000  0.37201033  1
  O  O71  1  0.50376180  0.75000000  0.87201033  1
  O  O72  1  1.00376180  0.12500000  0.37201033  1
  O  O73  1  1.00376180  0.12500000  0.87201033  1
  O  O74  1  1.00376180  0.37500000  0.37201033  1
  O  O75  1  1.00376180  0.37500000  0.87201033  1
  O  O76  1  1.00376180  0.62500000  0.37201033  1
  O  O77  1  1.00376180  0.62500000  0.87201033  1
  O  O78  1  1.00376180  0.87500000  0.37201033  1
  O  O79  1  1.00376180  0.87500000  0.87201033  1
  O  O80  1  0.49623820  0.00000000  0.12798967  1
  O  O81  1  0.49623820  0.00000000  0.62798967  1
  O  O82  1  0.49623820  0.25000000  0.12798967  1
  O  O83  1  0.49623820  0.25000000  0.62798967  1
  O  O84  1  0.49623820  0.50000000  0.12798967  1
  O  O85  1  0.49623820  0.50000000  0.62798967  1
  O  O86  1  0.49623820  0.75000000  0.12798967  1
  O  O87  1  0.49623820  0.75000000  0.62798967  1
  O  O88  1  0.99623820  0.12500000  0.12798967  1
  O  O89  1  0.99623820  0.12500000  0.62798967  1
  O  O90  1  0.99623820  0.37500000  0.12798967  1
  O  O91  1  0.99623820  0.37500000  0.62798967  1
  O  O92  1  0.99623820  0.62500000  0.12798967  1
  O  O93  1  0.99623820  0.62500000  0.62798967  1
  O  O94  1  0.99623820  0.87500000  0.12798967  1
  O  O95  1  0.99623820  0.87500000  0.62798967  1
  O  O96  1  0.82677274  -0.00000000  0.21857578  1
  O  O97  1  0.82677274  -0.00000000  0.71857578  1
  O  O98  1  0.82677274  0.25000000  0.21857578  1
  O  O99  1  0.82677274  0.25000000  0.71857578  1
  O  O100  1  0.82677274  0.50000000  0.21857578  1
  O  O101  1  0.82677274  0.50000000  0.71857578  1
  O  O102  1  0.82677274  0.75000000  0.21857578  1
  O  O103  1  0.82677274  0.75000000  0.71857578  1
  O  O104  1  1.32677274  0.12500000  0.21857578  1
  O  O105  1  1.32677274  0.12500000  0.71857578  1
  O  O106  1  1.32677274  0.37500000  0.21857578  1
  O  O107  1  1.32677274  0.37500000  0.71857578  1
  O  O108  1  1.32677274  0.62500000  0.21857578  1
  O  O109  1  1.32677274  0.62500000  0.71857578  1
  O  O110  1  1.32677274  0.87500000  0.21857578  1
  O  O111  1  1.32677274  0.87500000  0.71857578  1
  O  O112  1  0.17322726  0.00000000  0.28142422  1
  O  O113  1  0.17322726  0.00000000  0.78142422  1
  O  O114  1  0.17322726  0.25000000  0.28142422  1
  O  O115  1  0.17322726  0.25000000  0.78142422  1
  O  O116  1  0.17322726  0.50000000  0.28142422  1
  O  O117  1  0.17322726  0.50000000  0.78142422  1
  O  O118  1  0.17322726  0.75000000  0.28142422  1
  O  O119  1  0.17322726  0.75000000  0.78142422  1
  O  O120  1  0.67322726  0.12500000  0.28142422  1
  O  O121  1  0.67322726  0.12500000  0.78142422  1
  O  O122  1  0.67322726  0.37500000  0.28142422  1
  O  O123  1  0.67322726  0.37500000  0.78142422  1
  O  O124  1  0.67322726  0.62500000  0.28142422  1
  O  O125  1  0.67322726  0.62500000  0.78142422  1
  O  O126  1  0.67322726  0.87500000  0.28142422  1
  O  O127  1  0.67322726  0.87500000  0.78142422  1
  O  O128  1  0.16514745  0.00000000  0.05462606  1
  O  O129  1  0.16514745  0.00000000  0.55462606  1
  O  O130  1  0.16514745  0.25000000  0.05462606  1
  O  O131  1  0.16514745  0.25000000  0.55462606  1
  O  O132  1  0.16514745  0.50000000  0.05462606  1
  O  O133  1  0.16514745  0.50000000  0.55462606  1
  O  O134  1  0.16514745  0.75000000  0.05462606  1
  O  O135  1  0.16514745  0.75000000  0.55462606  1
  O  O136  1  0.66514745  0.12500000  0.05462606  1
  O  O137  1  0.66514745  0.12500000  0.55462606  1
  O  O138  1  0.66514745  0.37500000  0.05462606  1
  O  O139  1  0.66514745  0.37500000  0.55462606  1
  O  O140  1  0.66514745  0.62500000  0.05462606  1
  O  O141  1  0.66514745  0.62500000  0.55462606  1
  O  O142  1  0.66514745  0.87500000  0.05462606  1
  O  O143  1  0.66514745  0.87500000  0.55462606  1
  O  O144  1  0.83485255  0.00000000  0.44537394  1
  O  O145  1  0.83485255  0.00000000  0.94537394  1
  O  O146  1  0.83485255  0.25000000  0.44537394  1
  O  O147  1  0.83485255  0.25000000  0.94537394  1
  O  O148  1  0.83485255  0.50000000  0.44537394  1
  O  O149  1  0.83485255  0.50000000  0.94537394  1
  O  O150  1  0.83485255  0.75000000  0.44537394  1
  O  O151  1  0.83485255  0.75000000  0.94537394  1
  O  O152  1  1.33485255  0.12500000  0.44537394  1
  O  O153  1  1.33485255  0.12500000  0.94537394  1
  O  O154  1  1.33485255  0.37500000  0.44537394  1
  O  O155  1  1.33485255  0.37500000  0.94537394  1
  O  O156  1  1.33485255  0.62500000  0.44537394  1
  O  O157  1  1.33485255  0.62500000  0.94537394  1
  O  O158  1  1.33485255  0.87500000  0.44537394  1
  O  O159  1  1.33485255  0.87500000  0.94537394  1
