# generated using pymatgen
data_Li5SbO5
_symmetry_space_group_name_H-M   'P 1'
_cell_length_a   9.69094071
_cell_length_b   12.09292299
_cell_length_c   11.62192564
_cell_angle_alpha   90.00000000
_cell_angle_beta   108.92860712
_cell_angle_gamma   90.00000000
_symmetry_Int_Tables_number   1
_chemical_formula_structural   Li5SbO5
_chemical_formula_sum   'Li60 Sb12 O60'
_cell_volume   1288.34250926
_cell_formula_units_Z   12
loop_
 _symmetry_equiv_pos_site_id
 _symmetry_equiv_pos_as_xyz
  1  'x, y, z'
loop_
 _atom_site_type_symbol
 _atom_site_label
 _atom_site_symmetry_multiplicity
 _atom_site_fract_x
 _atom_site_fract_y
 _atom_site_fract_z
 _atom_site_occupancy
  Li  Li0  1  0.71143113  -0.00000000  0.17141790  1
  Li  Li1  1  0.71143113  -0.00000000  0.67141790  1
  Li  Li2  1  0.71143113  0.33333333  0.17141790  1
  Li  Li3  1  0.71143113  0.33333333  0.67141790  1
  Li  Li4  1  0.71143113  0.66666667  0.17141790  1
  Li  Li5  1  0.71143113  0.66666667  0.67141790  1
  Li  Li6  1  1.21143113  0.16666667  0.17141790  1
  Li  Li7  1  1.21143113  0.16666667  0.67141790  1
  Li  Li8  1  1.21143113  0.50000000  0.17141790  1
  Li  Li9  1  1.21143113  0.50000000  0.67141790  1
  Li  Li10  1  1.21143113  0.83333333  0.17141790  1
  Li  Li11  1  1.21143113  0.83333333  0.67141790  1
  Li  Li12  1  -0.00000000  -0.00000000  0.25000000  1
  Li  Li13  1  -0.00000000  -0.00000000  0.75000000  1
  Li  Li14  1  -0.00000000  0.33333333  0.25000000  1
  Li  Li15  1  -0.00000000  0.33333333  0.75000000  1
  Li  Li16  1  -0.00000000  0.66666667  0.25000000  1
  Li  Li17  1  -0.00000000  0.66666667  0.75000000  1
  Li  Li18  1  0.50000000  0.16666667  0.25000000  1
  Li  Li19  1  0.50000000  0.16666667  0.75000000  1
  Li  Li20  1  0.50000000  0.50000000  0.25000000  1
  Li  Li21  1  0.50000000  0.50000000  0.75000000  1
  Li  Li22  1  0.50000000  0.83333333  0.25000000  1
  Li  Li23  1  0.50000000  0.83333333  0.75000000  1
  Li  Li24  1  0.31154741  0.00000000  0.07010177  1
  Li  Li25  1  0.31154741  0.00000000  0.57010177  1
  Li  Li26  1  0.31154741  0.33333333  0.07010177  1
  Li  Li27  1  0.31154741  0.33333333  0.57010177  1
  Li  Li28  1  0.31154741  0.66666667  0.07010177  1
  Li  Li29  1  0.31154741  0.66666667  0.57010177  1
  Li  Li30  1  0.81154741  0.16666667  0.07010177  1
  Li  Li31  1  0.81154741  0.16666667  0.57010177  1
  Li  Li32  1  0.81154741  0.50000000  0.07010177  1
  Li  Li33  1  0.81154741  0.50000000  0.57010177  1
  Li  Li34  1  0.81154741  0.83333333  0.07010177  1
  Li  Li35  1  0.81154741  0.83333333  0.57010177  1
  Li  Li36  1  0.68845259  0.00000000  0.42989823  1
  Li  Li37  1  0.68845259  0.00000000  0.92989823  1
  Li  Li38  1  0.68845259  0.33333333  0.42989823  1
  Li  Li39  1  0.68845259  0.33333333  0.92989823  1
  Li  Li40  1  0.68845259  0.66666667  0.42989823  1
  Li  Li41  1  0.68845259  0.66666667  0.92989823  1
  Li  Li42  1  1.18845259  0.16666667  0.42989823  1
  Li  Li43  1  1.18845259  0.16666667  0.92989823  1
  Li  Li44  1  1.18845259  0.50000000  0.42989823  1
  Li  Li45  1  1.18845259  0.50000000  0.92989823  1
  Li  Li46  1  1.18845259  0.83333333  0.42989823  1
  Li  Li47  1  1.18845259  0.83333333  0.92989823  1
  Li  Li48  1  0.28856887  0.00000000  0.32858210  1
  Li  Li49  1  0.28856887  0.00000000  0.82858210  1
  Li  Li50  1  0.28856887  0.33333333  0.32858210  1
  Li  Li51  1  0.28856887  0.33333333  0.82858210  1
  Li  Li52  1  0.28856887  0.66666667  0.32858210  1
  Li  Li53  1  0.28856887  0.66666667  0.82858210  1
  Li  Li54  1  0.78856887  0.16666667  0.32858210  1
  Li  Li55  1  0.78856887  0.16666667  0.82858210  1
  Li  Li56  1  0.78856887  0.50000000  0.32858210  1
  Li  Li57  1  0.78856887  0.50000000  0.82858210  1
  Li  Li58  1  0.78856887  0.83333333  0.32858210  1
  Li  Li59  1  0.78856887  0.83333333  0.82858210  1
  Sb  Sb60  1  0.00000000  0.00000000  0.00000000  1
  Sb  Sb61  1  -0.00000000  0.00000000  0.50000000  1
  Sb  Sb62  1  0.00000000  0.33333333  0.00000000  1
  Sb  Sb63  1  -0.00000000  0.33333333  0.50000000  1
  Sb  Sb64  1  0.00000000  0.66666667  0.00000000  1
  Sb  Sb65  1  -0.00000000  0.66666667  0.50000000  1
  Sb  Sb66  1  0.50000000  0.16666667  0.00000000  1
  Sb  Sb67  1  0.50000000  0.16666667  0.50000000  1
  Sb  Sb68  1  0.50000000  0.50000000  0.00000000  1
  Sb  Sb69  1  0.50000000  0.50000000  0.50000000  1
  Sb  Sb70  1  0.50000000  0.83333333  0.00000000  1
  Sb  Sb71  1  0.50000000  0.83333333  0.50000000  1
  O  O72  1  0.85499272  0.00000000  0.08710913  1
  O  O73  1  0.85499272  0.00000000  0.58710913  1
  O  O74  1  0.85499272  0.33333333  0.08710913  1
  O  O75  1  0.85499272  0.33333333  0.58710913  1
  O  O76  1  0.85499272  0.66666667  0.08710913  1
  O  O77  1  0.85499272  0.66666667  0.58710913  1
  O  O78  1  1.35499272  0.16666667  0.08710913  1
  O  O79  1  1.35499272  0.16666667  0.58710913  1
  O  O80  1  1.35499272  0.50000000  0.08710913  1
  O  O81  1  1.35499272  0.50000000  0.58710913  1
  O  O82  1  1.35499272  0.83333333  0.08710913  1
  O  O83  1  1.35499272  0.83333333  0.58710913  1
  O  O84  1  0.50000000  0.00000000  0.00000000  1
  O  O85  1  0.50000000  0.00000000  0.50000000  1
  O  O86  1  0.50000000  0.33333333  0.00000000  1
  O  O87  1  0.50000000  0.33333333  0.50000000  1
  O  O88  1  0.50000000  0.66666667  0.00000000  1
  O  O89  1  0.50000000  0.66666667  0.50000000  1
  O  O90  1  1.00000000  0.16666667  0.00000000  1
  O  O91  1  1.00000000  0.16666667  0.50000000  1
  O  O92  1  1.00000000  0.50000000  0.00000000  1
  O  O93  1  1.00000000  0.50000000  0.50000000  1
  O  O94  1  1.00000000  0.83333333  0.00000000  1
  O  O95  1  1.00000000  0.83333333  0.50000000  1
  O  O96  1  0.15780392  -0.00000000  0.15927558  1
  O  O97  1  0.15780392  -0.00000000  0.65927558  1
  O  O98  1  0.15780392  0.33333333  0.15927558  1
  O  O99  1  0.15780392  0.33333333  0.65927558  1
  O  O100  1  0.15780392  0.66666667  0.15927558  1
  O  O101  1  0.15780392  0.66666667  0.65927558  1
  O  O102  1  0.65780392  0.16666667  0.15927558  1
  O  O103  1  0.65780392  0.16666667  0.65927558  1
  O  O104  1  0.65780392  0.50000000  0.15927558  1
  O  O105  1  0.65780392  0.50000000  0.65927558  1
  O  O106  1  0.65780392  0.83333333  0.15927558  1
  O  O107  1  0.65780392  0.83333333  0.65927558  1
  O  O108  1  0.84219608  -0.00000000  0.34072442  1
  O  O109  1  0.84219608  -0.00000000  0.84072442  1
  O  O110  1  0.84219608  0.33333333  0.34072442  1
  O  O111  1  0.84219608  0.33333333  0.84072442  1
  O  O112  1  0.84219608  0.66666667  0.34072442  1
  O  O113  1  0.84219608  0.66666667  0.84072442  1
  O  O114  1  1.34219608  0.16666667  0.34072442  1
  O  O115  1  1.34219608  0.16666667  0.84072442  1
  O  O116  1  1.34219608  0.50000000  0.34072442  1
  O  O117  1  1.34219608  0.50000000  0.84072442  1
  O  O118  1  1.34219608  0.83333333  0.34072442  1
  O  O119  1  1.34219608  0.83333333  0.84072442  1
  O  O120  1  0.14500728  0.00000000  0.41289087  1
  O  O121  1  0.14500728  0.00000000  0.91289087  1
  O  O122  1  0.14500728  0.33333333  0.41289087  1
  O  O123  1  0.14500728  0.33333333  0.91289087  1
  O  O124  1  0.14500728  0.66666667  0.41289087  1
  O  O125  1  0.14500728  0.66666667  0.91289087  1
  O  O126  1  0.64500728  0.16666667  0.41289087  1
  O  O127  1  0.64500728  0.16666667  0.91289087  1
  O  O128  1  0.64500728  0.50000000  0.41289087  1
  O  O129  1  0.64500728  0.50000000  0.91289087  1
  O  O130  1  0.64500728  0.83333333  0.41289087  1
  O  O131  1  0.64500728  0.83333333  0.91289087  1
