# generated using pymatgen
data_V2Cd2O7
_symmetry_space_group_name_H-M   'P 1'
_cell_length_a   13.96619459
_cell_length_b   18.14330935
_cell_length_c   15.06576976
_cell_angle_alpha   90.00000000
_cell_angle_beta   102.97738376
_cell_angle_gamma   90.00000000
_symmetry_Int_Tables_number   1
_chemical_formula_structural   V2Cd2O7
_chemical_formula_sum   'V48 Cd48 O168'
_cell_volume   3720.05529069
_cell_formula_units_Z   24
loop_
 _symmetry_equiv_pos_site_id
 _symmetry_equiv_pos_as_xyz
  1  'x, y, z'
loop_
 _atom_site_type_symbol
 _atom_site_label
 _atom_site_symmetry_multiplicity
 _atom_site_fract_x
 _atom_site_fract_y
 _atom_site_fract_z
 _atom_site_occupancy
  V  V0  1  0.38571955  0.00000000  0.03098257  1
  V  V1  1  0.38571955  0.00000000  0.36431591  1
  V  V2  1  0.38571955  0.00000000  0.69764924  1
  V  V3  1  0.38571955  0.50000000  0.03098257  1
  V  V4  1  0.38571955  0.50000000  0.36431591  1
  V  V5  1  0.38571955  0.50000000  0.69764924  1
  V  V6  1  0.88571955  0.00000000  0.03098257  1
  V  V7  1  0.88571955  0.00000000  0.36431591  1
  V  V8  1  0.88571955  0.00000000  0.69764924  1
  V  V9  1  0.88571955  0.50000000  0.03098257  1
  V  V10  1  0.88571955  0.50000000  0.36431591  1
  V  V11  1  0.88571955  0.50000000  0.69764924  1
  V  V12  1  0.63571955  0.25000000  0.03098257  1
  V  V13  1  0.63571955  0.25000000  0.36431591  1
  V  V14  1  0.63571955  0.25000000  0.69764924  1
  V  V15  1  0.63571955  0.75000000  0.03098257  1
  V  V16  1  0.63571955  0.75000000  0.36431591  1
  V  V17  1  0.63571955  0.75000000  0.69764924  1
  V  V18  1  1.13571955  0.25000000  0.03098257  1
  V  V19  1  1.13571955  0.25000000  0.36431591  1
  V  V20  1  1.13571955  0.25000000  0.69764924  1
  V  V21  1  1.13571955  0.75000000  0.03098257  1
  V  V22  1  1.13571955  0.75000000  0.36431591  1
  V  V23  1  1.13571955  0.75000000  0.69764924  1
  V  V24  1  0.11428045  0.00000000  0.30235076  1
  V  V25  1  0.11428045  0.00000000  0.63568409  1
  V  V26  1  0.11428045  0.00000000  0.96901743  1
  V  V27  1  0.11428045  0.50000000  0.30235076  1
  V  V28  1  0.11428045  0.50000000  0.63568409  1
  V  V29  1  0.11428045  0.50000000  0.96901743  1
  V  V30  1  0.61428045  0.00000000  0.30235076  1
  V  V31  1  0.61428045  0.00000000  0.63568409  1
  V  V32  1  0.61428045  0.00000000  0.96901743  1
  V  V33  1  0.61428045  0.50000000  0.30235076  1
  V  V34  1  0.61428045  0.50000000  0.63568409  1
  V  V35  1  0.61428045  0.50000000  0.96901743  1
  V  V36  1  0.36428045  0.25000000  0.30235076  1
  V  V37  1  0.36428045  0.25000000  0.63568409  1
  V  V38  1  0.36428045  0.25000000  0.96901743  1
  V  V39  1  0.36428045  0.75000000  0.30235076  1
  V  V40  1  0.36428045  0.75000000  0.63568409  1
  V  V41  1  0.36428045  0.75000000  0.96901743  1
  V  V42  1  0.86428045  0.25000000  0.30235076  1
  V  V43  1  0.86428045  0.25000000  0.63568409  1
  V  V44  1  0.86428045  0.25000000  0.96901743  1
  V  V45  1  0.86428045  0.75000000  0.30235076  1
  V  V46  1  0.86428045  0.75000000  0.63568409  1
  V  V47  1  0.86428045  0.75000000  0.96901743  1
  Cd  Cd48  1  0.25000000  -0.09656406  0.16666667  1
  Cd  Cd49  1  0.25000000  -0.09656406  0.50000000  1
  Cd  Cd50  1  0.25000000  -0.09656406  0.83333333  1
  Cd  Cd51  1  0.25000000  0.40343594  0.16666667  1
  Cd  Cd52  1  0.25000000  0.40343594  0.50000000  1
  Cd  Cd53  1  0.25000000  0.40343594  0.83333333  1
  Cd  Cd54  1  0.75000000  -0.09656406  0.16666667  1
  Cd  Cd55  1  0.75000000  -0.09656406  0.50000000  1
  Cd  Cd56  1  0.75000000  -0.09656406  0.83333333  1
  Cd  Cd57  1  0.75000000  0.40343594  0.16666667  1
  Cd  Cd58  1  0.75000000  0.40343594  0.50000000  1
  Cd  Cd59  1  0.75000000  0.40343594  0.83333333  1
  Cd  Cd60  1  0.50000000  0.15343594  0.16666667  1
  Cd  Cd61  1  0.50000000  0.15343594  0.50000000  1
  Cd  Cd62  1  0.50000000  0.15343594  0.83333333  1
  Cd  Cd63  1  0.50000000  0.65343594  0.16666667  1
  Cd  Cd64  1  0.50000000  0.65343594  0.50000000  1
  Cd  Cd65  1  0.50000000  0.65343594  0.83333333  1
  Cd  Cd66  1  1.00000000  0.15343594  0.16666667  1
  Cd  Cd67  1  1.00000000  0.15343594  0.50000000  1
  Cd  Cd68  1  1.00000000  0.15343594  0.83333333  1
  Cd  Cd69  1  1.00000000  0.65343594  0.16666667  1
  Cd  Cd70  1  1.00000000  0.65343594  0.50000000  1
  Cd  Cd71  1  1.00000000  0.65343594  0.83333333  1
  Cd  Cd72  1  0.25000000  0.09656406  0.16666667  1
  Cd  Cd73  1  0.25000000  0.09656406  0.50000000  1
  Cd  Cd74  1  0.25000000  0.09656406  0.83333333  1
  Cd  Cd75  1  0.25000000  0.59656406  0.16666667  1
  Cd  Cd76  1  0.25000000  0.59656406  0.50000000  1
  Cd  Cd77  1  0.25000000  0.59656406  0.83333333  1
  Cd  Cd78  1  0.75000000  0.09656406  0.16666667  1
  Cd  Cd79  1  0.75000000  0.09656406  0.50000000  1
  Cd  Cd80  1  0.75000000  0.09656406  0.83333333  1
  Cd  Cd81  1  0.75000000  0.59656406  0.16666667  1
  Cd  Cd82  1  0.75000000  0.59656406  0.50000000  1
  Cd  Cd83  1  0.75000000  0.59656406  0.83333333  1
  Cd  Cd84  1  0.50000000  0.34656406  0.16666667  1
  Cd  Cd85  1  0.50000000  0.34656406  0.50000000  1
  Cd  Cd86  1  0.50000000  0.34656406  0.83333333  1
  Cd  Cd87  1  0.50000000  0.84656406  0.16666667  1
  Cd  Cd88  1  0.50000000  0.84656406  0.50000000  1
  Cd  Cd89  1  0.50000000  0.84656406  0.83333333  1
  Cd  Cd90  1  1.00000000  0.34656406  0.16666667  1
  Cd  Cd91  1  1.00000000  0.34656406  0.50000000  1
  Cd  Cd92  1  1.00000000  0.34656406  0.83333333  1
  Cd  Cd93  1  1.00000000  0.84656406  0.16666667  1
  Cd  Cd94  1  1.00000000  0.84656406  0.50000000  1
  Cd  Cd95  1  1.00000000  0.84656406  0.83333333  1
  O  O96  1  0.11851950  0.07819197  0.23973131  1
  O  O97  1  0.11851950  0.07819197  0.57306464  1
  O  O98  1  0.11851950  0.07819197  0.90639798  1
  O  O99  1  0.11851950  0.57819197  0.23973131  1
  O  O100  1  0.11851950  0.57819197  0.57306464  1
  O  O101  1  0.11851950  0.57819197  0.90639798  1
  O  O102  1  0.61851950  0.07819197  0.23973131  1
  O  O103  1  0.61851950  0.07819197  0.57306464  1
  O  O104  1  0.61851950  0.07819197  0.90639798  1
  O  O105  1  0.61851950  0.57819197  0.23973131  1
  O  O106  1  0.61851950  0.57819197  0.57306464  1
  O  O107  1  0.61851950  0.57819197  0.90639798  1
  O  O108  1  0.36851950  0.32819197  0.23973131  1
  O  O109  1  0.36851950  0.32819197  0.57306464  1
  O  O110  1  0.36851950  0.32819197  0.90639798  1
  O  O111  1  0.36851950  0.82819197  0.23973131  1
  O  O112  1  0.36851950  0.82819197  0.57306464  1
  O  O113  1  0.36851950  0.82819197  0.90639798  1
  O  O114  1  0.86851950  0.32819197  0.23973131  1
  O  O115  1  0.86851950  0.32819197  0.57306464  1
  O  O116  1  0.86851950  0.32819197  0.90639798  1
  O  O117  1  0.86851950  0.82819197  0.23973131  1
  O  O118  1  0.86851950  0.82819197  0.57306464  1
  O  O119  1  0.86851950  0.82819197  0.90639798  1
  O  O120  1  0.38148050  0.07819197  0.09360202  1
  O  O121  1  0.38148050  0.07819197  0.42693536  1
  O  O122  1  0.38148050  0.07819197  0.76026869  1
  O  O123  1  0.38148050  0.57819197  0.09360202  1
  O  O124  1  0.38148050  0.57819197  0.42693536  1
  O  O125  1  0.38148050  0.57819197  0.76026869  1
  O  O126  1  0.88148050  0.07819197  0.09360202  1
  O  O127  1  0.88148050  0.07819197  0.42693536  1
  O  O128  1  0.88148050  0.07819197  0.76026869  1
  O  O129  1  0.88148050  0.57819197  0.09360202  1
  O  O130  1  0.88148050  0.57819197  0.42693536  1
  O  O131  1  0.88148050  0.57819197  0.76026869  1
  O  O132  1  0.63148050  0.32819197  0.09360202  1
  O  O133  1  0.63148050  0.32819197  0.42693536  1
  O  O134  1  0.63148050  0.32819197  0.76026869  1
  O  O135  1  0.63148050  0.82819197  0.09360202  1
  O  O136  1  0.63148050  0.82819197  0.42693536  1
  O  O137  1  0.63148050  0.82819197  0.76026869  1
  O  O138  1  1.13148050  0.32819197  0.09360202  1
  O  O139  1  1.13148050  0.32819197  0.42693536  1
  O  O140  1  1.13148050  0.32819197  0.76026869  1
  O  O141  1  1.13148050  0.82819197  0.09360202  1
  O  O142  1  1.13148050  0.82819197  0.42693536  1
  O  O143  1  1.13148050  0.82819197  0.76026869  1
  O  O144  1  0.38148050  -0.07819197  0.09360202  1
  O  O145  1  0.38148050  -0.07819197  0.42693536  1
  O  O146  1  0.38148050  -0.07819197  0.76026869  1
  O  O147  1  0.38148050  0.42180803  0.09360202  1
  O  O148  1  0.38148050  0.42180803  0.42693536  1
  O  O149  1  0.38148050  0.42180803  0.76026869  1
  O  O150  1  0.88148050  -0.07819197  0.09360202  1
  O  O151  1  0.88148050  -0.07819197  0.42693536  1
  O  O152  1  0.88148050  -0.07819197  0.76026869  1
  O  O153  1  0.88148050  0.42180803  0.09360202  1
  O  O154  1  0.88148050  0.42180803  0.42693536  1
  O  O155  1  0.88148050  0.42180803  0.76026869  1
  O  O156  1  0.63148050  0.17180803  0.09360202  1
  O  O157  1  0.63148050  0.17180803  0.42693536  1
  O  O158  1  0.63148050  0.17180803  0.76026869  1
  O  O159  1  0.63148050  0.67180803  0.09360202  1
  O  O160  1  0.63148050  0.67180803  0.42693536  1
  O  O161  1  0.63148050  0.67180803  0.76026869  1
  O  O162  1  1.13148050  0.17180803  0.09360202  1
  O  O163  1  1.13148050  0.17180803  0.42693536  1
  O  O164  1  1.13148050  0.17180803  0.76026869  1
  O  O165  1  1.13148050  0.67180803  0.09360202  1
  O  O166  1  1.13148050  0.67180803  0.42693536  1
  O  O167  1  1.13148050  0.67180803  0.76026869  1
  O  O168  1  0.11851950  -0.07819197  0.23973131  1
  O  O169  1  0.11851950  -0.07819197  0.57306464  1
  O  O170  1  0.11851950  -0.07819197  0.90639798  1
  O  O171  1  0.11851950  0.42180803  0.23973131  1
  O  O172  1  0.11851950  0.42180803  0.57306464  1
  O  O173  1  0.11851950  0.42180803  0.90639798  1
  O  O174  1  0.61851950  -0.07819197  0.23973131  1
  O  O175  1  0.61851950  -0.07819197  0.57306464  1
  O  O176  1  0.61851950  -0.07819197  0.90639798  1
  O  O177  1  0.61851950  0.42180803  0.23973131  1
  O  O178  1  0.61851950  0.42180803  0.57306464  1
  O  O179  1  0.61851950  0.42180803  0.90639798  1
  O  O180  1  0.36851950  0.17180803  0.23973131  1
  O  O181  1  0.36851950  0.17180803  0.57306464  1
  O  O182  1  0.36851950  0.17180803  0.90639798  1
  O  O183  1  0.36851950  0.67180803  0.23973131  1
  O  O184  1  0.36851950  0.67180803  0.57306464  1
  O  O185  1  0.36851950  0.67180803  0.90639798  1
  O  O186  1  0.86851950  0.17180803  0.23973131  1
  O  O187  1  0.86851950  0.17180803  0.57306464  1
  O  O188  1  0.86851950  0.17180803  0.90639798  1
  O  O189  1  0.86851950  0.67180803  0.23973131  1
  O  O190  1  0.86851950  0.67180803  0.57306464  1
  O  O191  1  0.86851950  0.67180803  0.90639798  1
  O  O192  1  0.00000000  -0.00000000  0.00000000  1
  O  O193  1  0.00000000  -0.00000000  0.33333333  1
  O  O194  1  0.00000000  -0.00000000  0.66666667  1
  O  O195  1  0.00000000  0.50000000  0.00000000  1
  O  O196  1  0.00000000  0.50000000  0.33333333  1
  O  O197  1  0.00000000  0.50000000  0.66666667  1
  O  O198  1  0.50000000  -0.00000000  0.00000000  1
  O  O199  1  0.50000000  -0.00000000  0.33333333  1
  O  O200  1  0.50000000  -0.00000000  0.66666667  1
  O  O201  1  0.50000000  0.50000000  0.00000000  1
  O  O202  1  0.50000000  0.50000000  0.33333333  1
  O  O203  1  0.50000000  0.50000000  0.66666667  1
  O  O204  1  0.25000000  0.25000000  0.00000000  1
  O  O205  1  0.25000000  0.25000000  0.33333333  1
  O  O206  1  0.25000000  0.25000000  0.66666667  1
  O  O207  1  0.25000000  0.75000000  0.00000000  1
  O  O208  1  0.25000000  0.75000000  0.33333333  1
  O  O209  1  0.25000000  0.75000000  0.66666667  1
  O  O210  1  0.75000000  0.25000000  0.00000000  1
  O  O211  1  0.75000000  0.25000000  0.33333333  1
  O  O212  1  0.75000000  0.25000000  0.66666667  1
  O  O213  1  0.75000000  0.75000000  0.00000000  1
  O  O214  1  0.75000000  0.75000000  0.33333333  1
  O  O215  1  0.75000000  0.75000000  0.66666667  1
  O  O216  1  0.19954194  0.00000000  0.07056020  1
  O  O217  1  0.19954194  0.00000000  0.40389354  1
  O  O218  1  0.19954194  0.00000000  0.73722687  1
  O  O219  1  0.19954194  0.50000000  0.07056020  1
  O  O220  1  0.19954194  0.50000000  0.40389354  1
  O  O221  1  0.19954194  0.50000000  0.73722687  1
  O  O222  1  0.69954194  0.00000000  0.07056020  1
  O  O223  1  0.69954194  0.00000000  0.40389354  1
  O  O224  1  0.69954194  0.00000000  0.73722687  1
  O  O225  1  0.69954194  0.50000000  0.07056020  1
  O  O226  1  0.69954194  0.50000000  0.40389354  1
  O  O227  1  0.69954194  0.50000000  0.73722687  1
  O  O228  1  0.44954194  0.25000000  0.07056020  1
  O  O229  1  0.44954194  0.25000000  0.40389354  1
  O  O230  1  0.44954194  0.25000000  0.73722687  1
  O  O231  1  0.44954194  0.75000000  0.07056020  1
  O  O232  1  0.44954194  0.75000000  0.40389354  1
  O  O233  1  0.44954194  0.75000000  0.73722687  1
  O  O234  1  0.94954194  0.25000000  0.07056020  1
  O  O235  1  0.94954194  0.25000000  0.40389354  1
  O  O236  1  0.94954194  0.25000000  0.73722687  1
  O  O237  1  0.94954194  0.75000000  0.07056020  1
  O  O238  1  0.94954194  0.75000000  0.40389354  1
  O  O239  1  0.94954194  0.75000000  0.73722687  1
  O  O240  1  0.30045806  0.00000000  0.26277313  1
  O  O241  1  0.30045806  0.00000000  0.59610646  1
  O  O242  1  0.30045806  0.00000000  0.92943980  1
  O  O243  1  0.30045806  0.50000000  0.26277313  1
  O  O244  1  0.30045806  0.50000000  0.59610646  1
  O  O245  1  0.30045806  0.50000000  0.92943980  1
  O  O246  1  0.80045806  0.00000000  0.26277313  1
  O  O247  1  0.80045806  0.00000000  0.59610646  1
  O  O248  1  0.80045806  0.00000000  0.92943980  1
  O  O249  1  0.80045806  0.50000000  0.26277313  1
  O  O250  1  0.80045806  0.50000000  0.59610646  1
  O  O251  1  0.80045806  0.50000000  0.92943980  1
  O  O252  1  0.55045806  0.25000000  0.26277313  1
  O  O253  1  0.55045806  0.25000000  0.59610646  1
  O  O254  1  0.55045806  0.25000000  0.92943980  1
  O  O255  1  0.55045806  0.75000000  0.26277313  1
  O  O256  1  0.55045806  0.75000000  0.59610646  1
  O  O257  1  0.55045806  0.75000000  0.92943980  1
  O  O258  1  1.05045806  0.25000000  0.26277313  1
  O  O259  1  1.05045806  0.25000000  0.59610646  1
  O  O260  1  1.05045806  0.25000000  0.92943980  1
  O  O261  1  1.05045806  0.75000000  0.26277313  1
  O  O262  1  1.05045806  0.75000000  0.59610646  1
  O  O263  1  1.05045806  0.75000000  0.92943980  1
