# generated using pymatgen
data_Ta2Zn3O8
_symmetry_space_group_name_H-M   'P 1'
_cell_length_a   17.51132722
_cell_length_b   16.73905675
_cell_length_c   18.89543480
_cell_angle_alpha   90.00000000
_cell_angle_beta   116.34616192
_cell_angle_gamma   90.00000000
_symmetry_Int_Tables_number   1
_chemical_formula_structural   Ta2Zn3O8
_chemical_formula_sum   'Ta64 Zn96 O256'
_cell_volume   4963.38024621
_cell_formula_units_Z   32
loop_
 _symmetry_equiv_pos_site_id
 _symmetry_equiv_pos_as_xyz
  1  'x, y, z'
loop_
 _atom_site_type_symbol
 _atom_site_label
 _atom_site_symmetry_multiplicity
 _atom_site_fract_x
 _atom_site_fract_y
 _atom_site_fract_z
 _atom_site_occupancy
  Ta  Ta0  1  0.20970221  -0.17876591  0.43645453  1
  Ta  Ta1  1  0.20970221  -0.17876591  0.93645453  1
  Ta  Ta2  1  0.20970221  0.32123409  0.43645453  1
  Ta  Ta3  1  0.20970221  0.32123409  0.93645453  1
  Ta  Ta4  1  0.70970221  -0.17876591  0.43645453  1
  Ta  Ta5  1  0.70970221  -0.17876591  0.93645453  1
  Ta  Ta6  1  0.70970221  0.32123409  0.43645453  1
  Ta  Ta7  1  0.70970221  0.32123409  0.93645453  1
  Ta  Ta8  1  0.45970221  0.07123409  0.43645453  1
  Ta  Ta9  1  0.45970221  0.07123409  0.93645453  1
  Ta  Ta10  1  0.45970221  0.57123409  0.43645453  1
  Ta  Ta11  1  0.45970221  0.57123409  0.93645453  1
  Ta  Ta12  1  0.95970221  0.07123409  0.43645453  1
  Ta  Ta13  1  0.95970221  0.07123409  0.93645453  1
  Ta  Ta14  1  0.95970221  0.57123409  0.43645453  1
  Ta  Ta15  1  0.95970221  0.57123409  0.93645453  1
  Ta  Ta16  1  0.29029779  -0.17876591  0.31354547  1
  Ta  Ta17  1  0.29029779  -0.17876591  0.81354547  1
  Ta  Ta18  1  0.29029779  0.32123409  0.31354547  1
  Ta  Ta19  1  0.29029779  0.32123409  0.81354547  1
  Ta  Ta20  1  0.79029779  -0.17876591  0.31354547  1
  Ta  Ta21  1  0.79029779  -0.17876591  0.81354547  1
  Ta  Ta22  1  0.79029779  0.32123409  0.31354547  1
  Ta  Ta23  1  0.79029779  0.32123409  0.81354547  1
  Ta  Ta24  1  0.54029779  0.07123409  0.31354547  1
  Ta  Ta25  1  0.54029779  0.07123409  0.81354547  1
  Ta  Ta26  1  0.54029779  0.57123409  0.31354547  1
  Ta  Ta27  1  0.54029779  0.57123409  0.81354547  1
  Ta  Ta28  1  1.04029779  0.07123409  0.31354547  1
  Ta  Ta29  1  1.04029779  0.07123409  0.81354547  1
  Ta  Ta30  1  1.04029779  0.57123409  0.31354547  1
  Ta  Ta31  1  1.04029779  0.57123409  0.81354547  1
  Ta  Ta32  1  0.29029779  0.17876591  0.06354547  1
  Ta  Ta33  1  0.29029779  0.17876591  0.56354547  1
  Ta  Ta34  1  0.29029779  0.67876591  0.06354547  1
  Ta  Ta35  1  0.29029779  0.67876591  0.56354547  1
  Ta  Ta36  1  0.79029779  0.17876591  0.06354547  1
  Ta  Ta37  1  0.79029779  0.17876591  0.56354547  1
  Ta  Ta38  1  0.79029779  0.67876591  0.06354547  1
  Ta  Ta39  1  0.79029779  0.67876591  0.56354547  1
  Ta  Ta40  1  0.54029779  0.42876591  0.06354547  1
  Ta  Ta41  1  0.54029779  0.42876591  0.56354547  1
  Ta  Ta42  1  0.54029779  0.92876591  0.06354547  1
  Ta  Ta43  1  0.54029779  0.92876591  0.56354547  1
  Ta  Ta44  1  1.04029779  0.42876591  0.06354547  1
  Ta  Ta45  1  1.04029779  0.42876591  0.56354547  1
  Ta  Ta46  1  1.04029779  0.92876591  0.06354547  1
  Ta  Ta47  1  1.04029779  0.92876591  0.56354547  1
  Ta  Ta48  1  0.20970221  0.17876591  0.18645453  1
  Ta  Ta49  1  0.20970221  0.17876591  0.68645453  1
  Ta  Ta50  1  0.20970221  0.67876591  0.18645453  1
  Ta  Ta51  1  0.20970221  0.67876591  0.68645453  1
  Ta  Ta52  1  0.70970221  0.17876591  0.18645453  1
  Ta  Ta53  1  0.70970221  0.17876591  0.68645453  1
  Ta  Ta54  1  0.70970221  0.67876591  0.18645453  1
  Ta  Ta55  1  0.70970221  0.67876591  0.68645453  1
  Ta  Ta56  1  0.45970221  0.42876591  0.18645453  1
  Ta  Ta57  1  0.45970221  0.42876591  0.68645453  1
  Ta  Ta58  1  0.45970221  0.92876591  0.18645453  1
  Ta  Ta59  1  0.45970221  0.92876591  0.68645453  1
  Ta  Ta60  1  0.95970221  0.42876591  0.18645453  1
  Ta  Ta61  1  0.95970221  0.42876591  0.68645453  1
  Ta  Ta62  1  0.95970221  0.92876591  0.18645453  1
  Ta  Ta63  1  0.95970221  0.92876591  0.68645453  1
  Zn  Zn64  1  0.25000000  0.13138835  0.37500000  1
  Zn  Zn65  1  0.25000000  0.13138835  0.87500000  1
  Zn  Zn66  1  0.25000000  0.63138835  0.37500000  1
  Zn  Zn67  1  0.25000000  0.63138835  0.87500000  1
  Zn  Zn68  1  0.75000000  0.13138835  0.37500000  1
  Zn  Zn69  1  0.75000000  0.13138835  0.87500000  1
  Zn  Zn70  1  0.75000000  0.63138835  0.37500000  1
  Zn  Zn71  1  0.75000000  0.63138835  0.87500000  1
  Zn  Zn72  1  0.50000000  0.38138835  0.37500000  1
  Zn  Zn73  1  0.50000000  0.38138835  0.87500000  1
  Zn  Zn74  1  0.50000000  0.88138835  0.37500000  1
  Zn  Zn75  1  0.50000000  0.88138835  0.87500000  1
  Zn  Zn76  1  1.00000000  0.38138835  0.37500000  1
  Zn  Zn77  1  1.00000000  0.38138835  0.87500000  1
  Zn  Zn78  1  1.00000000  0.88138835  0.37500000  1
  Zn  Zn79  1  1.00000000  0.88138835  0.87500000  1
  Zn  Zn80  1  0.25000000  -0.13138835  0.12500000  1
  Zn  Zn81  1  0.25000000  -0.13138835  0.62500000  1
  Zn  Zn82  1  0.25000000  0.36861165  0.12500000  1
  Zn  Zn83  1  0.25000000  0.36861165  0.62500000  1
  Zn  Zn84  1  0.75000000  -0.13138835  0.12500000  1
  Zn  Zn85  1  0.75000000  -0.13138835  0.62500000  1
  Zn  Zn86  1  0.75000000  0.36861165  0.12500000  1
  Zn  Zn87  1  0.75000000  0.36861165  0.62500000  1
  Zn  Zn88  1  0.50000000  0.11861165  0.12500000  1
  Zn  Zn89  1  0.50000000  0.11861165  0.62500000  1
  Zn  Zn90  1  0.50000000  0.61861165  0.12500000  1
  Zn  Zn91  1  0.50000000  0.61861165  0.62500000  1
  Zn  Zn92  1  1.00000000  0.11861165  0.12500000  1
  Zn  Zn93  1  1.00000000  0.11861165  0.62500000  1
  Zn  Zn94  1  1.00000000  0.61861165  0.12500000  1
  Zn  Zn95  1  1.00000000  0.61861165  0.62500000  1
  Zn  Zn96  1  0.32820463  0.00884455  0.24800020  1
  Zn  Zn97  1  0.32820463  0.00884455  0.74800020  1
  Zn  Zn98  1  0.32820463  0.50884455  0.24800020  1
  Zn  Zn99  1  0.32820463  0.50884455  0.74800020  1
  Zn  Zn100  1  0.82820463  0.00884455  0.24800020  1
  Zn  Zn101  1  0.82820463  0.00884455  0.74800020  1
  Zn  Zn102  1  0.82820463  0.50884455  0.24800020  1
  Zn  Zn103  1  0.82820463  0.50884455  0.74800020  1
  Zn  Zn104  1  0.57820463  0.25884455  0.24800020  1
  Zn  Zn105  1  0.57820463  0.25884455  0.74800020  1
  Zn  Zn106  1  0.57820463  0.75884455  0.24800020  1
  Zn  Zn107  1  0.57820463  0.75884455  0.74800020  1
  Zn  Zn108  1  1.07820463  0.25884455  0.24800020  1
  Zn  Zn109  1  1.07820463  0.25884455  0.74800020  1
  Zn  Zn110  1  1.07820463  0.75884455  0.24800020  1
  Zn  Zn111  1  1.07820463  0.75884455  0.74800020  1
  Zn  Zn112  1  0.17179537  0.00884455  0.00199980  1
  Zn  Zn113  1  0.17179537  0.00884455  0.50199980  1
  Zn  Zn114  1  0.17179537  0.50884455  0.00199980  1
  Zn  Zn115  1  0.17179537  0.50884455  0.50199980  1
  Zn  Zn116  1  0.67179537  0.00884455  0.00199980  1
  Zn  Zn117  1  0.67179537  0.00884455  0.50199980  1
  Zn  Zn118  1  0.67179537  0.50884455  0.00199980  1
  Zn  Zn119  1  0.67179537  0.50884455  0.50199980  1
  Zn  Zn120  1  0.42179537  0.25884455  0.00199980  1
  Zn  Zn121  1  0.42179537  0.25884455  0.50199980  1
  Zn  Zn122  1  0.42179537  0.75884455  0.00199980  1
  Zn  Zn123  1  0.42179537  0.75884455  0.50199980  1
  Zn  Zn124  1  0.92179537  0.25884455  0.00199980  1
  Zn  Zn125  1  0.92179537  0.25884455  0.50199980  1
  Zn  Zn126  1  0.92179537  0.75884455  0.00199980  1
  Zn  Zn127  1  0.92179537  0.75884455  0.50199980  1
  Zn  Zn128  1  0.17179537  -0.00884455  0.25199980  1
  Zn  Zn129  1  0.17179537  -0.00884455  0.75199980  1
  Zn  Zn130  1  0.17179537  0.49115545  0.25199980  1
  Zn  Zn131  1  0.17179537  0.49115545  0.75199980  1
  Zn  Zn132  1  0.67179537  -0.00884455  0.25199980  1
  Zn  Zn133  1  0.67179537  -0.00884455  0.75199980  1
  Zn  Zn134  1  0.67179537  0.49115545  0.25199980  1
  Zn  Zn135  1  0.67179537  0.49115545  0.75199980  1
  Zn  Zn136  1  0.42179537  0.24115545  0.25199980  1
  Zn  Zn137  1  0.42179537  0.24115545  0.75199980  1
  Zn  Zn138  1  0.42179537  0.74115545  0.25199980  1
  Zn  Zn139  1  0.42179537  0.74115545  0.75199980  1
  Zn  Zn140  1  0.92179537  0.24115545  0.25199980  1
  Zn  Zn141  1  0.92179537  0.24115545  0.75199980  1
  Zn  Zn142  1  0.92179537  0.74115545  0.25199980  1
  Zn  Zn143  1  0.92179537  0.74115545  0.75199980  1
  Zn  Zn144  1  0.32820463  -0.00884455  0.49800020  1
  Zn  Zn145  1  0.32820463  -0.00884455  0.99800020  1
  Zn  Zn146  1  0.32820463  0.49115545  0.49800020  1
  Zn  Zn147  1  0.32820463  0.49115545  0.99800020  1
  Zn  Zn148  1  0.82820463  -0.00884455  0.49800020  1
  Zn  Zn149  1  0.82820463  -0.00884455  0.99800020  1
  Zn  Zn150  1  0.82820463  0.49115545  0.49800020  1
  Zn  Zn151  1  0.82820463  0.49115545  0.99800020  1
  Zn  Zn152  1  0.57820463  0.24115545  0.49800020  1
  Zn  Zn153  1  0.57820463  0.24115545  0.99800020  1
  Zn  Zn154  1  0.57820463  0.74115545  0.49800020  1
  Zn  Zn155  1  0.57820463  0.74115545  0.99800020  1
  Zn  Zn156  1  1.07820463  0.24115545  0.49800020  1
  Zn  Zn157  1  1.07820463  0.24115545  0.99800020  1
  Zn  Zn158  1  1.07820463  0.74115545  0.49800020  1
  Zn  Zn159  1  1.07820463  0.74115545  0.99800020  1
  O  O160  1  0.15303825  -0.06219112  0.07211900  1
  O  O161  1  0.15303825  -0.06219112  0.57211900  1
  O  O162  1  0.15303825  0.43780888  0.07211900  1
  O  O163  1  0.15303825  0.43780888  0.57211900  1
  O  O164  1  0.65303825  -0.06219112  0.07211900  1
  O  O165  1  0.65303825  -0.06219112  0.57211900  1
  O  O166  1  0.65303825  0.43780888  0.07211900  1
  O  O167  1  0.65303825  0.43780888  0.57211900  1
  O  O168  1  0.40303825  0.18780888  0.07211900  1
  O  O169  1  0.40303825  0.18780888  0.57211900  1
  O  O170  1  0.40303825  0.68780888  0.07211900  1
  O  O171  1  0.40303825  0.68780888  0.57211900  1
  O  O172  1  0.90303825  0.18780888  0.07211900  1
  O  O173  1  0.90303825  0.18780888  0.57211900  1
  O  O174  1  0.90303825  0.68780888  0.07211900  1
  O  O175  1  0.90303825  0.68780888  0.57211900  1
  O  O176  1  0.34696175  -0.06219112  0.17788100  1
  O  O177  1  0.34696175  -0.06219112  0.67788100  1
  O  O178  1  0.34696175  0.43780888  0.17788100  1
  O  O179  1  0.34696175  0.43780888  0.67788100  1
  O  O180  1  0.84696175  -0.06219112  0.17788100  1
  O  O181  1  0.84696175  -0.06219112  0.67788100  1
  O  O182  1  0.84696175  0.43780888  0.17788100  1
  O  O183  1  0.84696175  0.43780888  0.67788100  1
  O  O184  1  0.59696175  0.18780888  0.17788100  1
  O  O185  1  0.59696175  0.18780888  0.67788100  1
  O  O186  1  0.59696175  0.68780888  0.17788100  1
  O  O187  1  0.59696175  0.68780888  0.67788100  1
  O  O188  1  1.09696175  0.18780888  0.17788100  1
  O  O189  1  1.09696175  0.18780888  0.67788100  1
  O  O190  1  1.09696175  0.68780888  0.17788100  1
  O  O191  1  1.09696175  0.68780888  0.67788100  1
  O  O192  1  0.34696175  0.06219112  0.42788100  1
  O  O193  1  0.34696175  0.06219112  0.92788100  1
  O  O194  1  0.34696175  0.56219112  0.42788100  1
  O  O195  1  0.34696175  0.56219112  0.92788100  1
  O  O196  1  0.84696175  0.06219112  0.42788100  1
  O  O197  1  0.84696175  0.06219112  0.92788100  1
  O  O198  1  0.84696175  0.56219112  0.42788100  1
  O  O199  1  0.84696175  0.56219112  0.92788100  1
  O  O200  1  0.59696175  0.31219112  0.42788100  1
  O  O201  1  0.59696175  0.31219112  0.92788100  1
  O  O202  1  0.59696175  0.81219112  0.42788100  1
  O  O203  1  0.59696175  0.81219112  0.92788100  1
  O  O204  1  1.09696175  0.31219112  0.42788100  1
  O  O205  1  1.09696175  0.31219112  0.92788100  1
  O  O206  1  1.09696175  0.81219112  0.42788100  1
  O  O207  1  1.09696175  0.81219112  0.92788100  1
  O  O208  1  0.15303825  0.06219112  0.32211900  1
  O  O209  1  0.15303825  0.06219112  0.82211900  1
  O  O210  1  0.15303825  0.56219112  0.32211900  1
  O  O211  1  0.15303825  0.56219112  0.82211900  1
  O  O212  1  0.65303825  0.06219112  0.32211900  1
  O  O213  1  0.65303825  0.06219112  0.82211900  1
  O  O214  1  0.65303825  0.56219112  0.32211900  1
  O  O215  1  0.65303825  0.56219112  0.82211900  1
  O  O216  1  0.40303825  0.31219112  0.32211900  1
  O  O217  1  0.40303825  0.31219112  0.82211900  1
  O  O218  1  0.40303825  0.81219112  0.32211900  1
  O  O219  1  0.40303825  0.81219112  0.82211900  1
  O  O220  1  0.90303825  0.31219112  0.32211900  1
  O  O221  1  0.90303825  0.31219112  0.82211900  1
  O  O222  1  0.90303825  0.81219112  0.32211900  1
  O  O223  1  0.90303825  0.81219112  0.82211900  1
  O  O224  1  0.22329373  -0.06692158  0.45428164  1
  O  O225  1  0.22329373  -0.06692158  0.95428164  1
  O  O226  1  0.22329373  0.43307842  0.45428164  1
  O  O227  1  0.22329373  0.43307842  0.95428164  1
  O  O228  1  0.72329373  -0.06692158  0.45428164  1
  O  O229  1  0.72329373  -0.06692158  0.95428164  1
  O  O230  1  0.72329373  0.43307842  0.45428164  1
  O  O231  1  0.72329373  0.43307842  0.95428164  1
  O  O232  1  0.47329373  0.18307842  0.45428164  1
  O  O233  1  0.47329373  0.18307842  0.95428164  1
  O  O234  1  0.47329373  0.68307842  0.45428164  1
  O  O235  1  0.47329373  0.68307842  0.95428164  1
  O  O236  1  0.97329373  0.18307842  0.45428164  1
  O  O237  1  0.97329373  0.18307842  0.95428164  1
  O  O238  1  0.97329373  0.68307842  0.45428164  1
  O  O239  1  0.97329373  0.68307842  0.95428164  1
  O  O240  1  0.27670627  -0.06692158  0.29571836  1
  O  O241  1  0.27670627  -0.06692158  0.79571836  1
  O  O242  1  0.27670627  0.43307842  0.29571836  1
  O  O243  1  0.27670627  0.43307842  0.79571836  1
  O  O244  1  0.77670627  -0.06692158  0.29571836  1
  O  O245  1  0.77670627  -0.06692158  0.79571836  1
  O  O246  1  0.77670627  0.43307842  0.29571836  1
  O  O247  1  0.77670627  0.43307842  0.79571836  1
  O  O248  1  0.52670627  0.18307842  0.29571836  1
  O  O249  1  0.52670627  0.18307842  0.79571836  1
  O  O250  1  0.52670627  0.68307842  0.29571836  1
  O  O251  1  0.52670627  0.68307842  0.79571836  1
  O  O252  1  1.02670627  0.18307842  0.29571836  1
  O  O253  1  1.02670627  0.18307842  0.79571836  1
  O  O254  1  1.02670627  0.68307842  0.29571836  1
  O  O255  1  1.02670627  0.68307842  0.79571836  1
  O  O256  1  0.27670627  0.06692158  0.04571836  1
  O  O257  1  0.27670627  0.06692158  0.54571836  1
  O  O258  1  0.27670627  0.56692158  0.04571836  1
  O  O259  1  0.27670627  0.56692158  0.54571836  1
  O  O260  1  0.77670627  0.06692158  0.04571836  1
  O  O261  1  0.77670627  0.06692158  0.54571836  1
  O  O262  1  0.77670627  0.56692158  0.04571836  1
  O  O263  1  0.77670627  0.56692158  0.54571836  1
  O  O264  1  0.52670627  0.31692158  0.04571836  1
  O  O265  1  0.52670627  0.31692158  0.54571836  1
  O  O266  1  0.52670627  0.81692158  0.04571836  1
  O  O267  1  0.52670627  0.81692158  0.54571836  1
  O  O268  1  1.02670627  0.31692158  0.04571836  1
  O  O269  1  1.02670627  0.31692158  0.54571836  1
  O  O270  1  1.02670627  0.81692158  0.04571836  1
  O  O271  1  1.02670627  0.81692158  0.54571836  1
  O  O272  1  0.22329373  0.06692158  0.20428164  1
  O  O273  1  0.22329373  0.06692158  0.70428164  1
  O  O274  1  0.22329373  0.56692158  0.20428164  1
  O  O275  1  0.22329373  0.56692158  0.70428164  1
  O  O276  1  0.72329373  0.06692158  0.20428164  1
  O  O277  1  0.72329373  0.06692158  0.70428164  1
  O  O278  1  0.72329373  0.56692158  0.20428164  1
  O  O279  1  0.72329373  0.56692158  0.70428164  1
  O  O280  1  0.47329373  0.31692158  0.20428164  1
  O  O281  1  0.47329373  0.31692158  0.70428164  1
  O  O282  1  0.47329373  0.81692158  0.20428164  1
  O  O283  1  0.47329373  0.81692158  0.70428164  1
  O  O284  1  0.97329373  0.31692158  0.20428164  1
  O  O285  1  0.97329373  0.31692158  0.70428164  1
  O  O286  1  0.97329373  0.81692158  0.20428164  1
  O  O287  1  0.97329373  0.81692158  0.70428164  1
  O  O288  1  0.42335398  0.06631384  0.32112025  1
  O  O289  1  0.42335398  0.06631384  0.82112025  1
  O  O290  1  0.42335398  0.56631384  0.32112025  1
  O  O291  1  0.42335398  0.56631384  0.82112025  1
  O  O292  1  0.92335398  0.06631384  0.32112025  1
  O  O293  1  0.92335398  0.06631384  0.82112025  1
  O  O294  1  0.92335398  0.56631384  0.32112025  1
  O  O295  1  0.92335398  0.56631384  0.82112025  1
  O  O296  1  0.67335398  0.31631384  0.32112025  1
  O  O297  1  0.67335398  0.31631384  0.82112025  1
  O  O298  1  0.67335398  0.81631384  0.32112025  1
  O  O299  1  0.67335398  0.81631384  0.82112025  1
  O  O300  1  1.17335398  0.31631384  0.32112025  1
  O  O301  1  1.17335398  0.31631384  0.82112025  1
  O  O302  1  1.17335398  0.81631384  0.32112025  1
  O  O303  1  1.17335398  0.81631384  0.82112025  1
  O  O304  1  0.07664602  0.06631384  0.42887975  1
  O  O305  1  0.07664602  0.06631384  0.92887975  1
  O  O306  1  0.07664602  0.56631384  0.42887975  1
  O  O307  1  0.07664602  0.56631384  0.92887975  1
  O  O308  1  0.57664602  0.06631384  0.42887975  1
  O  O309  1  0.57664602  0.06631384  0.92887975  1
  O  O310  1  0.57664602  0.56631384  0.42887975  1
  O  O311  1  0.57664602  0.56631384  0.92887975  1
  O  O312  1  0.32664602  0.31631384  0.42887975  1
  O  O313  1  0.32664602  0.31631384  0.92887975  1
  O  O314  1  0.32664602  0.81631384  0.42887975  1
  O  O315  1  0.32664602  0.81631384  0.92887975  1
  O  O316  1  0.82664602  0.31631384  0.42887975  1
  O  O317  1  0.82664602  0.31631384  0.92887975  1
  O  O318  1  0.82664602  0.81631384  0.42887975  1
  O  O319  1  0.82664602  0.81631384  0.92887975  1
  O  O320  1  0.22991409  -0.19892852  0.19675156  1
  O  O321  1  0.22991409  -0.19892852  0.69675156  1
  O  O322  1  0.22991409  0.30107148  0.19675156  1
  O  O323  1  0.22991409  0.30107148  0.69675156  1
  O  O324  1  0.72991409  -0.19892852  0.19675156  1
  O  O325  1  0.72991409  -0.19892852  0.69675156  1
  O  O326  1  0.72991409  0.30107148  0.19675156  1
  O  O327  1  0.72991409  0.30107148  0.69675156  1
  O  O328  1  0.47991409  0.05107148  0.19675156  1
  O  O329  1  0.47991409  0.05107148  0.69675156  1
  O  O330  1  0.47991409  0.55107148  0.19675156  1
  O  O331  1  0.47991409  0.55107148  0.69675156  1
  O  O332  1  0.97991409  0.05107148  0.19675156  1
  O  O333  1  0.97991409  0.05107148  0.69675156  1
  O  O334  1  0.97991409  0.55107148  0.19675156  1
  O  O335  1  0.97991409  0.55107148  0.69675156  1
  O  O336  1  0.27008591  -0.19892852  0.05324844  1
  O  O337  1  0.27008591  -0.19892852  0.55324844  1
  O  O338  1  0.27008591  0.30107148  0.05324844  1
  O  O339  1  0.27008591  0.30107148  0.55324844  1
  O  O340  1  0.77008591  -0.19892852  0.05324844  1
  O  O341  1  0.77008591  -0.19892852  0.55324844  1
  O  O342  1  0.77008591  0.30107148  0.05324844  1
  O  O343  1  0.77008591  0.30107148  0.55324844  1
  O  O344  1  0.52008591  0.05107148  0.05324844  1
  O  O345  1  0.52008591  0.05107148  0.55324844  1
  O  O346  1  0.52008591  0.55107148  0.05324844  1
  O  O347  1  0.52008591  0.55107148  0.55324844  1
  O  O348  1  1.02008591  0.05107148  0.05324844  1
  O  O349  1  1.02008591  0.05107148  0.55324844  1
  O  O350  1  1.02008591  0.55107148  0.05324844  1
  O  O351  1  1.02008591  0.55107148  0.55324844  1
  O  O352  1  0.27008591  0.19892852  0.30324844  1
  O  O353  1  0.27008591  0.19892852  0.80324844  1
  O  O354  1  0.27008591  0.69892852  0.30324844  1
  O  O355  1  0.27008591  0.69892852  0.80324844  1
  O  O356  1  0.77008591  0.19892852  0.30324844  1
  O  O357  1  0.77008591  0.19892852  0.80324844  1
  O  O358  1  0.77008591  0.69892852  0.30324844  1
  O  O359  1  0.77008591  0.69892852  0.80324844  1
  O  O360  1  0.52008591  0.44892852  0.30324844  1
  O  O361  1  0.52008591  0.44892852  0.80324844  1
  O  O362  1  0.52008591  0.94892852  0.30324844  1
  O  O363  1  0.52008591  0.94892852  0.80324844  1
  O  O364  1  1.02008591  0.44892852  0.30324844  1
  O  O365  1  1.02008591  0.44892852  0.80324844  1
  O  O366  1  1.02008591  0.94892852  0.30324844  1
  O  O367  1  1.02008591  0.94892852  0.80324844  1
  O  O368  1  0.22991409  0.19892852  0.44675156  1
  O  O369  1  0.22991409  0.19892852  0.94675156  1
  O  O370  1  0.22991409  0.69892852  0.44675156  1
  O  O371  1  0.22991409  0.69892852  0.94675156  1
  O  O372  1  0.72991409  0.19892852  0.44675156  1
  O  O373  1  0.72991409  0.19892852  0.94675156  1
  O  O374  1  0.72991409  0.69892852  0.44675156  1
  O  O375  1  0.72991409  0.69892852  0.94675156  1
  O  O376  1  0.47991409  0.44892852  0.44675156  1
  O  O377  1  0.47991409  0.44892852  0.94675156  1
  O  O378  1  0.47991409  0.94892852  0.44675156  1
  O  O379  1  0.47991409  0.94892852  0.94675156  1
  O  O380  1  0.97991409  0.44892852  0.44675156  1
  O  O381  1  0.97991409  0.44892852  0.94675156  1
  O  O382  1  0.97991409  0.94892852  0.44675156  1
  O  O383  1  0.97991409  0.94892852  0.94675156  1
  O  O384  1  0.42335398  -0.06631384  0.07112025  1
  O  O385  1  0.42335398  -0.06631384  0.57112025  1
  O  O386  1  0.42335398  0.43368616  0.07112025  1
  O  O387  1  0.42335398  0.43368616  0.57112025  1
  O  O388  1  0.92335398  -0.06631384  0.07112025  1
  O  O389  1  0.92335398  -0.06631384  0.57112025  1
  O  O390  1  0.92335398  0.43368616  0.07112025  1
  O  O391  1  0.92335398  0.43368616  0.57112025  1
  O  O392  1  0.67335398  0.18368616  0.07112025  1
  O  O393  1  0.67335398  0.18368616  0.57112025  1
  O  O394  1  0.67335398  0.68368616  0.07112025  1
  O  O395  1  0.67335398  0.68368616  0.57112025  1
  O  O396  1  1.17335398  0.18368616  0.07112025  1
  O  O397  1  1.17335398  0.18368616  0.57112025  1
  O  O398  1  1.17335398  0.68368616  0.07112025  1
  O  O399  1  1.17335398  0.68368616  0.57112025  1
  O  O400  1  0.07664602  -0.06631384  0.17887975  1
  O  O401  1  0.07664602  -0.06631384  0.67887975  1
  O  O402  1  0.07664602  0.43368616  0.17887975  1
  O  O403  1  0.07664602  0.43368616  0.67887975  1
  O  O404  1  0.57664602  -0.06631384  0.17887975  1
  O  O405  1  0.57664602  -0.06631384  0.67887975  1
  O  O406  1  0.57664602  0.43368616  0.17887975  1
  O  O407  1  0.57664602  0.43368616  0.67887975  1
  O  O408  1  0.32664602  0.18368616  0.17887975  1
  O  O409  1  0.32664602  0.18368616  0.67887975  1
  O  O410  1  0.32664602  0.68368616  0.17887975  1
  O  O411  1  0.32664602  0.68368616  0.67887975  1
  O  O412  1  0.82664602  0.18368616  0.17887975  1
  O  O413  1  0.82664602  0.18368616  0.67887975  1
  O  O414  1  0.82664602  0.68368616  0.17887975  1
  O  O415  1  0.82664602  0.68368616  0.67887975  1
