# generated using pymatgen
data_NaBiO3
_symmetry_space_group_name_H-M   'P 1'
_cell_length_a   16.82082890
_cell_length_b   16.82082890
_cell_length_c   15.81934409
_cell_angle_alpha   90.00000000
_cell_angle_beta   90.00000000
_cell_angle_gamma   120.00000000
_symmetry_Int_Tables_number   1
_chemical_formula_structural   NaBiO3
_chemical_formula_sum   'Na54 Bi54 O162'
_cell_volume   3876.26884414
_cell_formula_units_Z   54
loop_
 _symmetry_equiv_pos_site_id
 _symmetry_equiv_pos_as_xyz
  1  'x, y, z'
loop_
 _atom_site_type_symbol
 _atom_site_label
 _atom_site_symmetry_multiplicity
 _atom_site_fract_x
 _atom_site_fract_y
 _atom_site_fract_z
 _atom_site_occupancy
  Na  Na0  1  -0.00000000  -0.00000000  0.13812914  1
  Na  Na1  1  0.00000000  0.33333333  0.13812914  1
  Na  Na2  1  0.00000000  0.66666667  0.13812914  1
  Na  Na3  1  0.33333333  -0.00000000  0.13812914  1
  Na  Na4  1  0.33333333  0.33333333  0.13812914  1
  Na  Na5  1  0.33333333  0.66666667  0.13812914  1
  Na  Na6  1  0.66666667  -0.00000000  0.13812914  1
  Na  Na7  1  0.66666667  0.33333333  0.13812914  1
  Na  Na8  1  0.66666667  0.66666667  0.13812914  1
  Na  Na9  1  0.22222222  0.11111111  0.47146247  1
  Na  Na10  1  0.22222222  0.44444444  0.47146247  1
  Na  Na11  1  0.22222222  0.77777778  0.47146247  1
  Na  Na12  1  0.55555556  0.11111111  0.47146247  1
  Na  Na13  1  0.55555556  0.44444444  0.47146247  1
  Na  Na14  1  0.55555556  0.77777778  0.47146247  1
  Na  Na15  1  0.88888889  0.11111111  0.47146247  1
  Na  Na16  1  0.88888889  0.44444444  0.47146247  1
  Na  Na17  1  0.88888889  0.77777778  0.47146247  1
  Na  Na18  1  0.11111111  0.22222222  0.80479580  1
  Na  Na19  1  0.11111111  0.55555556  0.80479580  1
  Na  Na20  1  0.11111111  0.88888889  0.80479580  1
  Na  Na21  1  0.44444444  0.22222222  0.80479580  1
  Na  Na22  1  0.44444444  0.55555556  0.80479580  1
  Na  Na23  1  0.44444444  0.88888889  0.80479580  1
  Na  Na24  1  0.77777778  0.22222222  0.80479580  1
  Na  Na25  1  0.77777778  0.55555556  0.80479580  1
  Na  Na26  1  0.77777778  0.88888889  0.80479580  1
  Na  Na27  1  -0.00000000  -0.00000000  0.86187086  1
  Na  Na28  1  -0.00000000  0.33333333  0.86187086  1
  Na  Na29  1  -0.00000000  0.66666667  0.86187086  1
  Na  Na30  1  0.33333333  -0.00000000  0.86187086  1
  Na  Na31  1  0.33333333  0.33333333  0.86187086  1
  Na  Na32  1  0.33333333  0.66666667  0.86187086  1
  Na  Na33  1  0.66666667  -0.00000000  0.86187086  1
  Na  Na34  1  0.66666667  0.33333333  0.86187086  1
  Na  Na35  1  0.66666667  0.66666667  0.86187086  1
  Na  Na36  1  0.22222222  0.11111111  1.19520420  1
  Na  Na37  1  0.22222222  0.44444444  1.19520420  1
  Na  Na38  1  0.22222222  0.77777778  1.19520420  1
  Na  Na39  1  0.55555556  0.11111111  1.19520420  1
  Na  Na40  1  0.55555556  0.44444444  1.19520420  1
  Na  Na41  1  0.55555556  0.77777778  1.19520420  1
  Na  Na42  1  0.88888889  0.11111111  1.19520420  1
  Na  Na43  1  0.88888889  0.44444444  1.19520420  1
  Na  Na44  1  0.88888889  0.77777778  1.19520420  1
  Na  Na45  1  0.11111111  0.22222222  1.52853753  1
  Na  Na46  1  0.11111111  0.55555556  1.52853753  1
  Na  Na47  1  0.11111111  0.88888889  1.52853753  1
  Na  Na48  1  0.44444444  0.22222222  1.52853753  1
  Na  Na49  1  0.44444444  0.55555556  1.52853753  1
  Na  Na50  1  0.44444444  0.88888889  1.52853753  1
  Na  Na51  1  0.77777778  0.22222222  1.52853753  1
  Na  Na52  1  0.77777778  0.55555556  1.52853753  1
  Na  Na53  1  0.77777778  0.88888889  1.52853753  1
  Bi  Bi54  1  0.00000000  0.00000000  0.34365380  1
  Bi  Bi55  1  0.00000000  0.33333333  0.34365380  1
  Bi  Bi56  1  0.00000000  0.66666667  0.34365380  1
  Bi  Bi57  1  0.33333333  0.00000000  0.34365380  1
  Bi  Bi58  1  0.33333333  0.33333333  0.34365380  1
  Bi  Bi59  1  0.33333333  0.66666667  0.34365380  1
  Bi  Bi60  1  0.66666667  0.00000000  0.34365380  1
  Bi  Bi61  1  0.66666667  0.33333333  0.34365380  1
  Bi  Bi62  1  0.66666667  0.66666667  0.34365380  1
  Bi  Bi63  1  0.22222222  0.11111111  0.67698714  1
  Bi  Bi64  1  0.22222222  0.44444444  0.67698714  1
  Bi  Bi65  1  0.22222222  0.77777778  0.67698714  1
  Bi  Bi66  1  0.55555556  0.11111111  0.67698714  1
  Bi  Bi67  1  0.55555556  0.44444444  0.67698714  1
  Bi  Bi68  1  0.55555556  0.77777778  0.67698714  1
  Bi  Bi69  1  0.88888889  0.11111111  0.67698714  1
  Bi  Bi70  1  0.88888889  0.44444444  0.67698714  1
  Bi  Bi71  1  0.88888889  0.77777778  0.67698714  1
  Bi  Bi72  1  0.11111111  0.22222222  1.01032047  1
  Bi  Bi73  1  0.11111111  0.55555556  1.01032047  1
  Bi  Bi74  1  0.11111111  0.88888889  1.01032047  1
  Bi  Bi75  1  0.44444444  0.22222222  1.01032047  1
  Bi  Bi76  1  0.44444444  0.55555556  1.01032047  1
  Bi  Bi77  1  0.44444444  0.88888889  1.01032047  1
  Bi  Bi78  1  0.77777778  0.22222222  1.01032047  1
  Bi  Bi79  1  0.77777778  0.55555556  1.01032047  1
  Bi  Bi80  1  0.77777778  0.88888889  1.01032047  1
  Bi  Bi81  1  -0.00000000  0.00000000  0.65634620  1
  Bi  Bi82  1  0.00000000  0.33333333  0.65634620  1
  Bi  Bi83  1  0.00000000  0.66666667  0.65634620  1
  Bi  Bi84  1  0.33333333  0.00000000  0.65634620  1
  Bi  Bi85  1  0.33333333  0.33333333  0.65634620  1
  Bi  Bi86  1  0.33333333  0.66666667  0.65634620  1
  Bi  Bi87  1  0.66666667  0.00000000  0.65634620  1
  Bi  Bi88  1  0.66666667  0.33333333  0.65634620  1
  Bi  Bi89  1  0.66666667  0.66666667  0.65634620  1
  Bi  Bi90  1  0.22222222  0.11111111  0.98967953  1
  Bi  Bi91  1  0.22222222  0.44444444  0.98967953  1
  Bi  Bi92  1  0.22222222  0.77777778  0.98967953  1
  Bi  Bi93  1  0.55555556  0.11111111  0.98967953  1
  Bi  Bi94  1  0.55555556  0.44444444  0.98967953  1
  Bi  Bi95  1  0.55555556  0.77777778  0.98967953  1
  Bi  Bi96  1  0.88888889  0.11111111  0.98967953  1
  Bi  Bi97  1  0.88888889  0.44444444  0.98967953  1
  Bi  Bi98  1  0.88888889  0.77777778  0.98967953  1
  Bi  Bi99  1  0.11111111  0.22222222  1.32301286  1
  Bi  Bi100  1  0.11111111  0.55555556  1.32301286  1
  Bi  Bi101  1  0.11111111  0.88888889  1.32301286  1
  Bi  Bi102  1  0.44444444  0.22222222  1.32301286  1
  Bi  Bi103  1  0.44444444  0.55555556  1.32301286  1
  Bi  Bi104  1  0.44444444  0.88888889  1.32301286  1
  Bi  Bi105  1  0.77777778  0.22222222  1.32301286  1
  Bi  Bi106  1  0.77777778  0.55555556  1.32301286  1
  Bi  Bi107  1  0.77777778  0.88888889  1.32301286  1
  O  O108  1  -0.11736180  -0.09967558  0.40950596  1
  O  O109  1  -0.11736180  0.23365776  0.40950596  1
  O  O110  1  -0.11736180  0.56699109  0.40950596  1
  O  O111  1  0.21597153  -0.09967558  0.40950596  1
  O  O112  1  0.21597153  0.23365776  0.40950596  1
  O  O113  1  0.21597153  0.56699109  0.40950596  1
  O  O114  1  0.54930486  -0.09967558  0.40950596  1
  O  O115  1  0.54930486  0.23365776  0.40950596  1
  O  O116  1  0.54930486  0.56699109  0.40950596  1
  O  O117  1  0.10486042  0.01143553  0.74283929  1
  O  O118  1  0.10486042  0.34476887  0.74283929  1
  O  O119  1  0.10486042  0.67810220  0.74283929  1
  O  O120  1  0.43819375  0.01143553  0.74283929  1
  O  O121  1  0.43819375  0.34476887  0.74283929  1
  O  O122  1  0.43819375  0.67810220  0.74283929  1
  O  O123  1  0.77152708  0.01143553  0.74283929  1
  O  O124  1  0.77152708  0.34476887  0.74283929  1
  O  O125  1  0.77152708  0.67810220  0.74283929  1
  O  O126  1  -0.00625069  0.12254664  1.07617263  1
  O  O127  1  -0.00625069  0.45587998  1.07617263  1
  O  O128  1  -0.00625069  0.78921331  1.07617263  1
  O  O129  1  0.32708264  0.12254664  1.07617263  1
  O  O130  1  0.32708264  0.45587998  1.07617263  1
  O  O131  1  0.32708264  0.78921331  1.07617263  1
  O  O132  1  0.66041597  0.12254664  1.07617263  1
  O  O133  1  0.66041597  0.45587998  1.07617263  1
  O  O134  1  0.66041597  0.78921331  1.07617263  1
  O  O135  1  0.09967558  -0.01768623  0.40950596  1
  O  O136  1  0.09967558  0.31564711  0.40950596  1
  O  O137  1  0.09967558  0.64898044  0.40950596  1
  O  O138  1  0.43300891  -0.01768623  0.40950596  1
  O  O139  1  0.43300891  0.31564711  0.40950596  1
  O  O140  1  0.43300891  0.64898044  0.40950596  1
  O  O141  1  0.76634224  -0.01768623  0.40950596  1
  O  O142  1  0.76634224  0.31564711  0.40950596  1
  O  O143  1  0.76634224  0.64898044  0.40950596  1
  O  O144  1  0.32189780  0.09342488  0.74283929  1
  O  O145  1  0.32189780  0.42675822  0.74283929  1
  O  O146  1  0.32189780  0.76009155  0.74283929  1
  O  O147  1  0.65523113  0.09342488  0.74283929  1
  O  O148  1  0.65523113  0.42675822  0.74283929  1
  O  O149  1  0.65523113  0.76009155  0.74283929  1
  O  O150  1  0.98856447  0.09342488  0.74283929  1
  O  O151  1  0.98856447  0.42675822  0.74283929  1
  O  O152  1  0.98856447  0.76009155  0.74283929  1
  O  O153  1  0.21078669  0.20453600  1.07617263  1
  O  O154  1  0.21078669  0.53786933  1.07617263  1
  O  O155  1  0.21078669  0.87120266  1.07617263  1
  O  O156  1  0.54412002  0.20453600  1.07617263  1
  O  O157  1  0.54412002  0.53786933  1.07617263  1
  O  O158  1  0.54412002  0.87120266  1.07617263  1
  O  O159  1  0.87745336  0.20453600  1.07617263  1
  O  O160  1  0.87745336  0.53786933  1.07617263  1
  O  O161  1  0.87745336  0.87120266  1.07617263  1
  O  O162  1  0.01768623  0.11736180  0.40950596  1
  O  O163  1  0.01768623  0.45069514  0.40950596  1
  O  O164  1  0.01768623  0.78402847  0.40950596  1
  O  O165  1  0.35101956  0.11736180  0.40950596  1
  O  O166  1  0.35101956  0.45069514  0.40950596  1
  O  O167  1  0.35101956  0.78402847  0.40950596  1
  O  O168  1  0.68435289  0.11736180  0.40950596  1
  O  O169  1  0.68435289  0.45069514  0.40950596  1
  O  O170  1  0.68435289  0.78402847  0.40950596  1
  O  O171  1  0.23990845  0.22847292  0.74283929  1
  O  O172  1  0.23990845  0.56180625  0.74283929  1
  O  O173  1  0.23990845  0.89513958  0.74283929  1
  O  O174  1  0.57324178  0.22847292  0.74283929  1
  O  O175  1  0.57324178  0.56180625  0.74283929  1
  O  O176  1  0.57324178  0.89513958  0.74283929  1
  O  O177  1  0.90657512  0.22847292  0.74283929  1
  O  O178  1  0.90657512  0.56180625  0.74283929  1
  O  O179  1  0.90657512  0.89513958  0.74283929  1
  O  O180  1  0.12879734  0.33958403  1.07617263  1
  O  O181  1  0.12879734  0.67291736  1.07617263  1
  O  O182  1  0.12879734  1.00625069  1.07617263  1
  O  O183  1  0.46213067  0.33958403  1.07617263  1
  O  O184  1  0.46213067  0.67291736  1.07617263  1
  O  O185  1  0.46213067  1.00625069  1.07617263  1
  O  O186  1  0.79546400  0.33958403  1.07617263  1
  O  O187  1  0.79546400  0.67291736  1.07617263  1
  O  O188  1  0.79546400  1.00625069  1.07617263  1
  O  O189  1  0.11736180  0.09967558  0.59049404  1
  O  O190  1  0.11736180  0.43300891  0.59049404  1
  O  O191  1  0.11736180  0.76634224  0.59049404  1
  O  O192  1  0.45069514  0.09967558  0.59049404  1
  O  O193  1  0.45069514  0.43300891  0.59049404  1
  O  O194  1  0.45069514  0.76634224  0.59049404  1
  O  O195  1  0.78402847  0.09967558  0.59049404  1
  O  O196  1  0.78402847  0.43300891  0.59049404  1
  O  O197  1  0.78402847  0.76634224  0.59049404  1
  O  O198  1  0.33958403  0.21078669  0.92382737  1
  O  O199  1  0.33958403  0.54412002  0.92382737  1
  O  O200  1  0.33958403  0.87745336  0.92382737  1
  O  O201  1  0.67291736  0.21078669  0.92382737  1
  O  O202  1  0.67291736  0.54412002  0.92382737  1
  O  O203  1  0.67291736  0.87745336  0.92382737  1
  O  O204  1  1.00625069  0.21078669  0.92382737  1
  O  O205  1  1.00625069  0.54412002  0.92382737  1
  O  O206  1  1.00625069  0.87745336  0.92382737  1
  O  O207  1  0.22847292  0.32189780  1.25716071  1
  O  O208  1  0.22847292  0.65523113  1.25716071  1
  O  O209  1  0.22847292  0.98856447  1.25716071  1
  O  O210  1  0.56180625  0.32189780  1.25716071  1
  O  O211  1  0.56180625  0.65523113  1.25716071  1
  O  O212  1  0.56180625  0.98856447  1.25716071  1
  O  O213  1  0.89513958  0.32189780  1.25716071  1
  O  O214  1  0.89513958  0.65523113  1.25716071  1
  O  O215  1  0.89513958  0.98856447  1.25716071  1
  O  O216  1  -0.01768623  -0.11736180  0.59049404  1
  O  O217  1  -0.01768623  0.21597153  0.59049404  1
  O  O218  1  -0.01768623  0.54930486  0.59049404  1
  O  O219  1  0.31564711  -0.11736180  0.59049404  1
  O  O220  1  0.31564711  0.21597153  0.59049404  1
  O  O221  1  0.31564711  0.54930486  0.59049404  1
  O  O222  1  0.64898044  -0.11736180  0.59049404  1
  O  O223  1  0.64898044  0.21597153  0.59049404  1
  O  O224  1  0.64898044  0.54930486  0.59049404  1
  O  O225  1  0.20453600  -0.00625069  0.92382737  1
  O  O226  1  0.20453600  0.32708264  0.92382737  1
  O  O227  1  0.20453600  0.66041597  0.92382737  1
  O  O228  1  0.53786933  -0.00625069  0.92382737  1
  O  O229  1  0.53786933  0.32708264  0.92382737  1
  O  O230  1  0.53786933  0.66041597  0.92382737  1
  O  O231  1  0.87120266  -0.00625069  0.92382737  1
  O  O232  1  0.87120266  0.32708264  0.92382737  1
  O  O233  1  0.87120266  0.66041597  0.92382737  1
  O  O234  1  0.09342488  0.10486042  1.25716071  1
  O  O235  1  0.09342488  0.43819375  1.25716071  1
  O  O236  1  0.09342488  0.77152708  1.25716071  1
  O  O237  1  0.42675822  0.10486042  1.25716071  1
  O  O238  1  0.42675822  0.43819375  1.25716071  1
  O  O239  1  0.42675822  0.77152708  1.25716071  1
  O  O240  1  0.76009155  0.10486042  1.25716071  1
  O  O241  1  0.76009155  0.43819375  1.25716071  1
  O  O242  1  0.76009155  0.77152708  1.25716071  1
  O  O243  1  -0.09967558  0.01768623  0.59049404  1
  O  O244  1  -0.09967558  0.35101956  0.59049404  1
  O  O245  1  -0.09967558  0.68435289  0.59049404  1
  O  O246  1  0.23365776  0.01768623  0.59049404  1
  O  O247  1  0.23365776  0.35101956  0.59049404  1
  O  O248  1  0.23365776  0.68435289  0.59049404  1
  O  O249  1  0.56699109  0.01768623  0.59049404  1
  O  O250  1  0.56699109  0.35101956  0.59049404  1
  O  O251  1  0.56699109  0.68435289  0.59049404  1
  O  O252  1  0.12254664  0.12879734  0.92382737  1
  O  O253  1  0.12254664  0.46213067  0.92382737  1
  O  O254  1  0.12254664  0.79546400  0.92382737  1
  O  O255  1  0.45587998  0.12879734  0.92382737  1
  O  O256  1  0.45587998  0.46213067  0.92382737  1
  O  O257  1  0.45587998  0.79546400  0.92382737  1
  O  O258  1  0.78921331  0.12879734  0.92382737  1
  O  O259  1  0.78921331  0.46213067  0.92382737  1
  O  O260  1  0.78921331  0.79546400  0.92382737  1
  O  O261  1  0.01143553  0.23990845  1.25716071  1
  O  O262  1  0.01143553  0.57324178  1.25716071  1
  O  O263  1  0.01143553  0.90657512  1.25716071  1
  O  O264  1  0.34476887  0.23990845  1.25716071  1
  O  O265  1  0.34476887  0.57324178  1.25716071  1
  O  O266  1  0.34476887  0.90657512  1.25716071  1
  O  O267  1  0.67810220  0.23990845  1.25716071  1
  O  O268  1  0.67810220  0.57324178  1.25716071  1
  O  O269  1  0.67810220  0.90657512  1.25716071  1
