# generated using pymatgen
data_CsAgO2
_symmetry_space_group_name_H-M   'P 1'
_cell_length_a   10.14119207
_cell_length_b   12.49181330
_cell_length_c   11.91024729
_cell_angle_alpha   90.00000000
_cell_angle_beta   90.00000000
_cell_angle_gamma   90.00000000
_symmetry_Int_Tables_number   1
_chemical_formula_structural   CsAgO2
_chemical_formula_sum   'Cs16 Ag16 O32'
_cell_volume   1508.81249358
_cell_formula_units_Z   16
loop_
 _symmetry_equiv_pos_site_id
 _symmetry_equiv_pos_as_xyz
  1  'x, y, z'
loop_
 _atom_site_type_symbol
 _atom_site_label
 _atom_site_symmetry_multiplicity
 _atom_site_fract_x
 _atom_site_fract_y
 _atom_site_fract_z
 _atom_site_occupancy
  Cs  Cs0  1  0.25000000  -0.19524835  0.37500000  1
  Cs  Cs1  1  0.25000000  -0.19524835  0.87500000  1
  Cs  Cs2  1  0.75000000  -0.19524835  0.37500000  1
  Cs  Cs3  1  0.75000000  -0.19524835  0.87500000  1
  Cs  Cs4  1  0.50000000  0.30475165  0.37500000  1
  Cs  Cs5  1  0.50000000  0.30475165  0.87500000  1
  Cs  Cs6  1  1.00000000  0.30475165  0.37500000  1
  Cs  Cs7  1  1.00000000  0.30475165  0.87500000  1
  Cs  Cs8  1  0.25000000  0.19524835  0.12500000  1
  Cs  Cs9  1  0.25000000  0.19524835  0.62500000  1
  Cs  Cs10  1  0.75000000  0.19524835  0.12500000  1
  Cs  Cs11  1  0.75000000  0.19524835  0.62500000  1
  Cs  Cs12  1  0.50000000  0.69524835  0.12500000  1
  Cs  Cs13  1  0.50000000  0.69524835  0.62500000  1
  Cs  Cs14  1  1.00000000  0.69524835  0.12500000  1
  Cs  Cs15  1  1.00000000  0.69524835  0.62500000  1
  Ag  Ag16  1  0.25000000  0.49749182  0.12500000  1
  Ag  Ag17  1  0.25000000  0.49749182  0.62500000  1
  Ag  Ag18  1  0.75000000  0.49749182  0.12500000  1
  Ag  Ag19  1  0.75000000  0.49749182  0.62500000  1
  Ag  Ag20  1  0.50000000  0.99749182  0.12500000  1
  Ag  Ag21  1  0.50000000  0.99749182  0.62500000  1
  Ag  Ag22  1  1.00000000  0.99749182  0.12500000  1
  Ag  Ag23  1  1.00000000  0.99749182  0.62500000  1
  Ag  Ag24  1  0.25000000  -0.49749182  0.37500000  1
  Ag  Ag25  1  0.25000000  -0.49749182  0.87500000  1
  Ag  Ag26  1  0.75000000  -0.49749182  0.37500000  1
  Ag  Ag27  1  0.75000000  -0.49749182  0.87500000  1
  Ag  Ag28  1  0.50000000  0.00250818  0.37500000  1
  Ag  Ag29  1  0.50000000  0.00250818  0.87500000  1
  Ag  Ag30  1  1.00000000  0.00250818  0.37500000  1
  Ag  Ag31  1  1.00000000  0.00250818  0.87500000  1
  O  O32  1  0.25000000  0.39373509  0.25252460  1
  O  O33  1  0.25000000  0.39373509  0.75252460  1
  O  O34  1  0.75000000  0.39373509  0.25252460  1
  O  O35  1  0.75000000  0.39373509  0.75252460  1
  O  O36  1  0.50000000  0.89373509  0.25252460  1
  O  O37  1  0.50000000  0.89373509  0.75252460  1
  O  O38  1  1.00000000  0.89373509  0.25252460  1
  O  O39  1  1.00000000  0.89373509  0.75252460  1
  O  O40  1  0.25000000  -0.39373509  0.00252460  1
  O  O41  1  0.25000000  -0.39373509  0.50252460  1
  O  O42  1  0.75000000  -0.39373509  0.00252460  1
  O  O43  1  0.75000000  -0.39373509  0.50252460  1
  O  O44  1  0.50000000  0.10626491  0.00252460  1
  O  O45  1  0.50000000  0.10626491  0.50252460  1
  O  O46  1  1.00000000  0.10626491  0.00252460  1
  O  O47  1  1.00000000  0.10626491  0.50252460  1
  O  O48  1  0.25000000  -0.39373509  0.24747540  1
  O  O49  1  0.25000000  -0.39373509  0.74747540  1
  O  O50  1  0.75000000  -0.39373509  0.24747540  1
  O  O51  1  0.75000000  -0.39373509  0.74747540  1
  O  O52  1  0.50000000  0.10626491  0.24747540  1
  O  O53  1  0.50000000  0.10626491  0.74747540  1
  O  O54  1  1.00000000  0.10626491  0.24747540  1
  O  O55  1  1.00000000  0.10626491  0.74747540  1
  O  O56  1  0.25000000  0.39373509  0.49747540  1
  O  O57  1  0.25000000  0.39373509  0.99747540  1
  O  O58  1  0.75000000  0.39373509  0.49747540  1
  O  O59  1  0.75000000  0.39373509  0.99747540  1
  O  O60  1  0.50000000  0.89373509  0.49747540  1
  O  O61  1  0.50000000  0.89373509  0.99747540  1
  O  O62  1  1.00000000  0.89373509  0.49747540  1
  O  O63  1  1.00000000  0.89373509  0.99747540  1
