# generated using pymatgen
data_LiSc(WO4)2
_symmetry_space_group_name_H-M   'P 1'
_cell_length_a   9.50405762
_cell_length_b   11.52696667
_cell_length_c   9.85398126
_cell_angle_alpha   90.00000000
_cell_angle_beta   90.87147046
_cell_angle_gamma   90.00000000
_symmetry_Int_Tables_number   1
_chemical_formula_structural   LiSc(WO4)2
_chemical_formula_sum   'Li8 Sc8 W16 O64'
_cell_volume   1079.40789908
_cell_formula_units_Z   8
loop_
 _symmetry_equiv_pos_site_id
 _symmetry_equiv_pos_as_xyz
  1  'x, y, z'
loop_
 _atom_site_type_symbol
 _atom_site_label
 _atom_site_symmetry_multiplicity
 _atom_site_fract_x
 _atom_site_fract_y
 _atom_site_fract_z
 _atom_site_occupancy
  Li  Li0  1  0.50000000  -0.15488903  0.12500000  1
  Li  Li1  1  0.50000000  -0.15488903  0.62500000  1
  Li  Li2  1  1.00000000  0.34511097  0.12500000  1
  Li  Li3  1  1.00000000  0.34511097  0.62500000  1
  Li  Li4  1  0.50000000  0.15488903  0.37500000  1
  Li  Li5  1  0.50000000  0.15488903  0.87500000  1
  Li  Li6  1  1.00000000  0.65488903  0.37500000  1
  Li  Li7  1  1.00000000  0.65488903  0.87500000  1
  Sc  Sc8  1  0.50000000  0.33651853  0.12500000  1
  Sc  Sc9  1  0.50000000  0.33651853  0.62500000  1
  Sc  Sc10  1  1.00000000  0.83651853  0.12500000  1
  Sc  Sc11  1  1.00000000  0.83651853  0.62500000  1
  Sc  Sc12  1  0.50000000  -0.33651853  0.37500000  1
  Sc  Sc13  1  0.50000000  -0.33651853  0.87500000  1
  Sc  Sc14  1  1.00000000  0.16348147  0.37500000  1
  Sc  Sc15  1  1.00000000  0.16348147  0.87500000  1
  W  W16  1  0.25727041  0.08988739  0.12628707  1
  W  W17  1  0.25727041  0.08988739  0.62628707  1
  W  W18  1  0.75727041  0.58988739  0.12628707  1
  W  W19  1  0.75727041  0.58988739  0.62628707  1
  W  W20  1  0.74272959  -0.08988739  0.37371293  1
  W  W21  1  0.74272959  -0.08988739  0.87371293  1
  W  W22  1  1.24272959  0.41011261  0.37371293  1
  W  W23  1  1.24272959  0.41011261  0.87371293  1
  W  W24  1  0.74272959  0.08988739  0.12371293  1
  W  W25  1  0.74272959  0.08988739  0.62371293  1
  W  W26  1  1.24272959  0.58988739  0.12371293  1
  W  W27  1  1.24272959  0.58988739  0.62371293  1
  W  W28  1  0.25727041  -0.08988739  0.37628707  1
  W  W29  1  0.25727041  -0.08988739  0.87628707  1
  W  W30  1  0.75727041  0.41011261  0.37628707  1
  W  W31  1  0.75727041  0.41011261  0.87628707  1
  O  O32  1  0.37502731  0.31815482  0.45191004  1
  O  O33  1  0.37502731  0.31815482  0.95191004  1
  O  O34  1  0.87502731  0.81815482  0.45191004  1
  O  O35  1  0.87502731  0.81815482  0.95191004  1
  O  O36  1  0.62497269  -0.31815482  0.04808996  1
  O  O37  1  0.62497269  -0.31815482  0.54808996  1
  O  O38  1  1.12497269  0.18184518  0.04808996  1
  O  O39  1  1.12497269  0.18184518  0.54808996  1
  O  O40  1  0.62497269  0.31815482  0.29808996  1
  O  O41  1  0.62497269  0.31815482  0.79808996  1
  O  O42  1  1.12497269  0.81815482  0.29808996  1
  O  O43  1  1.12497269  0.81815482  0.79808996  1
  O  O44  1  0.37502731  -0.31815482  0.20191004  1
  O  O45  1  0.37502731  -0.31815482  0.70191004  1
  O  O46  1  0.87502731  0.18184518  0.20191004  1
  O  O47  1  0.87502731  0.18184518  0.70191004  1
  O  O48  1  0.85716928  -0.05577219  0.21618612  1
  O  O49  1  0.85716928  -0.05577219  0.71618612  1
  O  O50  1  1.35716928  0.44422781  0.21618612  1
  O  O51  1  1.35716928  0.44422781  0.71618612  1
  O  O52  1  0.14283072  0.05577219  0.28381388  1
  O  O53  1  0.14283072  0.05577219  0.78381388  1
  O  O54  1  0.64283072  0.55577219  0.28381388  1
  O  O55  1  0.64283072  0.55577219  0.78381388  1
  O  O56  1  0.14283072  -0.05577219  0.03381388  1
  O  O57  1  0.14283072  -0.05577219  0.53381388  1
  O  O58  1  0.64283072  0.44422781  0.03381388  1
  O  O59  1  0.64283072  0.44422781  0.53381388  1
  O  O60  1  0.85716928  0.05577219  0.46618612  1
  O  O61  1  0.85716928  0.05577219  0.96618612  1
  O  O62  1  1.35716928  0.55577219  0.46618612  1
  O  O63  1  1.35716928  0.55577219  0.96618612  1
  O  O64  1  0.38017309  0.19193062  0.19752348  1
  O  O65  1  0.38017309  0.19193062  0.69752348  1
  O  O66  1  0.88017309  0.69193062  0.19752348  1
  O  O67  1  0.88017309  0.69193062  0.69752348  1
  O  O68  1  0.61982691  -0.19193062  0.30247652  1
  O  O69  1  0.61982691  -0.19193062  0.80247652  1
  O  O70  1  1.11982691  0.30806938  0.30247652  1
  O  O71  1  1.11982691  0.30806938  0.80247652  1
  O  O72  1  0.61982691  0.19193062  0.05247652  1
  O  O73  1  0.61982691  0.19193062  0.55247652  1
  O  O74  1  1.11982691  0.69193062  0.05247652  1
  O  O75  1  1.11982691  0.69193062  0.55247652  1
  O  O76  1  0.38017309  -0.19193062  0.44752348  1
  O  O77  1  0.38017309  -0.19193062  0.94752348  1
  O  O78  1  0.88017309  0.30806938  0.44752348  1
  O  O79  1  0.88017309  0.30806938  0.94752348  1
  O  O80  1  0.64314653  -0.04931063  0.02990255  1
  O  O81  1  0.64314653  -0.04931063  0.52990255  1
  O  O82  1  1.14314653  0.45068937  0.02990255  1
  O  O83  1  1.14314653  0.45068937  0.52990255  1
  O  O84  1  0.35685347  0.04931063  0.47009745  1
  O  O85  1  0.35685347  0.04931063  0.97009745  1
  O  O86  1  0.85685347  0.54931063  0.47009745  1
  O  O87  1  0.85685347  0.54931063  0.97009745  1
  O  O88  1  0.35685347  -0.04931063  0.22009745  1
  O  O89  1  0.35685347  -0.04931063  0.72009745  1
  O  O90  1  0.85685347  0.45068937  0.22009745  1
  O  O91  1  0.85685347  0.45068937  0.72009745  1
  O  O92  1  0.64314653  0.04931063  0.27990255  1
  O  O93  1  0.64314653  0.04931063  0.77990255  1
  O  O94  1  1.14314653  0.54931063  0.27990255  1
  O  O95  1  1.14314653  0.54931063  0.77990255  1
