# generated using pymatgen
data_LaAg(MoO4)2
_symmetry_space_group_name_H-M   'P 1'
_cell_length_a   10.68524901
_cell_length_b   10.68524901
_cell_length_c   11.45097830
_cell_angle_alpha   90.00000000
_cell_angle_beta   90.00000000
_cell_angle_gamma   90.00000000
_symmetry_Int_Tables_number   1
_chemical_formula_structural   LaAg(MoO4)2
_chemical_formula_sum   'La8 Ag8 Mo16 O64'
_cell_volume   1307.41025322
_cell_formula_units_Z   8
loop_
 _symmetry_equiv_pos_site_id
 _symmetry_equiv_pos_as_xyz
  1  'x, y, z'
loop_
 _atom_site_type_symbol
 _atom_site_label
 _atom_site_symmetry_multiplicity
 _atom_site_fract_x
 _atom_site_fract_y
 _atom_site_fract_z
 _atom_site_occupancy
  La  La0  1  -0.00000000  0.50000000  0.50000000  1
  La  La1  1  0.50000000  0.50000000  0.50000000  1
  La  La2  1  -0.00000000  0.00000000  0.50000000  1
  La  La3  1  0.50000000  0.00000000  0.50000000  1
  La  La4  1  0.25000000  0.25000000  1.00000000  1
  La  La5  1  0.75000000  0.25000000  1.00000000  1
  La  La6  1  0.25000000  -0.25000000  1.00000000  1
  La  La7  1  0.75000000  -0.25000000  1.00000000  1
  Ag  Ag8  1  0.25000000  0.50000000  0.25000000  1
  Ag  Ag9  1  0.75000000  0.50000000  0.25000000  1
  Ag  Ag10  1  0.25000000  0.00000000  0.25000000  1
  Ag  Ag11  1  0.75000000  0.00000000  0.25000000  1
  Ag  Ag12  1  0.50000000  0.25000000  0.75000000  1
  Ag  Ag13  1  1.00000000  0.25000000  0.75000000  1
  Ag  Ag14  1  0.50000000  -0.25000000  0.75000000  1
  Ag  Ag15  1  1.00000000  -0.25000000  0.75000000  1
  Mo  Mo16  1  -0.00000000  0.25000000  0.25000000  1
  Mo  Mo17  1  0.50000000  0.25000000  0.25000000  1
  Mo  Mo18  1  -0.00000000  -0.25000000  0.25000000  1
  Mo  Mo19  1  0.50000000  -0.25000000  0.25000000  1
  Mo  Mo20  1  0.25000000  0.00000000  0.75000000  1
  Mo  Mo21  1  0.75000000  0.00000000  0.75000000  1
  Mo  Mo22  1  0.25000000  -0.50000000  0.75000000  1
  Mo  Mo23  1  0.75000000  -0.50000000  0.75000000  1
  Mo  Mo24  1  -0.00000000  0.50000000  0.00000000  1
  Mo  Mo25  1  0.50000000  0.50000000  0.00000000  1
  Mo  Mo26  1  -0.00000000  0.00000000  0.00000000  1
  Mo  Mo27  1  0.50000000  0.00000000  0.00000000  1
  Mo  Mo28  1  0.25000000  0.25000000  0.50000000  1
  Mo  Mo29  1  0.75000000  0.25000000  0.50000000  1
  Mo  Mo30  1  0.25000000  -0.25000000  0.50000000  1
  Mo  Mo31  1  0.75000000  -0.25000000  0.50000000  1
  O  O32  1  0.11790875  0.32397430  0.16168029  1
  O  O33  1  0.61790875  0.32397430  0.16168029  1
  O  O34  1  0.11790875  -0.17602570  0.16168029  1
  O  O35  1  0.61790875  -0.17602570  0.16168029  1
  O  O36  1  0.36790875  0.07397430  0.66168029  1
  O  O37  1  0.86790875  0.07397430  0.66168029  1
  O  O38  1  0.36790875  -0.42602570  0.66168029  1
  O  O39  1  0.86790875  -0.42602570  0.66168029  1
  O  O40  1  0.13209125  0.42602570  0.66168029  1
  O  O41  1  0.63209125  0.42602570  0.66168029  1
  O  O42  1  0.13209125  -0.07397430  0.66168029  1
  O  O43  1  0.63209125  -0.07397430  0.66168029  1
  O  O44  1  0.38209125  0.17602570  1.16168029  1
  O  O45  1  0.88209125  0.17602570  1.16168029  1
  O  O46  1  0.38209125  -0.32397430  1.16168029  1
  O  O47  1  0.88209125  -0.32397430  1.16168029  1
  O  O48  1  0.07627566  0.38002882  -0.08461106  1
  O  O49  1  0.57627566  0.38002882  -0.08461106  1
  O  O50  1  0.07627566  -0.11997118  -0.08461106  1
  O  O51  1  0.57627566  -0.11997118  -0.08461106  1
  O  O52  1  0.32627566  0.13002882  0.41538894  1
  O  O53  1  0.82627566  0.13002882  0.41538894  1
  O  O54  1  0.32627566  -0.36997118  0.41538894  1
  O  O55  1  0.82627566  -0.36997118  0.41538894  1
  O  O56  1  0.17372434  0.36997118  0.41538894  1
  O  O57  1  0.67372434  0.36997118  0.41538894  1
  O  O58  1  0.17372434  -0.13002882  0.41538894  1
  O  O59  1  0.67372434  -0.13002882  0.41538894  1
  O  O60  1  0.42372434  0.11997118  0.91538894  1
  O  O61  1  0.92372434  0.11997118  0.91538894  1
  O  O62  1  0.42372434  -0.38002882  0.91538894  1
  O  O63  1  0.92372434  -0.38002882  0.91538894  1
  O  O64  1  0.38002882  0.42372434  0.08461106  1
  O  O65  1  0.88002882  0.42372434  0.08461106  1
  O  O66  1  0.38002882  -0.07627566  0.08461106  1
  O  O67  1  0.88002882  -0.07627566  0.08461106  1
  O  O68  1  0.63002882  0.17372434  0.58461106  1
  O  O69  1  1.13002882  0.17372434  0.58461106  1
  O  O70  1  0.63002882  -0.32627566  0.58461106  1
  O  O71  1  1.13002882  -0.32627566  0.58461106  1
  O  O72  1  -0.13002882  0.32627566  0.58461106  1
  O  O73  1  0.36997118  0.32627566  0.58461106  1
  O  O74  1  -0.13002882  -0.17372434  0.58461106  1
  O  O75  1  0.36997118  -0.17372434  0.58461106  1
  O  O76  1  0.11997118  0.07627566  1.08461106  1
  O  O77  1  0.61997118  0.07627566  1.08461106  1
  O  O78  1  0.11997118  -0.42372434  1.08461106  1
  O  O79  1  0.61997118  -0.42372434  1.08461106  1
  O  O80  1  -0.07397430  0.36790875  0.33831971  1
  O  O81  1  0.42602570  0.36790875  0.33831971  1
  O  O82  1  -0.07397430  -0.13209125  0.33831971  1
  O  O83  1  0.42602570  -0.13209125  0.33831971  1
  O  O84  1  0.17602570  0.11790875  0.83831971  1
  O  O85  1  0.67602570  0.11790875  0.83831971  1
  O  O86  1  0.17602570  -0.38209125  0.83831971  1
  O  O87  1  0.67602570  -0.38209125  0.83831971  1
  O  O88  1  0.32397430  0.38209125  -0.16168029  1
  O  O89  1  0.82397430  0.38209125  -0.16168029  1
  O  O90  1  0.32397430  -0.11790875  -0.16168029  1
  O  O91  1  0.82397430  -0.11790875  -0.16168029  1
  O  O92  1  0.57397430  0.13209125  0.33831971  1
  O  O93  1  1.07397430  0.13209125  0.33831971  1
  O  O94  1  0.57397430  -0.36790875  0.33831971  1
  O  O95  1  1.07397430  -0.36790875  0.33831971  1
