# generated using pymatgen
data_Ba2CdGe2O7
_symmetry_space_group_name_H-M   'P 1'
_cell_length_a   17.34621660
_cell_length_b   17.34621660
_cell_length_c   16.66794476
_cell_angle_alpha   90.00000000
_cell_angle_beta   90.00000000
_cell_angle_gamma   90.00000000
_symmetry_Int_Tables_number   1
_chemical_formula_structural   Ba2CdGe2O7
_chemical_formula_sum   'Ba48 Cd24 Ge48 O168'
_cell_volume   5015.23840673
_cell_formula_units_Z   24
loop_
 _symmetry_equiv_pos_site_id
 _symmetry_equiv_pos_as_xyz
  1  'x, y, z'
loop_
 _atom_site_type_symbol
 _atom_site_label
 _atom_site_symmetry_multiplicity
 _atom_site_fract_x
 _atom_site_fract_y
 _atom_site_fract_z
 _atom_site_occupancy
  Ba  Ba0  1  0.16742959  0.41742959  0.16877938  1
  Ba  Ba1  1  0.16742959  0.41742959  0.50211271  1
  Ba  Ba2  1  0.16742959  0.41742959  0.83544604  1
  Ba  Ba3  1  0.66742959  0.41742959  0.16877938  1
  Ba  Ba4  1  0.66742959  0.41742959  0.50211271  1
  Ba  Ba5  1  0.66742959  0.41742959  0.83544604  1
  Ba  Ba6  1  0.16742959  -0.08257041  0.16877938  1
  Ba  Ba7  1  0.16742959  -0.08257041  0.50211271  1
  Ba  Ba8  1  0.16742959  -0.08257041  0.83544604  1
  Ba  Ba9  1  0.66742959  -0.08257041  0.16877938  1
  Ba  Ba10  1  0.66742959  -0.08257041  0.50211271  1
  Ba  Ba11  1  0.66742959  -0.08257041  0.83544604  1
  Ba  Ba12  1  0.33257041  0.08257041  0.16877938  1
  Ba  Ba13  1  0.33257041  0.08257041  0.50211271  1
  Ba  Ba14  1  0.33257041  0.08257041  0.83544604  1
  Ba  Ba15  1  0.83257041  0.08257041  0.16877938  1
  Ba  Ba16  1  0.83257041  0.08257041  0.50211271  1
  Ba  Ba17  1  0.83257041  0.08257041  0.83544604  1
  Ba  Ba18  1  0.33257041  -0.41742959  0.16877938  1
  Ba  Ba19  1  0.33257041  -0.41742959  0.50211271  1
  Ba  Ba20  1  0.33257041  -0.41742959  0.83544604  1
  Ba  Ba21  1  0.83257041  -0.41742959  0.16877938  1
  Ba  Ba22  1  0.83257041  -0.41742959  0.50211271  1
  Ba  Ba23  1  0.83257041  -0.41742959  0.83544604  1
  Ba  Ba24  1  0.08257041  0.16742959  0.16455396  1
  Ba  Ba25  1  0.08257041  0.16742959  0.49788729  1
  Ba  Ba26  1  0.08257041  0.16742959  0.83122062  1
  Ba  Ba27  1  0.58257041  0.16742959  0.16455396  1
  Ba  Ba28  1  0.58257041  0.16742959  0.49788729  1
  Ba  Ba29  1  0.58257041  0.16742959  0.83122062  1
  Ba  Ba30  1  0.08257041  -0.33257041  0.16455396  1
  Ba  Ba31  1  0.08257041  -0.33257041  0.49788729  1
  Ba  Ba32  1  0.08257041  -0.33257041  0.83122062  1
  Ba  Ba33  1  0.58257041  -0.33257041  0.16455396  1
  Ba  Ba34  1  0.58257041  -0.33257041  0.49788729  1
  Ba  Ba35  1  0.58257041  -0.33257041  0.83122062  1
  Ba  Ba36  1  0.41742959  0.33257041  0.16455396  1
  Ba  Ba37  1  0.41742959  0.33257041  0.49788729  1
  Ba  Ba38  1  0.41742959  0.33257041  0.83122062  1
  Ba  Ba39  1  0.91742959  0.33257041  0.16455396  1
  Ba  Ba40  1  0.91742959  0.33257041  0.49788729  1
  Ba  Ba41  1  0.91742959  0.33257041  0.83122062  1
  Ba  Ba42  1  0.41742959  -0.16742959  0.16455396  1
  Ba  Ba43  1  0.41742959  -0.16742959  0.49788729  1
  Ba  Ba44  1  0.41742959  -0.16742959  0.83122062  1
  Ba  Ba45  1  0.91742959  -0.16742959  0.16455396  1
  Ba  Ba46  1  0.91742959  -0.16742959  0.49788729  1
  Ba  Ba47  1  0.91742959  -0.16742959  0.83122062  1
  Cd  Cd48  1  0.00000000  0.50000000  0.00000000  1
  Cd  Cd49  1  0.00000000  0.50000000  0.33333333  1
  Cd  Cd50  1  0.00000000  0.50000000  0.66666667  1
  Cd  Cd51  1  0.50000000  0.50000000  0.00000000  1
  Cd  Cd52  1  0.50000000  0.50000000  0.33333333  1
  Cd  Cd53  1  0.50000000  0.50000000  0.66666667  1
  Cd  Cd54  1  0.00000000  0.00000000  0.00000000  1
  Cd  Cd55  1  0.00000000  0.00000000  0.33333333  1
  Cd  Cd56  1  0.00000000  0.00000000  0.66666667  1
  Cd  Cd57  1  0.50000000  0.00000000  0.00000000  1
  Cd  Cd58  1  0.50000000  0.00000000  0.33333333  1
  Cd  Cd59  1  0.50000000  0.00000000  0.66666667  1
  Cd  Cd60  1  0.25000000  0.25000000  0.00000000  1
  Cd  Cd61  1  0.25000000  0.25000000  0.33333333  1
  Cd  Cd62  1  0.25000000  0.25000000  0.66666667  1
  Cd  Cd63  1  0.75000000  0.25000000  0.00000000  1
  Cd  Cd64  1  0.75000000  0.25000000  0.33333333  1
  Cd  Cd65  1  0.75000000  0.25000000  0.66666667  1
  Cd  Cd66  1  0.25000000  -0.25000000  0.00000000  1
  Cd  Cd67  1  0.25000000  -0.25000000  0.33333333  1
  Cd  Cd68  1  0.25000000  -0.25000000  0.66666667  1
  Cd  Cd69  1  0.75000000  -0.25000000  0.00000000  1
  Cd  Cd70  1  0.75000000  -0.25000000  0.33333333  1
  Cd  Cd71  1  0.75000000  -0.25000000  0.66666667  1
  Ge  Ge72  1  0.43085161  0.18085161  0.31600634  1
  Ge  Ge73  1  0.43085161  0.18085161  0.64933968  1
  Ge  Ge74  1  0.43085161  0.18085161  0.98267301  1
  Ge  Ge75  1  0.93085161  0.18085161  0.31600634  1
  Ge  Ge76  1  0.93085161  0.18085161  0.64933968  1
  Ge  Ge77  1  0.93085161  0.18085161  0.98267301  1
  Ge  Ge78  1  0.43085161  -0.31914839  0.31600634  1
  Ge  Ge79  1  0.43085161  -0.31914839  0.64933968  1
  Ge  Ge80  1  0.43085161  -0.31914839  0.98267301  1
  Ge  Ge81  1  0.93085161  -0.31914839  0.31600634  1
  Ge  Ge82  1  0.93085161  -0.31914839  0.64933968  1
  Ge  Ge83  1  0.93085161  -0.31914839  0.98267301  1
  Ge  Ge84  1  0.06914839  0.31914839  0.31600634  1
  Ge  Ge85  1  0.06914839  0.31914839  0.64933968  1
  Ge  Ge86  1  0.06914839  0.31914839  0.98267301  1
  Ge  Ge87  1  0.56914839  0.31914839  0.31600634  1
  Ge  Ge88  1  0.56914839  0.31914839  0.64933968  1
  Ge  Ge89  1  0.56914839  0.31914839  0.98267301  1
  Ge  Ge90  1  0.06914839  -0.18085161  0.31600634  1
  Ge  Ge91  1  0.06914839  -0.18085161  0.64933968  1
  Ge  Ge92  1  0.06914839  -0.18085161  0.98267301  1
  Ge  Ge93  1  0.56914839  -0.18085161  0.31600634  1
  Ge  Ge94  1  0.56914839  -0.18085161  0.64933968  1
  Ge  Ge95  1  0.56914839  -0.18085161  0.98267301  1
  Ge  Ge96  1  0.31914839  0.43085161  0.01732699  1
  Ge  Ge97  1  0.31914839  0.43085161  0.35066032  1
  Ge  Ge98  1  0.31914839  0.43085161  0.68399366  1
  Ge  Ge99  1  0.81914839  0.43085161  0.01732699  1
  Ge  Ge100  1  0.81914839  0.43085161  0.35066032  1
  Ge  Ge101  1  0.81914839  0.43085161  0.68399366  1
  Ge  Ge102  1  0.31914839  -0.06914839  0.01732699  1
  Ge  Ge103  1  0.31914839  -0.06914839  0.35066032  1
  Ge  Ge104  1  0.31914839  -0.06914839  0.68399366  1
  Ge  Ge105  1  0.81914839  -0.06914839  0.01732699  1
  Ge  Ge106  1  0.81914839  -0.06914839  0.35066032  1
  Ge  Ge107  1  0.81914839  -0.06914839  0.68399366  1
  Ge  Ge108  1  0.18085161  0.06914839  0.01732699  1
  Ge  Ge109  1  0.18085161  0.06914839  0.35066032  1
  Ge  Ge110  1  0.18085161  0.06914839  0.68399366  1
  Ge  Ge111  1  0.68085161  0.06914839  0.01732699  1
  Ge  Ge112  1  0.68085161  0.06914839  0.35066032  1
  Ge  Ge113  1  0.68085161  0.06914839  0.68399366  1
  Ge  Ge114  1  0.18085161  -0.43085161  0.01732699  1
  Ge  Ge115  1  0.18085161  -0.43085161  0.35066032  1
  Ge  Ge116  1  0.18085161  -0.43085161  0.68399366  1
  Ge  Ge117  1  0.68085161  -0.43085161  0.01732699  1
  Ge  Ge118  1  0.68085161  -0.43085161  0.35066032  1
  Ge  Ge119  1  0.68085161  -0.43085161  0.68399366  1
  O  O120  1  0.25000000  0.50000000  0.05767931  1
  O  O121  1  0.25000000  0.50000000  0.39101264  1
  O  O122  1  0.25000000  0.50000000  0.72434598  1
  O  O123  1  0.75000000  0.50000000  0.05767931  1
  O  O124  1  0.75000000  0.50000000  0.39101264  1
  O  O125  1  0.75000000  0.50000000  0.72434598  1
  O  O126  1  0.25000000  0.00000000  0.05767931  1
  O  O127  1  0.25000000  0.00000000  0.39101264  1
  O  O128  1  0.25000000  0.00000000  0.72434598  1
  O  O129  1  0.75000000  0.00000000  0.05767931  1
  O  O130  1  0.75000000  0.00000000  0.39101264  1
  O  O131  1  0.75000000  0.00000000  0.72434598  1
  O  O132  1  0.00000000  0.25000000  0.27565402  1
  O  O133  1  0.00000000  0.25000000  0.60898736  1
  O  O134  1  0.00000000  0.25000000  0.94232069  1
  O  O135  1  0.50000000  0.25000000  0.27565402  1
  O  O136  1  0.50000000  0.25000000  0.60898736  1
  O  O137  1  0.50000000  0.25000000  0.94232069  1
  O  O138  1  0.00000000  -0.25000000  0.27565402  1
  O  O139  1  0.00000000  -0.25000000  0.60898736  1
  O  O140  1  0.00000000  -0.25000000  0.94232069  1
  O  O141  1  0.50000000  -0.25000000  0.27565402  1
  O  O142  1  0.50000000  -0.25000000  0.60898736  1
  O  O143  1  0.50000000  -0.25000000  0.94232069  1
  O  O144  1  0.43042951  0.18042951  0.08795695  1
  O  O145  1  0.43042951  0.18042951  0.42129028  1
  O  O146  1  0.43042951  0.18042951  0.75462361  1
  O  O147  1  0.93042951  0.18042951  0.08795695  1
  O  O148  1  0.93042951  0.18042951  0.42129028  1
  O  O149  1  0.93042951  0.18042951  0.75462361  1
  O  O150  1  0.43042951  -0.31957049  0.08795695  1
  O  O151  1  0.43042951  -0.31957049  0.42129028  1
  O  O152  1  0.43042951  -0.31957049  0.75462361  1
  O  O153  1  0.93042951  -0.31957049  0.08795695  1
  O  O154  1  0.93042951  -0.31957049  0.42129028  1
  O  O155  1  0.93042951  -0.31957049  0.75462361  1
  O  O156  1  0.06957049  0.31957049  0.08795695  1
  O  O157  1  0.06957049  0.31957049  0.42129028  1
  O  O158  1  0.06957049  0.31957049  0.75462361  1
  O  O159  1  0.56957049  0.31957049  0.08795695  1
  O  O160  1  0.56957049  0.31957049  0.42129028  1
  O  O161  1  0.56957049  0.31957049  0.75462361  1
  O  O162  1  0.06957049  -0.18042951  0.08795695  1
  O  O163  1  0.06957049  -0.18042951  0.42129028  1
  O  O164  1  0.06957049  -0.18042951  0.75462361  1
  O  O165  1  0.56957049  -0.18042951  0.08795695  1
  O  O166  1  0.56957049  -0.18042951  0.42129028  1
  O  O167  1  0.56957049  -0.18042951  0.75462361  1
  O  O168  1  0.31957049  0.43042951  0.24537639  1
  O  O169  1  0.31957049  0.43042951  0.57870972  1
  O  O170  1  0.31957049  0.43042951  0.91204305  1
  O  O171  1  0.81957049  0.43042951  0.24537639  1
  O  O172  1  0.81957049  0.43042951  0.57870972  1
  O  O173  1  0.81957049  0.43042951  0.91204305  1
  O  O174  1  0.31957049  -0.06957049  0.24537639  1
  O  O175  1  0.31957049  -0.06957049  0.57870972  1
  O  O176  1  0.31957049  -0.06957049  0.91204305  1
  O  O177  1  0.81957049  -0.06957049  0.24537639  1
  O  O178  1  0.81957049  -0.06957049  0.57870972  1
  O  O179  1  0.81957049  -0.06957049  0.91204305  1
  O  O180  1  0.18042951  0.06957049  0.24537639  1
  O  O181  1  0.18042951  0.06957049  0.57870972  1
  O  O182  1  0.18042951  0.06957049  0.91204305  1
  O  O183  1  0.68042951  0.06957049  0.24537639  1
  O  O184  1  0.68042951  0.06957049  0.57870972  1
  O  O185  1  0.68042951  0.06957049  0.91204305  1
  O  O186  1  0.18042951  -0.43042951  0.24537639  1
  O  O187  1  0.18042951  -0.43042951  0.57870972  1
  O  O188  1  0.18042951  -0.43042951  0.91204305  1
  O  O189  1  0.68042951  -0.43042951  0.24537639  1
  O  O190  1  0.68042951  -0.43042951  0.57870972  1
  O  O191  1  0.68042951  -0.43042951  0.91204305  1
  O  O192  1  0.40312608  0.46132780  0.07130945  1
  O  O193  1  0.40312608  0.46132780  0.40464278  1
  O  O194  1  0.40312608  0.46132780  0.73797611  1
  O  O195  1  0.90312608  0.46132780  0.07130945  1
  O  O196  1  0.90312608  0.46132780  0.40464278  1
  O  O197  1  0.90312608  0.46132780  0.73797611  1
  O  O198  1  0.40312608  -0.03867220  0.07130945  1
  O  O199  1  0.40312608  -0.03867220  0.40464278  1
  O  O200  1  0.40312608  -0.03867220  0.73797611  1
  O  O201  1  0.90312608  -0.03867220  0.07130945  1
  O  O202  1  0.90312608  -0.03867220  0.40464278  1
  O  O203  1  0.90312608  -0.03867220  0.73797611  1
  O  O204  1  0.09687392  0.03867220  0.07130945  1
  O  O205  1  0.09687392  0.03867220  0.40464278  1
  O  O206  1  0.09687392  0.03867220  0.73797611  1
  O  O207  1  0.59687392  0.03867220  0.07130945  1
  O  O208  1  0.59687392  0.03867220  0.40464278  1
  O  O209  1  0.59687392  0.03867220  0.73797611  1
  O  O210  1  0.09687392  -0.46132780  0.07130945  1
  O  O211  1  0.09687392  -0.46132780  0.40464278  1
  O  O212  1  0.09687392  -0.46132780  0.73797611  1
  O  O213  1  0.59687392  -0.46132780  0.07130945  1
  O  O214  1  0.59687392  -0.46132780  0.40464278  1
  O  O215  1  0.59687392  -0.46132780  0.73797611  1
  O  O216  1  0.03867220  0.40312608  0.26202389  1
  O  O217  1  0.03867220  0.40312608  0.59535722  1
  O  O218  1  0.03867220  0.40312608  0.92869055  1
  O  O219  1  0.53867220  0.40312608  0.26202389  1
  O  O220  1  0.53867220  0.40312608  0.59535722  1
  O  O221  1  0.53867220  0.40312608  0.92869055  1
  O  O222  1  0.03867220  -0.09687392  0.26202389  1
  O  O223  1  0.03867220  -0.09687392  0.59535722  1
  O  O224  1  0.03867220  -0.09687392  0.92869055  1
  O  O225  1  0.53867220  -0.09687392  0.26202389  1
  O  O226  1  0.53867220  -0.09687392  0.59535722  1
  O  O227  1  0.53867220  -0.09687392  0.92869055  1
  O  O228  1  0.15312608  0.28867220  0.26202389  1
  O  O229  1  0.15312608  0.28867220  0.59535722  1
  O  O230  1  0.15312608  0.28867220  0.92869055  1
  O  O231  1  0.65312608  0.28867220  0.26202389  1
  O  O232  1  0.65312608  0.28867220  0.59535722  1
  O  O233  1  0.65312608  0.28867220  0.92869055  1
  O  O234  1  0.15312608  -0.21132780  0.26202389  1
  O  O235  1  0.15312608  -0.21132780  0.59535722  1
  O  O236  1  0.15312608  -0.21132780  0.92869055  1
  O  O237  1  0.65312608  -0.21132780  0.26202389  1
  O  O238  1  0.65312608  -0.21132780  0.59535722  1
  O  O239  1  0.65312608  -0.21132780  0.92869055  1
  O  O240  1  0.46132780  0.09687392  0.26202389  1
  O  O241  1  0.46132780  0.09687392  0.59535722  1
  O  O242  1  0.46132780  0.09687392  0.92869055  1
  O  O243  1  0.96132780  0.09687392  0.26202389  1
  O  O244  1  0.96132780  0.09687392  0.59535722  1
  O  O245  1  0.96132780  0.09687392  0.92869055  1
  O  O246  1  0.46132780  -0.40312608  0.26202389  1
  O  O247  1  0.46132780  -0.40312608  0.59535722  1
  O  O248  1  0.46132780  -0.40312608  0.92869055  1
  O  O249  1  0.96132780  -0.40312608  0.26202389  1
  O  O250  1  0.96132780  -0.40312608  0.59535722  1
  O  O251  1  0.96132780  -0.40312608  0.92869055  1
  O  O252  1  0.34687392  0.21132780  0.26202389  1
  O  O253  1  0.34687392  0.21132780  0.59535722  1
  O  O254  1  0.34687392  0.21132780  0.92869055  1
  O  O255  1  0.84687392  0.21132780  0.26202389  1
  O  O256  1  0.84687392  0.21132780  0.59535722  1
  O  O257  1  0.84687392  0.21132780  0.92869055  1
  O  O258  1  0.34687392  -0.28867220  0.26202389  1
  O  O259  1  0.34687392  -0.28867220  0.59535722  1
  O  O260  1  0.34687392  -0.28867220  0.92869055  1
  O  O261  1  0.84687392  -0.28867220  0.26202389  1
  O  O262  1  0.84687392  -0.28867220  0.59535722  1
  O  O263  1  0.84687392  -0.28867220  0.92869055  1
  O  O264  1  0.28867220  0.34687392  0.07130945  1
  O  O265  1  0.28867220  0.34687392  0.40464278  1
  O  O266  1  0.28867220  0.34687392  0.73797611  1
  O  O267  1  0.78867220  0.34687392  0.07130945  1
  O  O268  1  0.78867220  0.34687392  0.40464278  1
  O  O269  1  0.78867220  0.34687392  0.73797611  1
  O  O270  1  0.28867220  -0.15312608  0.07130945  1
  O  O271  1  0.28867220  -0.15312608  0.40464278  1
  O  O272  1  0.28867220  -0.15312608  0.73797611  1
  O  O273  1  0.78867220  -0.15312608  0.07130945  1
  O  O274  1  0.78867220  -0.15312608  0.40464278  1
  O  O275  1  0.78867220  -0.15312608  0.73797611  1
  O  O276  1  0.21132780  0.15312608  0.07130945  1
  O  O277  1  0.21132780  0.15312608  0.40464278  1
  O  O278  1  0.21132780  0.15312608  0.73797611  1
  O  O279  1  0.71132780  0.15312608  0.07130945  1
  O  O280  1  0.71132780  0.15312608  0.40464278  1
  O  O281  1  0.71132780  0.15312608  0.73797611  1
  O  O282  1  0.21132780  -0.34687392  0.07130945  1
  O  O283  1  0.21132780  -0.34687392  0.40464278  1
  O  O284  1  0.21132780  -0.34687392  0.73797611  1
  O  O285  1  0.71132780  -0.34687392  0.07130945  1
  O  O286  1  0.71132780  -0.34687392  0.40464278  1
  O  O287  1  0.71132780  -0.34687392  0.73797611  1
