# generated using pymatgen
data_Sr2ScTaO6
_symmetry_space_group_name_H-M   'P 1'
_cell_length_a   11.35309514
_cell_length_b   11.37228821
_cell_length_c   9.82690949
_cell_angle_alpha   90.00000000
_cell_angle_beta   125.33627002
_cell_angle_gamma   90.00000000
_symmetry_Int_Tables_number   1
_chemical_formula_structural   Sr2ScTaO6
_chemical_formula_sum   'Sr16 Sc8 Ta8 O48'
_cell_volume   1035.01748240
_cell_formula_units_Z   8
loop_
 _symmetry_equiv_pos_site_id
 _symmetry_equiv_pos_as_xyz
  1  'x, y, z'
loop_
 _atom_site_type_symbol
 _atom_site_label
 _atom_site_symmetry_multiplicity
 _atom_site_fract_x
 _atom_site_fract_y
 _atom_site_fract_z
 _atom_site_occupancy
  Sr  Sr0  1  0.12245870  0.23837781  0.24980895  1
  Sr  Sr1  1  0.12245870  0.73837781  0.24980895  1
  Sr  Sr2  1  0.62245870  0.23837781  0.24980895  1
  Sr  Sr3  1  0.62245870  0.73837781  0.24980895  1
  Sr  Sr4  1  0.37754130  0.26162219  0.75019105  1
  Sr  Sr5  1  0.37754130  0.76162219  0.75019105  1
  Sr  Sr6  1  0.87754130  0.26162219  0.75019105  1
  Sr  Sr7  1  0.87754130  0.76162219  0.75019105  1
  Sr  Sr8  1  0.37754130  0.48837781  0.25019105  1
  Sr  Sr9  1  0.37754130  0.98837781  0.25019105  1
  Sr  Sr10  1  0.87754130  0.48837781  0.25019105  1
  Sr  Sr11  1  0.87754130  0.98837781  0.25019105  1
  Sr  Sr12  1  0.12245870  0.01162219  0.74980895  1
  Sr  Sr13  1  0.12245870  0.51162219  0.74980895  1
  Sr  Sr14  1  0.62245870  0.01162219  0.74980895  1
  Sr  Sr15  1  0.62245870  0.51162219  0.74980895  1
  Sc  Sc16  1  0.00000000  0.00000000  0.00000000  1
  Sc  Sc17  1  0.00000000  0.50000000  0.00000000  1
  Sc  Sc18  1  0.50000000  0.00000000  0.00000000  1
  Sc  Sc19  1  0.50000000  0.50000000  0.00000000  1
  Sc  Sc20  1  0.00000000  0.25000000  0.50000000  1
  Sc  Sc21  1  0.00000000  0.75000000  0.50000000  1
  Sc  Sc22  1  0.50000000  0.25000000  0.50000000  1
  Sc  Sc23  1  0.50000000  0.75000000  0.50000000  1
  Ta  Ta24  1  0.25000000  0.00000000  0.50000000  1
  Ta  Ta25  1  0.25000000  0.50000000  0.50000000  1
  Ta  Ta26  1  0.75000000  0.00000000  0.50000000  1
  Ta  Ta27  1  0.75000000  0.50000000  0.50000000  1
  Ta  Ta28  1  0.25000000  0.25000000  0.00000000  1
  Ta  Ta29  1  0.25000000  0.75000000  0.00000000  1
  Ta  Ta30  1  0.75000000  0.25000000  0.00000000  1
  Ta  Ta31  1  0.75000000  0.75000000  0.00000000  1
  O  O32  1  0.15940532  0.00564427  0.25599505  1
  O  O33  1  0.15940532  0.50564427  0.25599505  1
  O  O34  1  0.65940532  0.00564427  0.25599505  1
  O  O35  1  0.65940532  0.50564427  0.25599505  1
  O  O36  1  0.34059468  0.49435573  0.74400495  1
  O  O37  1  0.34059468  0.99435573  0.74400495  1
  O  O38  1  0.84059468  0.49435573  0.74400495  1
  O  O39  1  0.84059468  0.99435573  0.74400495  1
  O  O40  1  0.34059468  0.25564427  0.24400495  1
  O  O41  1  0.34059468  0.75564427  0.24400495  1
  O  O42  1  0.84059468  0.25564427  0.24400495  1
  O  O43  1  0.84059468  0.75564427  0.24400495  1
  O  O44  1  0.15940532  0.24435573  0.75599505  1
  O  O45  1  0.15940532  0.74435573  0.75599505  1
  O  O46  1  0.65940532  0.24435573  0.75599505  1
  O  O47  1  0.65940532  0.74435573  0.75599505  1
  O  O48  1  0.40199345  0.35831050  0.03250851  1
  O  O49  1  0.40199345  0.85831050  0.03250851  1
  O  O50  1  0.90199345  0.35831050  0.03250851  1
  O  O51  1  0.90199345  0.85831050  0.03250851  1
  O  O52  1  0.09800655  0.14168950  0.96749149  1
  O  O53  1  0.09800655  0.64168950  0.96749149  1
  O  O54  1  0.59800655  0.14168950  0.96749149  1
  O  O55  1  0.59800655  0.64168950  0.96749149  1
  O  O56  1  0.09800655  0.10831050  0.46749149  1
  O  O57  1  0.09800655  0.60831050  0.46749149  1
  O  O58  1  0.59800655  0.10831050  0.46749149  1
  O  O59  1  0.59800655  0.60831050  0.46749149  1
  O  O60  1  0.40199345  0.39168950  0.53250851  1
  O  O61  1  0.40199345  0.89168950  0.53250851  1
  O  O62  1  0.90199345  0.39168950  0.53250851  1
  O  O63  1  0.90199345  0.89168950  0.53250851  1
  O  O64  1  0.37461479  0.11377483  0.03347680  1
  O  O65  1  0.37461479  0.61377483  0.03347680  1
  O  O66  1  0.87461479  0.11377483  0.03347680  1
  O  O67  1  0.87461479  0.61377483  0.03347680  1
  O  O68  1  0.12538521  0.38622517  0.96652320  1
  O  O69  1  0.12538521  0.88622517  0.96652320  1
  O  O70  1  0.62538521  0.38622517  0.96652320  1
  O  O71  1  0.62538521  0.88622517  0.96652320  1
  O  O72  1  0.12538521  0.36377483  0.46652320  1
  O  O73  1  0.12538521  0.86377483  0.46652320  1
  O  O74  1  0.62538521  0.36377483  0.46652320  1
  O  O75  1  0.62538521  0.86377483  0.46652320  1
  O  O76  1  0.37461479  0.13622517  0.53347680  1
  O  O77  1  0.37461479  0.63622517  0.53347680  1
  O  O78  1  0.87461479  0.13622517  0.53347680  1
  O  O79  1  0.87461479  0.63622517  0.53347680  1
