# generated using pymatgen
data_Cs2Li2SiO4
_symmetry_space_group_name_H-M   'P 1'
_cell_length_a   16.63107118
_cell_length_b   17.18672128
_cell_length_c   18.41150041
_cell_angle_alpha   84.15082678
_cell_angle_beta   76.41370767
_cell_angle_gamma   87.18134930
_symmetry_Int_Tables_number   1
_chemical_formula_structural   Cs2Li2SiO4
_chemical_formula_sum   'Cs72 Li72 Si36 O144'
_cell_volume   5086.99655098
_cell_formula_units_Z   36
loop_
 _symmetry_equiv_pos_site_id
 _symmetry_equiv_pos_as_xyz
  1  'x, y, z'
loop_
 _atom_site_type_symbol
 _atom_site_label
 _atom_site_symmetry_multiplicity
 _atom_site_fract_x
 _atom_site_fract_y
 _atom_site_fract_z
 _atom_site_occupancy
  Cs  Cs0  1  0.17210431  0.05025444  0.14206406  1
  Cs  Cs1  1  0.17210431  0.05025444  0.64206406  1
  Cs  Cs2  1  0.17210431  0.38358777  0.14206406  1
  Cs  Cs3  1  0.17210431  0.38358777  0.64206406  1
  Cs  Cs4  1  0.17210431  0.71692110  0.14206406  1
  Cs  Cs5  1  0.17210431  0.71692110  0.64206406  1
  Cs  Cs6  1  0.50543764  0.05025444  0.14206406  1
  Cs  Cs7  1  0.50543764  0.05025444  0.64206406  1
  Cs  Cs8  1  0.50543764  0.38358777  0.14206406  1
  Cs  Cs9  1  0.50543764  0.38358777  0.64206406  1
  Cs  Cs10  1  0.50543764  0.71692110  0.14206406  1
  Cs  Cs11  1  0.50543764  0.71692110  0.64206406  1
  Cs  Cs12  1  0.83877097  0.05025444  0.14206406  1
  Cs  Cs13  1  0.83877097  0.05025444  0.64206406  1
  Cs  Cs14  1  0.83877097  0.38358777  0.14206406  1
  Cs  Cs15  1  0.83877097  0.38358777  0.64206406  1
  Cs  Cs16  1  0.83877097  0.71692110  0.14206406  1
  Cs  Cs17  1  0.83877097  0.71692110  0.64206406  1
  Cs  Cs18  1  0.16122903  0.28307890  0.35793594  1
  Cs  Cs19  1  0.16122903  0.28307890  0.85793594  1
  Cs  Cs20  1  0.16122903  0.61641223  0.35793594  1
  Cs  Cs21  1  0.16122903  0.61641223  0.85793594  1
  Cs  Cs22  1  0.16122903  0.94974556  0.35793594  1
  Cs  Cs23  1  0.16122903  0.94974556  0.85793594  1
  Cs  Cs24  1  0.49456236  0.28307890  0.35793594  1
  Cs  Cs25  1  0.49456236  0.28307890  0.85793594  1
  Cs  Cs26  1  0.49456236  0.61641223  0.35793594  1
  Cs  Cs27  1  0.49456236  0.61641223  0.85793594  1
  Cs  Cs28  1  0.49456236  0.94974556  0.35793594  1
  Cs  Cs29  1  0.49456236  0.94974556  0.85793594  1
  Cs  Cs30  1  0.82789569  0.28307890  0.35793594  1
  Cs  Cs31  1  0.82789569  0.28307890  0.85793594  1
  Cs  Cs32  1  0.82789569  0.61641223  0.35793594  1
  Cs  Cs33  1  0.82789569  0.61641223  0.85793594  1
  Cs  Cs34  1  0.82789569  0.94974556  0.35793594  1
  Cs  Cs35  1  0.82789569  0.94974556  0.85793594  1
  Cs  Cs36  1  0.26308608  0.24407666  0.00822856  1
  Cs  Cs37  1  0.26308608  0.24407666  0.50822856  1
  Cs  Cs38  1  0.26308608  0.57741000  0.00822856  1
  Cs  Cs39  1  0.26308608  0.57741000  0.50822856  1
  Cs  Cs40  1  0.26308608  0.91074333  0.00822856  1
  Cs  Cs41  1  0.26308608  0.91074333  0.50822856  1
  Cs  Cs42  1  0.59641941  0.24407666  0.00822856  1
  Cs  Cs43  1  0.59641941  0.24407666  0.50822856  1
  Cs  Cs44  1  0.59641941  0.57741000  0.00822856  1
  Cs  Cs45  1  0.59641941  0.57741000  0.50822856  1
  Cs  Cs46  1  0.59641941  0.91074333  0.00822856  1
  Cs  Cs47  1  0.59641941  0.91074333  0.50822856  1
  Cs  Cs48  1  0.92975275  0.24407666  0.00822856  1
  Cs  Cs49  1  0.92975275  0.24407666  0.50822856  1
  Cs  Cs50  1  0.92975275  0.57741000  0.00822856  1
  Cs  Cs51  1  0.92975275  0.57741000  0.50822856  1
  Cs  Cs52  1  0.92975275  0.91074333  0.00822856  1
  Cs  Cs53  1  0.92975275  0.91074333  0.50822856  1
  Cs  Cs54  1  0.07024725  0.08925667  0.49177144  1
  Cs  Cs55  1  0.07024725  0.08925667  0.99177144  1
  Cs  Cs56  1  0.07024725  0.42259000  0.49177144  1
  Cs  Cs57  1  0.07024725  0.42259000  0.99177144  1
  Cs  Cs58  1  0.07024725  0.75592334  0.49177144  1
  Cs  Cs59  1  0.07024725  0.75592334  0.99177144  1
  Cs  Cs60  1  0.40358059  0.08925667  0.49177144  1
  Cs  Cs61  1  0.40358059  0.08925667  0.99177144  1
  Cs  Cs62  1  0.40358059  0.42259000  0.49177144  1
  Cs  Cs63  1  0.40358059  0.42259000  0.99177144  1
  Cs  Cs64  1  0.40358059  0.75592334  0.49177144  1
  Cs  Cs65  1  0.40358059  0.75592334  0.99177144  1
  Cs  Cs66  1  0.73691392  0.08925667  0.49177144  1
  Cs  Cs67  1  0.73691392  0.08925667  0.99177144  1
  Cs  Cs68  1  0.73691392  0.42259000  0.49177144  1
  Cs  Cs69  1  0.73691392  0.42259000  0.99177144  1
  Cs  Cs70  1  0.73691392  0.75592334  0.49177144  1
  Cs  Cs71  1  0.73691392  0.75592334  0.99177144  1
  Li  Li72  1  0.10095011  0.13660314  0.29027679  1
  Li  Li73  1  0.10095011  0.13660314  0.79027679  1
  Li  Li74  1  0.10095011  0.46993647  0.29027679  1
  Li  Li75  1  0.10095011  0.46993647  0.79027679  1
  Li  Li76  1  0.10095011  0.80326981  0.29027679  1
  Li  Li77  1  0.10095011  0.80326981  0.79027679  1
  Li  Li78  1  0.43428344  0.13660314  0.29027679  1
  Li  Li79  1  0.43428344  0.13660314  0.79027679  1
  Li  Li80  1  0.43428344  0.46993647  0.29027679  1
  Li  Li81  1  0.43428344  0.46993647  0.79027679  1
  Li  Li82  1  0.43428344  0.80326981  0.29027679  1
  Li  Li83  1  0.43428344  0.80326981  0.79027679  1
  Li  Li84  1  0.76761677  0.13660314  0.29027679  1
  Li  Li85  1  0.76761677  0.13660314  0.79027679  1
  Li  Li86  1  0.76761677  0.46993647  0.29027679  1
  Li  Li87  1  0.76761677  0.46993647  0.79027679  1
  Li  Li88  1  0.76761677  0.80326981  0.29027679  1
  Li  Li89  1  0.76761677  0.80326981  0.79027679  1
  Li  Li90  1  0.23238323  0.19673019  0.20972321  1
  Li  Li91  1  0.23238323  0.19673019  0.70972321  1
  Li  Li92  1  0.23238323  0.53006353  0.20972321  1
  Li  Li93  1  0.23238323  0.53006353  0.70972321  1
  Li  Li94  1  0.23238323  0.86339686  0.20972321  1
  Li  Li95  1  0.23238323  0.86339686  0.70972321  1
  Li  Li96  1  0.56571656  0.19673019  0.20972321  1
  Li  Li97  1  0.56571656  0.19673019  0.70972321  1
  Li  Li98  1  0.56571656  0.53006353  0.20972321  1
  Li  Li99  1  0.56571656  0.53006353  0.70972321  1
  Li  Li100  1  0.56571656  0.86339686  0.20972321  1
  Li  Li101  1  0.56571656  0.86339686  0.70972321  1
  Li  Li102  1  0.89904989  0.19673019  0.20972321  1
  Li  Li103  1  0.89904989  0.19673019  0.70972321  1
  Li  Li104  1  0.89904989  0.53006353  0.20972321  1
  Li  Li105  1  0.89904989  0.53006353  0.70972321  1
  Li  Li106  1  0.89904989  0.86339686  0.20972321  1
  Li  Li107  1  0.89904989  0.86339686  0.70972321  1
  Li  Li108  1  0.02193939  0.27099836  0.28061070  1
  Li  Li109  1  0.02193939  0.27099836  0.78061070  1
  Li  Li110  1  0.02193939  0.60433169  0.28061070  1
  Li  Li111  1  0.02193939  0.60433169  0.78061070  1
  Li  Li112  1  0.02193939  0.93766503  0.28061070  1
  Li  Li113  1  0.02193939  0.93766503  0.78061070  1
  Li  Li114  1  0.35527273  0.27099836  0.28061070  1
  Li  Li115  1  0.35527273  0.27099836  0.78061070  1
  Li  Li116  1  0.35527273  0.60433169  0.28061070  1
  Li  Li117  1  0.35527273  0.60433169  0.78061070  1
  Li  Li118  1  0.35527273  0.93766503  0.28061070  1
  Li  Li119  1  0.35527273  0.93766503  0.78061070  1
  Li  Li120  1  0.68860606  0.27099836  0.28061070  1
  Li  Li121  1  0.68860606  0.27099836  0.78061070  1
  Li  Li122  1  0.68860606  0.60433169  0.28061070  1
  Li  Li123  1  0.68860606  0.60433169  0.78061070  1
  Li  Li124  1  0.68860606  0.93766503  0.28061070  1
  Li  Li125  1  0.68860606  0.93766503  0.78061070  1
  Li  Li126  1  0.31139394  0.06233497  0.21938930  1
  Li  Li127  1  0.31139394  0.06233497  0.71938930  1
  Li  Li128  1  0.31139394  0.39566831  0.21938930  1
  Li  Li129  1  0.31139394  0.39566831  0.71938930  1
  Li  Li130  1  0.31139394  0.72900164  0.21938930  1
  Li  Li131  1  0.31139394  0.72900164  0.71938930  1
  Li  Li132  1  0.64472727  0.06233497  0.21938930  1
  Li  Li133  1  0.64472727  0.06233497  0.71938930  1
  Li  Li134  1  0.64472727  0.39566831  0.21938930  1
  Li  Li135  1  0.64472727  0.39566831  0.71938930  1
  Li  Li136  1  0.64472727  0.72900164  0.21938930  1
  Li  Li137  1  0.64472727  0.72900164  0.71938930  1
  Li  Li138  1  0.97806061  0.06233497  0.21938930  1
  Li  Li139  1  0.97806061  0.06233497  0.71938930  1
  Li  Li140  1  0.97806061  0.39566831  0.21938930  1
  Li  Li141  1  0.97806061  0.39566831  0.71938930  1
  Li  Li142  1  0.97806061  0.72900164  0.21938930  1
  Li  Li143  1  0.97806061  0.72900164  0.71938930  1
  Si  Si144  1  0.04729591  0.22824599  0.14706631  1
  Si  Si145  1  0.04729591  0.22824599  0.64706631  1
  Si  Si146  1  0.04729591  0.56157932  0.14706631  1
  Si  Si147  1  0.04729591  0.56157932  0.64706631  1
  Si  Si148  1  0.04729591  0.89491266  0.14706631  1
  Si  Si149  1  0.04729591  0.89491266  0.64706631  1
  Si  Si150  1  0.38062925  0.22824599  0.14706631  1
  Si  Si151  1  0.38062925  0.22824599  0.64706631  1
  Si  Si152  1  0.38062925  0.56157932  0.14706631  1
  Si  Si153  1  0.38062925  0.56157932  0.64706631  1
  Si  Si154  1  0.38062925  0.89491266  0.14706631  1
  Si  Si155  1  0.38062925  0.89491266  0.64706631  1
  Si  Si156  1  0.71396258  0.22824599  0.14706631  1
  Si  Si157  1  0.71396258  0.22824599  0.64706631  1
  Si  Si158  1  0.71396258  0.56157932  0.14706631  1
  Si  Si159  1  0.71396258  0.56157932  0.64706631  1
  Si  Si160  1  0.71396258  0.89491266  0.14706631  1
  Si  Si161  1  0.71396258  0.89491266  0.64706631  1
  Si  Si162  1  0.28603742  0.10508734  0.35293369  1
  Si  Si163  1  0.28603742  0.10508734  0.85293369  1
  Si  Si164  1  0.28603742  0.43842068  0.35293369  1
  Si  Si165  1  0.28603742  0.43842068  0.85293369  1
  Si  Si166  1  0.28603742  0.77175401  0.35293369  1
  Si  Si167  1  0.28603742  0.77175401  0.85293369  1
  Si  Si168  1  0.61937075  0.10508734  0.35293369  1
  Si  Si169  1  0.61937075  0.10508734  0.85293369  1
  Si  Si170  1  0.61937075  0.43842068  0.35293369  1
  Si  Si171  1  0.61937075  0.43842068  0.85293369  1
  Si  Si172  1  0.61937075  0.77175401  0.35293369  1
  Si  Si173  1  0.61937075  0.77175401  0.85293369  1
  Si  Si174  1  0.95270409  0.10508734  0.35293369  1
  Si  Si175  1  0.95270409  0.10508734  0.85293369  1
  Si  Si176  1  0.95270409  0.43842068  0.35293369  1
  Si  Si177  1  0.95270409  0.43842068  0.85293369  1
  Si  Si178  1  0.95270409  0.77175401  0.35293369  1
  Si  Si179  1  0.95270409  0.77175401  0.85293369  1
  O  O180  1  0.11724074  0.21388594  0.19984523  1
  O  O181  1  0.11724074  0.21388594  0.69984523  1
  O  O182  1  0.11724074  0.54721927  0.19984523  1
  O  O183  1  0.11724074  0.54721927  0.69984523  1
  O  O184  1  0.11724074  0.88055260  0.19984523  1
  O  O185  1  0.11724074  0.88055260  0.69984523  1
  O  O186  1  0.45057407  0.21388594  0.19984523  1
  O  O187  1  0.45057407  0.21388594  0.69984523  1
  O  O188  1  0.45057407  0.54721927  0.19984523  1
  O  O189  1  0.45057407  0.54721927  0.69984523  1
  O  O190  1  0.45057407  0.88055260  0.19984523  1
  O  O191  1  0.45057407  0.88055260  0.69984523  1
  O  O192  1  0.78390740  0.21388594  0.19984523  1
  O  O193  1  0.78390740  0.21388594  0.69984523  1
  O  O194  1  0.78390740  0.54721927  0.19984523  1
  O  O195  1  0.78390740  0.54721927  0.69984523  1
  O  O196  1  0.78390740  0.88055260  0.19984523  1
  O  O197  1  0.78390740  0.88055260  0.69984523  1
  O  O198  1  0.21609260  0.11944740  0.30015477  1
  O  O199  1  0.21609260  0.11944740  0.80015477  1
  O  O200  1  0.21609260  0.45278073  0.30015477  1
  O  O201  1  0.21609260  0.45278073  0.80015477  1
  O  O202  1  0.21609260  0.78611406  0.30015477  1
  O  O203  1  0.21609260  0.78611406  0.80015477  1
  O  O204  1  0.54942593  0.11944740  0.30015477  1
  O  O205  1  0.54942593  0.11944740  0.80015477  1
  O  O206  1  0.54942593  0.45278073  0.30015477  1
  O  O207  1  0.54942593  0.45278073  0.80015477  1
  O  O208  1  0.54942593  0.78611406  0.30015477  1
  O  O209  1  0.54942593  0.78611406  0.80015477  1
  O  O210  1  0.88275926  0.11944740  0.30015477  1
  O  O211  1  0.88275926  0.11944740  0.80015477  1
  O  O212  1  0.88275926  0.45278073  0.30015477  1
  O  O213  1  0.88275926  0.45278073  0.80015477  1
  O  O214  1  0.88275926  0.78611406  0.30015477  1
  O  O215  1  0.88275926  0.78611406  0.80015477  1
  O  O216  1  0.33185857  0.14709249  0.14474617  1
  O  O217  1  0.33185857  0.14709249  0.64474617  1
  O  O218  1  0.33185857  0.48042583  0.14474617  1
  O  O219  1  0.33185857  0.48042583  0.64474617  1
  O  O220  1  0.33185857  0.81375916  0.14474617  1
  O  O221  1  0.33185857  0.81375916  0.64474617  1
  O  O222  1  0.66519190  0.14709249  0.14474617  1
  O  O223  1  0.66519190  0.14709249  0.64474617  1
  O  O224  1  0.66519190  0.48042583  0.14474617  1
  O  O225  1  0.66519190  0.48042583  0.64474617  1
  O  O226  1  0.66519190  0.81375916  0.14474617  1
  O  O227  1  0.66519190  0.81375916  0.64474617  1
  O  O228  1  0.99852523  0.14709249  0.14474617  1
  O  O229  1  0.99852523  0.14709249  0.64474617  1
  O  O230  1  0.99852523  0.48042583  0.14474617  1
  O  O231  1  0.99852523  0.48042583  0.64474617  1
  O  O232  1  0.99852523  0.81375916  0.14474617  1
  O  O233  1  0.99852523  0.81375916  0.64474617  1
  O  O234  1  0.00147477  0.18624084  0.35525383  1
  O  O235  1  0.00147477  0.18624084  0.85525383  1
  O  O236  1  0.00147477  0.51957417  0.35525383  1
  O  O237  1  0.00147477  0.51957417  0.85525383  1
  O  O238  1  0.00147477  0.85290751  0.35525383  1
  O  O239  1  0.00147477  0.85290751  0.85525383  1
  O  O240  1  0.33480810  0.18624084  0.35525383  1
  O  O241  1  0.33480810  0.18624084  0.85525383  1
  O  O242  1  0.33480810  0.51957417  0.35525383  1
  O  O243  1  0.33480810  0.51957417  0.85525383  1
  O  O244  1  0.33480810  0.85290751  0.35525383  1
  O  O245  1  0.33480810  0.85290751  0.85525383  1
  O  O246  1  0.66814143  0.18624084  0.35525383  1
  O  O247  1  0.66814143  0.18624084  0.85525383  1
  O  O248  1  0.66814143  0.51957417  0.35525383  1
  O  O249  1  0.66814143  0.51957417  0.85525383  1
  O  O250  1  0.66814143  0.85290751  0.35525383  1
  O  O251  1  0.66814143  0.85290751  0.85525383  1
  O  O252  1  0.30718437  0.28716570  0.19409066  1
  O  O253  1  0.30718437  0.28716570  0.69409066  1
  O  O254  1  0.30718437  0.62049904  0.19409066  1
  O  O255  1  0.30718437  0.62049904  0.69409066  1
  O  O256  1  0.30718437  0.95383237  0.19409066  1
  O  O257  1  0.30718437  0.95383237  0.69409066  1
  O  O258  1  0.64051770  0.28716570  0.19409066  1
  O  O259  1  0.64051770  0.28716570  0.69409066  1
  O  O260  1  0.64051770  0.62049904  0.19409066  1
  O  O261  1  0.64051770  0.62049904  0.69409066  1
  O  O262  1  0.64051770  0.95383237  0.19409066  1
  O  O263  1  0.64051770  0.95383237  0.69409066  1
  O  O264  1  0.97385104  0.28716570  0.19409066  1
  O  O265  1  0.97385104  0.28716570  0.69409066  1
  O  O266  1  0.97385104  0.62049904  0.19409066  1
  O  O267  1  0.97385104  0.62049904  0.69409066  1
  O  O268  1  0.97385104  0.95383237  0.19409066  1
  O  O269  1  0.97385104  0.95383237  0.69409066  1
  O  O270  1  0.02614896  0.04616763  0.30590934  1
  O  O271  1  0.02614896  0.04616763  0.80590934  1
  O  O272  1  0.02614896  0.37950096  0.30590934  1
  O  O273  1  0.02614896  0.37950096  0.80590934  1
  O  O274  1  0.02614896  0.71283430  0.30590934  1
  O  O275  1  0.02614896  0.71283430  0.80590934  1
  O  O276  1  0.35948230  0.04616763  0.30590934  1
  O  O277  1  0.35948230  0.04616763  0.80590934  1
  O  O278  1  0.35948230  0.37950096  0.30590934  1
  O  O279  1  0.35948230  0.37950096  0.80590934  1
  O  O280  1  0.35948230  0.71283430  0.30590934  1
  O  O281  1  0.35948230  0.71283430  0.80590934  1
  O  O282  1  0.69281563  0.04616763  0.30590934  1
  O  O283  1  0.69281563  0.04616763  0.80590934  1
  O  O284  1  0.69281563  0.37950096  0.30590934  1
  O  O285  1  0.69281563  0.37950096  0.80590934  1
  O  O286  1  0.69281563  0.71283430  0.30590934  1
  O  O287  1  0.69281563  0.71283430  0.80590934  1
  O  O288  1  0.08877850  0.26564668  0.06223072  1
  O  O289  1  0.08877850  0.26564668  0.56223072  1
  O  O290  1  0.08877850  0.59898002  0.06223072  1
  O  O291  1  0.08877850  0.59898002  0.56223072  1
  O  O292  1  0.08877850  0.93231335  0.06223072  1
  O  O293  1  0.08877850  0.93231335  0.56223072  1
  O  O294  1  0.42211183  0.26564668  0.06223072  1
  O  O295  1  0.42211183  0.26564668  0.56223072  1
  O  O296  1  0.42211183  0.59898002  0.06223072  1
  O  O297  1  0.42211183  0.59898002  0.56223072  1
  O  O298  1  0.42211183  0.93231335  0.06223072  1
  O  O299  1  0.42211183  0.93231335  0.56223072  1
  O  O300  1  0.75544516  0.26564668  0.06223072  1
  O  O301  1  0.75544516  0.26564668  0.56223072  1
  O  O302  1  0.75544516  0.59898002  0.06223072  1
  O  O303  1  0.75544516  0.59898002  0.56223072  1
  O  O304  1  0.75544516  0.93231335  0.06223072  1
  O  O305  1  0.75544516  0.93231335  0.56223072  1
  O  O306  1  0.24455484  0.06768665  0.43776928  1
  O  O307  1  0.24455484  0.06768665  0.93776928  1
  O  O308  1  0.24455484  0.40101998  0.43776928  1
  O  O309  1  0.24455484  0.40101998  0.93776928  1
  O  O310  1  0.24455484  0.73435332  0.43776928  1
  O  O311  1  0.24455484  0.73435332  0.93776928  1
  O  O312  1  0.57788817  0.06768665  0.43776928  1
  O  O313  1  0.57788817  0.06768665  0.93776928  1
  O  O314  1  0.57788817  0.40101998  0.43776928  1
  O  O315  1  0.57788817  0.40101998  0.93776928  1
  O  O316  1  0.57788817  0.73435332  0.43776928  1
  O  O317  1  0.57788817  0.73435332  0.93776928  1
  O  O318  1  0.91122150  0.06768665  0.43776928  1
  O  O319  1  0.91122150  0.06768665  0.93776928  1
  O  O320  1  0.91122150  0.40101998  0.43776928  1
  O  O321  1  0.91122150  0.40101998  0.93776928  1
  O  O322  1  0.91122150  0.73435332  0.43776928  1
  O  O323  1  0.91122150  0.73435332  0.93776928  1
