# generated using pymatgen
data_K4SnO4
_symmetry_space_group_name_H-M   'P 1'
_cell_length_a   19.62169219
_cell_length_b   19.63059649
_cell_length_c   19.67314922
_cell_angle_alpha   80.00259394
_cell_angle_beta   71.58747369
_cell_angle_gamma   67.30792960
_symmetry_Int_Tables_number   1
_chemical_formula_structural   K4SnO4
_chemical_formula_sum   'K144 Sn36 O144'
_cell_volume   6621.71996502
_cell_formula_units_Z   36
loop_
 _symmetry_equiv_pos_site_id
 _symmetry_equiv_pos_as_xyz
  1  'x, y, z'
loop_
 _atom_site_type_symbol
 _atom_site_label
 _atom_site_symmetry_multiplicity
 _atom_site_fract_x
 _atom_site_fract_y
 _atom_site_fract_z
 _atom_site_occupancy
  K  K0  1  0.19812793  0.07967308  0.08558689  1
  K  K1  1  0.19812793  0.07967308  0.58558689  1
  K  K2  1  0.19812793  0.41300642  0.08558689  1
  K  K3  1  0.19812793  0.41300642  0.58558689  1
  K  K4  1  0.19812793  0.74633975  0.08558689  1
  K  K5  1  0.19812793  0.74633975  0.58558689  1
  K  K6  1  0.53146126  0.07967308  0.08558689  1
  K  K7  1  0.53146126  0.07967308  0.58558689  1
  K  K8  1  0.53146126  0.41300642  0.08558689  1
  K  K9  1  0.53146126  0.41300642  0.58558689  1
  K  K10  1  0.53146126  0.74633975  0.08558689  1
  K  K11  1  0.53146126  0.74633975  0.58558689  1
  K  K12  1  0.86479459  0.07967308  0.08558689  1
  K  K13  1  0.86479459  0.07967308  0.58558689  1
  K  K14  1  0.86479459  0.41300642  0.08558689  1
  K  K15  1  0.86479459  0.41300642  0.58558689  1
  K  K16  1  0.86479459  0.74633975  0.08558689  1
  K  K17  1  0.86479459  0.74633975  0.58558689  1
  K  K18  1  0.13520541  0.25366025  0.41441311  1
  K  K19  1  0.13520541  0.25366025  0.91441311  1
  K  K20  1  0.13520541  0.58699358  0.41441311  1
  K  K21  1  0.13520541  0.58699358  0.91441311  1
  K  K22  1  0.13520541  0.92032692  0.41441311  1
  K  K23  1  0.13520541  0.92032692  0.91441311  1
  K  K24  1  0.46853874  0.25366025  0.41441311  1
  K  K25  1  0.46853874  0.25366025  0.91441311  1
  K  K26  1  0.46853874  0.58699358  0.41441311  1
  K  K27  1  0.46853874  0.58699358  0.91441311  1
  K  K28  1  0.46853874  0.92032692  0.41441311  1
  K  K29  1  0.46853874  0.92032692  0.91441311  1
  K  K30  1  0.80187207  0.25366025  0.41441311  1
  K  K31  1  0.80187207  0.25366025  0.91441311  1
  K  K32  1  0.80187207  0.58699358  0.41441311  1
  K  K33  1  0.80187207  0.58699358  0.91441311  1
  K  K34  1  0.80187207  0.92032692  0.41441311  1
  K  K35  1  0.80187207  0.92032692  0.91441311  1
  K  K36  1  0.17140135  0.25722397  0.21929020  1
  K  K37  1  0.17140135  0.25722397  0.71929020  1
  K  K38  1  0.17140135  0.59055730  0.21929020  1
  K  K39  1  0.17140135  0.59055730  0.71929020  1
  K  K40  1  0.17140135  0.92389063  0.21929020  1
  K  K41  1  0.17140135  0.92389063  0.71929020  1
  K  K42  1  0.50473468  0.25722397  0.21929020  1
  K  K43  1  0.50473468  0.25722397  0.71929020  1
  K  K44  1  0.50473468  0.59055730  0.21929020  1
  K  K45  1  0.50473468  0.59055730  0.71929020  1
  K  K46  1  0.50473468  0.92389063  0.21929020  1
  K  K47  1  0.50473468  0.92389063  0.71929020  1
  K  K48  1  0.83806802  0.25722397  0.21929020  1
  K  K49  1  0.83806802  0.25722397  0.71929020  1
  K  K50  1  0.83806802  0.59055730  0.21929020  1
  K  K51  1  0.83806802  0.59055730  0.71929020  1
  K  K52  1  0.83806802  0.92389063  0.21929020  1
  K  K53  1  0.83806802  0.92389063  0.71929020  1
  K  K54  1  0.16193198  0.07610937  0.28070980  1
  K  K55  1  0.16193198  0.07610937  0.78070980  1
  K  K56  1  0.16193198  0.40944270  0.28070980  1
  K  K57  1  0.16193198  0.40944270  0.78070980  1
  K  K58  1  0.16193198  0.74277603  0.28070980  1
  K  K59  1  0.16193198  0.74277603  0.78070980  1
  K  K60  1  0.49526532  0.07610937  0.28070980  1
  K  K61  1  0.49526532  0.07610937  0.78070980  1
  K  K62  1  0.49526532  0.40944270  0.28070980  1
  K  K63  1  0.49526532  0.40944270  0.78070980  1
  K  K64  1  0.49526532  0.74277603  0.28070980  1
  K  K65  1  0.49526532  0.74277603  0.78070980  1
  K  K66  1  0.82859865  0.07610937  0.28070980  1
  K  K67  1  0.82859865  0.07610937  0.78070980  1
  K  K68  1  0.82859865  0.40944270  0.28070980  1
  K  K69  1  0.82859865  0.40944270  0.78070980  1
  K  K70  1  0.82859865  0.74277603  0.28070980  1
  K  K71  1  0.82859865  0.74277603  0.78070980  1
  K  K72  1  0.07944630  0.08596653  0.48932068  1
  K  K73  1  0.07944630  0.08596653  0.98932068  1
  K  K74  1  0.07944630  0.41929986  0.48932068  1
  K  K75  1  0.07944630  0.41929986  0.98932068  1
  K  K76  1  0.07944630  0.75263320  0.48932068  1
  K  K77  1  0.07944630  0.75263320  0.98932068  1
  K  K78  1  0.41277963  0.08596653  0.48932068  1
  K  K79  1  0.41277963  0.08596653  0.98932068  1
  K  K80  1  0.41277963  0.41929986  0.48932068  1
  K  K81  1  0.41277963  0.41929986  0.98932068  1
  K  K82  1  0.41277963  0.75263320  0.48932068  1
  K  K83  1  0.41277963  0.75263320  0.98932068  1
  K  K84  1  0.74611297  0.08596653  0.48932068  1
  K  K85  1  0.74611297  0.08596653  0.98932068  1
  K  K86  1  0.74611297  0.41929986  0.48932068  1
  K  K87  1  0.74611297  0.41929986  0.98932068  1
  K  K88  1  0.74611297  0.75263320  0.48932068  1
  K  K89  1  0.74611297  0.75263320  0.98932068  1
  K  K90  1  0.25388703  0.24736680  0.01067932  1
  K  K91  1  0.25388703  0.24736680  0.51067932  1
  K  K92  1  0.25388703  0.58070014  0.01067932  1
  K  K93  1  0.25388703  0.58070014  0.51067932  1
  K  K94  1  0.25388703  0.91403347  0.01067932  1
  K  K95  1  0.25388703  0.91403347  0.51067932  1
  K  K96  1  0.58722037  0.24736680  0.01067932  1
  K  K97  1  0.58722037  0.24736680  0.51067932  1
  K  K98  1  0.58722037  0.58070014  0.01067932  1
  K  K99  1  0.58722037  0.58070014  0.51067932  1
  K  K100  1  0.58722037  0.91403347  0.01067932  1
  K  K101  1  0.58722037  0.91403347  0.51067932  1
  K  K102  1  0.92055370  0.24736680  0.01067932  1
  K  K103  1  0.92055370  0.24736680  0.51067932  1
  K  K104  1  0.92055370  0.58070014  0.01067932  1
  K  K105  1  0.92055370  0.58070014  0.51067932  1
  K  K106  1  0.92055370  0.91403347  0.01067932  1
  K  K107  1  0.92055370  0.91403347  0.51067932  1
  K  K108  1  0.31930761  0.24234611  0.30600451  1
  K  K109  1  0.31930761  0.24234611  0.80600451  1
  K  K110  1  0.31930761  0.57567945  0.30600451  1
  K  K111  1  0.31930761  0.57567945  0.80600451  1
  K  K112  1  0.31930761  0.90901278  0.30600451  1
  K  K113  1  0.31930761  0.90901278  0.80600451  1
  K  K114  1  0.65264094  0.24234611  0.30600451  1
  K  K115  1  0.65264094  0.24234611  0.80600451  1
  K  K116  1  0.65264094  0.57567945  0.30600451  1
  K  K117  1  0.65264094  0.57567945  0.80600451  1
  K  K118  1  0.65264094  0.90901278  0.30600451  1
  K  K119  1  0.65264094  0.90901278  0.80600451  1
  K  K120  1  0.98597428  0.24234611  0.30600451  1
  K  K121  1  0.98597428  0.24234611  0.80600451  1
  K  K122  1  0.98597428  0.57567945  0.30600451  1
  K  K123  1  0.98597428  0.57567945  0.80600451  1
  K  K124  1  0.98597428  0.90901278  0.30600451  1
  K  K125  1  0.98597428  0.90901278  0.80600451  1
  K  K126  1  0.01402572  0.09098722  0.19399549  1
  K  K127  1  0.01402572  0.09098722  0.69399549  1
  K  K128  1  0.01402572  0.42432055  0.19399549  1
  K  K129  1  0.01402572  0.42432055  0.69399549  1
  K  K130  1  0.01402572  0.75765389  0.19399549  1
  K  K131  1  0.01402572  0.75765389  0.69399549  1
  K  K132  1  0.34735906  0.09098722  0.19399549  1
  K  K133  1  0.34735906  0.09098722  0.69399549  1
  K  K134  1  0.34735906  0.42432055  0.19399549  1
  K  K135  1  0.34735906  0.42432055  0.69399549  1
  K  K136  1  0.34735906  0.75765389  0.19399549  1
  K  K137  1  0.34735906  0.75765389  0.69399549  1
  K  K138  1  0.68069239  0.09098722  0.19399549  1
  K  K139  1  0.68069239  0.09098722  0.69399549  1
  K  K140  1  0.68069239  0.42432055  0.19399549  1
  K  K141  1  0.68069239  0.42432055  0.69399549  1
  K  K142  1  0.68069239  0.75765389  0.19399549  1
  K  K143  1  0.68069239  0.75765389  0.69399549  1
  Sn  Sn144  1  0.28138032  0.07393796  0.37678275  1
  Sn  Sn145  1  0.28138032  0.07393796  0.87678275  1
  Sn  Sn146  1  0.28138032  0.40727129  0.37678275  1
  Sn  Sn147  1  0.28138032  0.40727129  0.87678275  1
  Sn  Sn148  1  0.28138032  0.74060462  0.37678275  1
  Sn  Sn149  1  0.28138032  0.74060462  0.87678275  1
  Sn  Sn150  1  0.61471365  0.07393796  0.37678275  1
  Sn  Sn151  1  0.61471365  0.07393796  0.87678275  1
  Sn  Sn152  1  0.61471365  0.40727129  0.37678275  1
  Sn  Sn153  1  0.61471365  0.40727129  0.87678275  1
  Sn  Sn154  1  0.61471365  0.74060462  0.37678275  1
  Sn  Sn155  1  0.61471365  0.74060462  0.87678275  1
  Sn  Sn156  1  0.94804699  0.07393796  0.37678275  1
  Sn  Sn157  1  0.94804699  0.07393796  0.87678275  1
  Sn  Sn158  1  0.94804699  0.40727129  0.37678275  1
  Sn  Sn159  1  0.94804699  0.40727129  0.87678275  1
  Sn  Sn160  1  0.94804699  0.74060462  0.37678275  1
  Sn  Sn161  1  0.94804699  0.74060462  0.87678275  1
  Sn  Sn162  1  0.05195301  0.25939538  0.12321725  1
  Sn  Sn163  1  0.05195301  0.25939538  0.62321725  1
  Sn  Sn164  1  0.05195301  0.59272871  0.12321725  1
  Sn  Sn165  1  0.05195301  0.59272871  0.62321725  1
  Sn  Sn166  1  0.05195301  0.92606204  0.12321725  1
  Sn  Sn167  1  0.05195301  0.92606204  0.62321725  1
  Sn  Sn168  1  0.38528635  0.25939538  0.12321725  1
  Sn  Sn169  1  0.38528635  0.25939538  0.62321725  1
  Sn  Sn170  1  0.38528635  0.59272871  0.12321725  1
  Sn  Sn171  1  0.38528635  0.59272871  0.62321725  1
  Sn  Sn172  1  0.38528635  0.92606204  0.12321725  1
  Sn  Sn173  1  0.38528635  0.92606204  0.62321725  1
  Sn  Sn174  1  0.71861968  0.25939538  0.12321725  1
  Sn  Sn175  1  0.71861968  0.25939538  0.62321725  1
  Sn  Sn176  1  0.71861968  0.59272871  0.12321725  1
  Sn  Sn177  1  0.71861968  0.59272871  0.62321725  1
  Sn  Sn178  1  0.71861968  0.92606204  0.12321725  1
  Sn  Sn179  1  0.71861968  0.92606204  0.62321725  1
  O  O180  1  0.23414309  0.15624116  0.31170431  1
  O  O181  1  0.23414309  0.15624116  0.81170431  1
  O  O182  1  0.23414309  0.48957449  0.31170431  1
  O  O183  1  0.23414309  0.48957449  0.81170431  1
  O  O184  1  0.23414309  0.82290782  0.31170431  1
  O  O185  1  0.23414309  0.82290782  0.81170431  1
  O  O186  1  0.56747642  0.15624116  0.31170431  1
  O  O187  1  0.56747642  0.15624116  0.81170431  1
  O  O188  1  0.56747642  0.48957449  0.31170431  1
  O  O189  1  0.56747642  0.48957449  0.81170431  1
  O  O190  1  0.56747642  0.82290782  0.31170431  1
  O  O191  1  0.56747642  0.82290782  0.81170431  1
  O  O192  1  0.90080975  0.15624116  0.31170431  1
  O  O193  1  0.90080975  0.15624116  0.81170431  1
  O  O194  1  0.90080975  0.48957449  0.31170431  1
  O  O195  1  0.90080975  0.48957449  0.81170431  1
  O  O196  1  0.90080975  0.82290782  0.31170431  1
  O  O197  1  0.90080975  0.82290782  0.81170431  1
  O  O198  1  0.09919025  0.17709218  0.18829569  1
  O  O199  1  0.09919025  0.17709218  0.68829569  1
  O  O200  1  0.09919025  0.51042551  0.18829569  1
  O  O201  1  0.09919025  0.51042551  0.68829569  1
  O  O202  1  0.09919025  0.84375884  0.18829569  1
  O  O203  1  0.09919025  0.84375884  0.68829569  1
  O  O204  1  0.43252358  0.17709218  0.18829569  1
  O  O205  1  0.43252358  0.17709218  0.68829569  1
  O  O206  1  0.43252358  0.51042551  0.18829569  1
  O  O207  1  0.43252358  0.51042551  0.68829569  1
  O  O208  1  0.43252358  0.84375884  0.18829569  1
  O  O209  1  0.43252358  0.84375884  0.68829569  1
  O  O210  1  0.76585691  0.17709218  0.18829569  1
  O  O211  1  0.76585691  0.17709218  0.68829569  1
  O  O212  1  0.76585691  0.51042551  0.18829569  1
  O  O213  1  0.76585691  0.51042551  0.68829569  1
  O  O214  1  0.76585691  0.84375884  0.18829569  1
  O  O215  1  0.76585691  0.84375884  0.68829569  1
  O  O216  1  0.05238337  0.01186240  0.32178456  1
  O  O217  1  0.05238337  0.01186240  0.82178456  1
  O  O218  1  0.05238337  0.34519573  0.32178456  1
  O  O219  1  0.05238337  0.34519573  0.82178456  1
  O  O220  1  0.05238337  0.67852906  0.32178456  1
  O  O221  1  0.05238337  0.67852906  0.82178456  1
  O  O222  1  0.38571670  0.01186240  0.32178456  1
  O  O223  1  0.38571670  0.01186240  0.82178456  1
  O  O224  1  0.38571670  0.34519573  0.32178456  1
  O  O225  1  0.38571670  0.34519573  0.82178456  1
  O  O226  1  0.38571670  0.67852906  0.32178456  1
  O  O227  1  0.38571670  0.67852906  0.82178456  1
  O  O228  1  0.71905004  0.01186240  0.32178456  1
  O  O229  1  0.71905004  0.01186240  0.82178456  1
  O  O230  1  0.71905004  0.34519573  0.32178456  1
  O  O231  1  0.71905004  0.34519573  0.82178456  1
  O  O232  1  0.71905004  0.67852906  0.32178456  1
  O  O233  1  0.71905004  0.67852906  0.82178456  1
  O  O234  1  0.28094996  0.32147094  0.17821544  1
  O  O235  1  0.28094996  0.32147094  0.67821544  1
  O  O236  1  0.28094996  0.65480427  0.17821544  1
  O  O237  1  0.28094996  0.65480427  0.67821544  1
  O  O238  1  0.28094996  0.98813760  0.17821544  1
  O  O239  1  0.28094996  0.98813760  0.67821544  1
  O  O240  1  0.61428330  0.32147094  0.17821544  1
  O  O241  1  0.61428330  0.32147094  0.67821544  1
  O  O242  1  0.61428330  0.65480427  0.17821544  1
  O  O243  1  0.61428330  0.65480427  0.67821544  1
  O  O244  1  0.61428330  0.98813760  0.17821544  1
  O  O245  1  0.61428330  0.98813760  0.67821544  1
  O  O246  1  0.94761663  0.32147094  0.17821544  1
  O  O247  1  0.94761663  0.32147094  0.67821544  1
  O  O248  1  0.94761663  0.65480427  0.17821544  1
  O  O249  1  0.94761663  0.65480427  0.67821544  1
  O  O250  1  0.94761663  0.98813760  0.17821544  1
  O  O251  1  0.94761663  0.98813760  0.67821544  1
  O  O252  1  0.21668448  0.01111401  0.40324554  1
  O  O253  1  0.21668448  0.01111401  0.90324554  1
  O  O254  1  0.21668448  0.34444735  0.40324554  1
  O  O255  1  0.21668448  0.34444735  0.90324554  1
  O  O256  1  0.21668448  0.67778068  0.40324554  1
  O  O257  1  0.21668448  0.67778068  0.90324554  1
  O  O258  1  0.55001781  0.01111401  0.40324554  1
  O  O259  1  0.55001781  0.01111401  0.90324554  1
  O  O260  1  0.55001781  0.34444735  0.40324554  1
  O  O261  1  0.55001781  0.34444735  0.90324554  1
  O  O262  1  0.55001781  0.67778068  0.40324554  1
  O  O263  1  0.55001781  0.67778068  0.90324554  1
  O  O264  1  0.88335114  0.01111401  0.40324554  1
  O  O265  1  0.88335114  0.01111401  0.90324554  1
  O  O266  1  0.88335114  0.34444735  0.40324554  1
  O  O267  1  0.88335114  0.34444735  0.90324554  1
  O  O268  1  0.88335114  0.67778068  0.40324554  1
  O  O269  1  0.88335114  0.67778068  0.90324554  1
  O  O270  1  0.11664886  0.32221932  0.09675446  1
  O  O271  1  0.11664886  0.32221932  0.59675446  1
  O  O272  1  0.11664886  0.65555265  0.09675446  1
  O  O273  1  0.11664886  0.65555265  0.59675446  1
  O  O274  1  0.11664886  0.98888599  0.09675446  1
  O  O275  1  0.11664886  0.98888599  0.59675446  1
  O  O276  1  0.44998219  0.32221932  0.09675446  1
  O  O277  1  0.44998219  0.32221932  0.59675446  1
  O  O278  1  0.44998219  0.65555265  0.09675446  1
  O  O279  1  0.44998219  0.65555265  0.59675446  1
  O  O280  1  0.44998219  0.98888599  0.09675446  1
  O  O281  1  0.44998219  0.98888599  0.59675446  1
  O  O282  1  0.78331552  0.32221932  0.09675446  1
  O  O283  1  0.78331552  0.32221932  0.59675446  1
  O  O284  1  0.78331552  0.65555265  0.09675446  1
  O  O285  1  0.78331552  0.65555265  0.59675446  1
  O  O286  1  0.78331552  0.98888599  0.09675446  1
  O  O287  1  0.78331552  0.98888599  0.59675446  1
  O  O288  1  0.28121466  0.12039133  0.45823668  1
  O  O289  1  0.28121466  0.12039133  0.95823668  1
  O  O290  1  0.28121466  0.45372466  0.45823668  1
  O  O291  1  0.28121466  0.45372466  0.95823668  1
  O  O292  1  0.28121466  0.78705800  0.45823668  1
  O  O293  1  0.28121466  0.78705800  0.95823668  1
  O  O294  1  0.61454799  0.12039133  0.45823668  1
  O  O295  1  0.61454799  0.12039133  0.95823668  1
  O  O296  1  0.61454799  0.45372466  0.45823668  1
  O  O297  1  0.61454799  0.45372466  0.95823668  1
  O  O298  1  0.61454799  0.78705800  0.45823668  1
  O  O299  1  0.61454799  0.78705800  0.95823668  1
  O  O300  1  0.94788133  0.12039133  0.45823668  1
  O  O301  1  0.94788133  0.12039133  0.95823668  1
  O  O302  1  0.94788133  0.45372466  0.45823668  1
  O  O303  1  0.94788133  0.45372466  0.95823668  1
  O  O304  1  0.94788133  0.78705800  0.45823668  1
  O  O305  1  0.94788133  0.78705800  0.95823668  1
  O  O306  1  0.05211867  0.21294200  0.04176332  1
  O  O307  1  0.05211867  0.21294200  0.54176332  1
  O  O308  1  0.05211867  0.54627534  0.04176332  1
  O  O309  1  0.05211867  0.54627534  0.54176332  1
  O  O310  1  0.05211867  0.87960867  0.04176332  1
  O  O311  1  0.05211867  0.87960867  0.54176332  1
  O  O312  1  0.38545201  0.21294200  0.04176332  1
  O  O313  1  0.38545201  0.21294200  0.54176332  1
  O  O314  1  0.38545201  0.54627534  0.04176332  1
  O  O315  1  0.38545201  0.54627534  0.54176332  1
  O  O316  1  0.38545201  0.87960867  0.04176332  1
  O  O317  1  0.38545201  0.87960867  0.54176332  1
  O  O318  1  0.71878534  0.21294200  0.04176332  1
  O  O319  1  0.71878534  0.21294200  0.54176332  1
  O  O320  1  0.71878534  0.54627534  0.04176332  1
  O  O321  1  0.71878534  0.54627534  0.54176332  1
  O  O322  1  0.71878534  0.87960867  0.04176332  1
  O  O323  1  0.71878534  0.87960867  0.54176332  1
