# generated using pymatgen
data_BaNaSc(BO3)2
_symmetry_space_group_name_H-M   'P 1'
_cell_length_a   10.45348527
_cell_length_b   10.45348527
_cell_length_c   34.39763522
_cell_angle_alpha   90.00000000
_cell_angle_beta   90.00000000
_cell_angle_gamma   120.00000000
_symmetry_Int_Tables_number   1
_chemical_formula_structural   BaNaSc(BO3)2
_chemical_formula_sum   'Ba24 Na24 Sc24 B48 O144'
_cell_volume   3255.22821759
_cell_formula_units_Z   24
loop_
 _symmetry_equiv_pos_site_id
 _symmetry_equiv_pos_as_xyz
  1  'x, y, z'
loop_
 _atom_site_type_symbol
 _atom_site_label
 _atom_site_symmetry_multiplicity
 _atom_site_fract_x
 _atom_site_fract_y
 _atom_site_fract_z
 _atom_site_occupancy
  Ba  Ba0  1  -0.00000000  -0.00000000  0.10311396  1
  Ba  Ba1  1  -0.00000000  0.50000000  0.10311396  1
  Ba  Ba2  1  0.50000000  -0.00000000  0.10311396  1
  Ba  Ba3  1  0.50000000  0.50000000  0.10311396  1
  Ba  Ba4  1  0.33333333  0.16666667  0.43644729  1
  Ba  Ba5  1  0.33333333  0.66666667  0.43644729  1
  Ba  Ba6  1  0.83333333  0.16666667  0.43644729  1
  Ba  Ba7  1  0.83333333  0.66666667  0.43644729  1
  Ba  Ba8  1  0.16666667  0.33333333  0.76978063  1
  Ba  Ba9  1  0.16666667  0.83333333  0.76978063  1
  Ba  Ba10  1  0.66666667  0.33333333  0.76978063  1
  Ba  Ba11  1  0.66666667  0.83333333  0.76978063  1
  Ba  Ba12  1  -0.00000000  0.00000000  0.89688604  1
  Ba  Ba13  1  -0.00000000  0.50000000  0.89688604  1
  Ba  Ba14  1  0.50000000  0.00000000  0.89688604  1
  Ba  Ba15  1  0.50000000  0.50000000  0.89688604  1
  Ba  Ba16  1  0.33333333  0.16666667  1.23021937  1
  Ba  Ba17  1  0.33333333  0.66666667  1.23021937  1
  Ba  Ba18  1  0.83333333  0.16666667  1.23021937  1
  Ba  Ba19  1  0.83333333  0.66666667  1.23021937  1
  Ba  Ba20  1  0.16666667  0.33333333  1.56355271  1
  Ba  Ba21  1  0.16666667  0.83333333  1.56355271  1
  Ba  Ba22  1  0.66666667  0.33333333  1.56355271  1
  Ba  Ba23  1  0.66666667  0.83333333  1.56355271  1
  Na  Na24  1  0.00000000  0.00000000  0.37612381  1
  Na  Na25  1  -0.00000000  0.50000000  0.37612381  1
  Na  Na26  1  0.50000000  0.00000000  0.37612381  1
  Na  Na27  1  0.50000000  0.50000000  0.37612381  1
  Na  Na28  1  0.33333333  0.16666667  0.70945714  1
  Na  Na29  1  0.33333333  0.66666667  0.70945714  1
  Na  Na30  1  0.83333333  0.16666667  0.70945714  1
  Na  Na31  1  0.83333333  0.66666667  0.70945714  1
  Na  Na32  1  0.16666667  0.33333333  1.04279047  1
  Na  Na33  1  0.16666667  0.83333333  1.04279047  1
  Na  Na34  1  0.66666667  0.33333333  1.04279047  1
  Na  Na35  1  0.66666667  0.83333333  1.04279047  1
  Na  Na36  1  0.00000000  0.00000000  0.62387619  1
  Na  Na37  1  -0.00000000  0.50000000  0.62387619  1
  Na  Na38  1  0.50000000  0.00000000  0.62387619  1
  Na  Na39  1  0.50000000  0.50000000  0.62387619  1
  Na  Na40  1  0.33333333  0.16666667  0.95720953  1
  Na  Na41  1  0.33333333  0.66666667  0.95720953  1
  Na  Na42  1  0.83333333  0.16666667  0.95720953  1
  Na  Na43  1  0.83333333  0.66666667  0.95720953  1
  Na  Na44  1  0.16666667  0.33333333  1.29054286  1
  Na  Na45  1  0.16666667  0.83333333  1.29054286  1
  Na  Na46  1  0.66666667  0.33333333  1.29054286  1
  Na  Na47  1  0.66666667  0.83333333  1.29054286  1
  Sc  Sc48  1  0.00000000  -0.00000000  -0.00000000  1
  Sc  Sc49  1  -0.00000000  0.50000000  -0.00000000  1
  Sc  Sc50  1  0.50000000  -0.00000000  -0.00000000  1
  Sc  Sc51  1  0.50000000  0.50000000  -0.00000000  1
  Sc  Sc52  1  0.33333333  0.16666667  0.33333333  1
  Sc  Sc53  1  0.33333333  0.66666667  0.33333333  1
  Sc  Sc54  1  0.83333333  0.16666667  0.33333333  1
  Sc  Sc55  1  0.83333333  0.66666667  0.33333333  1
  Sc  Sc56  1  0.16666667  0.33333333  0.66666667  1
  Sc  Sc57  1  0.16666667  0.83333333  0.66666667  1
  Sc  Sc58  1  0.66666667  0.33333333  0.66666667  1
  Sc  Sc59  1  0.66666667  0.83333333  0.66666667  1
  Sc  Sc60  1  -0.00000000  -0.00000000  0.50000000  1
  Sc  Sc61  1  -0.00000000  0.50000000  0.50000000  1
  Sc  Sc62  1  0.50000000  -0.00000000  0.50000000  1
  Sc  Sc63  1  0.50000000  0.50000000  0.50000000  1
  Sc  Sc64  1  0.33333333  0.16666667  0.83333333  1
  Sc  Sc65  1  0.33333333  0.66666667  0.83333333  1
  Sc  Sc66  1  0.83333333  0.16666667  0.83333333  1
  Sc  Sc67  1  0.83333333  0.66666667  0.83333333  1
  Sc  Sc68  1  0.16666667  0.33333333  1.16666667  1
  Sc  Sc69  1  0.16666667  0.83333333  1.16666667  1
  Sc  Sc70  1  0.66666667  0.33333333  1.16666667  1
  Sc  Sc71  1  0.66666667  0.83333333  1.16666667  1
  B  B72  1  -0.00000000  -0.00000000  0.70397852  1
  B  B73  1  -0.00000000  0.50000000  0.70397852  1
  B  B74  1  0.50000000  -0.00000000  0.70397852  1
  B  B75  1  0.50000000  0.50000000  0.70397852  1
  B  B76  1  0.33333333  0.16666667  1.03731185  1
  B  B77  1  0.33333333  0.66666667  1.03731185  1
  B  B78  1  0.83333333  0.16666667  1.03731185  1
  B  B79  1  0.83333333  0.66666667  1.03731185  1
  B  B80  1  0.16666667  0.33333333  1.37064519  1
  B  B81  1  0.16666667  0.83333333  1.37064519  1
  B  B82  1  0.66666667  0.33333333  1.37064519  1
  B  B83  1  0.66666667  0.83333333  1.37064519  1
  B  B84  1  -0.00000000  -0.00000000  0.29602148  1
  B  B85  1  -0.00000000  0.50000000  0.29602148  1
  B  B86  1  0.50000000  -0.00000000  0.29602148  1
  B  B87  1  0.50000000  0.50000000  0.29602148  1
  B  B88  1  0.33333333  0.16666667  0.62935481  1
  B  B89  1  0.33333333  0.66666667  0.62935481  1
  B  B90  1  0.83333333  0.16666667  0.62935481  1
  B  B91  1  0.83333333  0.66666667  0.62935481  1
  B  B92  1  0.16666667  0.33333333  0.96268815  1
  B  B93  1  0.16666667  0.83333333  0.96268815  1
  B  B94  1  0.66666667  0.33333333  0.96268815  1
  B  B95  1  0.66666667  0.83333333  0.96268815  1
  B  B96  1  0.00000000  0.00000000  0.79714270  1
  B  B97  1  -0.00000000  0.50000000  0.79714270  1
  B  B98  1  0.50000000  0.00000000  0.79714270  1
  B  B99  1  0.50000000  0.50000000  0.79714270  1
  B  B100  1  0.33333333  0.16666667  1.13047603  1
  B  B101  1  0.33333333  0.66666667  1.13047603  1
  B  B102  1  0.83333333  0.16666667  1.13047603  1
  B  B103  1  0.83333333  0.66666667  1.13047603  1
  B  B104  1  0.16666667  0.33333333  1.46380936  1
  B  B105  1  0.16666667  0.83333333  1.46380936  1
  B  B106  1  0.66666667  0.33333333  1.46380936  1
  B  B107  1  0.66666667  0.83333333  1.46380936  1
  B  B108  1  -0.00000000  -0.00000000  0.20285730  1
  B  B109  1  -0.00000000  0.50000000  0.20285730  1
  B  B110  1  0.50000000  -0.00000000  0.20285730  1
  B  B111  1  0.50000000  0.50000000  0.20285730  1
  B  B112  1  0.33333333  0.16666667  0.53619064  1
  B  B113  1  0.33333333  0.66666667  0.53619064  1
  B  B114  1  0.83333333  0.16666667  0.53619064  1
  B  B115  1  0.83333333  0.66666667  0.53619064  1
  B  B116  1  0.16666667  0.33333333  0.86952397  1
  B  B117  1  0.16666667  0.83333333  0.86952397  1
  B  B118  1  0.66666667  0.33333333  0.86952397  1
  B  B119  1  0.66666667  0.83333333  0.86952397  1
  O  O120  1  0.10119115  0.15052416  0.70350567  1
  O  O121  1  0.10119115  0.65052416  0.70350567  1
  O  O122  1  0.60119115  0.15052416  0.70350567  1
  O  O123  1  0.60119115  0.65052416  0.70350567  1
  O  O124  1  0.43452448  0.31719083  1.03683900  1
  O  O125  1  0.43452448  0.81719083  1.03683900  1
  O  O126  1  0.93452448  0.31719083  1.03683900  1
  O  O127  1  0.93452448  0.81719083  1.03683900  1
  O  O128  1  0.26785782  0.48385750  1.37017233  1
  O  O129  1  0.26785782  0.98385750  1.37017233  1
  O  O130  1  0.76785782  0.48385750  1.37017233  1
  O  O131  1  0.76785782  0.98385750  1.37017233  1
  O  O132  1  0.04933301  -0.10119115  0.70350567  1
  O  O133  1  0.04933301  0.39880885  0.70350567  1
  O  O134  1  0.54933301  -0.10119115  0.70350567  1
  O  O135  1  0.54933301  0.39880885  0.70350567  1
  O  O136  1  0.38266635  0.06547552  1.03683900  1
  O  O137  1  0.38266635  0.56547552  1.03683900  1
  O  O138  1  0.88266635  0.06547552  1.03683900  1
  O  O139  1  0.88266635  0.56547552  1.03683900  1
  O  O140  1  0.21599968  0.23214218  1.37017233  1
  O  O141  1  0.21599968  0.73214218  1.37017233  1
  O  O142  1  0.71599968  0.23214218  1.37017233  1
  O  O143  1  0.71599968  0.73214218  1.37017233  1
  O  O144  1  -0.15052416  -0.04933301  0.70350567  1
  O  O145  1  -0.15052416  0.45066699  0.70350567  1
  O  O146  1  0.34947584  -0.04933301  0.70350567  1
  O  O147  1  0.34947584  0.45066699  0.70350567  1
  O  O148  1  0.18280917  0.11733365  1.03683900  1
  O  O149  1  0.18280917  0.61733365  1.03683900  1
  O  O150  1  0.68280917  0.11733365  1.03683900  1
  O  O151  1  0.68280917  0.61733365  1.03683900  1
  O  O152  1  0.01614250  0.28400032  1.37017233  1
  O  O153  1  0.01614250  0.78400032  1.37017233  1
  O  O154  1  0.51614250  0.28400032  1.37017233  1
  O  O155  1  0.51614250  0.78400032  1.37017233  1
  O  O156  1  -0.10119115  -0.15052416  0.29649433  1
  O  O157  1  -0.10119115  0.34947584  0.29649433  1
  O  O158  1  0.39880885  -0.15052416  0.29649433  1
  O  O159  1  0.39880885  0.34947584  0.29649433  1
  O  O160  1  0.23214218  0.01614250  0.62982767  1
  O  O161  1  0.23214218  0.51614250  0.62982767  1
  O  O162  1  0.73214218  0.01614250  0.62982767  1
  O  O163  1  0.73214218  0.51614250  0.62982767  1
  O  O164  1  0.06547552  0.18280917  0.96316100  1
  O  O165  1  0.06547552  0.68280917  0.96316100  1
  O  O166  1  0.56547552  0.18280917  0.96316100  1
  O  O167  1  0.56547552  0.68280917  0.96316100  1
  O  O168  1  -0.04933301  0.10119115  0.29649433  1
  O  O169  1  -0.04933301  0.60119115  0.29649433  1
  O  O170  1  0.45066699  0.10119115  0.29649433  1
  O  O171  1  0.45066699  0.60119115  0.29649433  1
  O  O172  1  0.28400032  0.26785782  0.62982767  1
  O  O173  1  0.28400032  0.76785782  0.62982767  1
  O  O174  1  0.78400032  0.26785782  0.62982767  1
  O  O175  1  0.78400032  0.76785782  0.62982767  1
  O  O176  1  0.11733365  0.43452448  0.96316100  1
  O  O177  1  0.11733365  0.93452448  0.96316100  1
  O  O178  1  0.61733365  0.43452448  0.96316100  1
  O  O179  1  0.61733365  0.93452448  0.96316100  1
  O  O180  1  0.15052416  0.04933301  0.29649433  1
  O  O181  1  0.15052416  0.54933301  0.29649433  1
  O  O182  1  0.65052416  0.04933301  0.29649433  1
  O  O183  1  0.65052416  0.54933301  0.29649433  1
  O  O184  1  0.48385750  0.21599968  0.62982767  1
  O  O185  1  0.48385750  0.71599968  0.62982767  1
  O  O186  1  0.98385750  0.21599968  0.62982767  1
  O  O187  1  0.98385750  0.71599968  0.62982767  1
  O  O188  1  0.31719083  0.38266635  0.96316100  1
  O  O189  1  0.31719083  0.88266635  0.96316100  1
  O  O190  1  0.81719083  0.38266635  0.96316100  1
  O  O191  1  0.81719083  0.88266635  0.96316100  1
  O  O192  1  0.09050557  0.18116561  0.46320042  1
  O  O193  1  0.09050557  0.68116561  0.46320042  1
  O  O194  1  0.59050557  0.18116561  0.46320042  1
  O  O195  1  0.59050557  0.68116561  0.46320042  1
  O  O196  1  0.42383891  0.34783227  0.79653375  1
  O  O197  1  0.42383891  0.84783227  0.79653375  1
  O  O198  1  0.92383891  0.34783227  0.79653375  1
  O  O199  1  0.92383891  0.84783227  0.79653375  1
  O  O200  1  0.25717224  0.51449894  1.12986708  1
  O  O201  1  0.25717224  1.01449894  1.12986708  1
  O  O202  1  0.75717224  0.51449894  1.12986708  1
  O  O203  1  0.75717224  1.01449894  1.12986708  1
  O  O204  1  0.09066003  -0.09050557  0.46320042  1
  O  O205  1  0.09066003  0.40949443  0.46320042  1
  O  O206  1  0.59066003  -0.09050557  0.46320042  1
  O  O207  1  0.59066003  0.40949443  0.46320042  1
  O  O208  1  0.42399336  0.07616109  0.79653375  1
  O  O209  1  0.42399336  0.57616109  0.79653375  1
  O  O210  1  0.92399336  0.07616109  0.79653375  1
  O  O211  1  0.92399336  0.57616109  0.79653375  1
  O  O212  1  0.25732670  0.24282776  1.12986708  1
  O  O213  1  0.25732670  0.74282776  1.12986708  1
  O  O214  1  0.75732670  0.24282776  1.12986708  1
  O  O215  1  0.75732670  0.74282776  1.12986708  1
  O  O216  1  -0.18116561  -0.09066003  0.46320042  1
  O  O217  1  -0.18116561  0.40933997  0.46320042  1
  O  O218  1  0.31883439  -0.09066003  0.46320042  1
  O  O219  1  0.31883439  0.40933997  0.46320042  1
  O  O220  1  0.15216773  0.07600664  0.79653375  1
  O  O221  1  0.15216773  0.57600664  0.79653375  1
  O  O222  1  0.65216773  0.07600664  0.79653375  1
  O  O223  1  0.65216773  0.57600664  0.79653375  1
  O  O224  1  -0.01449894  0.24267330  1.12986708  1
  O  O225  1  -0.01449894  0.74267330  1.12986708  1
  O  O226  1  0.48550106  0.24267330  1.12986708  1
  O  O227  1  0.48550106  0.74267330  1.12986708  1
  O  O228  1  -0.09050557  -0.18116561  0.53679958  1
  O  O229  1  -0.09050557  0.31883439  0.53679958  1
  O  O230  1  0.40949443  -0.18116561  0.53679958  1
  O  O231  1  0.40949443  0.31883439  0.53679958  1
  O  O232  1  0.24282776  -0.01449894  0.87013292  1
  O  O233  1  0.24282776  0.48550106  0.87013292  1
  O  O234  1  0.74282776  -0.01449894  0.87013292  1
  O  O235  1  0.74282776  0.48550106  0.87013292  1
  O  O236  1  0.07616109  0.15216773  1.20346625  1
  O  O237  1  0.07616109  0.65216773  1.20346625  1
  O  O238  1  0.57616109  0.15216773  1.20346625  1
  O  O239  1  0.57616109  0.65216773  1.20346625  1
  O  O240  1  -0.09066003  0.09050557  0.53679958  1
  O  O241  1  -0.09066003  0.59050557  0.53679958  1
  O  O242  1  0.40933997  0.09050557  0.53679958  1
  O  O243  1  0.40933997  0.59050557  0.53679958  1
  O  O244  1  0.24267330  0.25717224  0.87013292  1
  O  O245  1  0.24267330  0.75717224  0.87013292  1
  O  O246  1  0.74267330  0.25717224  0.87013292  1
  O  O247  1  0.74267330  0.75717224  0.87013292  1
  O  O248  1  0.07600664  0.42383891  1.20346625  1
  O  O249  1  0.07600664  0.92383891  1.20346625  1
  O  O250  1  0.57600664  0.42383891  1.20346625  1
  O  O251  1  0.57600664  0.92383891  1.20346625  1
  O  O252  1  0.18116561  0.09066003  0.53679958  1
  O  O253  1  0.18116561  0.59066003  0.53679958  1
  O  O254  1  0.68116561  0.09066003  0.53679958  1
  O  O255  1  0.68116561  0.59066003  0.53679958  1
  O  O256  1  0.51449894  0.25732670  0.87013292  1
  O  O257  1  0.51449894  0.75732670  0.87013292  1
  O  O258  1  1.01449894  0.25732670  0.87013292  1
  O  O259  1  1.01449894  0.75732670  0.87013292  1
  O  O260  1  0.34783227  0.42399336  1.20346625  1
  O  O261  1  0.34783227  0.92399336  1.20346625  1
  O  O262  1  0.84783227  0.42399336  1.20346625  1
  O  O263  1  0.84783227  0.92399336  1.20346625  1
