# generated using pymatgen
data_KSc(WO4)2
_symmetry_space_group_name_H-M   'P 1'
_cell_length_a   21.44123622
_cell_length_b   20.02187365
_cell_length_c   14.63460835
_cell_angle_alpha   90.00000000
_cell_angle_beta   130.90204825
_cell_angle_gamma   90.00000000
_symmetry_Int_Tables_number   1
_chemical_formula_structural   KSc(WO4)2
_chemical_formula_sum   'K32 Sc32 W64 O256'
_cell_volume   4748.53675253
_cell_formula_units_Z   32
loop_
 _symmetry_equiv_pos_site_id
 _symmetry_equiv_pos_as_xyz
  1  'x, y, z'
loop_
 _atom_site_type_symbol
 _atom_site_label
 _atom_site_symmetry_multiplicity
 _atom_site_fract_x
 _atom_site_fract_y
 _atom_site_fract_z
 _atom_site_occupancy
  K  K0  1  0.25000000  -0.14909213  0.37500000  1
  K  K1  1  0.25000000  -0.14909213  0.87500000  1
  K  K2  1  0.25000000  0.35090787  0.37500000  1
  K  K3  1  0.25000000  0.35090787  0.87500000  1
  K  K4  1  0.75000000  -0.14909213  0.37500000  1
  K  K5  1  0.75000000  -0.14909213  0.87500000  1
  K  K6  1  0.75000000  0.35090787  0.37500000  1
  K  K7  1  0.75000000  0.35090787  0.87500000  1
  K  K8  1  0.50000000  0.10090787  0.37500000  1
  K  K9  1  0.50000000  0.10090787  0.87500000  1
  K  K10  1  0.50000000  0.60090787  0.37500000  1
  K  K11  1  0.50000000  0.60090787  0.87500000  1
  K  K12  1  1.00000000  0.10090787  0.37500000  1
  K  K13  1  1.00000000  0.10090787  0.87500000  1
  K  K14  1  1.00000000  0.60090787  0.37500000  1
  K  K15  1  1.00000000  0.60090787  0.87500000  1
  K  K16  1  0.25000000  0.14909213  0.12500000  1
  K  K17  1  0.25000000  0.14909213  0.62500000  1
  K  K18  1  0.25000000  0.64909213  0.12500000  1
  K  K19  1  0.25000000  0.64909213  0.62500000  1
  K  K20  1  0.75000000  0.14909213  0.12500000  1
  K  K21  1  0.75000000  0.14909213  0.62500000  1
  K  K22  1  0.75000000  0.64909213  0.12500000  1
  K  K23  1  0.75000000  0.64909213  0.62500000  1
  K  K24  1  0.50000000  0.39909213  0.12500000  1
  K  K25  1  0.50000000  0.39909213  0.62500000  1
  K  K26  1  0.50000000  0.89909213  0.12500000  1
  K  K27  1  0.50000000  0.89909213  0.62500000  1
  K  K28  1  1.00000000  0.39909213  0.12500000  1
  K  K29  1  1.00000000  0.39909213  0.62500000  1
  K  K30  1  1.00000000  0.89909213  0.12500000  1
  K  K31  1  1.00000000  0.89909213  0.62500000  1
  Sc  Sc32  1  0.25000000  0.13756099  0.37500000  1
  Sc  Sc33  1  0.25000000  0.13756099  0.87500000  1
  Sc  Sc34  1  0.25000000  0.63756099  0.37500000  1
  Sc  Sc35  1  0.25000000  0.63756099  0.87500000  1
  Sc  Sc36  1  0.75000000  0.13756099  0.37500000  1
  Sc  Sc37  1  0.75000000  0.13756099  0.87500000  1
  Sc  Sc38  1  0.75000000  0.63756099  0.37500000  1
  Sc  Sc39  1  0.75000000  0.63756099  0.87500000  1
  Sc  Sc40  1  0.50000000  0.38756099  0.37500000  1
  Sc  Sc41  1  0.50000000  0.38756099  0.87500000  1
  Sc  Sc42  1  0.50000000  0.88756099  0.37500000  1
  Sc  Sc43  1  0.50000000  0.88756099  0.87500000  1
  Sc  Sc44  1  1.00000000  0.38756099  0.37500000  1
  Sc  Sc45  1  1.00000000  0.38756099  0.87500000  1
  Sc  Sc46  1  1.00000000  0.88756099  0.37500000  1
  Sc  Sc47  1  1.00000000  0.88756099  0.87500000  1
  Sc  Sc48  1  0.25000000  -0.13756099  0.12500000  1
  Sc  Sc49  1  0.25000000  -0.13756099  0.62500000  1
  Sc  Sc50  1  0.25000000  0.36243901  0.12500000  1
  Sc  Sc51  1  0.25000000  0.36243901  0.62500000  1
  Sc  Sc52  1  0.75000000  -0.13756099  0.12500000  1
  Sc  Sc53  1  0.75000000  -0.13756099  0.62500000  1
  Sc  Sc54  1  0.75000000  0.36243901  0.12500000  1
  Sc  Sc55  1  0.75000000  0.36243901  0.62500000  1
  Sc  Sc56  1  0.50000000  0.11243901  0.12500000  1
  Sc  Sc57  1  0.50000000  0.11243901  0.62500000  1
  Sc  Sc58  1  0.50000000  0.61243901  0.12500000  1
  Sc  Sc59  1  0.50000000  0.61243901  0.62500000  1
  Sc  Sc60  1  1.00000000  0.11243901  0.12500000  1
  Sc  Sc61  1  1.00000000  0.11243901  0.62500000  1
  Sc  Sc62  1  1.00000000  0.61243901  0.12500000  1
  Sc  Sc63  1  1.00000000  0.61243901  0.62500000  1
  W  W64  1  0.15056402  0.00086903  0.38839179  1
  W  W65  1  0.15056402  0.00086903  0.88839179  1
  W  W66  1  0.15056402  0.50086903  0.38839179  1
  W  W67  1  0.15056402  0.50086903  0.88839179  1
  W  W68  1  0.65056402  0.00086903  0.38839179  1
  W  W69  1  0.65056402  0.00086903  0.88839179  1
  W  W70  1  0.65056402  0.50086903  0.38839179  1
  W  W71  1  0.65056402  0.50086903  0.88839179  1
  W  W72  1  0.40056402  0.25086903  0.38839179  1
  W  W73  1  0.40056402  0.25086903  0.88839179  1
  W  W74  1  0.40056402  0.75086903  0.38839179  1
  W  W75  1  0.40056402  0.75086903  0.88839179  1
  W  W76  1  0.90056402  0.25086903  0.38839179  1
  W  W77  1  0.90056402  0.25086903  0.88839179  1
  W  W78  1  0.90056402  0.75086903  0.38839179  1
  W  W79  1  0.90056402  0.75086903  0.88839179  1
  W  W80  1  0.34943598  -0.00086903  0.11160821  1
  W  W81  1  0.34943598  -0.00086903  0.61160821  1
  W  W82  1  0.34943598  0.49913097  0.11160821  1
  W  W83  1  0.34943598  0.49913097  0.61160821  1
  W  W84  1  0.84943598  -0.00086903  0.11160821  1
  W  W85  1  0.84943598  -0.00086903  0.61160821  1
  W  W86  1  0.84943598  0.49913097  0.11160821  1
  W  W87  1  0.84943598  0.49913097  0.61160821  1
  W  W88  1  0.59943598  0.24913097  0.11160821  1
  W  W89  1  0.59943598  0.24913097  0.61160821  1
  W  W90  1  0.59943598  0.74913097  0.11160821  1
  W  W91  1  0.59943598  0.74913097  0.61160821  1
  W  W92  1  1.09943598  0.24913097  0.11160821  1
  W  W93  1  1.09943598  0.24913097  0.61160821  1
  W  W94  1  1.09943598  0.74913097  0.11160821  1
  W  W95  1  1.09943598  0.74913097  0.61160821  1
  W  W96  1  0.34943598  0.00086903  0.36160821  1
  W  W97  1  0.34943598  0.00086903  0.86160821  1
  W  W98  1  0.34943598  0.50086903  0.36160821  1
  W  W99  1  0.34943598  0.50086903  0.86160821  1
  W  W100  1  0.84943598  0.00086903  0.36160821  1
  W  W101  1  0.84943598  0.00086903  0.86160821  1
  W  W102  1  0.84943598  0.50086903  0.36160821  1
  W  W103  1  0.84943598  0.50086903  0.86160821  1
  W  W104  1  0.59943598  0.25086903  0.36160821  1
  W  W105  1  0.59943598  0.25086903  0.86160821  1
  W  W106  1  0.59943598  0.75086903  0.36160821  1
  W  W107  1  0.59943598  0.75086903  0.86160821  1
  W  W108  1  1.09943598  0.25086903  0.36160821  1
  W  W109  1  1.09943598  0.25086903  0.86160821  1
  W  W110  1  1.09943598  0.75086903  0.36160821  1
  W  W111  1  1.09943598  0.75086903  0.86160821  1
  W  W112  1  0.15056402  -0.00086903  0.13839179  1
  W  W113  1  0.15056402  -0.00086903  0.63839179  1
  W  W114  1  0.15056402  0.49913097  0.13839179  1
  W  W115  1  0.15056402  0.49913097  0.63839179  1
  W  W116  1  0.65056402  -0.00086903  0.13839179  1
  W  W117  1  0.65056402  -0.00086903  0.63839179  1
  W  W118  1  0.65056402  0.49913097  0.13839179  1
  W  W119  1  0.65056402  0.49913097  0.63839179  1
  W  W120  1  0.40056402  0.24913097  0.13839179  1
  W  W121  1  0.40056402  0.24913097  0.63839179  1
  W  W122  1  0.40056402  0.74913097  0.13839179  1
  W  W123  1  0.40056402  0.74913097  0.63839179  1
  W  W124  1  0.90056402  0.24913097  0.13839179  1
  W  W125  1  0.90056402  0.24913097  0.63839179  1
  W  W126  1  0.90056402  0.74913097  0.13839179  1
  W  W127  1  0.90056402  0.74913097  0.63839179  1
  O  O128  1  0.15481704  -0.03630680  0.27789576  1
  O  O129  1  0.15481704  -0.03630680  0.77789576  1
  O  O130  1  0.15481704  0.46369320  0.27789576  1
  O  O131  1  0.15481704  0.46369320  0.77789576  1
  O  O132  1  0.65481704  -0.03630680  0.27789576  1
  O  O133  1  0.65481704  -0.03630680  0.77789576  1
  O  O134  1  0.65481704  0.46369320  0.27789576  1
  O  O135  1  0.65481704  0.46369320  0.77789576  1
  O  O136  1  0.40481704  0.21369320  0.27789576  1
  O  O137  1  0.40481704  0.21369320  0.77789576  1
  O  O138  1  0.40481704  0.71369320  0.27789576  1
  O  O139  1  0.40481704  0.71369320  0.77789576  1
  O  O140  1  0.90481704  0.21369320  0.27789576  1
  O  O141  1  0.90481704  0.21369320  0.77789576  1
  O  O142  1  0.90481704  0.71369320  0.27789576  1
  O  O143  1  0.90481704  0.71369320  0.77789576  1
  O  O144  1  0.34518296  0.03630680  0.22210424  1
  O  O145  1  0.34518296  0.03630680  0.72210424  1
  O  O146  1  0.34518296  0.53630680  0.22210424  1
  O  O147  1  0.34518296  0.53630680  0.72210424  1
  O  O148  1  0.84518296  0.03630680  0.22210424  1
  O  O149  1  0.84518296  0.03630680  0.72210424  1
  O  O150  1  0.84518296  0.53630680  0.22210424  1
  O  O151  1  0.84518296  0.53630680  0.72210424  1
  O  O152  1  0.59518296  0.28630680  0.22210424  1
  O  O153  1  0.59518296  0.28630680  0.72210424  1
  O  O154  1  0.59518296  0.78630680  0.22210424  1
  O  O155  1  0.59518296  0.78630680  0.72210424  1
  O  O156  1  1.09518296  0.28630680  0.22210424  1
  O  O157  1  1.09518296  0.28630680  0.72210424  1
  O  O158  1  1.09518296  0.78630680  0.22210424  1
  O  O159  1  1.09518296  0.78630680  0.72210424  1
  O  O160  1  0.34518296  -0.03630680  0.47210424  1
  O  O161  1  0.34518296  -0.03630680  0.97210424  1
  O  O162  1  0.34518296  0.46369320  0.47210424  1
  O  O163  1  0.34518296  0.46369320  0.97210424  1
  O  O164  1  0.84518296  -0.03630680  0.47210424  1
  O  O165  1  0.84518296  -0.03630680  0.97210424  1
  O  O166  1  0.84518296  0.46369320  0.47210424  1
  O  O167  1  0.84518296  0.46369320  0.97210424  1
  O  O168  1  0.59518296  0.21369320  0.47210424  1
  O  O169  1  0.59518296  0.21369320  0.97210424  1
  O  O170  1  0.59518296  0.71369320  0.47210424  1
  O  O171  1  0.59518296  0.71369320  0.97210424  1
  O  O172  1  1.09518296  0.21369320  0.47210424  1
  O  O173  1  1.09518296  0.21369320  0.97210424  1
  O  O174  1  1.09518296  0.71369320  0.47210424  1
  O  O175  1  1.09518296  0.71369320  0.97210424  1
  O  O176  1  0.15481704  0.03630680  0.02789576  1
  O  O177  1  0.15481704  0.03630680  0.52789576  1
  O  O178  1  0.15481704  0.53630680  0.02789576  1
  O  O179  1  0.15481704  0.53630680  0.52789576  1
  O  O180  1  0.65481704  0.03630680  0.02789576  1
  O  O181  1  0.65481704  0.03630680  0.52789576  1
  O  O182  1  0.65481704  0.53630680  0.02789576  1
  O  O183  1  0.65481704  0.53630680  0.52789576  1
  O  O184  1  0.40481704  0.28630680  0.02789576  1
  O  O185  1  0.40481704  0.28630680  0.52789576  1
  O  O186  1  0.40481704  0.78630680  0.02789576  1
  O  O187  1  0.40481704  0.78630680  0.52789576  1
  O  O188  1  0.90481704  0.28630680  0.02789576  1
  O  O189  1  0.90481704  0.28630680  0.52789576  1
  O  O190  1  0.90481704  0.78630680  0.02789576  1
  O  O191  1  0.90481704  0.78630680  0.52789576  1
  O  O192  1  0.40318219  0.07582028  0.44850429  1
  O  O193  1  0.40318219  0.07582028  0.94850429  1
  O  O194  1  0.40318219  0.57582028  0.44850429  1
  O  O195  1  0.40318219  0.57582028  0.94850429  1
  O  O196  1  0.90318219  0.07582028  0.44850429  1
  O  O197  1  0.90318219  0.07582028  0.94850429  1
  O  O198  1  0.90318219  0.57582028  0.44850429  1
  O  O199  1  0.90318219  0.57582028  0.94850429  1
  O  O200  1  0.65318219  0.32582028  0.44850429  1
  O  O201  1  0.65318219  0.32582028  0.94850429  1
  O  O202  1  0.65318219  0.82582028  0.44850429  1
  O  O203  1  0.65318219  0.82582028  0.94850429  1
  O  O204  1  1.15318219  0.32582028  0.44850429  1
  O  O205  1  1.15318219  0.32582028  0.94850429  1
  O  O206  1  1.15318219  0.82582028  0.44850429  1
  O  O207  1  1.15318219  0.82582028  0.94850429  1
  O  O208  1  0.09681781  -0.07582028  0.05149571  1
  O  O209  1  0.09681781  -0.07582028  0.55149571  1
  O  O210  1  0.09681781  0.42417972  0.05149571  1
  O  O211  1  0.09681781  0.42417972  0.55149571  1
  O  O212  1  0.59681781  -0.07582028  0.05149571  1
  O  O213  1  0.59681781  -0.07582028  0.55149571  1
  O  O214  1  0.59681781  0.42417972  0.05149571  1
  O  O215  1  0.59681781  0.42417972  0.55149571  1
  O  O216  1  0.34681781  0.17417972  0.05149571  1
  O  O217  1  0.34681781  0.17417972  0.55149571  1
  O  O218  1  0.34681781  0.67417972  0.05149571  1
  O  O219  1  0.34681781  0.67417972  0.55149571  1
  O  O220  1  0.84681781  0.17417972  0.05149571  1
  O  O221  1  0.84681781  0.17417972  0.55149571  1
  O  O222  1  0.84681781  0.67417972  0.05149571  1
  O  O223  1  0.84681781  0.67417972  0.55149571  1
  O  O224  1  0.09681781  0.07582028  0.30149571  1
  O  O225  1  0.09681781  0.07582028  0.80149571  1
  O  O226  1  0.09681781  0.57582028  0.30149571  1
  O  O227  1  0.09681781  0.57582028  0.80149571  1
  O  O228  1  0.59681781  0.07582028  0.30149571  1
  O  O229  1  0.59681781  0.07582028  0.80149571  1
  O  O230  1  0.59681781  0.57582028  0.30149571  1
  O  O231  1  0.59681781  0.57582028  0.80149571  1
  O  O232  1  0.34681781  0.32582028  0.30149571  1
  O  O233  1  0.34681781  0.32582028  0.80149571  1
  O  O234  1  0.34681781  0.82582028  0.30149571  1
  O  O235  1  0.34681781  0.82582028  0.80149571  1
  O  O236  1  0.84681781  0.32582028  0.30149571  1
  O  O237  1  0.84681781  0.32582028  0.80149571  1
  O  O238  1  0.84681781  0.82582028  0.30149571  1
  O  O239  1  0.84681781  0.82582028  0.80149571  1
  O  O240  1  0.40318219  -0.07582028  0.19850429  1
  O  O241  1  0.40318219  -0.07582028  0.69850429  1
  O  O242  1  0.40318219  0.42417972  0.19850429  1
  O  O243  1  0.40318219  0.42417972  0.69850429  1
  O  O244  1  0.90318219  -0.07582028  0.19850429  1
  O  O245  1  0.90318219  -0.07582028  0.69850429  1
  O  O246  1  0.90318219  0.42417972  0.19850429  1
  O  O247  1  0.90318219  0.42417972  0.69850429  1
  O  O248  1  0.65318219  0.17417972  0.19850429  1
  O  O249  1  0.65318219  0.17417972  0.69850429  1
  O  O250  1  0.65318219  0.67417972  0.19850429  1
  O  O251  1  0.65318219  0.67417972  0.69850429  1
  O  O252  1  1.15318219  0.17417972  0.19850429  1
  O  O253  1  1.15318219  0.17417972  0.69850429  1
  O  O254  1  1.15318219  0.67417972  0.19850429  1
  O  O255  1  1.15318219  0.67417972  0.69850429  1
  O  O256  1  0.25578751  0.05741380  0.47562724  1
  O  O257  1  0.25578751  0.05741380  0.97562724  1
  O  O258  1  0.25578751  0.55741380  0.47562724  1
  O  O259  1  0.25578751  0.55741380  0.97562724  1
  O  O260  1  0.75578751  0.05741380  0.47562724  1
  O  O261  1  0.75578751  0.05741380  0.97562724  1
  O  O262  1  0.75578751  0.55741380  0.47562724  1
  O  O263  1  0.75578751  0.55741380  0.97562724  1
  O  O264  1  0.50578751  0.30741380  0.47562724  1
  O  O265  1  0.50578751  0.30741380  0.97562724  1
  O  O266  1  0.50578751  0.80741380  0.47562724  1
  O  O267  1  0.50578751  0.80741380  0.97562724  1
  O  O268  1  1.00578751  0.30741380  0.47562724  1
  O  O269  1  1.00578751  0.30741380  0.97562724  1
  O  O270  1  1.00578751  0.80741380  0.47562724  1
  O  O271  1  1.00578751  0.80741380  0.97562724  1
  O  O272  1  0.24421249  -0.05741380  0.02437276  1
  O  O273  1  0.24421249  -0.05741380  0.52437276  1
  O  O274  1  0.24421249  0.44258620  0.02437276  1
  O  O275  1  0.24421249  0.44258620  0.52437276  1
  O  O276  1  0.74421249  -0.05741380  0.02437276  1
  O  O277  1  0.74421249  -0.05741380  0.52437276  1
  O  O278  1  0.74421249  0.44258620  0.02437276  1
  O  O279  1  0.74421249  0.44258620  0.52437276  1
  O  O280  1  0.49421249  0.19258620  0.02437276  1
  O  O281  1  0.49421249  0.19258620  0.52437276  1
  O  O282  1  0.49421249  0.69258620  0.02437276  1
  O  O283  1  0.49421249  0.69258620  0.52437276  1
  O  O284  1  0.99421249  0.19258620  0.02437276  1
  O  O285  1  0.99421249  0.19258620  0.52437276  1
  O  O286  1  0.99421249  0.69258620  0.02437276  1
  O  O287  1  0.99421249  0.69258620  0.52437276  1
  O  O288  1  0.24421249  0.05741380  0.27437276  1
  O  O289  1  0.24421249  0.05741380  0.77437276  1
  O  O290  1  0.24421249  0.55741380  0.27437276  1
  O  O291  1  0.24421249  0.55741380  0.77437276  1
  O  O292  1  0.74421249  0.05741380  0.27437276  1
  O  O293  1  0.74421249  0.05741380  0.77437276  1
  O  O294  1  0.74421249  0.55741380  0.27437276  1
  O  O295  1  0.74421249  0.55741380  0.77437276  1
  O  O296  1  0.49421249  0.30741380  0.27437276  1
  O  O297  1  0.49421249  0.30741380  0.77437276  1
  O  O298  1  0.49421249  0.80741380  0.27437276  1
  O  O299  1  0.49421249  0.80741380  0.77437276  1
  O  O300  1  0.99421249  0.30741380  0.27437276  1
  O  O301  1  0.99421249  0.30741380  0.77437276  1
  O  O302  1  0.99421249  0.80741380  0.27437276  1
  O  O303  1  0.99421249  0.80741380  0.77437276  1
  O  O304  1  0.25578751  -0.05741380  0.22562724  1
  O  O305  1  0.25578751  -0.05741380  0.72562724  1
  O  O306  1  0.25578751  0.44258620  0.22562724  1
  O  O307  1  0.25578751  0.44258620  0.72562724  1
  O  O308  1  0.75578751  -0.05741380  0.22562724  1
  O  O309  1  0.75578751  -0.05741380  0.72562724  1
  O  O310  1  0.75578751  0.44258620  0.22562724  1
  O  O311  1  0.75578751  0.44258620  0.72562724  1
  O  O312  1  0.50578751  0.19258620  0.22562724  1
  O  O313  1  0.50578751  0.19258620  0.72562724  1
  O  O314  1  0.50578751  0.69258620  0.22562724  1
  O  O315  1  0.50578751  0.69258620  0.72562724  1
  O  O316  1  1.00578751  0.19258620  0.22562724  1
  O  O317  1  1.00578751  0.19258620  0.72562724  1
  O  O318  1  1.00578751  0.69258620  0.22562724  1
  O  O319  1  1.00578751  0.69258620  0.72562724  1
  O  O320  1  0.06795857  -0.05126923  0.35223049  1
  O  O321  1  0.06795857  -0.05126923  0.85223049  1
  O  O322  1  0.06795857  0.44873077  0.35223049  1
  O  O323  1  0.06795857  0.44873077  0.85223049  1
  O  O324  1  0.56795857  -0.05126923  0.35223049  1
  O  O325  1  0.56795857  -0.05126923  0.85223049  1
  O  O326  1  0.56795857  0.44873077  0.35223049  1
  O  O327  1  0.56795857  0.44873077  0.85223049  1
  O  O328  1  0.31795857  0.19873077  0.35223049  1
  O  O329  1  0.31795857  0.19873077  0.85223049  1
  O  O330  1  0.31795857  0.69873077  0.35223049  1
  O  O331  1  0.31795857  0.69873077  0.85223049  1
  O  O332  1  0.81795857  0.19873077  0.35223049  1
  O  O333  1  0.81795857  0.19873077  0.85223049  1
  O  O334  1  0.81795857  0.69873077  0.35223049  1
  O  O335  1  0.81795857  0.69873077  0.85223049  1
  O  O336  1  0.43204143  0.05126923  0.14776951  1
  O  O337  1  0.43204143  0.05126923  0.64776951  1
  O  O338  1  0.43204143  0.55126923  0.14776951  1
  O  O339  1  0.43204143  0.55126923  0.64776951  1
  O  O340  1  0.93204143  0.05126923  0.14776951  1
  O  O341  1  0.93204143  0.05126923  0.64776951  1
  O  O342  1  0.93204143  0.55126923  0.14776951  1
  O  O343  1  0.93204143  0.55126923  0.64776951  1
  O  O344  1  0.68204143  0.30126923  0.14776951  1
  O  O345  1  0.68204143  0.30126923  0.64776951  1
  O  O346  1  0.68204143  0.80126923  0.14776951  1
  O  O347  1  0.68204143  0.80126923  0.64776951  1
  O  O348  1  1.18204143  0.30126923  0.14776951  1
  O  O349  1  1.18204143  0.30126923  0.64776951  1
  O  O350  1  1.18204143  0.80126923  0.14776951  1
  O  O351  1  1.18204143  0.80126923  0.64776951  1
  O  O352  1  0.43204143  -0.05126923  0.39776951  1
  O  O353  1  0.43204143  -0.05126923  0.89776951  1
  O  O354  1  0.43204143  0.44873077  0.39776951  1
  O  O355  1  0.43204143  0.44873077  0.89776951  1
  O  O356  1  0.93204143  -0.05126923  0.39776951  1
  O  O357  1  0.93204143  -0.05126923  0.89776951  1
  O  O358  1  0.93204143  0.44873077  0.39776951  1
  O  O359  1  0.93204143  0.44873077  0.89776951  1
  O  O360  1  0.68204143  0.19873077  0.39776951  1
  O  O361  1  0.68204143  0.19873077  0.89776951  1
  O  O362  1  0.68204143  0.69873077  0.39776951  1
  O  O363  1  0.68204143  0.69873077  0.89776951  1
  O  O364  1  1.18204143  0.19873077  0.39776951  1
  O  O365  1  1.18204143  0.19873077  0.89776951  1
  O  O366  1  1.18204143  0.69873077  0.39776951  1
  O  O367  1  1.18204143  0.69873077  0.89776951  1
  O  O368  1  0.06795857  0.05126923  0.10223049  1
  O  O369  1  0.06795857  0.05126923  0.60223049  1
  O  O370  1  0.06795857  0.55126923  0.10223049  1
  O  O371  1  0.06795857  0.55126923  0.60223049  1
  O  O372  1  0.56795857  0.05126923  0.10223049  1
  O  O373  1  0.56795857  0.05126923  0.60223049  1
  O  O374  1  0.56795857  0.55126923  0.10223049  1
  O  O375  1  0.56795857  0.55126923  0.60223049  1
  O  O376  1  0.31795857  0.30126923  0.10223049  1
  O  O377  1  0.31795857  0.30126923  0.60223049  1
  O  O378  1  0.31795857  0.80126923  0.10223049  1
  O  O379  1  0.31795857  0.80126923  0.60223049  1
  O  O380  1  0.81795857  0.30126923  0.10223049  1
  O  O381  1  0.81795857  0.30126923  0.60223049  1
  O  O382  1  0.81795857  0.80126923  0.10223049  1
  O  O383  1  0.81795857  0.80126923  0.60223049  1
