# generated using pymatgen
data_Ba2Ca(BO2)6
_symmetry_space_group_name_H-M   'P 1'
_cell_length_a   14.32443272
_cell_length_b   14.32443272
_cell_length_c   17.57281649
_cell_angle_alpha   90.00000000
_cell_angle_beta   90.00000000
_cell_angle_gamma   120.00000000
_symmetry_Int_Tables_number   1
_chemical_formula_structural   Ba2Ca(BO2)6
_chemical_formula_sum   'Ba24 Ca12 B72 O144'
_cell_volume   3122.67559547
_cell_formula_units_Z   12
loop_
 _symmetry_equiv_pos_site_id
 _symmetry_equiv_pos_as_xyz
  1  'x, y, z'
loop_
 _atom_site_type_symbol
 _atom_site_label
 _atom_site_symmetry_multiplicity
 _atom_site_fract_x
 _atom_site_fract_y
 _atom_site_fract_z
 _atom_site_occupancy
  Ba  Ba0  1  -0.00000000  -0.00000000  0.20778843  1
  Ba  Ba1  1  0.00000000  0.50000000  0.20778843  1
  Ba  Ba2  1  0.50000000  -0.00000000  0.20778843  1
  Ba  Ba3  1  0.50000000  0.50000000  0.20778843  1
  Ba  Ba4  1  0.33333333  0.16666667  0.54112176  1
  Ba  Ba5  1  0.33333333  0.66666667  0.54112176  1
  Ba  Ba6  1  0.83333333  0.16666667  0.54112176  1
  Ba  Ba7  1  0.83333333  0.66666667  0.54112176  1
  Ba  Ba8  1  0.16666667  0.33333333  0.87445510  1
  Ba  Ba9  1  0.16666667  0.83333333  0.87445510  1
  Ba  Ba10  1  0.66666667  0.33333333  0.87445510  1
  Ba  Ba11  1  0.66666667  0.83333333  0.87445510  1
  Ba  Ba12  1  0.00000000  0.00000000  0.79221157  1
  Ba  Ba13  1  0.00000000  0.50000000  0.79221157  1
  Ba  Ba14  1  0.50000000  0.00000000  0.79221157  1
  Ba  Ba15  1  0.50000000  0.50000000  0.79221157  1
  Ba  Ba16  1  0.33333333  0.16666667  1.12554490  1
  Ba  Ba17  1  0.33333333  0.66666667  1.12554490  1
  Ba  Ba18  1  0.83333333  0.16666667  1.12554490  1
  Ba  Ba19  1  0.83333333  0.66666667  1.12554490  1
  Ba  Ba20  1  0.16666667  0.33333333  1.45887824  1
  Ba  Ba21  1  0.16666667  0.83333333  1.45887824  1
  Ba  Ba22  1  0.66666667  0.33333333  1.45887824  1
  Ba  Ba23  1  0.66666667  0.83333333  1.45887824  1
  Ca  Ca24  1  -0.00000000  -0.00000000  -0.00000000  1
  Ca  Ca25  1  0.00000000  0.50000000  -0.00000000  1
  Ca  Ca26  1  0.50000000  -0.00000000  -0.00000000  1
  Ca  Ca27  1  0.50000000  0.50000000  -0.00000000  1
  Ca  Ca28  1  0.33333333  0.16666667  0.33333333  1
  Ca  Ca29  1  0.33333333  0.66666667  0.33333333  1
  Ca  Ca30  1  0.83333333  0.16666667  0.33333333  1
  Ca  Ca31  1  0.83333333  0.66666667  0.33333333  1
  Ca  Ca32  1  0.16666667  0.33333333  0.66666667  1
  Ca  Ca33  1  0.16666667  0.83333333  0.66666667  1
  Ca  Ca34  1  0.66666667  0.33333333  0.66666667  1
  Ca  Ca35  1  0.66666667  0.83333333  0.66666667  1
  B  B36  1  -0.08617887  0.02336199  0.41679815  1
  B  B37  1  -0.08617887  0.52336199  0.41679815  1
  B  B38  1  0.41382113  0.02336199  0.41679815  1
  B  B39  1  0.41382113  0.52336199  0.41679815  1
  B  B40  1  0.24715447  0.19002866  0.75013148  1
  B  B41  1  0.24715447  0.69002866  0.75013148  1
  B  B42  1  0.74715447  0.19002866  0.75013148  1
  B  B43  1  0.74715447  0.69002866  0.75013148  1
  B  B44  1  0.08048780  0.35669532  1.08346482  1
  B  B45  1  0.08048780  0.85669532  1.08346482  1
  B  B46  1  0.58048780  0.35669532  1.08346482  1
  B  B47  1  0.58048780  0.85669532  1.08346482  1
  B  B48  1  0.02336199  0.10954085  0.58320185  1
  B  B49  1  0.02336199  0.60954085  0.58320185  1
  B  B50  1  0.52336199  0.10954085  0.58320185  1
  B  B51  1  0.52336199  0.60954085  0.58320185  1
  B  B52  1  0.35669532  0.27620752  0.91653518  1
  B  B53  1  0.35669532  0.77620752  0.91653518  1
  B  B54  1  0.85669532  0.27620752  0.91653518  1
  B  B55  1  0.85669532  0.77620752  0.91653518  1
  B  B56  1  0.19002866  0.44287419  1.24986852  1
  B  B57  1  0.19002866  0.94287419  1.24986852  1
  B  B58  1  0.69002866  0.44287419  1.24986852  1
  B  B59  1  0.69002866  0.94287419  1.24986852  1
  B  B60  1  0.08617887  -0.02336199  0.58320185  1
  B  B61  1  0.08617887  0.47663801  0.58320185  1
  B  B62  1  0.58617887  -0.02336199  0.58320185  1
  B  B63  1  0.58617887  0.47663801  0.58320185  1
  B  B64  1  0.41951220  0.14330468  0.91653518  1
  B  B65  1  0.41951220  0.64330468  0.91653518  1
  B  B66  1  0.91951220  0.14330468  0.91653518  1
  B  B67  1  0.91951220  0.64330468  0.91653518  1
  B  B68  1  0.25284553  0.30997134  1.24986852  1
  B  B69  1  0.25284553  0.80997134  1.24986852  1
  B  B70  1  0.75284553  0.30997134  1.24986852  1
  B  B71  1  0.75284553  0.80997134  1.24986852  1
  B  B72  1  -0.10954085  -0.08617887  0.58320185  1
  B  B73  1  -0.10954085  0.41382113  0.58320185  1
  B  B74  1  0.39045915  -0.08617887  0.58320185  1
  B  B75  1  0.39045915  0.41382113  0.58320185  1
  B  B76  1  0.22379248  0.08048780  0.91653518  1
  B  B77  1  0.22379248  0.58048780  0.91653518  1
  B  B78  1  0.72379248  0.08048780  0.91653518  1
  B  B79  1  0.72379248  0.58048780  0.91653518  1
  B  B80  1  0.05712581  0.24715447  1.24986852  1
  B  B81  1  0.05712581  0.74715447  1.24986852  1
  B  B82  1  0.55712581  0.24715447  1.24986852  1
  B  B83  1  0.55712581  0.74715447  1.24986852  1
  B  B84  1  -0.02336199  -0.10954085  0.41679815  1
  B  B85  1  -0.02336199  0.39045915  0.41679815  1
  B  B86  1  0.47663801  -0.10954085  0.41679815  1
  B  B87  1  0.47663801  0.39045915  0.41679815  1
  B  B88  1  0.30997134  0.05712581  0.75013148  1
  B  B89  1  0.30997134  0.55712581  0.75013148  1
  B  B90  1  0.80997134  0.05712581  0.75013148  1
  B  B91  1  0.80997134  0.55712581  0.75013148  1
  B  B92  1  0.14330468  0.22379248  1.08346482  1
  B  B93  1  0.14330468  0.72379248  1.08346482  1
  B  B94  1  0.64330468  0.22379248  1.08346482  1
  B  B95  1  0.64330468  0.72379248  1.08346482  1
  B  B96  1  0.10954085  0.08617887  0.41679815  1
  B  B97  1  0.10954085  0.58617887  0.41679815  1
  B  B98  1  0.60954085  0.08617887  0.41679815  1
  B  B99  1  0.60954085  0.58617887  0.41679815  1
  B  B100  1  0.44287419  0.25284553  0.75013148  1
  B  B101  1  0.44287419  0.75284553  0.75013148  1
  B  B102  1  0.94287419  0.25284553  0.75013148  1
  B  B103  1  0.94287419  0.75284553  0.75013148  1
  B  B104  1  0.27620752  0.41951220  1.08346482  1
  B  B105  1  0.27620752  0.91951220  1.08346482  1
  B  B106  1  0.77620752  0.41951220  1.08346482  1
  B  B107  1  0.77620752  0.91951220  1.08346482  1
  O  O108  1  -0.08352505  0.02239153  0.58481853  1
  O  O109  1  -0.08352505  0.52239153  0.58481853  1
  O  O110  1  0.41647495  0.02239153  0.58481853  1
  O  O111  1  0.41647495  0.52239153  0.58481853  1
  O  O112  1  0.24980828  0.18905820  0.91815186  1
  O  O113  1  0.24980828  0.68905820  0.91815186  1
  O  O114  1  0.74980828  0.18905820  0.91815186  1
  O  O115  1  0.74980828  0.68905820  0.91815186  1
  O  O116  1  0.08314162  0.35572487  1.25148520  1
  O  O117  1  0.08314162  0.85572487  1.25148520  1
  O  O118  1  0.58314162  0.35572487  1.25148520  1
  O  O119  1  0.58314162  0.85572487  1.25148520  1
  O  O120  1  -0.02239153  -0.10591659  0.58481853  1
  O  O121  1  -0.02239153  0.39408341  0.58481853  1
  O  O122  1  0.47760847  -0.10591659  0.58481853  1
  O  O123  1  0.47760847  0.39408341  0.58481853  1
  O  O124  1  0.31094180  0.06075008  0.91815186  1
  O  O125  1  0.31094180  0.56075008  0.91815186  1
  O  O126  1  0.81094180  0.06075008  0.91815186  1
  O  O127  1  0.81094180  0.56075008  0.91815186  1
  O  O128  1  0.14427513  0.22741675  1.25148520  1
  O  O129  1  0.14427513  0.72741675  1.25148520  1
  O  O130  1  0.64427513  0.22741675  1.25148520  1
  O  O131  1  0.64427513  0.72741675  1.25148520  1
  O  O132  1  0.10591659  0.08352505  0.58481853  1
  O  O133  1  0.10591659  0.58352505  0.58481853  1
  O  O134  1  0.60591659  0.08352505  0.58481853  1
  O  O135  1  0.60591659  0.58352505  0.58481853  1
  O  O136  1  0.43924992  0.25019172  0.91815186  1
  O  O137  1  0.43924992  0.75019172  0.91815186  1
  O  O138  1  0.93924992  0.25019172  0.91815186  1
  O  O139  1  0.93924992  0.75019172  0.91815186  1
  O  O140  1  0.27258325  0.41685838  1.25148520  1
  O  O141  1  0.27258325  0.91685838  1.25148520  1
  O  O142  1  0.77258325  0.41685838  1.25148520  1
  O  O143  1  0.77258325  0.91685838  1.25148520  1
  O  O144  1  -0.10591659  -0.08352505  0.41518147  1
  O  O145  1  -0.10591659  0.41647495  0.41518147  1
  O  O146  1  0.39408341  -0.08352505  0.41518147  1
  O  O147  1  0.39408341  0.41647495  0.41518147  1
  O  O148  1  0.22741675  0.08314162  0.74851480  1
  O  O149  1  0.22741675  0.58314162  0.74851480  1
  O  O150  1  0.72741675  0.08314162  0.74851480  1
  O  O151  1  0.72741675  0.58314162  0.74851480  1
  O  O152  1  0.06075008  0.24980828  1.08184814  1
  O  O153  1  0.06075008  0.74980828  1.08184814  1
  O  O154  1  0.56075008  0.24980828  1.08184814  1
  O  O155  1  0.56075008  0.74980828  1.08184814  1
  O  O156  1  0.04190683  0.21006056  0.57983102  1
  O  O157  1  0.04190683  0.71006056  0.57983102  1
  O  O158  1  0.54190683  0.21006056  0.57983102  1
  O  O159  1  0.54190683  0.71006056  0.57983102  1
  O  O160  1  0.37524016  0.37672723  0.91316436  1
  O  O161  1  0.37524016  0.87672723  0.91316436  1
  O  O162  1  0.87524016  0.37672723  0.91316436  1
  O  O163  1  0.87524016  0.87672723  0.91316436  1
  O  O164  1  0.20857350  0.54339390  1.24649769  1
  O  O165  1  0.20857350  1.04339390  1.24649769  1
  O  O166  1  0.70857350  0.54339390  1.24649769  1
  O  O167  1  0.70857350  1.04339390  1.24649769  1
  O  O168  1  0.02239153  0.10591659  0.41518147  1
  O  O169  1  0.02239153  0.60591659  0.41518147  1
  O  O170  1  0.52239153  0.10591659  0.41518147  1
  O  O171  1  0.52239153  0.60591659  0.41518147  1
  O  O172  1  0.35572487  0.27258325  0.74851480  1
  O  O173  1  0.35572487  0.77258325  0.74851480  1
  O  O174  1  0.85572487  0.27258325  0.74851480  1
  O  O175  1  0.85572487  0.77258325  0.74851480  1
  O  O176  1  0.18905820  0.43924992  1.08184814  1
  O  O177  1  0.18905820  0.93924992  1.08184814  1
  O  O178  1  0.68905820  0.43924992  1.08184814  1
  O  O179  1  0.68905820  0.93924992  1.08184814  1
  O  O180  1  0.08352505  -0.02239153  0.41518147  1
  O  O181  1  0.08352505  0.47760847  0.41518147  1
  O  O182  1  0.58352505  -0.02239153  0.41518147  1
  O  O183  1  0.58352505  0.47760847  0.41518147  1
  O  O184  1  0.41685838  0.14427513  0.74851480  1
  O  O185  1  0.41685838  0.64427513  0.74851480  1
  O  O186  1  0.91685838  0.14427513  0.74851480  1
  O  O187  1  0.91685838  0.64427513  0.74851480  1
  O  O188  1  0.25019172  0.31094180  1.08184814  1
  O  O189  1  0.25019172  0.81094180  1.08184814  1
  O  O190  1  0.75019172  0.31094180  1.08184814  1
  O  O191  1  0.75019172  0.81094180  1.08184814  1
  O  O192  1  -0.21006056  -0.16815373  0.57983102  1
  O  O193  1  -0.21006056  0.33184627  0.57983102  1
  O  O194  1  0.28993944  -0.16815373  0.57983102  1
  O  O195  1  0.28993944  0.33184627  0.57983102  1
  O  O196  1  0.12327277  -0.00148707  0.91316436  1
  O  O197  1  0.12327277  0.49851293  0.91316436  1
  O  O198  1  0.62327277  -0.00148707  0.91316436  1
  O  O199  1  0.62327277  0.49851293  0.91316436  1
  O  O200  1  -0.04339390  0.16517960  1.24649769  1
  O  O201  1  -0.04339390  0.66517960  1.24649769  1
  O  O202  1  0.45660610  0.16517960  1.24649769  1
  O  O203  1  0.45660610  0.66517960  1.24649769  1
  O  O204  1  0.16815373  -0.04190683  0.57983102  1
  O  O205  1  0.16815373  0.45809317  0.57983102  1
  O  O206  1  0.66815373  -0.04190683  0.57983102  1
  O  O207  1  0.66815373  0.45809317  0.57983102  1
  O  O208  1  0.50148707  0.12475984  0.91316436  1
  O  O209  1  0.50148707  0.62475984  0.91316436  1
  O  O210  1  1.00148707  0.12475984  0.91316436  1
  O  O211  1  1.00148707  0.62475984  0.91316436  1
  O  O212  1  0.33482040  0.29142650  1.24649769  1
  O  O213  1  0.33482040  0.79142650  1.24649769  1
  O  O214  1  0.83482040  0.29142650  1.24649769  1
  O  O215  1  0.83482040  0.79142650  1.24649769  1
  O  O216  1  0.21006056  0.16815373  0.42016898  1
  O  O217  1  0.21006056  0.66815373  0.42016898  1
  O  O218  1  0.71006056  0.16815373  0.42016898  1
  O  O219  1  0.71006056  0.66815373  0.42016898  1
  O  O220  1  0.54339390  0.33482040  0.75350231  1
  O  O221  1  0.54339390  0.83482040  0.75350231  1
  O  O222  1  1.04339390  0.33482040  0.75350231  1
  O  O223  1  1.04339390  0.83482040  0.75350231  1
  O  O224  1  0.37672723  0.50148707  1.08683564  1
  O  O225  1  0.37672723  1.00148707  1.08683564  1
  O  O226  1  0.87672723  0.50148707  1.08683564  1
  O  O227  1  0.87672723  1.00148707  1.08683564  1
  O  O228  1  -0.16815373  0.04190683  0.42016898  1
  O  O229  1  -0.16815373  0.54190683  0.42016898  1
  O  O230  1  0.33184627  0.04190683  0.42016898  1
  O  O231  1  0.33184627  0.54190683  0.42016898  1
  O  O232  1  0.16517960  0.20857350  0.75350231  1
  O  O233  1  0.16517960  0.70857350  0.75350231  1
  O  O234  1  0.66517960  0.20857350  0.75350231  1
  O  O235  1  0.66517960  0.70857350  0.75350231  1
  O  O236  1  -0.00148707  0.37524016  1.08683564  1
  O  O237  1  -0.00148707  0.87524016  1.08683564  1
  O  O238  1  0.49851293  0.37524016  1.08683564  1
  O  O239  1  0.49851293  0.87524016  1.08683564  1
  O  O240  1  -0.04190683  -0.21006056  0.42016898  1
  O  O241  1  -0.04190683  0.28993944  0.42016898  1
  O  O242  1  0.45809317  -0.21006056  0.42016898  1
  O  O243  1  0.45809317  0.28993944  0.42016898  1
  O  O244  1  0.29142650  -0.04339390  0.75350231  1
  O  O245  1  0.29142650  0.45660610  0.75350231  1
  O  O246  1  0.79142650  -0.04339390  0.75350231  1
  O  O247  1  0.79142650  0.45660610  0.75350231  1
  O  O248  1  0.12475984  0.12327277  1.08683564  1
  O  O249  1  0.12475984  0.62327277  1.08683564  1
  O  O250  1  0.62475984  0.12327277  1.08683564  1
  O  O251  1  0.62475984  0.62327277  1.08683564  1
