# generated using pymatgen
data_Sr2SiO4
_symmetry_space_group_name_H-M   'P 1'
_cell_length_a   11.32911363
_cell_length_b   14.13967515
_cell_length_c   10.94939611
_cell_angle_alpha   90.00000000
_cell_angle_beta   117.65896865
_cell_angle_gamma   90.00000000
_symmetry_Int_Tables_number   1
_chemical_formula_structural   Sr2SiO4
_chemical_formula_sum   'Sr32 Si16 O64'
_cell_volume   1553.54939437
_cell_formula_units_Z   16
loop_
 _symmetry_equiv_pos_site_id
 _symmetry_equiv_pos_as_xyz
  1  'x, y, z'
loop_
 _atom_site_type_symbol
 _atom_site_label
 _atom_site_symmetry_multiplicity
 _atom_site_fract_x
 _atom_site_fract_y
 _atom_site_fract_z
 _atom_site_occupancy
  Sr  Sr0  1  0.01390375  0.25001548  0.80256773  1
  Sr  Sr1  1  0.01390375  0.75001548  0.80256773  1
  Sr  Sr2  1  0.51390375  0.25001548  0.80256773  1
  Sr  Sr3  1  0.51390375  0.75001548  0.80256773  1
  Sr  Sr4  1  0.48609625  0.00001548  0.69743227  1
  Sr  Sr5  1  0.48609625  0.50001548  0.69743227  1
  Sr  Sr6  1  0.98609625  0.00001548  0.69743227  1
  Sr  Sr7  1  0.98609625  0.50001548  0.69743227  1
  Sr  Sr8  1  0.48609625  0.24998452  0.19743227  1
  Sr  Sr9  1  0.48609625  0.74998452  0.19743227  1
  Sr  Sr10  1  0.98609625  0.24998452  0.19743227  1
  Sr  Sr11  1  0.98609625  0.74998452  0.19743227  1
  Sr  Sr12  1  0.01390375  0.49998452  0.30256773  1
  Sr  Sr13  1  0.01390375  0.99998452  0.30256773  1
  Sr  Sr14  1  0.51390375  0.49998452  0.30256773  1
  Sr  Sr15  1  0.51390375  0.99998452  0.30256773  1
  Sr  Sr16  1  0.15570231  0.07851976  0.07572852  1
  Sr  Sr17  1  0.15570231  0.57851976  0.07572852  1
  Sr  Sr18  1  0.65570231  0.07851976  0.07572852  1
  Sr  Sr19  1  0.65570231  0.57851976  0.07572852  1
  Sr  Sr20  1  0.34429769  0.32851976  0.42427148  1
  Sr  Sr21  1  0.34429769  0.82851976  0.42427148  1
  Sr  Sr22  1  0.84429769  0.32851976  0.42427148  1
  Sr  Sr23  1  0.84429769  0.82851976  0.42427148  1
  Sr  Sr24  1  0.34429769  0.42148024  0.92427148  1
  Sr  Sr25  1  0.34429769  0.92148024  0.92427148  1
  Sr  Sr26  1  0.84429769  0.42148024  0.92427148  1
  Sr  Sr27  1  0.84429769  0.92148024  0.92427148  1
  Sr  Sr28  1  0.15570231  0.17148024  0.57572852  1
  Sr  Sr29  1  0.15570231  0.67148024  0.57572852  1
  Sr  Sr30  1  0.65570231  0.17148024  0.57572852  1
  Sr  Sr31  1  0.65570231  0.67148024  0.57572852  1
  Si  Si32  1  0.16996118  0.36040131  0.08121920  1
  Si  Si33  1  0.16996118  0.86040131  0.08121920  1
  Si  Si34  1  0.66996118  0.36040131  0.08121920  1
  Si  Si35  1  0.66996118  0.86040131  0.08121920  1
  Si  Si36  1  0.33003882  0.11040131  0.41878080  1
  Si  Si37  1  0.33003882  0.61040131  0.41878080  1
  Si  Si38  1  0.83003882  0.11040131  0.41878080  1
  Si  Si39  1  0.83003882  0.61040131  0.41878080  1
  Si  Si40  1  0.33003882  0.13959869  0.91878080  1
  Si  Si41  1  0.33003882  0.63959869  0.91878080  1
  Si  Si42  1  0.83003882  0.13959869  0.91878080  1
  Si  Si43  1  0.83003882  0.63959869  0.91878080  1
  Si  Si44  1  0.16996118  0.38959869  0.58121920  1
  Si  Si45  1  0.16996118  0.88959869  0.58121920  1
  Si  Si46  1  0.66996118  0.38959869  0.58121920  1
  Si  Si47  1  0.66996118  0.88959869  0.58121920  1
  O  O48  1  0.32836058  0.38348620  0.18006410  1
  O  O49  1  0.32836058  0.88348620  0.18006410  1
  O  O50  1  0.82836058  0.38348620  0.18006410  1
  O  O51  1  0.82836058  0.88348620  0.18006410  1
  O  O52  1  0.17163942  0.13348620  0.31993590  1
  O  O53  1  0.17163942  0.63348620  0.31993590  1
  O  O54  1  0.67163942  0.13348620  0.31993590  1
  O  O55  1  0.67163942  0.63348620  0.31993590  1
  O  O56  1  0.17163942  0.11651380  0.81993590  1
  O  O57  1  0.17163942  0.61651380  0.81993590  1
  O  O58  1  0.67163942  0.11651380  0.81993590  1
  O  O59  1  0.67163942  0.61651380  0.81993590  1
  O  O60  1  0.32836058  0.36651380  0.68006410  1
  O  O61  1  0.32836058  0.86651380  0.68006410  1
  O  O62  1  0.82836058  0.36651380  0.68006410  1
  O  O63  1  0.82836058  0.86651380  0.68006410  1
  O  O64  1  0.07596011  0.41228136  0.14030836  1
  O  O65  1  0.07596011  0.91228136  0.14030836  1
  O  O66  1  0.57596011  0.41228136  0.14030836  1
  O  O67  1  0.57596011  0.91228136  0.14030836  1
  O  O68  1  0.42403989  0.16228136  0.35969164  1
  O  O69  1  0.42403989  0.66228136  0.35969164  1
  O  O70  1  0.92403989  0.16228136  0.35969164  1
  O  O71  1  0.92403989  0.66228136  0.35969164  1
  O  O72  1  0.42403989  0.08771864  0.85969164  1
  O  O73  1  0.42403989  0.58771864  0.85969164  1
  O  O74  1  0.92403989  0.08771864  0.85969164  1
  O  O75  1  0.92403989  0.58771864  0.85969164  1
  O  O76  1  0.07596011  0.33771864  0.64030836  1
  O  O77  1  0.07596011  0.83771864  0.64030836  1
  O  O78  1  0.57596011  0.33771864  0.64030836  1
  O  O79  1  0.57596011  0.83771864  0.64030836  1
  O  O80  1  0.12330664  0.40979956  0.92807702  1
  O  O81  1  0.12330664  0.90979956  0.92807702  1
  O  O82  1  0.62330664  0.40979956  0.92807702  1
  O  O83  1  0.62330664  0.90979956  0.92807702  1
  O  O84  1  0.37669336  0.15979956  0.57192298  1
  O  O85  1  0.37669336  0.65979956  0.57192298  1
  O  O86  1  0.87669336  0.15979956  0.57192298  1
  O  O87  1  0.87669336  0.65979956  0.57192298  1
  O  O88  1  0.37669336  0.09020044  0.07192298  1
  O  O89  1  0.37669336  0.59020044  0.07192298  1
  O  O90  1  0.87669336  0.09020044  0.07192298  1
  O  O91  1  0.87669336  0.59020044  0.07192298  1
  O  O92  1  0.12330664  0.34020044  0.42807702  1
  O  O93  1  0.12330664  0.84020044  0.42807702  1
  O  O94  1  0.62330664  0.34020044  0.42807702  1
  O  O95  1  0.62330664  0.84020044  0.42807702  1
  O  O96  1  0.14384586  0.00311716  0.56886417  1
  O  O97  1  0.14384586  0.50311716  0.56886417  1
  O  O98  1  0.64384586  0.00311716  0.56886417  1
  O  O99  1  0.64384586  0.50311716  0.56886417  1
  O  O100  1  0.35615414  0.25311716  0.93113583  1
  O  O101  1  0.35615414  0.75311716  0.93113583  1
  O  O102  1  0.85615414  0.25311716  0.93113583  1
  O  O103  1  0.85615414  0.75311716  0.93113583  1
  O  O104  1  0.35615414  0.49688284  0.43113583  1
  O  O105  1  0.35615414  0.99688284  0.43113583  1
  O  O106  1  0.85615414  0.49688284  0.43113583  1
  O  O107  1  0.85615414  0.99688284  0.43113583  1
  O  O108  1  0.14384586  0.24688284  0.06886417  1
  O  O109  1  0.14384586  0.74688284  0.06886417  1
  O  O110  1  0.64384586  0.24688284  0.06886417  1
  O  O111  1  0.64384586  0.74688284  0.06886417  1
