# generated using pymatgen
data_RbLiZn2O3
_symmetry_space_group_name_H-M   'P 1'
_cell_length_a   10.16674995
_cell_length_b   10.16674995
_cell_length_c   10.14565970
_cell_angle_alpha   90.00000000
_cell_angle_beta   90.00000000
_cell_angle_gamma   90.00000000
_symmetry_Int_Tables_number   1
_chemical_formula_structural   RbLiZn2O3
_chemical_formula_sum   'Rb12 Li12 Zn24 O36'
_cell_volume   1048.68384040
_cell_formula_units_Z   12
loop_
 _symmetry_equiv_pos_site_id
 _symmetry_equiv_pos_as_xyz
  1  'x, y, z'
loop_
 _atom_site_type_symbol
 _atom_site_label
 _atom_site_symmetry_multiplicity
 _atom_site_fract_x
 _atom_site_fract_y
 _atom_site_fract_z
 _atom_site_occupancy
  Rb  Rb0  1  0.39059840  0.39059840  0.00000000  1
  Rb  Rb1  1  0.39059840  0.39059840  0.33333333  1
  Rb  Rb2  1  0.39059840  0.39059840  0.66666667  1
  Rb  Rb3  1  0.89059840  0.10940160  0.16666667  1
  Rb  Rb4  1  0.89059840  0.10940160  0.50000000  1
  Rb  Rb5  1  0.89059840  0.10940160  0.83333333  1
  Rb  Rb6  1  0.10940160  0.89059840  0.16666667  1
  Rb  Rb7  1  0.10940160  0.89059840  0.50000000  1
  Rb  Rb8  1  0.10940160  0.89059840  0.83333333  1
  Rb  Rb9  1  0.60940160  0.60940160  0.00000000  1
  Rb  Rb10  1  0.60940160  0.60940160  0.33333333  1
  Rb  Rb11  1  0.60940160  0.60940160  0.66666667  1
  Li  Li12  1  0.79770395  0.79770395  0.16666667  1
  Li  Li13  1  0.79770395  0.79770395  0.50000000  1
  Li  Li14  1  0.79770395  0.79770395  0.83333333  1
  Li  Li15  1  0.20229605  0.20229605  0.16666667  1
  Li  Li16  1  0.20229605  0.20229605  0.50000000  1
  Li  Li17  1  0.20229605  0.20229605  0.83333333  1
  Li  Li18  1  0.29770395  0.70229605  0.00000000  1
  Li  Li19  1  0.29770395  0.70229605  0.33333333  1
  Li  Li20  1  0.29770395  0.70229605  0.66666667  1
  Li  Li21  1  0.70229605  0.29770395  0.00000000  1
  Li  Li22  1  0.70229605  0.29770395  0.33333333  1
  Li  Li23  1  0.70229605  0.29770395  0.66666667  1
  Zn  Zn24  1  0.32917506  0.07389559  0.00000000  1
  Zn  Zn25  1  0.32917506  0.07389559  0.33333333  1
  Zn  Zn26  1  0.32917506  0.07389559  0.66666667  1
  Zn  Zn27  1  0.67082494  0.92610441  0.00000000  1
  Zn  Zn28  1  0.67082494  0.92610441  0.33333333  1
  Zn  Zn29  1  0.67082494  0.92610441  0.66666667  1
  Zn  Zn30  1  0.42610441  0.82917506  0.16666667  1
  Zn  Zn31  1  0.42610441  0.82917506  0.50000000  1
  Zn  Zn32  1  0.42610441  0.82917506  0.83333333  1
  Zn  Zn33  1  0.57389559  0.17082494  0.16666667  1
  Zn  Zn34  1  0.57389559  0.17082494  0.50000000  1
  Zn  Zn35  1  0.57389559  0.17082494  0.83333333  1
  Zn  Zn36  1  0.07389559  0.32917506  0.00000000  1
  Zn  Zn37  1  0.07389559  0.32917506  0.33333333  1
  Zn  Zn38  1  0.07389559  0.32917506  0.66666667  1
  Zn  Zn39  1  0.82917506  0.42610441  0.16666667  1
  Zn  Zn40  1  0.82917506  0.42610441  0.50000000  1
  Zn  Zn41  1  0.82917506  0.42610441  0.83333333  1
  Zn  Zn42  1  0.17082494  0.57389559  0.16666667  1
  Zn  Zn43  1  0.17082494  0.57389559  0.50000000  1
  Zn  Zn44  1  0.17082494  0.57389559  0.83333333  1
  Zn  Zn45  1  0.92610441  0.67082494  0.00000000  1
  Zn  Zn46  1  0.92610441  0.67082494  0.33333333  1
  Zn  Zn47  1  0.92610441  0.67082494  0.66666667  1
  O  O48  1  0.38751977  0.15284650  0.16666667  1
  O  O49  1  0.38751977  0.15284650  0.50000000  1
  O  O50  1  0.38751977  0.15284650  0.83333333  1
  O  O51  1  0.84715350  0.61248023  0.16666667  1
  O  O52  1  0.84715350  0.61248023  0.50000000  1
  O  O53  1  0.84715350  0.61248023  0.83333333  1
  O  O54  1  0.15284650  0.38751977  0.16666667  1
  O  O55  1  0.15284650  0.38751977  0.50000000  1
  O  O56  1  0.15284650  0.38751977  0.83333333  1
  O  O57  1  0.88751977  0.34715350  0.00000000  1
  O  O58  1  0.88751977  0.34715350  0.33333333  1
  O  O59  1  0.88751977  0.34715350  0.66666667  1
  O  O60  1  0.85780678  0.85780678  0.00000000  1
  O  O61  1  0.85780678  0.85780678  0.33333333  1
  O  O62  1  0.85780678  0.85780678  0.66666667  1
  O  O63  1  0.35780678  0.64219322  0.16666667  1
  O  O64  1  0.35780678  0.64219322  0.50000000  1
  O  O65  1  0.35780678  0.64219322  0.83333333  1
  O  O66  1  0.64219322  0.35780678  0.16666667  1
  O  O67  1  0.64219322  0.35780678  0.50000000  1
  O  O68  1  0.64219322  0.35780678  0.83333333  1
  O  O69  1  0.14219322  0.14219322  0.00000000  1
  O  O70  1  0.14219322  0.14219322  0.33333333  1
  O  O71  1  0.14219322  0.14219322  0.66666667  1
  O  O72  1  0.61248023  0.84715350  0.16666667  1
  O  O73  1  0.61248023  0.84715350  0.50000000  1
  O  O74  1  0.61248023  0.84715350  0.83333333  1
  O  O75  1  0.65284650  0.11248023  0.00000000  1
  O  O76  1  0.65284650  0.11248023  0.33333333  1
  O  O77  1  0.65284650  0.11248023  0.66666667  1
  O  O78  1  0.34715350  0.88751977  0.00000000  1
  O  O79  1  0.34715350  0.88751977  0.33333333  1
  O  O80  1  0.34715350  0.88751977  0.66666667  1
  O  O81  1  0.11248023  0.65284650  0.00000000  1
  O  O82  1  0.11248023  0.65284650  0.33333333  1
  O  O83  1  0.11248023  0.65284650  0.66666667  1
