# generated using pymatgen
data_GePbO3
_symmetry_space_group_name_H-M   'P 1'
_cell_length_a   15.64133542
_cell_length_b   15.64133542
_cell_length_c   14.51044805
_cell_angle_alpha   90.00000000
_cell_angle_beta   90.00000000
_cell_angle_gamma   120.00000000
_symmetry_Int_Tables_number   1
_chemical_formula_structural   GePbO3
_chemical_formula_sum   'Ge36 Pb36 O108'
_cell_volume   3074.39109135
_cell_formula_units_Z   36
loop_
 _symmetry_equiv_pos_site_id
 _symmetry_equiv_pos_as_xyz
  1  'x, y, z'
loop_
 _atom_site_type_symbol
 _atom_site_label
 _atom_site_symmetry_multiplicity
 _atom_site_fract_x
 _atom_site_fract_y
 _atom_site_fract_z
 _atom_site_occupancy
  Ge  Ge0  1  -0.22159334  -0.04418999  0.23733333  1
  Ge  Ge1  1  -0.22159334  -0.04418999  0.73733333  1
  Ge  Ge2  1  0.44507333  0.28914334  0.40400000  1
  Ge  Ge3  1  0.44507333  0.28914334  0.90400000  1
  Ge  Ge4  1  0.11174000  0.62247668  0.57066666  1
  Ge  Ge5  1  0.11174000  0.62247668  1.07066666  1
  Ge  Ge6  1  0.04418999  -0.17740335  0.23733333  1
  Ge  Ge7  1  0.04418999  -0.17740335  0.73733333  1
  Ge  Ge8  1  0.71085666  0.15592999  0.40400000  1
  Ge  Ge9  1  0.71085666  0.15592999  0.90400000  1
  Ge  Ge10  1  0.37752332  0.48926332  0.57066666  1
  Ge  Ge11  1  0.37752332  0.48926332  1.07066666  1
  Ge  Ge12  1  0.22159334  0.04418999  0.26266667  1
  Ge  Ge13  1  0.22159334  0.04418999  0.76266667  1
  Ge  Ge14  1  0.88826000  0.37752332  0.42933334  1
  Ge  Ge15  1  0.88826000  0.37752332  0.92933334  1
  Ge  Ge16  1  0.55492667  0.71085666  0.59600000  1
  Ge  Ge17  1  0.55492667  0.71085666  1.09600000  1
  Ge  Ge18  1  -0.17740335  -0.22159334  0.26266667  1
  Ge  Ge19  1  -0.17740335  -0.22159334  0.76266667  1
  Ge  Ge20  1  0.48926332  0.11174000  0.42933334  1
  Ge  Ge21  1  0.48926332  0.11174000  0.92933334  1
  Ge  Ge22  1  0.15592999  0.44507333  0.59600000  1
  Ge  Ge23  1  0.15592999  0.44507333  1.09600000  1
  Ge  Ge24  1  -0.04418999  0.17740335  0.26266667  1
  Ge  Ge25  1  -0.04418999  0.17740335  0.76266667  1
  Ge  Ge26  1  0.62247668  0.51073668  0.42933334  1
  Ge  Ge27  1  0.62247668  0.51073668  0.92933334  1
  Ge  Ge28  1  0.28914334  0.84407001  0.59600000  1
  Ge  Ge29  1  0.28914334  0.84407001  1.09600000  1
  Ge  Ge30  1  0.17740335  0.22159334  0.23733333  1
  Ge  Ge31  1  0.17740335  0.22159334  0.73733333  1
  Ge  Ge32  1  0.84407001  0.55492667  0.40400000  1
  Ge  Ge33  1  0.84407001  0.55492667  0.90400000  1
  Ge  Ge34  1  0.51073668  0.88826000  0.57066666  1
  Ge  Ge35  1  0.51073668  0.88826000  1.07066666  1
  Pb  Pb36  1  -0.41339371  -0.28639281  0.35486270  1
  Pb  Pb37  1  -0.41339371  -0.28639281  0.85486270  1
  Pb  Pb38  1  0.25327295  0.04694053  0.52152937  1
  Pb  Pb39  1  0.25327295  0.04694053  1.02152937  1
  Pb  Pb40  1  -0.08006038  0.38027386  0.68819603  1
  Pb  Pb41  1  -0.08006038  0.38027386  1.18819603  1
  Pb  Pb42  1  -0.12700090  -0.41339371  0.14513730  1
  Pb  Pb43  1  -0.12700090  -0.41339371  0.64513730  1
  Pb  Pb44  1  0.53966576  -0.08006038  0.31180397  1
  Pb  Pb45  1  0.53966576  -0.08006038  0.81180397  1
  Pb  Pb46  1  0.20633243  0.25327295  0.47847063  1
  Pb  Pb47  1  0.20633243  0.25327295  0.97847063  1
  Pb  Pb48  1  -0.28639281  0.12700090  0.14513730  1
  Pb  Pb49  1  -0.28639281  0.12700090  0.64513730  1
  Pb  Pb50  1  0.38027386  0.46033424  0.31180397  1
  Pb  Pb51  1  0.38027386  0.46033424  0.81180397  1
  Pb  Pb52  1  0.04694053  0.79366757  0.47847063  1
  Pb  Pb53  1  0.04694053  0.79366757  0.97847063  1
  Pb  Pb54  1  0.12700090  0.41339371  0.35486270  1
  Pb  Pb55  1  0.12700090  0.41339371  0.85486270  1
  Pb  Pb56  1  0.79366757  0.74672705  0.52152937  1
  Pb  Pb57  1  0.79366757  0.74672705  1.02152937  1
  Pb  Pb58  1  0.46033424  1.08006038  0.68819603  1
  Pb  Pb59  1  0.46033424  1.08006038  1.18819603  1
  Pb  Pb60  1  0.41339371  0.28639281  0.14513730  1
  Pb  Pb61  1  0.41339371  0.28639281  0.64513730  1
  Pb  Pb62  1  1.08006038  0.61972614  0.31180397  1
  Pb  Pb63  1  1.08006038  0.61972614  0.81180397  1
  Pb  Pb64  1  0.74672705  0.95305947  0.47847063  1
  Pb  Pb65  1  0.74672705  0.95305947  0.97847063  1
  Pb  Pb66  1  0.28639281  -0.12700090  0.35486270  1
  Pb  Pb67  1  0.28639281  -0.12700090  0.85486270  1
  Pb  Pb68  1  0.95305947  0.20633243  0.52152937  1
  Pb  Pb69  1  0.95305947  0.20633243  1.02152937  1
  Pb  Pb70  1  0.61972614  0.53966576  0.68819603  1
  Pb  Pb71  1  0.61972614  0.53966576  1.18819603  1
  O  O72  1  -0.17838550  -0.12452202  0.19544058  1
  O  O73  1  -0.17838550  -0.12452202  0.69544058  1
  O  O74  1  0.48828117  0.20881131  0.36210724  1
  O  O75  1  0.48828117  0.20881131  0.86210724  1
  O  O76  1  0.15494783  0.54214465  0.52877391  1
  O  O77  1  0.15494783  0.54214465  1.02877391  1
  O  O78  1  -0.31969217  -0.10627156  0.31728911  1
  O  O79  1  -0.31969217  -0.10627156  0.81728911  1
  O  O80  1  0.34697450  0.22706177  0.48395578  1
  O  O81  1  0.34697450  0.22706177  0.98395578  1
  O  O82  1  0.01364116  0.56039511  0.65062244  1
  O  O83  1  0.01364116  0.56039511  1.15062244  1
  O  O84  1  0.25355908  0.25386455  0.13846841  1
  O  O85  1  0.25355908  0.25386455  0.63846841  1
  O  O86  1  0.92022575  0.58719788  0.30513508  1
  O  O87  1  0.92022575  0.58719788  0.80513508  1
  O  O88  1  0.58689242  0.92053121  0.47180174  1
  O  O89  1  0.58689242  0.92053121  0.97180174  1
  O  O90  1  -0.10627156  0.21342061  0.18271089  1
  O  O91  1  -0.10627156  0.21342061  0.68271089  1
  O  O92  1  0.56039511  0.54675394  0.34937756  1
  O  O93  1  0.56039511  0.54675394  0.84937756  1
  O  O94  1  0.22706177  0.88008728  0.51604422  1
  O  O95  1  0.22706177  0.88008728  1.01604422  1
  O  O96  1  0.25386455  0.00030546  0.36153159  1
  O  O97  1  0.25386455  0.00030546  0.86153159  1
  O  O98  1  0.92053121  0.33363880  0.52819826  1
  O  O99  1  0.92053121  0.33363880  1.02819826  1
  O  O100  1  0.58719788  0.66697213  0.69486492  1
  O  O101  1  0.58719788  0.66697213  1.19486492  1
  O  O102  1  0.05386348  0.17838550  0.19544058  1
  O  O103  1  0.05386348  0.17838550  0.69544058  1
  O  O104  1  0.72053015  0.51171883  0.36210724  1
  O  O105  1  0.72053015  0.51171883  0.86210724  1
  O  O106  1  0.38719682  0.84505217  0.52877391  1
  O  O107  1  0.38719682  0.84505217  1.02877391  1
  O  O108  1  0.21342061  0.31969217  0.31728911  1
  O  O109  1  0.21342061  0.31969217  0.81728911  1
  O  O110  1  0.88008728  0.65302550  0.48395578  1
  O  O111  1  0.88008728  0.65302550  0.98395578  1
  O  O112  1  0.54675394  0.98635884  0.65062244  1
  O  O113  1  0.54675394  0.98635884  1.15062244  1
  O  O114  1  -0.25386455  -0.00030546  0.13846841  1
  O  O115  1  -0.25386455  -0.00030546  0.63846841  1
  O  O116  1  0.41280212  0.33302787  0.30513508  1
  O  O117  1  0.41280212  0.33302787  0.80513508  1
  O  O118  1  0.07946879  0.66636120  0.47180174  1
  O  O119  1  0.07946879  0.66636120  0.97180174  1
  O  O120  1  0.31969217  0.10627156  0.18271089  1
  O  O121  1  0.31969217  0.10627156  0.68271089  1
  O  O122  1  0.98635884  0.43960489  0.34937756  1
  O  O123  1  0.98635884  0.43960489  0.84937756  1
  O  O124  1  0.65302550  0.77293823  0.51604422  1
  O  O125  1  0.65302550  0.77293823  1.01604422  1
  O  O126  1  0.10627156  -0.21342061  0.31728911  1
  O  O127  1  0.10627156  -0.21342061  0.81728911  1
  O  O128  1  0.77293823  0.11991272  0.48395578  1
  O  O129  1  0.77293823  0.11991272  0.98395578  1
  O  O130  1  0.43960489  0.45324606  0.65062244  1
  O  O131  1  0.43960489  0.45324606  1.15062244  1
  O  O132  1  0.12452202  -0.05386348  0.19544058  1
  O  O133  1  0.12452202  -0.05386348  0.69544058  1
  O  O134  1  0.79118869  0.27946985  0.36210724  1
  O  O135  1  0.79118869  0.27946985  0.86210724  1
  O  O136  1  0.45785535  0.61280318  0.52877391  1
  O  O137  1  0.45785535  0.61280318  1.02877391  1
  O  O138  1  -0.12452202  0.05386348  0.30455942  1
  O  O139  1  -0.12452202  0.05386348  0.80455942  1
  O  O140  1  0.54214465  0.38719682  0.47122609  1
  O  O141  1  0.54214465  0.38719682  0.97122609  1
  O  O142  1  0.20881131  0.72053015  0.63789276  1
  O  O143  1  0.20881131  0.72053015  1.13789276  1
  O  O144  1  -0.00030546  0.25355908  0.36153159  1
  O  O145  1  -0.00030546  0.25355908  0.86153159  1
  O  O146  1  0.66636120  0.58689242  0.52819826  1
  O  O147  1  0.66636120  0.58689242  1.02819826  1
  O  O148  1  0.33302787  0.92022575  0.69486492  1
  O  O149  1  0.33302787  0.92022575  1.19486492  1
  O  O150  1  -0.05386348  -0.17838550  0.30455942  1
  O  O151  1  -0.05386348  -0.17838550  0.80455942  1
  O  O152  1  0.61280318  0.15494783  0.47122609  1
  O  O153  1  0.61280318  0.15494783  0.97122609  1
  O  O154  1  0.27946985  0.48828117  0.63789276  1
  O  O155  1  0.27946985  0.48828117  1.13789276  1
  O  O156  1  -0.21342061  -0.31969217  0.18271089  1
  O  O157  1  -0.21342061  -0.31969217  0.68271089  1
  O  O158  1  0.45324606  0.01364116  0.34937756  1
  O  O159  1  0.45324606  0.01364116  0.84937756  1
  O  O160  1  0.11991272  0.34697450  0.51604422  1
  O  O161  1  0.11991272  0.34697450  1.01604422  1
  O  O162  1  0.17838550  0.12452202  0.30455942  1
  O  O163  1  0.17838550  0.12452202  0.80455942  1
  O  O164  1  0.84505217  0.45785535  0.47122609  1
  O  O165  1  0.84505217  0.45785535  0.97122609  1
  O  O166  1  0.51171883  0.79118869  0.63789276  1
  O  O167  1  0.51171883  0.79118869  1.13789276  1
  O  O168  1  -0.25355908  -0.25386455  0.36153159  1
  O  O169  1  -0.25355908  -0.25386455  0.86153159  1
  O  O170  1  0.41310758  0.07946879  0.52819826  1
  O  O171  1  0.41310758  0.07946879  1.02819826  1
  O  O172  1  0.07977425  0.41280212  0.69486492  1
  O  O173  1  0.07977425  0.41280212  1.19486492  1
  O  O174  1  0.00030546  -0.25355908  0.13846841  1
  O  O175  1  0.00030546  -0.25355908  0.63846841  1
  O  O176  1  0.66697213  0.07977425  0.30513508  1
  O  O177  1  0.66697213  0.07977425  0.80513508  1
  O  O178  1  0.33363880  0.41310758  0.47180174  1
  O  O179  1  0.33363880  0.41310758  0.97180174  1
