# generated using pymatgen
data_KNbO3
_symmetry_space_group_name_H-M   'P 1'
_cell_length_a   17.14062881
_cell_length_b   17.14062881
_cell_length_c   14.04655880
_cell_angle_alpha   90.00000000
_cell_angle_beta   90.00000000
_cell_angle_gamma   120.00000000
_symmetry_Int_Tables_number   1
_chemical_formula_structural   KNbO3
_chemical_formula_sum   'K54 Nb54 O162'
_cell_volume   3573.99609490
_cell_formula_units_Z   54
loop_
 _symmetry_equiv_pos_site_id
 _symmetry_equiv_pos_as_xyz
  1  'x, y, z'
loop_
 _atom_site_type_symbol
 _atom_site_label
 _atom_site_symmetry_multiplicity
 _atom_site_fract_x
 _atom_site_fract_y
 _atom_site_fract_z
 _atom_site_occupancy
  K  K0  1  -0.00000000  -0.00000000  0.49285486  1
  K  K1  1  -0.00000000  -0.00000000  0.99285486  1
  K  K2  1  0.00000000  0.33333333  0.49285486  1
  K  K3  1  0.00000000  0.33333333  0.99285486  1
  K  K4  1  0.00000000  0.66666667  0.49285486  1
  K  K5  1  0.00000000  0.66666667  0.99285486  1
  K  K6  1  0.33333333  -0.00000000  0.49285486  1
  K  K7  1  0.33333333  -0.00000000  0.99285486  1
  K  K8  1  0.33333333  0.33333333  0.49285486  1
  K  K9  1  0.33333333  0.33333333  0.99285486  1
  K  K10  1  0.33333333  0.66666667  0.49285486  1
  K  K11  1  0.33333333  0.66666667  0.99285486  1
  K  K12  1  0.66666667  -0.00000000  0.49285486  1
  K  K13  1  0.66666667  -0.00000000  0.99285486  1
  K  K14  1  0.66666667  0.33333333  0.49285486  1
  K  K15  1  0.66666667  0.33333333  0.99285486  1
  K  K16  1  0.66666667  0.66666667  0.49285486  1
  K  K17  1  0.66666667  0.66666667  0.99285486  1
  K  K18  1  0.22222222  0.11111111  0.65952153  1
  K  K19  1  0.22222222  0.11111111  1.15952153  1
  K  K20  1  0.22222222  0.44444444  0.65952153  1
  K  K21  1  0.22222222  0.44444444  1.15952153  1
  K  K22  1  0.22222222  0.77777778  0.65952153  1
  K  K23  1  0.22222222  0.77777778  1.15952153  1
  K  K24  1  0.55555556  0.11111111  0.65952153  1
  K  K25  1  0.55555556  0.11111111  1.15952153  1
  K  K26  1  0.55555556  0.44444444  0.65952153  1
  K  K27  1  0.55555556  0.44444444  1.15952153  1
  K  K28  1  0.55555556  0.77777778  0.65952153  1
  K  K29  1  0.55555556  0.77777778  1.15952153  1
  K  K30  1  0.88888889  0.11111111  0.65952153  1
  K  K31  1  0.88888889  0.11111111  1.15952153  1
  K  K32  1  0.88888889  0.44444444  0.65952153  1
  K  K33  1  0.88888889  0.44444444  1.15952153  1
  K  K34  1  0.88888889  0.77777778  0.65952153  1
  K  K35  1  0.88888889  0.77777778  1.15952153  1
  K  K36  1  0.11111111  0.22222222  0.82618820  1
  K  K37  1  0.11111111  0.22222222  1.32618820  1
  K  K38  1  0.11111111  0.55555556  0.82618820  1
  K  K39  1  0.11111111  0.55555556  1.32618820  1
  K  K40  1  0.11111111  0.88888889  0.82618820  1
  K  K41  1  0.11111111  0.88888889  1.32618820  1
  K  K42  1  0.44444444  0.22222222  0.82618820  1
  K  K43  1  0.44444444  0.22222222  1.32618820  1
  K  K44  1  0.44444444  0.55555556  0.82618820  1
  K  K45  1  0.44444444  0.55555556  1.32618820  1
  K  K46  1  0.44444444  0.88888889  0.82618820  1
  K  K47  1  0.44444444  0.88888889  1.32618820  1
  K  K48  1  0.77777778  0.22222222  0.82618820  1
  K  K49  1  0.77777778  0.22222222  1.32618820  1
  K  K50  1  0.77777778  0.55555556  0.82618820  1
  K  K51  1  0.77777778  0.55555556  1.32618820  1
  K  K52  1  0.77777778  0.88888889  0.82618820  1
  K  K53  1  0.77777778  0.88888889  1.32618820  1
  Nb  Nb54  1  -0.00000000  -0.00000000  0.24895332  1
  Nb  Nb55  1  -0.00000000  -0.00000000  0.74895332  1
  Nb  Nb56  1  0.00000000  0.33333333  0.24895332  1
  Nb  Nb57  1  0.00000000  0.33333333  0.74895332  1
  Nb  Nb58  1  0.00000000  0.66666667  0.24895332  1
  Nb  Nb59  1  0.00000000  0.66666667  0.74895332  1
  Nb  Nb60  1  0.33333333  -0.00000000  0.24895332  1
  Nb  Nb61  1  0.33333333  -0.00000000  0.74895332  1
  Nb  Nb62  1  0.33333333  0.33333333  0.24895332  1
  Nb  Nb63  1  0.33333333  0.33333333  0.74895332  1
  Nb  Nb64  1  0.33333333  0.66666667  0.24895332  1
  Nb  Nb65  1  0.33333333  0.66666667  0.74895332  1
  Nb  Nb66  1  0.66666667  -0.00000000  0.24895332  1
  Nb  Nb67  1  0.66666667  -0.00000000  0.74895332  1
  Nb  Nb68  1  0.66666667  0.33333333  0.24895332  1
  Nb  Nb69  1  0.66666667  0.33333333  0.74895332  1
  Nb  Nb70  1  0.66666667  0.66666667  0.24895332  1
  Nb  Nb71  1  0.66666667  0.66666667  0.74895332  1
  Nb  Nb72  1  0.22222222  0.11111111  0.41561998  1
  Nb  Nb73  1  0.22222222  0.11111111  0.91561998  1
  Nb  Nb74  1  0.22222222  0.44444444  0.41561998  1
  Nb  Nb75  1  0.22222222  0.44444444  0.91561998  1
  Nb  Nb76  1  0.22222222  0.77777778  0.41561998  1
  Nb  Nb77  1  0.22222222  0.77777778  0.91561998  1
  Nb  Nb78  1  0.55555556  0.11111111  0.41561998  1
  Nb  Nb79  1  0.55555556  0.11111111  0.91561998  1
  Nb  Nb80  1  0.55555556  0.44444444  0.41561998  1
  Nb  Nb81  1  0.55555556  0.44444444  0.91561998  1
  Nb  Nb82  1  0.55555556  0.77777778  0.41561998  1
  Nb  Nb83  1  0.55555556  0.77777778  0.91561998  1
  Nb  Nb84  1  0.88888889  0.11111111  0.41561998  1
  Nb  Nb85  1  0.88888889  0.11111111  0.91561998  1
  Nb  Nb86  1  0.88888889  0.44444444  0.41561998  1
  Nb  Nb87  1  0.88888889  0.44444444  0.91561998  1
  Nb  Nb88  1  0.88888889  0.77777778  0.41561998  1
  Nb  Nb89  1  0.88888889  0.77777778  0.91561998  1
  Nb  Nb90  1  0.11111111  0.22222222  0.58228665  1
  Nb  Nb91  1  0.11111111  0.22222222  1.08228665  1
  Nb  Nb92  1  0.11111111  0.55555556  0.58228665  1
  Nb  Nb93  1  0.11111111  0.55555556  1.08228665  1
  Nb  Nb94  1  0.11111111  0.88888889  0.58228665  1
  Nb  Nb95  1  0.11111111  0.88888889  1.08228665  1
  Nb  Nb96  1  0.44444444  0.22222222  0.58228665  1
  Nb  Nb97  1  0.44444444  0.22222222  1.08228665  1
  Nb  Nb98  1  0.44444444  0.55555556  0.58228665  1
  Nb  Nb99  1  0.44444444  0.55555556  1.08228665  1
  Nb  Nb100  1  0.44444444  0.88888889  0.58228665  1
  Nb  Nb101  1  0.44444444  0.88888889  1.08228665  1
  Nb  Nb102  1  0.77777778  0.22222222  0.58228665  1
  Nb  Nb103  1  0.77777778  0.22222222  1.08228665  1
  Nb  Nb104  1  0.77777778  0.55555556  0.58228665  1
  Nb  Nb105  1  0.77777778  0.55555556  1.08228665  1
  Nb  Nb106  1  0.77777778  0.88888889  0.58228665  1
  Nb  Nb107  1  0.77777778  0.88888889  1.08228665  1
  O  O108  1  -0.05550686  0.05550686  0.31831377  1
  O  O109  1  -0.05550686  0.05550686  0.81831377  1
  O  O110  1  -0.05550686  0.38884020  0.31831377  1
  O  O111  1  -0.05550686  0.38884020  0.81831377  1
  O  O112  1  -0.05550686  0.72217353  0.31831377  1
  O  O113  1  -0.05550686  0.72217353  0.81831377  1
  O  O114  1  0.27782647  0.05550686  0.31831377  1
  O  O115  1  0.27782647  0.05550686  0.81831377  1
  O  O116  1  0.27782647  0.38884020  0.31831377  1
  O  O117  1  0.27782647  0.38884020  0.81831377  1
  O  O118  1  0.27782647  0.72217353  0.31831377  1
  O  O119  1  0.27782647  0.72217353  0.81831377  1
  O  O120  1  0.61115980  0.05550686  0.31831377  1
  O  O121  1  0.61115980  0.05550686  0.81831377  1
  O  O122  1  0.61115980  0.38884020  0.31831377  1
  O  O123  1  0.61115980  0.38884020  0.81831377  1
  O  O124  1  0.61115980  0.72217353  0.31831377  1
  O  O125  1  0.61115980  0.72217353  0.81831377  1
  O  O126  1  0.16671536  0.16661798  0.48498044  1
  O  O127  1  0.16671536  0.16661798  0.98498044  1
  O  O128  1  0.16671536  0.49995131  0.48498044  1
  O  O129  1  0.16671536  0.49995131  0.98498044  1
  O  O130  1  0.16671536  0.83328464  0.48498044  1
  O  O131  1  0.16671536  0.83328464  0.98498044  1
  O  O132  1  0.50004869  0.16661798  0.48498044  1
  O  O133  1  0.50004869  0.16661798  0.98498044  1
  O  O134  1  0.50004869  0.49995131  0.48498044  1
  O  O135  1  0.50004869  0.49995131  0.98498044  1
  O  O136  1  0.50004869  0.83328464  0.48498044  1
  O  O137  1  0.50004869  0.83328464  0.98498044  1
  O  O138  1  0.83338202  0.16661798  0.48498044  1
  O  O139  1  0.83338202  0.16661798  0.98498044  1
  O  O140  1  0.83338202  0.49995131  0.48498044  1
  O  O141  1  0.83338202  0.49995131  0.98498044  1
  O  O142  1  0.83338202  0.83328464  0.48498044  1
  O  O143  1  0.83338202  0.83328464  0.98498044  1
  O  O144  1  0.05560425  0.27772909  0.65164711  1
  O  O145  1  0.05560425  0.27772909  1.15164711  1
  O  O146  1  0.05560425  0.61106242  0.65164711  1
  O  O147  1  0.05560425  0.61106242  1.15164711  1
  O  O148  1  0.05560425  0.94439575  0.65164711  1
  O  O149  1  0.05560425  0.94439575  1.15164711  1
  O  O150  1  0.38893758  0.27772909  0.65164711  1
  O  O151  1  0.38893758  0.27772909  1.15164711  1
  O  O152  1  0.38893758  0.61106242  0.65164711  1
  O  O153  1  0.38893758  0.61106242  1.15164711  1
  O  O154  1  0.38893758  0.94439575  0.65164711  1
  O  O155  1  0.38893758  0.94439575  1.15164711  1
  O  O156  1  0.72227091  0.27772909  0.65164711  1
  O  O157  1  0.72227091  0.27772909  1.15164711  1
  O  O158  1  0.72227091  0.61106242  0.65164711  1
  O  O159  1  0.72227091  0.61106242  1.15164711  1
  O  O160  1  0.72227091  0.94439575  0.65164711  1
  O  O161  1  0.72227091  0.94439575  1.15164711  1
  O  O162  1  0.11101373  0.05550686  0.31831377  1
  O  O163  1  0.11101373  0.05550686  0.81831377  1
  O  O164  1  0.11101373  0.38884020  0.31831377  1
  O  O165  1  0.11101373  0.38884020  0.81831377  1
  O  O166  1  0.11101373  0.72217353  0.31831377  1
  O  O167  1  0.11101373  0.72217353  0.81831377  1
  O  O168  1  0.44434706  0.05550686  0.31831377  1
  O  O169  1  0.44434706  0.05550686  0.81831377  1
  O  O170  1  0.44434706  0.38884020  0.31831377  1
  O  O171  1  0.44434706  0.38884020  0.81831377  1
  O  O172  1  0.44434706  0.72217353  0.31831377  1
  O  O173  1  0.44434706  0.72217353  0.81831377  1
  O  O174  1  0.77768040  0.05550686  0.31831377  1
  O  O175  1  0.77768040  0.05550686  0.81831377  1
  O  O176  1  0.77768040  0.38884020  0.31831377  1
  O  O177  1  0.77768040  0.38884020  0.81831377  1
  O  O178  1  0.77768040  0.72217353  0.31831377  1
  O  O179  1  0.77768040  0.72217353  0.81831377  1
  O  O180  1  0.33323595  0.16661798  0.48498044  1
  O  O181  1  0.33323595  0.16661798  0.98498044  1
  O  O182  1  0.33323595  0.49995131  0.48498044  1
  O  O183  1  0.33323595  0.49995131  0.98498044  1
  O  O184  1  0.33323595  0.83328464  0.48498044  1
  O  O185  1  0.33323595  0.83328464  0.98498044  1
  O  O186  1  0.66656928  0.16661798  0.48498044  1
  O  O187  1  0.66656928  0.16661798  0.98498044  1
  O  O188  1  0.66656928  0.49995131  0.48498044  1
  O  O189  1  0.66656928  0.49995131  0.98498044  1
  O  O190  1  0.66656928  0.83328464  0.48498044  1
  O  O191  1  0.66656928  0.83328464  0.98498044  1
  O  O192  1  0.99990262  0.16661798  0.48498044  1
  O  O193  1  0.99990262  0.16661798  0.98498044  1
  O  O194  1  0.99990262  0.49995131  0.48498044  1
  O  O195  1  0.99990262  0.49995131  0.98498044  1
  O  O196  1  0.99990262  0.83328464  0.48498044  1
  O  O197  1  0.99990262  0.83328464  0.98498044  1
  O  O198  1  0.22212484  0.27772909  0.65164711  1
  O  O199  1  0.22212484  0.27772909  1.15164711  1
  O  O200  1  0.22212484  0.61106242  0.65164711  1
  O  O201  1  0.22212484  0.61106242  1.15164711  1
  O  O202  1  0.22212484  0.94439575  0.65164711  1
  O  O203  1  0.22212484  0.94439575  1.15164711  1
  O  O204  1  0.55545817  0.27772909  0.65164711  1
  O  O205  1  0.55545817  0.27772909  1.15164711  1
  O  O206  1  0.55545817  0.61106242  0.65164711  1
  O  O207  1  0.55545817  0.61106242  1.15164711  1
  O  O208  1  0.55545817  0.94439575  0.65164711  1
  O  O209  1  0.55545817  0.94439575  1.15164711  1
  O  O210  1  0.88879151  0.27772909  0.65164711  1
  O  O211  1  0.88879151  0.27772909  1.15164711  1
  O  O212  1  0.88879151  0.61106242  0.65164711  1
  O  O213  1  0.88879151  0.61106242  1.15164711  1
  O  O214  1  0.88879151  0.94439575  0.65164711  1
  O  O215  1  0.88879151  0.94439575  1.15164711  1
  O  O216  1  -0.05550686  -0.11101373  0.31831377  1
  O  O217  1  -0.05550686  -0.11101373  0.81831377  1
  O  O218  1  -0.05550686  0.22231960  0.31831377  1
  O  O219  1  -0.05550686  0.22231960  0.81831377  1
  O  O220  1  -0.05550686  0.55565294  0.31831377  1
  O  O221  1  -0.05550686  0.55565294  0.81831377  1
  O  O222  1  0.27782647  -0.11101373  0.31831377  1
  O  O223  1  0.27782647  -0.11101373  0.81831377  1
  O  O224  1  0.27782647  0.22231960  0.31831377  1
  O  O225  1  0.27782647  0.22231960  0.81831377  1
  O  O226  1  0.27782647  0.55565294  0.31831377  1
  O  O227  1  0.27782647  0.55565294  0.81831377  1
  O  O228  1  0.61115980  -0.11101373  0.31831377  1
  O  O229  1  0.61115980  -0.11101373  0.81831377  1
  O  O230  1  0.61115980  0.22231960  0.31831377  1
  O  O231  1  0.61115980  0.22231960  0.81831377  1
  O  O232  1  0.61115980  0.55565294  0.31831377  1
  O  O233  1  0.61115980  0.55565294  0.81831377  1
  O  O234  1  0.16671536  0.00009738  0.48498044  1
  O  O235  1  0.16671536  0.00009738  0.98498044  1
  O  O236  1  0.16671536  0.33343072  0.48498044  1
  O  O237  1  0.16671536  0.33343072  0.98498044  1
  O  O238  1  0.16671536  0.66676405  0.48498044  1
  O  O239  1  0.16671536  0.66676405  0.98498044  1
  O  O240  1  0.50004869  0.00009738  0.48498044  1
  O  O241  1  0.50004869  0.00009738  0.98498044  1
  O  O242  1  0.50004869  0.33343072  0.48498044  1
  O  O243  1  0.50004869  0.33343072  0.98498044  1
  O  O244  1  0.50004869  0.66676405  0.48498044  1
  O  O245  1  0.50004869  0.66676405  0.98498044  1
  O  O246  1  0.83338202  0.00009738  0.48498044  1
  O  O247  1  0.83338202  0.00009738  0.98498044  1
  O  O248  1  0.83338202  0.33343072  0.48498044  1
  O  O249  1  0.83338202  0.33343072  0.98498044  1
  O  O250  1  0.83338202  0.66676405  0.48498044  1
  O  O251  1  0.83338202  0.66676405  0.98498044  1
  O  O252  1  0.05560425  0.11120849  0.65164711  1
  O  O253  1  0.05560425  0.11120849  1.15164711  1
  O  O254  1  0.05560425  0.44454183  0.65164711  1
  O  O255  1  0.05560425  0.44454183  1.15164711  1
  O  O256  1  0.05560425  0.77787516  0.65164711  1
  O  O257  1  0.05560425  0.77787516  1.15164711  1
  O  O258  1  0.38893758  0.11120849  0.65164711  1
  O  O259  1  0.38893758  0.11120849  1.15164711  1
  O  O260  1  0.38893758  0.44454183  0.65164711  1
  O  O261  1  0.38893758  0.44454183  1.15164711  1
  O  O262  1  0.38893758  0.77787516  0.65164711  1
  O  O263  1  0.38893758  0.77787516  1.15164711  1
  O  O264  1  0.72227091  0.11120849  0.65164711  1
  O  O265  1  0.72227091  0.11120849  1.15164711  1
  O  O266  1  0.72227091  0.44454183  0.65164711  1
  O  O267  1  0.72227091  0.44454183  1.15164711  1
  O  O268  1  0.72227091  0.77787516  0.65164711  1
  O  O269  1  0.72227091  0.77787516  1.15164711  1
