# generated using pymatgen
data_Mg2GeO4
_symmetry_space_group_name_H-M   'P 1'
_cell_length_a   10.31462920
_cell_length_b   12.07538804
_cell_length_c   9.89530843
_cell_angle_alpha   90.00000000
_cell_angle_beta   90.00000000
_cell_angle_gamma   90.00000000
_symmetry_Int_Tables_number   1
_chemical_formula_structural   Mg2GeO4
_chemical_formula_sum   'Mg32 Ge16 O64'
_cell_volume   1232.49183584
_cell_formula_units_Z   16
loop_
 _symmetry_equiv_pos_site_id
 _symmetry_equiv_pos_as_xyz
  1  'x, y, z'
loop_
 _atom_site_type_symbol
 _atom_site_label
 _atom_site_symmetry_multiplicity
 _atom_site_fract_x
 _atom_site_fract_y
 _atom_site_fract_z
 _atom_site_occupancy
  Mg  Mg0  1  0.00000000  0.00000000  0.00000000  1
  Mg  Mg1  1  0.00000000  0.00000000  0.50000000  1
  Mg  Mg2  1  0.00000000  0.50000000  0.00000000  1
  Mg  Mg3  1  0.00000000  0.50000000  0.50000000  1
  Mg  Mg4  1  0.50000000  0.00000000  0.25000000  1
  Mg  Mg5  1  0.50000000  0.00000000  0.75000000  1
  Mg  Mg6  1  0.50000000  0.50000000  0.25000000  1
  Mg  Mg7  1  0.50000000  0.50000000  0.75000000  1
  Mg  Mg8  1  0.00000000  0.25000000  0.00000000  1
  Mg  Mg9  1  0.00000000  0.25000000  0.50000000  1
  Mg  Mg10  1  0.00000000  0.75000000  0.00000000  1
  Mg  Mg11  1  0.00000000  0.75000000  0.50000000  1
  Mg  Mg12  1  0.50000000  0.25000000  0.25000000  1
  Mg  Mg13  1  0.50000000  0.25000000  0.75000000  1
  Mg  Mg14  1  0.50000000  0.75000000  0.25000000  1
  Mg  Mg15  1  0.50000000  0.75000000  0.75000000  1
  Mg  Mg16  1  0.22456536  0.37500000  0.24672078  1
  Mg  Mg17  1  0.22456536  0.37500000  0.74672078  1
  Mg  Mg18  1  0.22456536  0.87500000  0.24672078  1
  Mg  Mg19  1  0.22456536  0.87500000  0.74672078  1
  Mg  Mg20  1  0.27543464  0.12500000  0.49672078  1
  Mg  Mg21  1  0.27543464  0.12500000  0.99672078  1
  Mg  Mg22  1  0.27543464  0.62500000  0.49672078  1
  Mg  Mg23  1  0.27543464  0.62500000  0.99672078  1
  Mg  Mg24  1  0.77543464  0.12500000  0.25327922  1
  Mg  Mg25  1  0.77543464  0.12500000  0.75327922  1
  Mg  Mg26  1  0.77543464  0.62500000  0.25327922  1
  Mg  Mg27  1  0.77543464  0.62500000  0.75327922  1
  Mg  Mg28  1  0.72456536  0.37500000  0.00327922  1
  Mg  Mg29  1  0.72456536  0.37500000  0.50327922  1
  Mg  Mg30  1  0.72456536  0.87500000  0.00327922  1
  Mg  Mg31  1  0.72456536  0.87500000  0.50327922  1
  Ge  Ge32  1  0.90520596  0.37500000  0.28117089  1
  Ge  Ge33  1  0.90520596  0.37500000  0.78117089  1
  Ge  Ge34  1  0.90520596  0.87500000  0.28117089  1
  Ge  Ge35  1  0.90520596  0.87500000  0.78117089  1
  Ge  Ge36  1  0.59479404  0.12500000  0.03117089  1
  Ge  Ge37  1  0.59479404  0.12500000  0.53117089  1
  Ge  Ge38  1  0.59479404  0.62500000  0.03117089  1
  Ge  Ge39  1  0.59479404  0.62500000  0.53117089  1
  Ge  Ge40  1  0.09479404  0.12500000  0.21882911  1
  Ge  Ge41  1  0.09479404  0.12500000  0.71882911  1
  Ge  Ge42  1  0.09479404  0.62500000  0.21882911  1
  Ge  Ge43  1  0.09479404  0.62500000  0.71882911  1
  Ge  Ge44  1  0.40520596  0.37500000  0.46882911  1
  Ge  Ge45  1  0.40520596  0.37500000  0.96882911  1
  Ge  Ge46  1  0.40520596  0.87500000  0.46882911  1
  Ge  Ge47  1  0.40520596  0.87500000  0.96882911  1
  O  O48  1  0.66531184  0.24080864  0.11818029  1
  O  O49  1  0.66531184  0.24080864  0.61818029  1
  O  O50  1  0.66531184  0.74080864  0.11818029  1
  O  O51  1  0.66531184  0.74080864  0.61818029  1
  O  O52  1  0.83468816  0.25919136  0.36818029  1
  O  O53  1  0.83468816  0.25919136  0.86818029  1
  O  O54  1  0.83468816  0.75919136  0.36818029  1
  O  O55  1  0.83468816  0.75919136  0.86818029  1
  O  O56  1  0.33468816  0.49080864  0.38181971  1
  O  O57  1  0.33468816  0.49080864  0.88181971  1
  O  O58  1  0.33468816  0.99080864  0.38181971  1
  O  O59  1  0.33468816  0.99080864  0.88181971  1
  O  O60  1  0.16531184  0.00919136  0.13181971  1
  O  O61  1  0.16531184  0.00919136  0.63181971  1
  O  O62  1  0.16531184  0.50919136  0.13181971  1
  O  O63  1  0.16531184  0.50919136  0.63181971  1
  O  O64  1  0.33468816  0.25919136  0.38181971  1
  O  O65  1  0.33468816  0.25919136  0.88181971  1
  O  O66  1  0.33468816  0.75919136  0.38181971  1
  O  O67  1  0.33468816  0.75919136  0.88181971  1
  O  O68  1  0.16531184  0.24080864  0.13181971  1
  O  O69  1  0.16531184  0.24080864  0.63181971  1
  O  O70  1  0.16531184  0.74080864  0.13181971  1
  O  O71  1  0.16531184  0.74080864  0.63181971  1
  O  O72  1  0.66531184  0.00919136  0.11818029  1
  O  O73  1  0.66531184  0.00919136  0.61818029  1
  O  O74  1  0.66531184  0.50919136  0.11818029  1
  O  O75  1  0.66531184  0.50919136  0.61818029  1
  O  O76  1  0.83468816  0.49080864  0.36818029  1
  O  O77  1  0.83468816  0.49080864  0.86818029  1
  O  O78  1  0.83468816  0.99080864  0.36818029  1
  O  O79  1  0.83468816  0.99080864  0.86818029  1
  O  O80  1  0.06163428  0.37500000  0.36542849  1
  O  O81  1  0.06163428  0.37500000  0.86542849  1
  O  O82  1  0.06163428  0.87500000  0.36542849  1
  O  O83  1  0.06163428  0.87500000  0.86542849  1
  O  O84  1  0.43836572  0.12500000  0.11542849  1
  O  O85  1  0.43836572  0.12500000  0.61542849  1
  O  O86  1  0.43836572  0.62500000  0.11542849  1
  O  O87  1  0.43836572  0.62500000  0.61542849  1
  O  O88  1  0.93836572  0.12500000  0.13457151  1
  O  O89  1  0.93836572  0.12500000  0.63457151  1
  O  O90  1  0.93836572  0.62500000  0.13457151  1
  O  O91  1  0.93836572  0.62500000  0.63457151  1
  O  O92  1  0.56163428  0.37500000  0.38457151  1
  O  O93  1  0.56163428  0.37500000  0.88457151  1
  O  O94  1  0.56163428  0.87500000  0.38457151  1
  O  O95  1  0.56163428  0.87500000  0.88457151  1
  O  O96  1  0.90782961  0.37500000  0.10284625  1
  O  O97  1  0.90782961  0.37500000  0.60284625  1
  O  O98  1  0.90782961  0.87500000  0.10284625  1
  O  O99  1  0.90782961  0.87500000  0.60284625  1
  O  O100  1  0.59217039  0.12500000  0.35284625  1
  O  O101  1  0.59217039  0.12500000  0.85284625  1
  O  O102  1  0.59217039  0.62500000  0.35284625  1
  O  O103  1  0.59217039  0.62500000  0.85284625  1
  O  O104  1  0.09217039  0.12500000  0.39715375  1
  O  O105  1  0.09217039  0.12500000  0.89715375  1
  O  O106  1  0.09217039  0.62500000  0.39715375  1
  O  O107  1  0.09217039  0.62500000  0.89715375  1
  O  O108  1  0.40782961  0.37500000  0.14715375  1
  O  O109  1  0.40782961  0.37500000  0.64715375  1
  O  O110  1  0.40782961  0.87500000  0.14715375  1
  O  O111  1  0.40782961  0.87500000  0.64715375  1
