# generated using pymatgen
data_RbMgBO3
_symmetry_space_group_name_H-M   'P 1'
_cell_length_a   13.85193912
_cell_length_b   13.85193912
_cell_length_c   13.85193912
_cell_angle_alpha   90.00000000
_cell_angle_beta   90.00000000
_cell_angle_gamma   90.00000000
_symmetry_Int_Tables_number   1
_chemical_formula_structural   RbMgBO3
_chemical_formula_sum   'Rb32 Mg32 B32 O96'
_cell_volume   2657.85767894
_cell_formula_units_Z   32
loop_
 _symmetry_equiv_pos_site_id
 _symmetry_equiv_pos_as_xyz
  1  'x, y, z'
loop_
 _atom_site_type_symbol
 _atom_site_label
 _atom_site_symmetry_multiplicity
 _atom_site_fract_x
 _atom_site_fract_y
 _atom_site_fract_z
 _atom_site_occupancy
  Rb  Rb0  1  0.30429782  0.19570218  0.44570218  1
  Rb  Rb1  1  0.30429782  0.19570218  0.94570218  1
  Rb  Rb2  1  0.30429782  0.69570218  0.44570218  1
  Rb  Rb3  1  0.30429782  0.69570218  0.94570218  1
  Rb  Rb4  1  0.80429782  0.19570218  0.44570218  1
  Rb  Rb5  1  0.80429782  0.19570218  0.94570218  1
  Rb  Rb6  1  0.80429782  0.69570218  0.44570218  1
  Rb  Rb7  1  0.80429782  0.69570218  0.94570218  1
  Rb  Rb8  1  0.05429782  0.05429782  0.05429782  1
  Rb  Rb9  1  0.05429782  0.05429782  0.55429782  1
  Rb  Rb10  1  0.05429782  0.55429782  0.05429782  1
  Rb  Rb11  1  0.05429782  0.55429782  0.55429782  1
  Rb  Rb12  1  0.55429782  0.05429782  0.05429782  1
  Rb  Rb13  1  0.55429782  0.05429782  0.55429782  1
  Rb  Rb14  1  0.55429782  0.55429782  0.05429782  1
  Rb  Rb15  1  0.55429782  0.55429782  0.55429782  1
  Rb  Rb16  1  0.44570218  0.30429782  0.19570218  1
  Rb  Rb17  1  0.44570218  0.30429782  0.69570218  1
  Rb  Rb18  1  0.44570218  0.80429782  0.19570218  1
  Rb  Rb19  1  0.44570218  0.80429782  0.69570218  1
  Rb  Rb20  1  0.94570218  0.30429782  0.19570218  1
  Rb  Rb21  1  0.94570218  0.30429782  0.69570218  1
  Rb  Rb22  1  0.94570218  0.80429782  0.19570218  1
  Rb  Rb23  1  0.94570218  0.80429782  0.69570218  1
  Rb  Rb24  1  0.19570218  0.44570218  0.30429782  1
  Rb  Rb25  1  0.19570218  0.44570218  0.80429782  1
  Rb  Rb26  1  0.19570218  0.94570218  0.30429782  1
  Rb  Rb27  1  0.19570218  0.94570218  0.80429782  1
  Rb  Rb28  1  0.69570218  0.44570218  0.30429782  1
  Rb  Rb29  1  0.69570218  0.44570218  0.80429782  1
  Rb  Rb30  1  0.69570218  0.94570218  0.30429782  1
  Rb  Rb31  1  0.69570218  0.94570218  0.80429782  1
  Mg  Mg32  1  0.05480328  0.30480328  0.44519672  1
  Mg  Mg33  1  0.05480328  0.30480328  0.94519672  1
  Mg  Mg34  1  0.05480328  0.80480328  0.44519672  1
  Mg  Mg35  1  0.05480328  0.80480328  0.94519672  1
  Mg  Mg36  1  0.55480328  0.30480328  0.44519672  1
  Mg  Mg37  1  0.55480328  0.30480328  0.94519672  1
  Mg  Mg38  1  0.55480328  0.80480328  0.44519672  1
  Mg  Mg39  1  0.55480328  0.80480328  0.94519672  1
  Mg  Mg40  1  0.30480328  0.44519672  0.05480328  1
  Mg  Mg41  1  0.30480328  0.44519672  0.55480328  1
  Mg  Mg42  1  0.30480328  0.94519672  0.05480328  1
  Mg  Mg43  1  0.30480328  0.94519672  0.55480328  1
  Mg  Mg44  1  0.80480328  0.44519672  0.05480328  1
  Mg  Mg45  1  0.80480328  0.44519672  0.55480328  1
  Mg  Mg46  1  0.80480328  0.94519672  0.05480328  1
  Mg  Mg47  1  0.80480328  0.94519672  0.55480328  1
  Mg  Mg48  1  0.44519672  0.05480328  0.30480328  1
  Mg  Mg49  1  0.44519672  0.05480328  0.80480328  1
  Mg  Mg50  1  0.44519672  0.55480328  0.30480328  1
  Mg  Mg51  1  0.44519672  0.55480328  0.80480328  1
  Mg  Mg52  1  0.94519672  0.05480328  0.30480328  1
  Mg  Mg53  1  0.94519672  0.05480328  0.80480328  1
  Mg  Mg54  1  0.94519672  0.55480328  0.30480328  1
  Mg  Mg55  1  0.94519672  0.55480328  0.80480328  1
  Mg  Mg56  1  0.19519672  0.19519672  0.19519672  1
  Mg  Mg57  1  0.19519672  0.19519672  0.69519672  1
  Mg  Mg58  1  0.19519672  0.69519672  0.19519672  1
  Mg  Mg59  1  0.19519672  0.69519672  0.69519672  1
  Mg  Mg60  1  0.69519672  0.19519672  0.19519672  1
  Mg  Mg61  1  0.69519672  0.19519672  0.69519672  1
  Mg  Mg62  1  0.69519672  0.69519672  0.19519672  1
  Mg  Mg63  1  0.69519672  0.69519672  0.69519672  1
  B  B64  1  0.07386860  0.17613140  0.32386860  1
  B  B65  1  0.07386860  0.17613140  0.82386860  1
  B  B66  1  0.07386860  0.67613140  0.32386860  1
  B  B67  1  0.07386860  0.67613140  0.82386860  1
  B  B68  1  0.57386860  0.17613140  0.32386860  1
  B  B69  1  0.57386860  0.17613140  0.82386860  1
  B  B70  1  0.57386860  0.67613140  0.32386860  1
  B  B71  1  0.57386860  0.67613140  0.82386860  1
  B  B72  1  0.17613140  0.32386860  0.07386860  1
  B  B73  1  0.17613140  0.32386860  0.57386860  1
  B  B74  1  0.17613140  0.82386860  0.07386860  1
  B  B75  1  0.17613140  0.82386860  0.57386860  1
  B  B76  1  0.67613140  0.32386860  0.07386860  1
  B  B77  1  0.67613140  0.32386860  0.57386860  1
  B  B78  1  0.67613140  0.82386860  0.07386860  1
  B  B79  1  0.67613140  0.82386860  0.57386860  1
  B  B80  1  0.42613140  0.42613140  0.42613140  1
  B  B81  1  0.42613140  0.42613140  0.92613140  1
  B  B82  1  0.42613140  0.92613140  0.42613140  1
  B  B83  1  0.42613140  0.92613140  0.92613140  1
  B  B84  1  0.92613140  0.42613140  0.42613140  1
  B  B85  1  0.92613140  0.42613140  0.92613140  1
  B  B86  1  0.92613140  0.92613140  0.42613140  1
  B  B87  1  0.92613140  0.92613140  0.92613140  1
  B  B88  1  0.32386860  0.07386860  0.17613140  1
  B  B89  1  0.32386860  0.07386860  0.67613140  1
  B  B90  1  0.32386860  0.57386860  0.17613140  1
  B  B91  1  0.32386860  0.57386860  0.67613140  1
  B  B92  1  0.82386860  0.07386860  0.17613140  1
  B  B93  1  0.82386860  0.07386860  0.67613140  1
  B  B94  1  0.82386860  0.57386860  0.17613140  1
  B  B95  1  0.82386860  0.57386860  0.67613140  1
  O  O96  1  0.49995706  0.17280646  0.39068962  1
  O  O97  1  0.49995706  0.17280646  0.89068962  1
  O  O98  1  0.49995706  0.67280646  0.39068962  1
  O  O99  1  0.49995706  0.67280646  0.89068962  1
  O  O100  1  0.99995706  0.17280646  0.39068962  1
  O  O101  1  0.99995706  0.17280646  0.89068962  1
  O  O102  1  0.99995706  0.67280646  0.39068962  1
  O  O103  1  0.99995706  0.67280646  0.89068962  1
  O  O104  1  0.10931038  0.24995706  0.07719354  1
  O  O105  1  0.10931038  0.24995706  0.57719354  1
  O  O106  1  0.10931038  0.74995706  0.07719354  1
  O  O107  1  0.10931038  0.74995706  0.57719354  1
  O  O108  1  0.60931038  0.24995706  0.07719354  1
  O  O109  1  0.60931038  0.24995706  0.57719354  1
  O  O110  1  0.60931038  0.74995706  0.07719354  1
  O  O111  1  0.60931038  0.74995706  0.57719354  1
  O  O112  1  0.42280646  0.35931038  0.00004294  1
  O  O113  1  0.42280646  0.35931038  0.50004294  1
  O  O114  1  0.42280646  0.85931038  0.00004294  1
  O  O115  1  0.42280646  0.85931038  0.50004294  1
  O  O116  1  0.92280646  0.35931038  0.00004294  1
  O  O117  1  0.92280646  0.35931038  0.50004294  1
  O  O118  1  0.92280646  0.85931038  0.00004294  1
  O  O119  1  0.92280646  0.85931038  0.50004294  1
  O  O120  1  0.24995706  0.07719354  0.10931038  1
  O  O121  1  0.24995706  0.07719354  0.60931038  1
  O  O122  1  0.24995706  0.57719354  0.10931038  1
  O  O123  1  0.24995706  0.57719354  0.60931038  1
  O  O124  1  0.74995706  0.07719354  0.10931038  1
  O  O125  1  0.74995706  0.07719354  0.60931038  1
  O  O126  1  0.74995706  0.57719354  0.10931038  1
  O  O127  1  0.74995706  0.57719354  0.60931038  1
  O  O128  1  0.35931038  0.00004294  0.42280646  1
  O  O129  1  0.35931038  0.00004294  0.92280646  1
  O  O130  1  0.35931038  0.50004294  0.42280646  1
  O  O131  1  0.35931038  0.50004294  0.92280646  1
  O  O132  1  0.85931038  0.00004294  0.42280646  1
  O  O133  1  0.85931038  0.00004294  0.92280646  1
  O  O134  1  0.85931038  0.50004294  0.42280646  1
  O  O135  1  0.85931038  0.50004294  0.92280646  1
  O  O136  1  0.17280646  0.39068962  0.49995706  1
  O  O137  1  0.17280646  0.39068962  0.99995706  1
  O  O138  1  0.17280646  0.89068962  0.49995706  1
  O  O139  1  0.17280646  0.89068962  0.99995706  1
  O  O140  1  0.67280646  0.39068962  0.49995706  1
  O  O141  1  0.67280646  0.39068962  0.99995706  1
  O  O142  1  0.67280646  0.89068962  0.49995706  1
  O  O143  1  0.67280646  0.89068962  0.99995706  1
  O  O144  1  0.00004294  0.42280646  0.35931038  1
  O  O145  1  0.00004294  0.42280646  0.85931038  1
  O  O146  1  0.00004294  0.92280646  0.35931038  1
  O  O147  1  0.00004294  0.92280646  0.85931038  1
  O  O148  1  0.50004294  0.42280646  0.35931038  1
  O  O149  1  0.50004294  0.42280646  0.85931038  1
  O  O150  1  0.50004294  0.92280646  0.35931038  1
  O  O151  1  0.50004294  0.92280646  0.85931038  1
  O  O152  1  0.39068962  0.49995706  0.17280646  1
  O  O153  1  0.39068962  0.49995706  0.67280646  1
  O  O154  1  0.39068962  0.99995706  0.17280646  1
  O  O155  1  0.39068962  0.99995706  0.67280646  1
  O  O156  1  0.89068962  0.49995706  0.17280646  1
  O  O157  1  0.89068962  0.49995706  0.67280646  1
  O  O158  1  0.89068962  0.99995706  0.17280646  1
  O  O159  1  0.89068962  0.99995706  0.67280646  1
  O  O160  1  0.07719354  0.10931038  0.24995706  1
  O  O161  1  0.07719354  0.10931038  0.74995706  1
  O  O162  1  0.07719354  0.60931038  0.24995706  1
  O  O163  1  0.07719354  0.60931038  0.74995706  1
  O  O164  1  0.57719354  0.10931038  0.24995706  1
  O  O165  1  0.57719354  0.10931038  0.74995706  1
  O  O166  1  0.57719354  0.60931038  0.24995706  1
  O  O167  1  0.57719354  0.60931038  0.74995706  1
  O  O168  1  0.25004294  0.32719354  0.14068962  1
  O  O169  1  0.25004294  0.32719354  0.64068962  1
  O  O170  1  0.25004294  0.82719354  0.14068962  1
  O  O171  1  0.25004294  0.82719354  0.64068962  1
  O  O172  1  0.75004294  0.32719354  0.14068962  1
  O  O173  1  0.75004294  0.32719354  0.64068962  1
  O  O174  1  0.75004294  0.82719354  0.14068962  1
  O  O175  1  0.75004294  0.82719354  0.64068962  1
  O  O176  1  0.14068962  0.25004294  0.32719354  1
  O  O177  1  0.14068962  0.25004294  0.82719354  1
  O  O178  1  0.14068962  0.75004294  0.32719354  1
  O  O179  1  0.14068962  0.75004294  0.82719354  1
  O  O180  1  0.64068962  0.25004294  0.32719354  1
  O  O181  1  0.64068962  0.25004294  0.82719354  1
  O  O182  1  0.64068962  0.75004294  0.32719354  1
  O  O183  1  0.64068962  0.75004294  0.82719354  1
  O  O184  1  0.32719354  0.14068962  0.25004294  1
  O  O185  1  0.32719354  0.14068962  0.75004294  1
  O  O186  1  0.32719354  0.64068962  0.25004294  1
  O  O187  1  0.32719354  0.64068962  0.75004294  1
  O  O188  1  0.82719354  0.14068962  0.25004294  1
  O  O189  1  0.82719354  0.14068962  0.75004294  1
  O  O190  1  0.82719354  0.64068962  0.25004294  1
  O  O191  1  0.82719354  0.64068962  0.75004294  1
