# generated using pymatgen
data_K2Zr(SiO3)3
_symmetry_space_group_name_H-M   'P 1'
_cell_length_a   13.88426006
_cell_length_b   13.88426006
_cell_length_c   10.28061387
_cell_angle_alpha   90.00000000
_cell_angle_beta   90.00000000
_cell_angle_gamma   120.00000000
_symmetry_Int_Tables_number   1
_chemical_formula_structural   K2Zr(SiO3)3
_chemical_formula_sum   'K16 Zr8 Si24 O72'
_cell_volume   1716.30773108
_cell_formula_units_Z   8
loop_
 _symmetry_equiv_pos_site_id
 _symmetry_equiv_pos_as_xyz
  1  'x, y, z'
loop_
 _atom_site_type_symbol
 _atom_site_label
 _atom_site_symmetry_multiplicity
 _atom_site_fract_x
 _atom_site_fract_y
 _atom_site_fract_z
 _atom_site_occupancy
  K  K0  1  0.33333333  0.16666667  0.55462446  1
  K  K1  1  0.33333333  0.66666667  0.55462446  1
  K  K2  1  0.83333333  0.16666667  0.55462446  1
  K  K3  1  0.83333333  0.66666667  0.55462446  1
  K  K4  1  0.16666667  0.33333333  0.05462446  1
  K  K5  1  0.16666667  0.83333333  0.05462446  1
  K  K6  1  0.66666667  0.33333333  0.05462446  1
  K  K7  1  0.66666667  0.83333333  0.05462446  1
  K  K8  1  0.33333333  0.16666667  0.94537554  1
  K  K9  1  0.33333333  0.66666667  0.94537554  1
  K  K10  1  0.83333333  0.16666667  0.94537554  1
  K  K11  1  0.83333333  0.66666667  0.94537554  1
  K  K12  1  0.16666667  0.33333333  0.44537554  1
  K  K13  1  0.16666667  0.83333333  0.44537554  1
  K  K14  1  0.66666667  0.33333333  0.44537554  1
  K  K15  1  0.66666667  0.83333333  0.44537554  1
  Zr  Zr16  1  0.00000000  0.00000000  0.50000000  1
  Zr  Zr17  1  -0.00000000  0.50000000  0.50000000  1
  Zr  Zr18  1  0.50000000  0.00000000  0.50000000  1
  Zr  Zr19  1  0.50000000  0.50000000  0.50000000  1
  Zr  Zr20  1  0.00000000  0.00000000  0.00000000  1
  Zr  Zr21  1  -0.00000000  0.50000000  0.00000000  1
  Zr  Zr22  1  0.50000000  0.00000000  0.00000000  1
  Zr  Zr23  1  0.50000000  0.50000000  0.00000000  1
  Si  Si24  1  0.36988195  0.06231235  0.25000000  1
  Si  Si25  1  0.36988195  0.56231235  0.25000000  1
  Si  Si26  1  0.86988195  0.06231235  0.25000000  1
  Si  Si27  1  0.86988195  0.56231235  0.25000000  1
  Si  Si28  1  0.30756961  0.36988195  0.75000000  1
  Si  Si29  1  0.30756961  0.86988195  0.75000000  1
  Si  Si30  1  0.80756961  0.36988195  0.75000000  1
  Si  Si31  1  0.80756961  0.86988195  0.75000000  1
  Si  Si32  1  0.06231235  0.19243039  0.75000000  1
  Si  Si33  1  0.06231235  0.69243039  0.75000000  1
  Si  Si34  1  0.56231235  0.19243039  0.75000000  1
  Si  Si35  1  0.56231235  0.69243039  0.75000000  1
  Si  Si36  1  0.43768765  0.30756961  0.25000000  1
  Si  Si37  1  0.43768765  0.80756961  0.25000000  1
  Si  Si38  1  0.93768765  0.30756961  0.25000000  1
  Si  Si39  1  0.93768765  0.80756961  0.25000000  1
  Si  Si40  1  0.19243039  0.13011805  0.25000000  1
  Si  Si41  1  0.19243039  0.63011805  0.25000000  1
  Si  Si42  1  0.69243039  0.13011805  0.25000000  1
  Si  Si43  1  0.69243039  0.63011805  0.25000000  1
  Si  Si44  1  0.13011805  0.43768765  0.75000000  1
  Si  Si45  1  0.13011805  0.93768765  0.75000000  1
  Si  Si46  1  0.63011805  0.43768765  0.75000000  1
  Si  Si47  1  0.63011805  0.93768765  0.75000000  1
  O  O48  1  0.11858458  0.49169681  0.88384100  1
  O  O49  1  0.11858458  0.99169681  0.88384100  1
  O  O50  1  0.61858458  0.49169681  0.88384100  1
  O  O51  1  0.61858458  0.99169681  0.88384100  1
  O  O52  1  0.12688777  0.11858458  0.38384100  1
  O  O53  1  0.12688777  0.61858458  0.38384100  1
  O  O54  1  0.62688777  0.11858458  0.38384100  1
  O  O55  1  0.62688777  0.61858458  0.38384100  1
  O  O56  1  0.49169681  0.37311223  0.38384100  1
  O  O57  1  0.49169681  0.87311223  0.38384100  1
  O  O58  1  0.99169681  0.37311223  0.38384100  1
  O  O59  1  0.99169681  0.87311223  0.38384100  1
  O  O60  1  0.00830319  0.12688777  0.88384100  1
  O  O61  1  0.00830319  0.62688777  0.88384100  1
  O  O62  1  0.50830319  0.12688777  0.88384100  1
  O  O63  1  0.50830319  0.62688777  0.88384100  1
  O  O64  1  0.37311223  0.38141542  0.88384100  1
  O  O65  1  0.37311223  0.88141542  0.88384100  1
  O  O66  1  0.87311223  0.38141542  0.88384100  1
  O  O67  1  0.87311223  0.88141542  0.88384100  1
  O  O68  1  0.38141542  0.00830319  0.38384100  1
  O  O69  1  0.38141542  0.50830319  0.38384100  1
  O  O70  1  0.88141542  0.00830319  0.38384100  1
  O  O71  1  0.88141542  0.50830319  0.38384100  1
  O  O72  1  0.38141542  0.00830319  0.11615900  1
  O  O73  1  0.38141542  0.50830319  0.11615900  1
  O  O74  1  0.88141542  0.00830319  0.11615900  1
  O  O75  1  0.88141542  0.50830319  0.11615900  1
  O  O76  1  0.37311223  0.38141542  0.61615900  1
  O  O77  1  0.37311223  0.88141542  0.61615900  1
  O  O78  1  0.87311223  0.38141542  0.61615900  1
  O  O79  1  0.87311223  0.88141542  0.61615900  1
  O  O80  1  0.00830319  0.12688777  0.61615900  1
  O  O81  1  0.00830319  0.62688777  0.61615900  1
  O  O82  1  0.50830319  0.12688777  0.61615900  1
  O  O83  1  0.50830319  0.62688777  0.61615900  1
  O  O84  1  0.49169681  0.37311223  0.11615900  1
  O  O85  1  0.49169681  0.87311223  0.11615900  1
  O  O86  1  0.99169681  0.37311223  0.11615900  1
  O  O87  1  0.99169681  0.87311223  0.11615900  1
  O  O88  1  0.12688777  0.11858458  0.11615900  1
  O  O89  1  0.12688777  0.61858458  0.11615900  1
  O  O90  1  0.62688777  0.11858458  0.11615900  1
  O  O91  1  0.62688777  0.61858458  0.11615900  1
  O  O92  1  0.11858458  0.49169681  0.61615900  1
  O  O93  1  0.11858458  0.99169681  0.61615900  1
  O  O94  1  0.61858458  0.49169681  0.61615900  1
  O  O95  1  0.61858458  0.99169681  0.61615900  1
  O  O96  1  0.04376553  0.30179261  0.75000000  1
  O  O97  1  0.04376553  0.80179261  0.75000000  1
  O  O98  1  0.54376553  0.30179261  0.75000000  1
  O  O99  1  0.54376553  0.80179261  0.75000000  1
  O  O100  1  0.24197292  0.04376553  0.25000000  1
  O  O101  1  0.24197292  0.54376553  0.25000000  1
  O  O102  1  0.74197292  0.04376553  0.25000000  1
  O  O103  1  0.74197292  0.54376553  0.25000000  1
  O  O104  1  0.30179261  0.25802708  0.25000000  1
  O  O105  1  0.30179261  0.75802708  0.25000000  1
  O  O106  1  0.80179261  0.25802708  0.25000000  1
  O  O107  1  0.80179261  0.75802708  0.25000000  1
  O  O108  1  0.19820739  0.24197292  0.75000000  1
  O  O109  1  0.19820739  0.74197292  0.75000000  1
  O  O110  1  0.69820739  0.24197292  0.75000000  1
  O  O111  1  0.69820739  0.74197292  0.75000000  1
  O  O112  1  0.25802708  0.45623447  0.75000000  1
  O  O113  1  0.25802708  0.95623447  0.75000000  1
  O  O114  1  0.75802708  0.45623447  0.75000000  1
  O  O115  1  0.75802708  0.95623447  0.75000000  1
  O  O116  1  0.45623447  0.19820739  0.25000000  1
  O  O117  1  0.45623447  0.69820739  0.25000000  1
  O  O118  1  0.95623447  0.19820739  0.25000000  1
  O  O119  1  0.95623447  0.69820739  0.25000000  1
