# generated using pymatgen
data_Na2CrO4
_symmetry_space_group_name_H-M   'P 1'
_cell_length_a   17.48339982
_cell_length_b   18.27868152
_cell_length_c   14.07900525
_cell_angle_alpha   90.00000000
_cell_angle_beta   90.00000000
_cell_angle_gamma   90.00000000
_symmetry_Int_Tables_number   1
_chemical_formula_structural   Na2CrO4
_chemical_formula_sum   'Na96 Cr48 O192'
_cell_volume   4499.27694351
_cell_formula_units_Z   48
loop_
 _symmetry_equiv_pos_site_id
 _symmetry_equiv_pos_as_xyz
  1  'x, y, z'
loop_
 _atom_site_type_symbol
 _atom_site_label
 _atom_site_symmetry_multiplicity
 _atom_site_fract_x
 _atom_site_fract_y
 _atom_site_fract_z
 _atom_site_occupancy
  Na  Na0  1  0.16666667  0.15840090  0.37500000  1
  Na  Na1  1  0.16666667  0.15840090  0.87500000  1
  Na  Na2  1  0.16666667  0.65840090  0.37500000  1
  Na  Na3  1  0.16666667  0.65840090  0.87500000  1
  Na  Na4  1  0.50000000  0.15840090  0.37500000  1
  Na  Na5  1  0.50000000  0.15840090  0.87500000  1
  Na  Na6  1  0.50000000  0.65840090  0.37500000  1
  Na  Na7  1  0.50000000  0.65840090  0.87500000  1
  Na  Na8  1  0.83333333  0.15840090  0.37500000  1
  Na  Na9  1  0.83333333  0.15840090  0.87500000  1
  Na  Na10  1  0.83333333  0.65840090  0.37500000  1
  Na  Na11  1  0.83333333  0.65840090  0.87500000  1
  Na  Na12  1  0.33333333  0.40840090  0.37500000  1
  Na  Na13  1  0.33333333  0.40840090  0.87500000  1
  Na  Na14  1  0.33333333  0.90840090  0.37500000  1
  Na  Na15  1  0.33333333  0.90840090  0.87500000  1
  Na  Na16  1  0.66666667  0.40840090  0.37500000  1
  Na  Na17  1  0.66666667  0.40840090  0.87500000  1
  Na  Na18  1  0.66666667  0.90840090  0.37500000  1
  Na  Na19  1  0.66666667  0.90840090  0.87500000  1
  Na  Na20  1  1.00000000  0.40840090  0.37500000  1
  Na  Na21  1  1.00000000  0.40840090  0.87500000  1
  Na  Na22  1  1.00000000  0.90840090  0.37500000  1
  Na  Na23  1  1.00000000  0.90840090  0.87500000  1
  Na  Na24  1  0.16666667  -0.15840090  0.12500000  1
  Na  Na25  1  0.16666667  -0.15840090  0.62500000  1
  Na  Na26  1  0.16666667  0.34159910  0.12500000  1
  Na  Na27  1  0.16666667  0.34159910  0.62500000  1
  Na  Na28  1  0.50000000  -0.15840090  0.12500000  1
  Na  Na29  1  0.50000000  -0.15840090  0.62500000  1
  Na  Na30  1  0.50000000  0.34159910  0.12500000  1
  Na  Na31  1  0.50000000  0.34159910  0.62500000  1
  Na  Na32  1  0.83333333  -0.15840090  0.12500000  1
  Na  Na33  1  0.83333333  -0.15840090  0.62500000  1
  Na  Na34  1  0.83333333  0.34159910  0.12500000  1
  Na  Na35  1  0.83333333  0.34159910  0.62500000  1
  Na  Na36  1  0.33333333  0.09159910  0.12500000  1
  Na  Na37  1  0.33333333  0.09159910  0.62500000  1
  Na  Na38  1  0.33333333  0.59159910  0.12500000  1
  Na  Na39  1  0.33333333  0.59159910  0.62500000  1
  Na  Na40  1  0.66666667  0.09159910  0.12500000  1
  Na  Na41  1  0.66666667  0.09159910  0.62500000  1
  Na  Na42  1  0.66666667  0.59159910  0.12500000  1
  Na  Na43  1  0.66666667  0.59159910  0.62500000  1
  Na  Na44  1  1.00000000  0.09159910  0.12500000  1
  Na  Na45  1  1.00000000  0.09159910  0.62500000  1
  Na  Na46  1  1.00000000  0.59159910  0.12500000  1
  Na  Na47  1  1.00000000  0.59159910  0.62500000  1
  Na  Na48  1  0.16666667  0.00000000  0.25000000  1
  Na  Na49  1  0.16666667  0.00000000  0.75000000  1
  Na  Na50  1  0.16666667  0.50000000  0.25000000  1
  Na  Na51  1  0.16666667  0.50000000  0.75000000  1
  Na  Na52  1  0.50000000  0.00000000  0.25000000  1
  Na  Na53  1  0.50000000  0.00000000  0.75000000  1
  Na  Na54  1  0.50000000  0.50000000  0.25000000  1
  Na  Na55  1  0.50000000  0.50000000  0.75000000  1
  Na  Na56  1  0.83333333  0.00000000  0.25000000  1
  Na  Na57  1  0.83333333  0.00000000  0.75000000  1
  Na  Na58  1  0.83333333  0.50000000  0.25000000  1
  Na  Na59  1  0.83333333  0.50000000  0.75000000  1
  Na  Na60  1  0.33333333  0.25000000  0.25000000  1
  Na  Na61  1  0.33333333  0.25000000  0.75000000  1
  Na  Na62  1  0.33333333  0.75000000  0.25000000  1
  Na  Na63  1  0.33333333  0.75000000  0.75000000  1
  Na  Na64  1  0.66666667  0.25000000  0.25000000  1
  Na  Na65  1  0.66666667  0.25000000  0.75000000  1
  Na  Na66  1  0.66666667  0.75000000  0.25000000  1
  Na  Na67  1  0.66666667  0.75000000  0.75000000  1
  Na  Na68  1  1.00000000  0.25000000  0.25000000  1
  Na  Na69  1  1.00000000  0.25000000  0.75000000  1
  Na  Na70  1  1.00000000  0.75000000  0.25000000  1
  Na  Na71  1  1.00000000  0.75000000  0.75000000  1
  Na  Na72  1  0.16666667  0.00000000  0.00000000  1
  Na  Na73  1  0.16666667  0.00000000  0.50000000  1
  Na  Na74  1  0.16666667  0.50000000  0.00000000  1
  Na  Na75  1  0.16666667  0.50000000  0.50000000  1
  Na  Na76  1  0.50000000  0.00000000  0.00000000  1
  Na  Na77  1  0.50000000  0.00000000  0.50000000  1
  Na  Na78  1  0.50000000  0.50000000  0.00000000  1
  Na  Na79  1  0.50000000  0.50000000  0.50000000  1
  Na  Na80  1  0.83333333  0.00000000  0.00000000  1
  Na  Na81  1  0.83333333  0.00000000  0.50000000  1
  Na  Na82  1  0.83333333  0.50000000  0.00000000  1
  Na  Na83  1  0.83333333  0.50000000  0.50000000  1
  Na  Na84  1  0.33333333  0.25000000  0.00000000  1
  Na  Na85  1  0.33333333  0.25000000  0.50000000  1
  Na  Na86  1  0.33333333  0.75000000  0.00000000  1
  Na  Na87  1  0.33333333  0.75000000  0.50000000  1
  Na  Na88  1  0.66666667  0.25000000  0.00000000  1
  Na  Na89  1  0.66666667  0.25000000  0.50000000  1
  Na  Na90  1  0.66666667  0.75000000  0.00000000  1
  Na  Na91  1  0.66666667  0.75000000  0.50000000  1
  Na  Na92  1  1.00000000  0.25000000  0.00000000  1
  Na  Na93  1  1.00000000  0.25000000  0.50000000  1
  Na  Na94  1  1.00000000  0.75000000  0.00000000  1
  Na  Na95  1  1.00000000  0.75000000  0.50000000  1
  Cr  Cr96  1  0.16666667  -0.17707493  0.37500000  1
  Cr  Cr97  1  0.16666667  -0.17707493  0.87500000  1
  Cr  Cr98  1  0.16666667  0.32292507  0.37500000  1
  Cr  Cr99  1  0.16666667  0.32292507  0.87500000  1
  Cr  Cr100  1  0.50000000  -0.17707493  0.37500000  1
  Cr  Cr101  1  0.50000000  -0.17707493  0.87500000  1
  Cr  Cr102  1  0.50000000  0.32292507  0.37500000  1
  Cr  Cr103  1  0.50000000  0.32292507  0.87500000  1
  Cr  Cr104  1  0.83333333  -0.17707493  0.37500000  1
  Cr  Cr105  1  0.83333333  -0.17707493  0.87500000  1
  Cr  Cr106  1  0.83333333  0.32292507  0.37500000  1
  Cr  Cr107  1  0.83333333  0.32292507  0.87500000  1
  Cr  Cr108  1  0.33333333  0.07292507  0.37500000  1
  Cr  Cr109  1  0.33333333  0.07292507  0.87500000  1
  Cr  Cr110  1  0.33333333  0.57292507  0.37500000  1
  Cr  Cr111  1  0.33333333  0.57292507  0.87500000  1
  Cr  Cr112  1  0.66666667  0.07292507  0.37500000  1
  Cr  Cr113  1  0.66666667  0.07292507  0.87500000  1
  Cr  Cr114  1  0.66666667  0.57292507  0.37500000  1
  Cr  Cr115  1  0.66666667  0.57292507  0.87500000  1
  Cr  Cr116  1  1.00000000  0.07292507  0.37500000  1
  Cr  Cr117  1  1.00000000  0.07292507  0.87500000  1
  Cr  Cr118  1  1.00000000  0.57292507  0.37500000  1
  Cr  Cr119  1  1.00000000  0.57292507  0.87500000  1
  Cr  Cr120  1  0.16666667  0.17707493  0.12500000  1
  Cr  Cr121  1  0.16666667  0.17707493  0.62500000  1
  Cr  Cr122  1  0.16666667  0.67707493  0.12500000  1
  Cr  Cr123  1  0.16666667  0.67707493  0.62500000  1
  Cr  Cr124  1  0.50000000  0.17707493  0.12500000  1
  Cr  Cr125  1  0.50000000  0.17707493  0.62500000  1
  Cr  Cr126  1  0.50000000  0.67707493  0.12500000  1
  Cr  Cr127  1  0.50000000  0.67707493  0.62500000  1
  Cr  Cr128  1  0.83333333  0.17707493  0.12500000  1
  Cr  Cr129  1  0.83333333  0.17707493  0.62500000  1
  Cr  Cr130  1  0.83333333  0.67707493  0.12500000  1
  Cr  Cr131  1  0.83333333  0.67707493  0.62500000  1
  Cr  Cr132  1  0.33333333  0.42707493  0.12500000  1
  Cr  Cr133  1  0.33333333  0.42707493  0.62500000  1
  Cr  Cr134  1  0.33333333  0.92707493  0.12500000  1
  Cr  Cr135  1  0.33333333  0.92707493  0.62500000  1
  Cr  Cr136  1  0.66666667  0.42707493  0.12500000  1
  Cr  Cr137  1  0.66666667  0.42707493  0.62500000  1
  Cr  Cr138  1  0.66666667  0.92707493  0.12500000  1
  Cr  Cr139  1  0.66666667  0.92707493  0.62500000  1
  Cr  Cr140  1  1.00000000  0.42707493  0.12500000  1
  Cr  Cr141  1  1.00000000  0.42707493  0.62500000  1
  Cr  Cr142  1  1.00000000  0.92707493  0.12500000  1
  Cr  Cr143  1  1.00000000  0.92707493  0.62500000  1
  O  O144  1  0.16666667  0.12458760  0.02982762  1
  O  O145  1  0.16666667  0.12458760  0.52982762  1
  O  O146  1  0.16666667  0.62458760  0.02982762  1
  O  O147  1  0.16666667  0.62458760  0.52982762  1
  O  O148  1  0.50000000  0.12458760  0.02982762  1
  O  O149  1  0.50000000  0.12458760  0.52982762  1
  O  O150  1  0.50000000  0.62458760  0.02982762  1
  O  O151  1  0.50000000  0.62458760  0.52982762  1
  O  O152  1  0.83333333  0.12458760  0.02982762  1
  O  O153  1  0.83333333  0.12458760  0.52982762  1
  O  O154  1  0.83333333  0.62458760  0.02982762  1
  O  O155  1  0.83333333  0.62458760  0.52982762  1
  O  O156  1  0.33333333  0.37458760  0.02982762  1
  O  O157  1  0.33333333  0.37458760  0.52982762  1
  O  O158  1  0.33333333  0.87458760  0.02982762  1
  O  O159  1  0.33333333  0.87458760  0.52982762  1
  O  O160  1  0.66666667  0.37458760  0.02982762  1
  O  O161  1  0.66666667  0.37458760  0.52982762  1
  O  O162  1  0.66666667  0.87458760  0.02982762  1
  O  O163  1  0.66666667  0.87458760  0.52982762  1
  O  O164  1  1.00000000  0.37458760  0.02982762  1
  O  O165  1  1.00000000  0.37458760  0.52982762  1
  O  O166  1  1.00000000  0.87458760  0.02982762  1
  O  O167  1  1.00000000  0.87458760  0.52982762  1
  O  O168  1  0.16666667  -0.12458760  0.27982762  1
  O  O169  1  0.16666667  -0.12458760  0.77982762  1
  O  O170  1  0.16666667  0.37541240  0.27982762  1
  O  O171  1  0.16666667  0.37541240  0.77982762  1
  O  O172  1  0.50000000  -0.12458760  0.27982762  1
  O  O173  1  0.50000000  -0.12458760  0.77982762  1
  O  O174  1  0.50000000  0.37541240  0.27982762  1
  O  O175  1  0.50000000  0.37541240  0.77982762  1
  O  O176  1  0.83333333  -0.12458760  0.27982762  1
  O  O177  1  0.83333333  -0.12458760  0.77982762  1
  O  O178  1  0.83333333  0.37541240  0.27982762  1
  O  O179  1  0.83333333  0.37541240  0.77982762  1
  O  O180  1  0.33333333  0.12541240  0.27982762  1
  O  O181  1  0.33333333  0.12541240  0.77982762  1
  O  O182  1  0.33333333  0.62541240  0.27982762  1
  O  O183  1  0.33333333  0.62541240  0.77982762  1
  O  O184  1  0.66666667  0.12541240  0.27982762  1
  O  O185  1  0.66666667  0.12541240  0.77982762  1
  O  O186  1  0.66666667  0.62541240  0.27982762  1
  O  O187  1  0.66666667  0.62541240  0.77982762  1
  O  O188  1  1.00000000  0.12541240  0.27982762  1
  O  O189  1  1.00000000  0.12541240  0.77982762  1
  O  O190  1  1.00000000  0.62541240  0.27982762  1
  O  O191  1  1.00000000  0.62541240  0.77982762  1
  O  O192  1  0.16666667  -0.12458760  0.47017238  1
  O  O193  1  0.16666667  -0.12458760  0.97017238  1
  O  O194  1  0.16666667  0.37541240  0.47017238  1
  O  O195  1  0.16666667  0.37541240  0.97017238  1
  O  O196  1  0.50000000  -0.12458760  0.47017238  1
  O  O197  1  0.50000000  -0.12458760  0.97017238  1
  O  O198  1  0.50000000  0.37541240  0.47017238  1
  O  O199  1  0.50000000  0.37541240  0.97017238  1
  O  O200  1  0.83333333  -0.12458760  0.47017238  1
  O  O201  1  0.83333333  -0.12458760  0.97017238  1
  O  O202  1  0.83333333  0.37541240  0.47017238  1
  O  O203  1  0.83333333  0.37541240  0.97017238  1
  O  O204  1  0.33333333  0.12541240  0.47017238  1
  O  O205  1  0.33333333  0.12541240  0.97017238  1
  O  O206  1  0.33333333  0.62541240  0.47017238  1
  O  O207  1  0.33333333  0.62541240  0.97017238  1
  O  O208  1  0.66666667  0.12541240  0.47017238  1
  O  O209  1  0.66666667  0.12541240  0.97017238  1
  O  O210  1  0.66666667  0.62541240  0.47017238  1
  O  O211  1  0.66666667  0.62541240  0.97017238  1
  O  O212  1  1.00000000  0.12541240  0.47017238  1
  O  O213  1  1.00000000  0.12541240  0.97017238  1
  O  O214  1  1.00000000  0.62541240  0.47017238  1
  O  O215  1  1.00000000  0.62541240  0.97017238  1
  O  O216  1  0.16666667  0.12458760  0.22017238  1
  O  O217  1  0.16666667  0.12458760  0.72017238  1
  O  O218  1  0.16666667  0.62458760  0.22017238  1
  O  O219  1  0.16666667  0.62458760  0.72017238  1
  O  O220  1  0.50000000  0.12458760  0.22017238  1
  O  O221  1  0.50000000  0.12458760  0.72017238  1
  O  O222  1  0.50000000  0.62458760  0.22017238  1
  O  O223  1  0.50000000  0.62458760  0.72017238  1
  O  O224  1  0.83333333  0.12458760  0.22017238  1
  O  O225  1  0.83333333  0.12458760  0.72017238  1
  O  O226  1  0.83333333  0.62458760  0.22017238  1
  O  O227  1  0.83333333  0.62458760  0.72017238  1
  O  O228  1  0.33333333  0.37458760  0.22017238  1
  O  O229  1  0.33333333  0.37458760  0.72017238  1
  O  O230  1  0.33333333  0.87458760  0.22017238  1
  O  O231  1  0.33333333  0.87458760  0.72017238  1
  O  O232  1  0.66666667  0.37458760  0.22017238  1
  O  O233  1  0.66666667  0.37458760  0.72017238  1
  O  O234  1  0.66666667  0.87458760  0.22017238  1
  O  O235  1  0.66666667  0.87458760  0.72017238  1
  O  O236  1  1.00000000  0.37458760  0.22017238  1
  O  O237  1  1.00000000  0.37458760  0.72017238  1
  O  O238  1  1.00000000  0.87458760  0.22017238  1
  O  O239  1  1.00000000  0.87458760  0.72017238  1
  O  O240  1  0.07733598  0.01957344  0.37500000  1
  O  O241  1  0.07733598  0.01957344  0.87500000  1
  O  O242  1  0.07733598  0.51957344  0.37500000  1
  O  O243  1  0.07733598  0.51957344  0.87500000  1
  O  O244  1  0.41066931  0.01957344  0.37500000  1
  O  O245  1  0.41066931  0.01957344  0.87500000  1
  O  O246  1  0.41066931  0.51957344  0.37500000  1
  O  O247  1  0.41066931  0.51957344  0.87500000  1
  O  O248  1  0.74400265  0.01957344  0.37500000  1
  O  O249  1  0.74400265  0.01957344  0.87500000  1
  O  O250  1  0.74400265  0.51957344  0.37500000  1
  O  O251  1  0.74400265  0.51957344  0.87500000  1
  O  O252  1  0.24400265  0.26957344  0.37500000  1
  O  O253  1  0.24400265  0.26957344  0.87500000  1
  O  O254  1  0.24400265  0.76957344  0.37500000  1
  O  O255  1  0.24400265  0.76957344  0.87500000  1
  O  O256  1  0.57733598  0.26957344  0.37500000  1
  O  O257  1  0.57733598  0.26957344  0.87500000  1
  O  O258  1  0.57733598  0.76957344  0.37500000  1
  O  O259  1  0.57733598  0.76957344  0.87500000  1
  O  O260  1  0.91066931  0.26957344  0.37500000  1
  O  O261  1  0.91066931  0.26957344  0.87500000  1
  O  O262  1  0.91066931  0.76957344  0.37500000  1
  O  O263  1  0.91066931  0.76957344  0.87500000  1
  O  O264  1  0.25599735  -0.01957344  0.12500000  1
  O  O265  1  0.25599735  -0.01957344  0.62500000  1
  O  O266  1  0.25599735  0.48042656  0.12500000  1
  O  O267  1  0.25599735  0.48042656  0.62500000  1
  O  O268  1  0.58933069  -0.01957344  0.12500000  1
  O  O269  1  0.58933069  -0.01957344  0.62500000  1
  O  O270  1  0.58933069  0.48042656  0.12500000  1
  O  O271  1  0.58933069  0.48042656  0.62500000  1
  O  O272  1  0.92266402  -0.01957344  0.12500000  1
  O  O273  1  0.92266402  -0.01957344  0.62500000  1
  O  O274  1  0.92266402  0.48042656  0.12500000  1
  O  O275  1  0.92266402  0.48042656  0.62500000  1
  O  O276  1  0.42266402  0.23042656  0.12500000  1
  O  O277  1  0.42266402  0.23042656  0.62500000  1
  O  O278  1  0.42266402  0.73042656  0.12500000  1
  O  O279  1  0.42266402  0.73042656  0.62500000  1
  O  O280  1  0.75599735  0.23042656  0.12500000  1
  O  O281  1  0.75599735  0.23042656  0.62500000  1
  O  O282  1  0.75599735  0.73042656  0.12500000  1
  O  O283  1  0.75599735  0.73042656  0.62500000  1
  O  O284  1  1.08933069  0.23042656  0.12500000  1
  O  O285  1  1.08933069  0.23042656  0.62500000  1
  O  O286  1  1.08933069  0.73042656  0.12500000  1
  O  O287  1  1.08933069  0.73042656  0.62500000  1
  O  O288  1  0.25599735  0.01957344  0.37500000  1
  O  O289  1  0.25599735  0.01957344  0.87500000  1
  O  O290  1  0.25599735  0.51957344  0.37500000  1
  O  O291  1  0.25599735  0.51957344  0.87500000  1
  O  O292  1  0.58933069  0.01957344  0.37500000  1
  O  O293  1  0.58933069  0.01957344  0.87500000  1
  O  O294  1  0.58933069  0.51957344  0.37500000  1
  O  O295  1  0.58933069  0.51957344  0.87500000  1
  O  O296  1  0.92266402  0.01957344  0.37500000  1
  O  O297  1  0.92266402  0.01957344  0.87500000  1
  O  O298  1  0.92266402  0.51957344  0.37500000  1
  O  O299  1  0.92266402  0.51957344  0.87500000  1
  O  O300  1  0.42266402  0.26957344  0.37500000  1
  O  O301  1  0.42266402  0.26957344  0.87500000  1
  O  O302  1  0.42266402  0.76957344  0.37500000  1
  O  O303  1  0.42266402  0.76957344  0.87500000  1
  O  O304  1  0.75599735  0.26957344  0.37500000  1
  O  O305  1  0.75599735  0.26957344  0.87500000  1
  O  O306  1  0.75599735  0.76957344  0.37500000  1
  O  O307  1  0.75599735  0.76957344  0.87500000  1
  O  O308  1  1.08933069  0.26957344  0.37500000  1
  O  O309  1  1.08933069  0.26957344  0.87500000  1
  O  O310  1  1.08933069  0.76957344  0.37500000  1
  O  O311  1  1.08933069  0.76957344  0.87500000  1
  O  O312  1  0.07733598  -0.01957344  0.12500000  1
  O  O313  1  0.07733598  -0.01957344  0.62500000  1
  O  O314  1  0.07733598  0.48042656  0.12500000  1
  O  O315  1  0.07733598  0.48042656  0.62500000  1
  O  O316  1  0.41066931  -0.01957344  0.12500000  1
  O  O317  1  0.41066931  -0.01957344  0.62500000  1
  O  O318  1  0.41066931  0.48042656  0.12500000  1
  O  O319  1  0.41066931  0.48042656  0.62500000  1
  O  O320  1  0.74400265  -0.01957344  0.12500000  1
  O  O321  1  0.74400265  -0.01957344  0.62500000  1
  O  O322  1  0.74400265  0.48042656  0.12500000  1
  O  O323  1  0.74400265  0.48042656  0.62500000  1
  O  O324  1  0.24400265  0.23042656  0.12500000  1
  O  O325  1  0.24400265  0.23042656  0.62500000  1
  O  O326  1  0.24400265  0.73042656  0.12500000  1
  O  O327  1  0.24400265  0.73042656  0.62500000  1
  O  O328  1  0.57733598  0.23042656  0.12500000  1
  O  O329  1  0.57733598  0.23042656  0.62500000  1
  O  O330  1  0.57733598  0.73042656  0.12500000  1
  O  O331  1  0.57733598  0.73042656  0.62500000  1
  O  O332  1  0.91066931  0.23042656  0.12500000  1
  O  O333  1  0.91066931  0.23042656  0.62500000  1
  O  O334  1  0.91066931  0.73042656  0.12500000  1
  O  O335  1  0.91066931  0.73042656  0.62500000  1
