# generated using pymatgen
data_KAuO2
_symmetry_space_group_name_H-M   'P 1'
_cell_length_a   13.20541259
_cell_length_b   11.92259939
_cell_length_c   12.01126237
_cell_angle_alpha   90.00000000
_cell_angle_beta   90.00000000
_cell_angle_gamma   90.00000000
_symmetry_Int_Tables_number   1
_chemical_formula_structural   KAuO2
_chemical_formula_sum   'K24 Au24 O48'
_cell_volume   1891.08730850
_cell_formula_units_Z   24
loop_
 _symmetry_equiv_pos_site_id
 _symmetry_equiv_pos_as_xyz
  1  'x, y, z'
loop_
 _atom_site_type_symbol
 _atom_site_label
 _atom_site_symmetry_multiplicity
 _atom_site_fract_x
 _atom_site_fract_y
 _atom_site_fract_z
 _atom_site_occupancy
  K  K0  1  0.16666667  -0.20273907  0.12500000  1
  K  K1  1  0.16666667  -0.20273907  0.62500000  1
  K  K2  1  0.50000000  -0.20273907  0.12500000  1
  K  K3  1  0.50000000  -0.20273907  0.62500000  1
  K  K4  1  0.83333333  -0.20273907  0.12500000  1
  K  K5  1  0.83333333  -0.20273907  0.62500000  1
  K  K6  1  0.33333333  0.29726093  0.12500000  1
  K  K7  1  0.33333333  0.29726093  0.62500000  1
  K  K8  1  0.66666667  0.29726093  0.12500000  1
  K  K9  1  0.66666667  0.29726093  0.62500000  1
  K  K10  1  1.00000000  0.29726093  0.12500000  1
  K  K11  1  1.00000000  0.29726093  0.62500000  1
  K  K12  1  0.16666667  0.20273907  0.37500000  1
  K  K13  1  0.16666667  0.20273907  0.87500000  1
  K  K14  1  0.50000000  0.20273907  0.37500000  1
  K  K15  1  0.50000000  0.20273907  0.87500000  1
  K  K16  1  0.83333333  0.20273907  0.37500000  1
  K  K17  1  0.83333333  0.20273907  0.87500000  1
  K  K18  1  0.33333333  0.70273907  0.37500000  1
  K  K19  1  0.33333333  0.70273907  0.87500000  1
  K  K20  1  0.66666667  0.70273907  0.37500000  1
  K  K21  1  0.66666667  0.70273907  0.87500000  1
  K  K22  1  1.00000000  0.70273907  0.37500000  1
  K  K23  1  1.00000000  0.70273907  0.87500000  1
  Au  Au24  1  0.16666667  0.49726925  0.37500000  1
  Au  Au25  1  0.16666667  0.49726925  0.87500000  1
  Au  Au26  1  0.50000000  0.49726925  0.37500000  1
  Au  Au27  1  0.50000000  0.49726925  0.87500000  1
  Au  Au28  1  0.83333333  0.49726925  0.37500000  1
  Au  Au29  1  0.83333333  0.49726925  0.87500000  1
  Au  Au30  1  0.33333333  0.99726925  0.37500000  1
  Au  Au31  1  0.33333333  0.99726925  0.87500000  1
  Au  Au32  1  0.66666667  0.99726925  0.37500000  1
  Au  Au33  1  0.66666667  0.99726925  0.87500000  1
  Au  Au34  1  1.00000000  0.99726925  0.37500000  1
  Au  Au35  1  1.00000000  0.99726925  0.87500000  1
  Au  Au36  1  0.16666667  -0.49726925  0.12500000  1
  Au  Au37  1  0.16666667  -0.49726925  0.62500000  1
  Au  Au38  1  0.50000000  -0.49726925  0.12500000  1
  Au  Au39  1  0.50000000  -0.49726925  0.62500000  1
  Au  Au40  1  0.83333333  -0.49726925  0.12500000  1
  Au  Au41  1  0.83333333  -0.49726925  0.62500000  1
  Au  Au42  1  0.33333333  0.00273075  0.12500000  1
  Au  Au43  1  0.33333333  0.00273075  0.62500000  1
  Au  Au44  1  0.66666667  0.00273075  0.12500000  1
  Au  Au45  1  0.66666667  0.00273075  0.62500000  1
  Au  Au46  1  1.00000000  0.00273075  0.12500000  1
  Au  Au47  1  1.00000000  0.00273075  0.62500000  1
  O  O48  1  0.16666667  0.38869634  0.24739706  1
  O  O49  1  0.16666667  0.38869634  0.74739706  1
  O  O50  1  0.50000000  0.38869634  0.24739706  1
  O  O51  1  0.50000000  0.38869634  0.74739706  1
  O  O52  1  0.83333333  0.38869634  0.24739706  1
  O  O53  1  0.83333333  0.38869634  0.74739706  1
  O  O54  1  0.33333333  0.88869634  0.24739706  1
  O  O55  1  0.33333333  0.88869634  0.74739706  1
  O  O56  1  0.66666667  0.88869634  0.24739706  1
  O  O57  1  0.66666667  0.88869634  0.74739706  1
  O  O58  1  1.00000000  0.88869634  0.24739706  1
  O  O59  1  1.00000000  0.88869634  0.74739706  1
  O  O60  1  0.16666667  -0.38869634  0.25260294  1
  O  O61  1  0.16666667  -0.38869634  0.75260294  1
  O  O62  1  0.50000000  -0.38869634  0.25260294  1
  O  O63  1  0.50000000  -0.38869634  0.75260294  1
  O  O64  1  0.83333333  -0.38869634  0.25260294  1
  O  O65  1  0.83333333  -0.38869634  0.75260294  1
  O  O66  1  0.33333333  0.11130366  0.25260294  1
  O  O67  1  0.33333333  0.11130366  0.75260294  1
  O  O68  1  0.66666667  0.11130366  0.25260294  1
  O  O69  1  0.66666667  0.11130366  0.75260294  1
  O  O70  1  1.00000000  0.11130366  0.25260294  1
  O  O71  1  1.00000000  0.11130366  0.75260294  1
  O  O72  1  0.16666667  -0.38869634  0.49739706  1
  O  O73  1  0.16666667  -0.38869634  0.99739706  1
  O  O74  1  0.50000000  -0.38869634  0.49739706  1
  O  O75  1  0.50000000  -0.38869634  0.99739706  1
  O  O76  1  0.83333333  -0.38869634  0.49739706  1
  O  O77  1  0.83333333  -0.38869634  0.99739706  1
  O  O78  1  0.33333333  0.11130366  0.49739706  1
  O  O79  1  0.33333333  0.11130366  0.99739706  1
  O  O80  1  0.66666667  0.11130366  0.49739706  1
  O  O81  1  0.66666667  0.11130366  0.99739706  1
  O  O82  1  1.00000000  0.11130366  0.49739706  1
  O  O83  1  1.00000000  0.11130366  0.99739706  1
  O  O84  1  0.16666667  0.38869634  0.00260294  1
  O  O85  1  0.16666667  0.38869634  0.50260294  1
  O  O86  1  0.50000000  0.38869634  0.00260294  1
  O  O87  1  0.50000000  0.38869634  0.50260294  1
  O  O88  1  0.83333333  0.38869634  0.00260294  1
  O  O89  1  0.83333333  0.38869634  0.50260294  1
  O  O90  1  0.33333333  0.88869634  0.00260294  1
  O  O91  1  0.33333333  0.88869634  0.50260294  1
  O  O92  1  0.66666667  0.88869634  0.00260294  1
  O  O93  1  0.66666667  0.88869634  0.50260294  1
  O  O94  1  1.00000000  0.88869634  0.00260294  1
  O  O95  1  1.00000000  0.88869634  0.50260294  1
