# generated using pymatgen
data_LaAuO3
_symmetry_space_group_name_H-M   'P 1'
_cell_length_a   12.03061820
_cell_length_b   13.00589463
_cell_length_c   11.34127159
_cell_angle_alpha   90.00000000
_cell_angle_beta   90.00000000
_cell_angle_gamma   90.00000000
_symmetry_Int_Tables_number   1
_chemical_formula_structural   LaAuO3
_chemical_formula_sum   'La24 Au24 O72'
_cell_volume   1774.55688638
_cell_formula_units_Z   24
loop_
 _symmetry_equiv_pos_site_id
 _symmetry_equiv_pos_as_xyz
  1  'x, y, z'
loop_
 _atom_site_type_symbol
 _atom_site_label
 _atom_site_symmetry_multiplicity
 _atom_site_fract_x
 _atom_site_fract_y
 _atom_site_fract_z
 _atom_site_occupancy
  La  La0  1  0.08801974  0.91885364  0.37500000  1
  La  La1  1  0.08801974  0.91885364  0.87500000  1
  La  La2  1  0.42135308  0.91885364  0.37500000  1
  La  La3  1  0.42135308  0.91885364  0.87500000  1
  La  La4  1  0.75468641  0.91885364  0.37500000  1
  La  La5  1  0.75468641  0.91885364  0.87500000  1
  La  La6  1  0.08801974  0.58114636  0.12500000  1
  La  La7  1  0.08801974  0.58114636  0.62500000  1
  La  La8  1  0.42135308  0.58114636  0.12500000  1
  La  La9  1  0.42135308  0.58114636  0.62500000  1
  La  La10  1  0.75468641  0.58114636  0.12500000  1
  La  La11  1  0.75468641  0.58114636  0.62500000  1
  La  La12  1  0.24531359  0.08114636  0.12500000  1
  La  La13  1  0.24531359  0.08114636  0.62500000  1
  La  La14  1  0.57864692  0.08114636  0.12500000  1
  La  La15  1  0.57864692  0.08114636  0.62500000  1
  La  La16  1  0.91198026  0.08114636  0.12500000  1
  La  La17  1  0.91198026  0.08114636  0.62500000  1
  La  La18  1  0.24531359  0.41885364  0.37500000  1
  La  La19  1  0.24531359  0.41885364  0.87500000  1
  La  La20  1  0.57864692  0.41885364  0.37500000  1
  La  La21  1  0.57864692  0.41885364  0.87500000  1
  La  La22  1  0.91198026  0.41885364  0.37500000  1
  La  La23  1  0.91198026  0.41885364  0.87500000  1
  Au  Au24  1  0.02314100  0.17035835  0.37500000  1
  Au  Au25  1  0.02314100  0.17035835  0.87500000  1
  Au  Au26  1  0.35647434  0.17035835  0.37500000  1
  Au  Au27  1  0.35647434  0.17035835  0.87500000  1
  Au  Au28  1  0.68980767  0.17035835  0.37500000  1
  Au  Au29  1  0.68980767  0.17035835  0.87500000  1
  Au  Au30  1  0.02314100  0.32964165  0.12500000  1
  Au  Au31  1  0.02314100  0.32964165  0.62500000  1
  Au  Au32  1  0.35647434  0.32964165  0.12500000  1
  Au  Au33  1  0.35647434  0.32964165  0.62500000  1
  Au  Au34  1  0.68980767  0.32964165  0.12500000  1
  Au  Au35  1  0.68980767  0.32964165  0.62500000  1
  Au  Au36  1  0.31019233  0.82964165  0.12500000  1
  Au  Au37  1  0.31019233  0.82964165  0.62500000  1
  Au  Au38  1  0.64352566  0.82964165  0.12500000  1
  Au  Au39  1  0.64352566  0.82964165  0.62500000  1
  Au  Au40  1  0.97685900  0.82964165  0.12500000  1
  Au  Au41  1  0.97685900  0.82964165  0.62500000  1
  Au  Au42  1  0.31019233  0.67035835  0.37500000  1
  Au  Au43  1  0.31019233  0.67035835  0.87500000  1
  Au  Au44  1  0.64352566  0.67035835  0.37500000  1
  Au  Au45  1  0.64352566  0.67035835  0.87500000  1
  Au  Au46  1  0.97685900  0.67035835  0.37500000  1
  Au  Au47  1  0.97685900  0.67035835  0.87500000  1
  O  O48  1  0.05819932  0.75000000  0.25000000  1
  O  O49  1  0.05819932  0.75000000  0.75000000  1
  O  O50  1  0.39153265  0.75000000  0.25000000  1
  O  O51  1  0.39153265  0.75000000  0.75000000  1
  O  O52  1  0.72486598  0.75000000  0.25000000  1
  O  O53  1  0.72486598  0.75000000  0.75000000  1
  O  O54  1  0.27513402  0.25000000  0.00000000  1
  O  O55  1  0.27513402  0.25000000  0.50000000  1
  O  O56  1  0.60846735  0.25000000  0.00000000  1
  O  O57  1  0.60846735  0.25000000  0.50000000  1
  O  O58  1  0.94180068  0.25000000  0.00000000  1
  O  O59  1  0.94180068  0.25000000  0.50000000  1
  O  O60  1  0.27513402  0.25000000  0.25000000  1
  O  O61  1  0.27513402  0.25000000  0.75000000  1
  O  O62  1  0.60846735  0.25000000  0.25000000  1
  O  O63  1  0.60846735  0.25000000  0.75000000  1
  O  O64  1  0.94180068  0.25000000  0.25000000  1
  O  O65  1  0.94180068  0.25000000  0.75000000  1
  O  O66  1  0.05819932  0.75000000  0.00000000  1
  O  O67  1  0.05819932  0.75000000  0.50000000  1
  O  O68  1  0.39153265  0.75000000  0.00000000  1
  O  O69  1  0.39153265  0.75000000  0.50000000  1
  O  O70  1  0.72486598  0.75000000  0.00000000  1
  O  O71  1  0.72486598  0.75000000  0.50000000  1
  O  O72  1  0.24770205  0.92077255  0.24766991  1
  O  O73  1  0.24770205  0.92077255  0.74766991  1
  O  O74  1  0.58103539  0.92077255  0.24766991  1
  O  O75  1  0.58103539  0.92077255  0.74766991  1
  O  O76  1  0.91436872  0.92077255  0.24766991  1
  O  O77  1  0.91436872  0.92077255  0.74766991  1
  O  O78  1  0.24770205  0.57922745  0.25233009  1
  O  O79  1  0.24770205  0.57922745  0.75233009  1
  O  O80  1  0.58103539  0.57922745  0.25233009  1
  O  O81  1  0.58103539  0.57922745  0.75233009  1
  O  O82  1  0.91436872  0.57922745  0.25233009  1
  O  O83  1  0.91436872  0.57922745  0.75233009  1
  O  O84  1  0.08563128  0.07922745  0.49766991  1
  O  O85  1  0.08563128  0.07922745  0.99766991  1
  O  O86  1  0.41896461  0.07922745  0.49766991  1
  O  O87  1  0.41896461  0.07922745  0.99766991  1
  O  O88  1  0.75229795  0.07922745  0.49766991  1
  O  O89  1  0.75229795  0.07922745  0.99766991  1
  O  O90  1  0.08563128  0.42077255  0.00233009  1
  O  O91  1  0.08563128  0.42077255  0.50233009  1
  O  O92  1  0.41896461  0.42077255  0.00233009  1
  O  O93  1  0.41896461  0.42077255  0.50233009  1
  O  O94  1  0.75229795  0.42077255  0.00233009  1
  O  O95  1  0.75229795  0.42077255  0.50233009  1
  O  O96  1  0.24770205  0.57922745  0.49766991  1
  O  O97  1  0.24770205  0.57922745  0.99766991  1
  O  O98  1  0.58103539  0.57922745  0.49766991  1
  O  O99  1  0.58103539  0.57922745  0.99766991  1
  O  O100  1  0.91436872  0.57922745  0.49766991  1
  O  O101  1  0.91436872  0.57922745  0.99766991  1
  O  O102  1  0.24770205  0.92077255  0.00233009  1
  O  O103  1  0.24770205  0.92077255  0.50233009  1
  O  O104  1  0.58103539  0.92077255  0.00233009  1
  O  O105  1  0.58103539  0.92077255  0.50233009  1
  O  O106  1  0.91436872  0.92077255  0.00233009  1
  O  O107  1  0.91436872  0.92077255  0.50233009  1
  O  O108  1  0.08563128  0.42077255  0.24766991  1
  O  O109  1  0.08563128  0.42077255  0.74766991  1
  O  O110  1  0.41896461  0.42077255  0.24766991  1
  O  O111  1  0.41896461  0.42077255  0.74766991  1
  O  O112  1  0.75229795  0.42077255  0.24766991  1
  O  O113  1  0.75229795  0.42077255  0.74766991  1
  O  O114  1  0.08563128  0.07922745  0.25233009  1
  O  O115  1  0.08563128  0.07922745  0.75233009  1
  O  O116  1  0.41896461  0.07922745  0.25233009  1
  O  O117  1  0.41896461  0.07922745  0.75233009  1
  O  O118  1  0.75229795  0.07922745  0.25233009  1
  O  O119  1  0.75229795  0.07922745  0.75233009  1
