# generated using pymatgen
data_SrLi2SiO4
_symmetry_space_group_name_H-M   'P 1'
_cell_length_a   15.04239051
_cell_length_b   15.04239051
_cell_length_c   12.42864515
_cell_angle_alpha   90.00000000
_cell_angle_beta   90.00000000
_cell_angle_gamma   120.00000000
_symmetry_Int_Tables_number   1
_chemical_formula_structural   SrLi2SiO4
_chemical_formula_sum   'Sr27 Li54 Si27 O108'
_cell_volume   2435.50002594
_cell_formula_units_Z   27
loop_
 _symmetry_equiv_pos_site_id
 _symmetry_equiv_pos_as_xyz
  1  'x, y, z'
loop_
 _atom_site_type_symbol
 _atom_site_label
 _atom_site_symmetry_multiplicity
 _atom_site_fract_x
 _atom_site_fract_y
 _atom_site_fract_z
 _atom_site_occupancy
  Sr  Sr0  1  0.13978328  0.00000000  0.83333333  1
  Sr  Sr1  1  0.13978328  0.33333333  0.83333333  1
  Sr  Sr2  1  0.13978328  0.66666667  0.83333333  1
  Sr  Sr3  1  0.47311662  0.00000000  0.83333333  1
  Sr  Sr4  1  0.47311662  0.33333333  0.83333333  1
  Sr  Sr5  1  0.47311662  0.66666667  0.83333333  1
  Sr  Sr6  1  0.80644995  0.00000000  0.83333333  1
  Sr  Sr7  1  0.80644995  0.33333333  0.83333333  1
  Sr  Sr8  1  0.80644995  0.66666667  0.83333333  1
  Sr  Sr9  1  0.19355005  0.19355005  0.50000000  1
  Sr  Sr10  1  0.19355005  0.52688338  0.50000000  1
  Sr  Sr11  1  0.19355005  0.86021672  0.50000000  1
  Sr  Sr12  1  0.52688338  0.19355005  0.50000000  1
  Sr  Sr13  1  0.52688338  0.52688338  0.50000000  1
  Sr  Sr14  1  0.52688338  0.86021672  0.50000000  1
  Sr  Sr15  1  0.86021672  0.19355005  0.50000000  1
  Sr  Sr16  1  0.86021672  0.52688338  0.50000000  1
  Sr  Sr17  1  0.86021672  0.86021672  0.50000000  1
  Sr  Sr18  1  -0.00000000  0.13978328  0.16666667  1
  Sr  Sr19  1  -0.00000000  0.47311662  0.16666667  1
  Sr  Sr20  1  -0.00000000  0.80644995  0.16666667  1
  Sr  Sr21  1  0.33333333  0.13978328  0.16666667  1
  Sr  Sr22  1  0.33333333  0.47311662  0.16666667  1
  Sr  Sr23  1  0.33333333  0.80644995  0.16666667  1
  Sr  Sr24  1  0.66666667  0.13978328  0.16666667  1
  Sr  Sr25  1  0.66666667  0.47311662  0.16666667  1
  Sr  Sr26  1  0.66666667  0.80644995  0.16666667  1
  Li  Li27  1  0.22147285  0.19709733  0.74561578  1
  Li  Li28  1  0.22147285  0.53043066  0.74561578  1
  Li  Li29  1  0.22147285  0.86376399  0.74561578  1
  Li  Li30  1  0.55480619  0.19709733  0.74561578  1
  Li  Li31  1  0.55480619  0.53043066  0.74561578  1
  Li  Li32  1  0.55480619  0.86376399  0.74561578  1
  Li  Li33  1  0.88813952  0.19709733  0.74561578  1
  Li  Li34  1  0.88813952  0.53043066  0.74561578  1
  Li  Li35  1  0.88813952  0.86376399  0.74561578  1
  Li  Li36  1  0.30895781  0.11186048  0.41228245  1
  Li  Li37  1  0.30895781  0.44519381  0.41228245  1
  Li  Li38  1  0.30895781  0.77852715  0.41228245  1
  Li  Li39  1  0.64229114  0.11186048  0.41228245  1
  Li  Li40  1  0.64229114  0.44519381  0.41228245  1
  Li  Li41  1  0.64229114  0.77852715  0.41228245  1
  Li  Li42  1  0.97562447  0.11186048  0.41228245  1
  Li  Li43  1  0.97562447  0.44519381  0.41228245  1
  Li  Li44  1  0.97562447  0.77852715  0.41228245  1
  Li  Li45  1  0.13623601  0.02437553  0.07894912  1
  Li  Li46  1  0.13623601  0.35770886  0.07894912  1
  Li  Li47  1  0.13623601  0.69104219  0.07894912  1
  Li  Li48  1  0.46956934  0.02437553  0.07894912  1
  Li  Li49  1  0.46956934  0.35770886  0.07894912  1
  Li  Li50  1  0.46956934  0.69104219  0.07894912  1
  Li  Li51  1  0.80290267  0.02437553  0.07894912  1
  Li  Li52  1  0.80290267  0.35770886  0.07894912  1
  Li  Li53  1  0.80290267  0.69104219  0.07894912  1
  Li  Li54  1  0.11186048  0.30895781  0.58771755  1
  Li  Li55  1  0.11186048  0.64229114  0.58771755  1
  Li  Li56  1  0.11186048  0.97562447  0.58771755  1
  Li  Li57  1  0.44519381  0.30895781  0.58771755  1
  Li  Li58  1  0.44519381  0.64229114  0.58771755  1
  Li  Li59  1  0.44519381  0.97562447  0.58771755  1
  Li  Li60  1  0.77852715  0.30895781  0.58771755  1
  Li  Li61  1  0.77852715  0.64229114  0.58771755  1
  Li  Li62  1  0.77852715  0.97562447  0.58771755  1
  Li  Li63  1  0.19709733  0.22147285  0.25438422  1
  Li  Li64  1  0.19709733  0.55480619  0.25438422  1
  Li  Li65  1  0.19709733  0.88813952  0.25438422  1
  Li  Li66  1  0.53043066  0.22147285  0.25438422  1
  Li  Li67  1  0.53043066  0.55480619  0.25438422  1
  Li  Li68  1  0.53043066  0.88813952  0.25438422  1
  Li  Li69  1  0.86376399  0.22147285  0.25438422  1
  Li  Li70  1  0.86376399  0.55480619  0.25438422  1
  Li  Li71  1  0.86376399  0.88813952  0.25438422  1
  Li  Li72  1  0.02437553  0.13623601  0.92105088  1
  Li  Li73  1  0.02437553  0.46956934  0.92105088  1
  Li  Li74  1  0.02437553  0.80290267  0.92105088  1
  Li  Li75  1  0.35770886  0.13623601  0.92105088  1
  Li  Li76  1  0.35770886  0.46956934  0.92105088  1
  Li  Li77  1  0.35770886  0.80290267  0.92105088  1
  Li  Li78  1  0.69104219  0.13623601  0.92105088  1
  Li  Li79  1  0.69104219  0.46956934  0.92105088  1
  Li  Li80  1  0.69104219  0.80290267  0.92105088  1
  Si  Si81  1  0.09266301  0.00000000  0.33333333  1
  Si  Si82  1  0.09266301  0.33333333  0.33333333  1
  Si  Si83  1  0.09266301  0.66666667  0.33333333  1
  Si  Si84  1  0.42599635  0.00000000  0.33333333  1
  Si  Si85  1  0.42599635  0.33333333  0.33333333  1
  Si  Si86  1  0.42599635  0.66666667  0.33333333  1
  Si  Si87  1  0.75932968  0.00000000  0.33333333  1
  Si  Si88  1  0.75932968  0.33333333  0.33333333  1
  Si  Si89  1  0.75932968  0.66666667  0.33333333  1
  Si  Si90  1  0.24067032  0.24067032  0.00000000  1
  Si  Si91  1  0.24067032  0.57400365  0.00000000  1
  Si  Si92  1  0.24067032  0.90733699  0.00000000  1
  Si  Si93  1  0.57400365  0.24067032  0.00000000  1
  Si  Si94  1  0.57400365  0.57400365  0.00000000  1
  Si  Si95  1  0.57400365  0.90733699  0.00000000  1
  Si  Si96  1  0.90733699  0.24067032  0.00000000  1
  Si  Si97  1  0.90733699  0.57400365  0.00000000  1
  Si  Si98  1  0.90733699  0.90733699  0.00000000  1
  Si  Si99  1  -0.00000000  0.09266301  0.66666667  1
  Si  Si100  1  -0.00000000  0.42599635  0.66666667  1
  Si  Si101  1  -0.00000000  0.75932968  0.66666667  1
  Si  Si102  1  0.33333333  0.09266301  0.66666667  1
  Si  Si103  1  0.33333333  0.42599635  0.66666667  1
  Si  Si104  1  0.33333333  0.75932968  0.66666667  1
  Si  Si105  1  0.66666667  0.09266301  0.66666667  1
  Si  Si106  1  0.66666667  0.42599635  0.66666667  1
  Si  Si107  1  0.66666667  0.75932968  0.66666667  1
  O  O108  1  0.18274796  0.17097410  0.10714872  1
  O  O109  1  0.18274796  0.50430744  0.10714872  1
  O  O110  1  0.18274796  0.83764077  0.10714872  1
  O  O111  1  0.51608129  0.17097410  0.10714872  1
  O  O112  1  0.51608129  0.50430744  0.10714872  1
  O  O113  1  0.51608129  0.83764077  0.10714872  1
  O  O114  1  0.84941462  0.17097410  0.10714872  1
  O  O115  1  0.84941462  0.50430744  0.10714872  1
  O  O116  1  0.84941462  0.83764077  0.10714872  1
  O  O117  1  0.32155948  0.15058538  0.77381538  1
  O  O118  1  0.32155948  0.48391871  0.77381538  1
  O  O119  1  0.32155948  0.81725204  0.77381538  1
  O  O120  1  0.65489281  0.15058538  0.77381538  1
  O  O121  1  0.65489281  0.48391871  0.77381538  1
  O  O122  1  0.65489281  0.81725204  0.77381538  1
  O  O123  1  0.98822615  0.15058538  0.77381538  1
  O  O124  1  0.98822615  0.48391871  0.77381538  1
  O  O125  1  0.98822615  0.81725204  0.77381538  1
  O  O126  1  0.16235923  0.01177385  0.44048205  1
  O  O127  1  0.16235923  0.34510719  0.44048205  1
  O  O128  1  0.16235923  0.67844052  0.44048205  1
  O  O129  1  0.49569256  0.01177385  0.44048205  1
  O  O130  1  0.49569256  0.34510719  0.44048205  1
  O  O131  1  0.49569256  0.67844052  0.44048205  1
  O  O132  1  0.82902590  0.01177385  0.44048205  1
  O  O133  1  0.82902590  0.34510719  0.44048205  1
  O  O134  1  0.82902590  0.67844052  0.44048205  1
  O  O135  1  0.15058538  0.32155948  0.22618462  1
  O  O136  1  0.15058538  0.65489281  0.22618462  1
  O  O137  1  0.15058538  0.98822615  0.22618462  1
  O  O138  1  0.48391871  0.32155948  0.22618462  1
  O  O139  1  0.48391871  0.65489281  0.22618462  1
  O  O140  1  0.48391871  0.98822615  0.22618462  1
  O  O141  1  0.81725204  0.32155948  0.22618462  1
  O  O142  1  0.81725204  0.65489281  0.22618462  1
  O  O143  1  0.81725204  0.98822615  0.22618462  1
  O  O144  1  0.17097410  0.18274796  0.89285128  1
  O  O145  1  0.17097410  0.51608129  0.89285128  1
  O  O146  1  0.17097410  0.84941462  0.89285128  1
  O  O147  1  0.50430744  0.18274796  0.89285128  1
  O  O148  1  0.50430744  0.51608129  0.89285128  1
  O  O149  1  0.50430744  0.84941462  0.89285128  1
  O  O150  1  0.83764077  0.18274796  0.89285128  1
  O  O151  1  0.83764077  0.51608129  0.89285128  1
  O  O152  1  0.83764077  0.84941462  0.89285128  1
  O  O153  1  0.01177385  0.16235923  0.55951795  1
  O  O154  1  0.01177385  0.49569256  0.55951795  1
  O  O155  1  0.01177385  0.82902590  0.55951795  1
  O  O156  1  0.34510719  0.16235923  0.55951795  1
  O  O157  1  0.34510719  0.49569256  0.55951795  1
  O  O158  1  0.34510719  0.82902590  0.55951795  1
  O  O159  1  0.67844052  0.16235923  0.55951795  1
  O  O160  1  0.67844052  0.49569256  0.55951795  1
  O  O161  1  0.67844052  0.82902590  0.55951795  1
  O  O162  1  0.02330039  0.25374999  0.99626918  1
  O  O163  1  0.02330039  0.58708332  0.99626918  1
  O  O164  1  0.02330039  0.92041666  0.99626918  1
  O  O165  1  0.35663372  0.25374999  0.99626918  1
  O  O166  1  0.35663372  0.58708332  0.99626918  1
  O  O167  1  0.35663372  0.92041666  0.99626918  1
  O  O168  1  0.68996705  0.25374999  0.99626918  1
  O  O169  1  0.68996705  0.58708332  0.99626918  1
  O  O170  1  0.68996705  0.92041666  0.99626918  1
  O  O171  1  0.23044960  0.31003295  0.66293585  1
  O  O172  1  0.23044960  0.64336628  0.66293585  1
  O  O173  1  0.23044960  0.97669961  0.66293585  1
  O  O174  1  0.56378294  0.31003295  0.66293585  1
  O  O175  1  0.56378294  0.64336628  0.66293585  1
  O  O176  1  0.56378294  0.97669961  0.66293585  1
  O  O177  1  0.89711627  0.31003295  0.66293585  1
  O  O178  1  0.89711627  0.64336628  0.66293585  1
  O  O179  1  0.89711627  0.97669961  0.66293585  1
  O  O180  1  0.07958334  0.10288373  0.32960252  1
  O  O181  1  0.07958334  0.43621706  0.32960252  1
  O  O182  1  0.07958334  0.76955040  0.32960252  1
  O  O183  1  0.41291668  0.10288373  0.32960252  1
  O  O184  1  0.41291668  0.43621706  0.32960252  1
  O  O185  1  0.41291668  0.76955040  0.32960252  1
  O  O186  1  0.74625001  0.10288373  0.32960252  1
  O  O187  1  0.74625001  0.43621706  0.32960252  1
  O  O188  1  0.74625001  0.76955040  0.32960252  1
  O  O189  1  0.31003295  0.23044960  0.33706415  1
  O  O190  1  0.31003295  0.56378294  0.33706415  1
  O  O191  1  0.31003295  0.89711627  0.33706415  1
  O  O192  1  0.64336628  0.23044960  0.33706415  1
  O  O193  1  0.64336628  0.56378294  0.33706415  1
  O  O194  1  0.64336628  0.89711627  0.33706415  1
  O  O195  1  0.97669961  0.23044960  0.33706415  1
  O  O196  1  0.97669961  0.56378294  0.33706415  1
  O  O197  1  0.97669961  0.89711627  0.33706415  1
  O  O198  1  0.25374999  0.02330039  0.00373082  1
  O  O199  1  0.25374999  0.35663372  0.00373082  1
  O  O200  1  0.25374999  0.68996705  0.00373082  1
  O  O201  1  0.58708332  0.02330039  0.00373082  1
  O  O202  1  0.58708332  0.35663372  0.00373082  1
  O  O203  1  0.58708332  0.68996705  0.00373082  1
  O  O204  1  0.92041666  0.02330039  0.00373082  1
  O  O205  1  0.92041666  0.35663372  0.00373082  1
  O  O206  1  0.92041666  0.68996705  0.00373082  1
  O  O207  1  0.10288373  0.07958334  0.67039748  1
  O  O208  1  0.10288373  0.41291668  0.67039748  1
  O  O209  1  0.10288373  0.74625001  0.67039748  1
  O  O210  1  0.43621706  0.07958334  0.67039748  1
  O  O211  1  0.43621706  0.41291668  0.67039748  1
  O  O212  1  0.43621706  0.74625001  0.67039748  1
  O  O213  1  0.76955040  0.07958334  0.67039748  1
  O  O214  1  0.76955040  0.41291668  0.67039748  1
  O  O215  1  0.76955040  0.74625001  0.67039748  1
