# generated using pymatgen
data_BaBiBO4
_symmetry_space_group_name_H-M   'P 1'
_cell_length_a   17.10054805
_cell_length_b   20.53593738
_cell_length_c   19.37730099
_cell_angle_alpha   90.00000000
_cell_angle_beta   90.00000000
_cell_angle_gamma   90.00000000
_symmetry_Int_Tables_number   1
_chemical_formula_structural   BaBiBO4
_chemical_formula_sum   'Ba64 Bi64 B64 O256'
_cell_volume   6804.83886868
_cell_formula_units_Z   64
loop_
 _symmetry_equiv_pos_site_id
 _symmetry_equiv_pos_as_xyz
  1  'x, y, z'
loop_
 _atom_site_type_symbol
 _atom_site_label
 _atom_site_symmetry_multiplicity
 _atom_site_fract_x
 _atom_site_fract_y
 _atom_site_fract_z
 _atom_site_occupancy
  Ba  Ba0  1  0.00344442  0.06250000  0.09139592  1
  Ba  Ba1  1  0.00344442  0.06250000  0.59139592  1
  Ba  Ba2  1  0.00344442  0.31250000  0.09139592  1
  Ba  Ba3  1  0.00344442  0.31250000  0.59139592  1
  Ba  Ba4  1  0.00344442  0.56250000  0.09139592  1
  Ba  Ba5  1  0.00344442  0.56250000  0.59139592  1
  Ba  Ba6  1  0.00344442  0.81250000  0.09139592  1
  Ba  Ba7  1  0.00344442  0.81250000  0.59139592  1
  Ba  Ba8  1  0.50344442  0.06250000  0.09139592  1
  Ba  Ba9  1  0.50344442  0.06250000  0.59139592  1
  Ba  Ba10  1  0.50344442  0.31250000  0.09139592  1
  Ba  Ba11  1  0.50344442  0.31250000  0.59139592  1
  Ba  Ba12  1  0.50344442  0.56250000  0.09139592  1
  Ba  Ba13  1  0.50344442  0.56250000  0.59139592  1
  Ba  Ba14  1  0.50344442  0.81250000  0.09139592  1
  Ba  Ba15  1  0.50344442  0.81250000  0.59139592  1
  Ba  Ba16  1  0.24655558  0.18750000  0.34139592  1
  Ba  Ba17  1  0.24655558  0.18750000  0.84139592  1
  Ba  Ba18  1  0.24655558  0.43750000  0.34139592  1
  Ba  Ba19  1  0.24655558  0.43750000  0.84139592  1
  Ba  Ba20  1  0.24655558  0.68750000  0.34139592  1
  Ba  Ba21  1  0.24655558  0.68750000  0.84139592  1
  Ba  Ba22  1  0.24655558  0.93750000  0.34139592  1
  Ba  Ba23  1  0.24655558  0.93750000  0.84139592  1
  Ba  Ba24  1  0.74655558  0.18750000  0.34139592  1
  Ba  Ba25  1  0.74655558  0.18750000  0.84139592  1
  Ba  Ba26  1  0.74655558  0.43750000  0.34139592  1
  Ba  Ba27  1  0.74655558  0.43750000  0.84139592  1
  Ba  Ba28  1  0.74655558  0.68750000  0.34139592  1
  Ba  Ba29  1  0.74655558  0.68750000  0.84139592  1
  Ba  Ba30  1  0.74655558  0.93750000  0.34139592  1
  Ba  Ba31  1  0.74655558  0.93750000  0.84139592  1
  Ba  Ba32  1  0.49655558  0.18750000  0.40860408  1
  Ba  Ba33  1  0.49655558  0.18750000  0.90860408  1
  Ba  Ba34  1  0.49655558  0.43750000  0.40860408  1
  Ba  Ba35  1  0.49655558  0.43750000  0.90860408  1
  Ba  Ba36  1  0.49655558  0.68750000  0.40860408  1
  Ba  Ba37  1  0.49655558  0.68750000  0.90860408  1
  Ba  Ba38  1  0.49655558  0.93750000  0.40860408  1
  Ba  Ba39  1  0.49655558  0.93750000  0.90860408  1
  Ba  Ba40  1  0.99655558  0.18750000  0.40860408  1
  Ba  Ba41  1  0.99655558  0.18750000  0.90860408  1
  Ba  Ba42  1  0.99655558  0.43750000  0.40860408  1
  Ba  Ba43  1  0.99655558  0.43750000  0.90860408  1
  Ba  Ba44  1  0.99655558  0.68750000  0.40860408  1
  Ba  Ba45  1  0.99655558  0.68750000  0.90860408  1
  Ba  Ba46  1  0.99655558  0.93750000  0.40860408  1
  Ba  Ba47  1  0.99655558  0.93750000  0.90860408  1
  Ba  Ba48  1  0.25344442  0.06250000  0.15860408  1
  Ba  Ba49  1  0.25344442  0.06250000  0.65860408  1
  Ba  Ba50  1  0.25344442  0.31250000  0.15860408  1
  Ba  Ba51  1  0.25344442  0.31250000  0.65860408  1
  Ba  Ba52  1  0.25344442  0.56250000  0.15860408  1
  Ba  Ba53  1  0.25344442  0.56250000  0.65860408  1
  Ba  Ba54  1  0.25344442  0.81250000  0.15860408  1
  Ba  Ba55  1  0.25344442  0.81250000  0.65860408  1
  Ba  Ba56  1  0.75344442  0.06250000  0.15860408  1
  Ba  Ba57  1  0.75344442  0.06250000  0.65860408  1
  Ba  Ba58  1  0.75344442  0.31250000  0.15860408  1
  Ba  Ba59  1  0.75344442  0.31250000  0.65860408  1
  Ba  Ba60  1  0.75344442  0.56250000  0.15860408  1
  Ba  Ba61  1  0.75344442  0.56250000  0.65860408  1
  Ba  Ba62  1  0.75344442  0.81250000  0.15860408  1
  Ba  Ba63  1  0.75344442  0.81250000  0.65860408  1
  Bi  Bi64  1  0.15453205  0.18750000  0.03126348  1
  Bi  Bi65  1  0.15453205  0.18750000  0.53126348  1
  Bi  Bi66  1  0.15453205  0.43750000  0.03126348  1
  Bi  Bi67  1  0.15453205  0.43750000  0.53126348  1
  Bi  Bi68  1  0.15453205  0.68750000  0.03126348  1
  Bi  Bi69  1  0.15453205  0.68750000  0.53126348  1
  Bi  Bi70  1  0.15453205  0.93750000  0.03126348  1
  Bi  Bi71  1  0.15453205  0.93750000  0.53126348  1
  Bi  Bi72  1  0.65453205  0.18750000  0.03126348  1
  Bi  Bi73  1  0.65453205  0.18750000  0.53126348  1
  Bi  Bi74  1  0.65453205  0.43750000  0.03126348  1
  Bi  Bi75  1  0.65453205  0.43750000  0.53126348  1
  Bi  Bi76  1  0.65453205  0.68750000  0.03126348  1
  Bi  Bi77  1  0.65453205  0.68750000  0.53126348  1
  Bi  Bi78  1  0.65453205  0.93750000  0.03126348  1
  Bi  Bi79  1  0.65453205  0.93750000  0.53126348  1
  Bi  Bi80  1  0.34546795  0.06250000  0.46873652  1
  Bi  Bi81  1  0.34546795  0.06250000  0.96873652  1
  Bi  Bi82  1  0.34546795  0.31250000  0.46873652  1
  Bi  Bi83  1  0.34546795  0.31250000  0.96873652  1
  Bi  Bi84  1  0.34546795  0.56250000  0.46873652  1
  Bi  Bi85  1  0.34546795  0.56250000  0.96873652  1
  Bi  Bi86  1  0.34546795  0.81250000  0.46873652  1
  Bi  Bi87  1  0.34546795  0.81250000  0.96873652  1
  Bi  Bi88  1  0.84546795  0.06250000  0.46873652  1
  Bi  Bi89  1  0.84546795  0.06250000  0.96873652  1
  Bi  Bi90  1  0.84546795  0.31250000  0.46873652  1
  Bi  Bi91  1  0.84546795  0.31250000  0.96873652  1
  Bi  Bi92  1  0.84546795  0.56250000  0.46873652  1
  Bi  Bi93  1  0.84546795  0.56250000  0.96873652  1
  Bi  Bi94  1  0.84546795  0.81250000  0.46873652  1
  Bi  Bi95  1  0.84546795  0.81250000  0.96873652  1
  Bi  Bi96  1  0.09546795  0.06250000  0.28126348  1
  Bi  Bi97  1  0.09546795  0.06250000  0.78126348  1
  Bi  Bi98  1  0.09546795  0.31250000  0.28126348  1
  Bi  Bi99  1  0.09546795  0.31250000  0.78126348  1
  Bi  Bi100  1  0.09546795  0.56250000  0.28126348  1
  Bi  Bi101  1  0.09546795  0.56250000  0.78126348  1
  Bi  Bi102  1  0.09546795  0.81250000  0.28126348  1
  Bi  Bi103  1  0.09546795  0.81250000  0.78126348  1
  Bi  Bi104  1  0.59546795  0.06250000  0.28126348  1
  Bi  Bi105  1  0.59546795  0.06250000  0.78126348  1
  Bi  Bi106  1  0.59546795  0.31250000  0.28126348  1
  Bi  Bi107  1  0.59546795  0.31250000  0.78126348  1
  Bi  Bi108  1  0.59546795  0.56250000  0.28126348  1
  Bi  Bi109  1  0.59546795  0.56250000  0.78126348  1
  Bi  Bi110  1  0.59546795  0.81250000  0.28126348  1
  Bi  Bi111  1  0.59546795  0.81250000  0.78126348  1
  Bi  Bi112  1  0.40453205  0.18750000  0.21873652  1
  Bi  Bi113  1  0.40453205  0.18750000  0.71873652  1
  Bi  Bi114  1  0.40453205  0.43750000  0.21873652  1
  Bi  Bi115  1  0.40453205  0.43750000  0.71873652  1
  Bi  Bi116  1  0.40453205  0.68750000  0.21873652  1
  Bi  Bi117  1  0.40453205  0.68750000  0.71873652  1
  Bi  Bi118  1  0.40453205  0.93750000  0.21873652  1
  Bi  Bi119  1  0.40453205  0.93750000  0.71873652  1
  Bi  Bi120  1  0.90453205  0.18750000  0.21873652  1
  Bi  Bi121  1  0.90453205  0.18750000  0.71873652  1
  Bi  Bi122  1  0.90453205  0.43750000  0.21873652  1
  Bi  Bi123  1  0.90453205  0.43750000  0.71873652  1
  Bi  Bi124  1  0.90453205  0.68750000  0.21873652  1
  Bi  Bi125  1  0.90453205  0.68750000  0.71873652  1
  Bi  Bi126  1  0.90453205  0.93750000  0.21873652  1
  Bi  Bi127  1  0.90453205  0.93750000  0.71873652  1
  B  B128  1  0.09985556  0.18750000  0.22047593  1
  B  B129  1  0.09985556  0.18750000  0.72047593  1
  B  B130  1  0.09985556  0.43750000  0.22047593  1
  B  B131  1  0.09985556  0.43750000  0.72047593  1
  B  B132  1  0.09985556  0.68750000  0.22047593  1
  B  B133  1  0.09985556  0.68750000  0.72047593  1
  B  B134  1  0.09985556  0.93750000  0.22047593  1
  B  B135  1  0.09985556  0.93750000  0.72047593  1
  B  B136  1  0.59985556  0.18750000  0.22047593  1
  B  B137  1  0.59985556  0.18750000  0.72047593  1
  B  B138  1  0.59985556  0.43750000  0.22047593  1
  B  B139  1  0.59985556  0.43750000  0.72047593  1
  B  B140  1  0.59985556  0.68750000  0.22047593  1
  B  B141  1  0.59985556  0.68750000  0.72047593  1
  B  B142  1  0.59985556  0.93750000  0.22047593  1
  B  B143  1  0.59985556  0.93750000  0.72047593  1
  B  B144  1  0.40014444  0.06250000  0.27952407  1
  B  B145  1  0.40014444  0.06250000  0.77952407  1
  B  B146  1  0.40014444  0.31250000  0.27952407  1
  B  B147  1  0.40014444  0.31250000  0.77952407  1
  B  B148  1  0.40014444  0.56250000  0.27952407  1
  B  B149  1  0.40014444  0.56250000  0.77952407  1
  B  B150  1  0.40014444  0.81250000  0.27952407  1
  B  B151  1  0.40014444  0.81250000  0.77952407  1
  B  B152  1  0.90014444  0.06250000  0.27952407  1
  B  B153  1  0.90014444  0.06250000  0.77952407  1
  B  B154  1  0.90014444  0.31250000  0.27952407  1
  B  B155  1  0.90014444  0.31250000  0.77952407  1
  B  B156  1  0.90014444  0.56250000  0.27952407  1
  B  B157  1  0.90014444  0.56250000  0.77952407  1
  B  B158  1  0.90014444  0.81250000  0.27952407  1
  B  B159  1  0.90014444  0.81250000  0.77952407  1
  B  B160  1  0.15014444  0.06250000  0.47047593  1
  B  B161  1  0.15014444  0.06250000  0.97047593  1
  B  B162  1  0.15014444  0.31250000  0.47047593  1
  B  B163  1  0.15014444  0.31250000  0.97047593  1
  B  B164  1  0.15014444  0.56250000  0.47047593  1
  B  B165  1  0.15014444  0.56250000  0.97047593  1
  B  B166  1  0.15014444  0.81250000  0.47047593  1
  B  B167  1  0.15014444  0.81250000  0.97047593  1
  B  B168  1  0.65014444  0.06250000  0.47047593  1
  B  B169  1  0.65014444  0.06250000  0.97047593  1
  B  B170  1  0.65014444  0.31250000  0.47047593  1
  B  B171  1  0.65014444  0.31250000  0.97047593  1
  B  B172  1  0.65014444  0.56250000  0.47047593  1
  B  B173  1  0.65014444  0.56250000  0.97047593  1
  B  B174  1  0.65014444  0.81250000  0.47047593  1
  B  B175  1  0.65014444  0.81250000  0.97047593  1
  B  B176  1  0.34985556  0.18750000  0.02952407  1
  B  B177  1  0.34985556  0.18750000  0.52952407  1
  B  B178  1  0.34985556  0.43750000  0.02952407  1
  B  B179  1  0.34985556  0.43750000  0.52952407  1
  B  B180  1  0.34985556  0.68750000  0.02952407  1
  B  B181  1  0.34985556  0.68750000  0.52952407  1
  B  B182  1  0.34985556  0.93750000  0.02952407  1
  B  B183  1  0.34985556  0.93750000  0.52952407  1
  B  B184  1  0.84985556  0.18750000  0.02952407  1
  B  B185  1  0.84985556  0.18750000  0.52952407  1
  B  B186  1  0.84985556  0.43750000  0.02952407  1
  B  B187  1  0.84985556  0.43750000  0.52952407  1
  B  B188  1  0.84985556  0.68750000  0.02952407  1
  B  B189  1  0.84985556  0.68750000  0.52952407  1
  B  B190  1  0.84985556  0.93750000  0.02952407  1
  B  B191  1  0.84985556  0.93750000  0.52952407  1
  O  O192  1  0.35307409  0.24686020  0.06262642  1
  O  O193  1  0.35307409  0.24686020  0.56262642  1
  O  O194  1  0.35307409  0.49686020  0.06262642  1
  O  O195  1  0.35307409  0.49686020  0.56262642  1
  O  O196  1  0.35307409  0.74686020  0.06262642  1
  O  O197  1  0.35307409  0.74686020  0.56262642  1
  O  O198  1  0.35307409  0.99686020  0.06262642  1
  O  O199  1  0.35307409  0.99686020  0.56262642  1
  O  O200  1  0.85307409  0.24686020  0.06262642  1
  O  O201  1  0.85307409  0.24686020  0.56262642  1
  O  O202  1  0.85307409  0.49686020  0.06262642  1
  O  O203  1  0.85307409  0.49686020  0.56262642  1
  O  O204  1  0.85307409  0.74686020  0.06262642  1
  O  O205  1  0.85307409  0.74686020  0.56262642  1
  O  O206  1  0.85307409  0.99686020  0.06262642  1
  O  O207  1  0.85307409  0.99686020  0.56262642  1
  O  O208  1  0.40753575  0.06250000  0.20773077  1
  O  O209  1  0.40753575  0.06250000  0.70773077  1
  O  O210  1  0.40753575  0.31250000  0.20773077  1
  O  O211  1  0.40753575  0.31250000  0.70773077  1
  O  O212  1  0.40753575  0.56250000  0.20773077  1
  O  O213  1  0.40753575  0.56250000  0.70773077  1
  O  O214  1  0.40753575  0.81250000  0.20773077  1
  O  O215  1  0.40753575  0.81250000  0.70773077  1
  O  O216  1  0.90753575  0.06250000  0.20773077  1
  O  O217  1  0.90753575  0.06250000  0.70773077  1
  O  O218  1  0.90753575  0.31250000  0.20773077  1
  O  O219  1  0.90753575  0.31250000  0.70773077  1
  O  O220  1  0.90753575  0.56250000  0.20773077  1
  O  O221  1  0.90753575  0.56250000  0.70773077  1
  O  O222  1  0.90753575  0.81250000  0.20773077  1
  O  O223  1  0.90753575  0.81250000  0.70773077  1
  O  O224  1  0.39692591  0.00313980  0.31262642  1
  O  O225  1  0.39692591  0.00313980  0.81262642  1
  O  O226  1  0.39692591  0.25313980  0.31262642  1
  O  O227  1  0.39692591  0.25313980  0.81262642  1
  O  O228  1  0.39692591  0.50313980  0.31262642  1
  O  O229  1  0.39692591  0.50313980  0.81262642  1
  O  O230  1  0.39692591  0.75313980  0.31262642  1
  O  O231  1  0.39692591  0.75313980  0.81262642  1
  O  O232  1  0.89692591  0.00313980  0.31262642  1
  O  O233  1  0.89692591  0.00313980  0.81262642  1
  O  O234  1  0.89692591  0.25313980  0.31262642  1
  O  O235  1  0.89692591  0.25313980  0.81262642  1
  O  O236  1  0.89692591  0.50313980  0.31262642  1
  O  O237  1  0.89692591  0.50313980  0.81262642  1
  O  O238  1  0.89692591  0.75313980  0.31262642  1
  O  O239  1  0.89692591  0.75313980  0.81262642  1
  O  O240  1  0.35307409  0.12813980  0.06262642  1
  O  O241  1  0.35307409  0.12813980  0.56262642  1
  O  O242  1  0.35307409  0.37813980  0.06262642  1
  O  O243  1  0.35307409  0.37813980  0.56262642  1
  O  O244  1  0.35307409  0.62813980  0.06262642  1
  O  O245  1  0.35307409  0.62813980  0.56262642  1
  O  O246  1  0.35307409  0.87813980  0.06262642  1
  O  O247  1  0.35307409  0.87813980  0.56262642  1
  O  O248  1  0.85307409  0.12813980  0.06262642  1
  O  O249  1  0.85307409  0.12813980  0.56262642  1
  O  O250  1  0.85307409  0.37813980  0.06262642  1
  O  O251  1  0.85307409  0.37813980  0.56262642  1
  O  O252  1  0.85307409  0.62813980  0.06262642  1
  O  O253  1  0.85307409  0.62813980  0.56262642  1
  O  O254  1  0.85307409  0.87813980  0.06262642  1
  O  O255  1  0.85307409  0.87813980  0.56262642  1
  O  O256  1  0.39692591  0.12186020  0.31262642  1
  O  O257  1  0.39692591  0.12186020  0.81262642  1
  O  O258  1  0.39692591  0.37186020  0.31262642  1
  O  O259  1  0.39692591  0.37186020  0.81262642  1
  O  O260  1  0.39692591  0.62186020  0.31262642  1
  O  O261  1  0.39692591  0.62186020  0.81262642  1
  O  O262  1  0.39692591  0.87186020  0.31262642  1
  O  O263  1  0.39692591  0.87186020  0.81262642  1
  O  O264  1  0.89692591  0.12186020  0.31262642  1
  O  O265  1  0.89692591  0.12186020  0.81262642  1
  O  O266  1  0.89692591  0.37186020  0.31262642  1
  O  O267  1  0.89692591  0.37186020  0.81262642  1
  O  O268  1  0.89692591  0.62186020  0.31262642  1
  O  O269  1  0.89692591  0.62186020  0.81262642  1
  O  O270  1  0.89692591  0.87186020  0.31262642  1
  O  O271  1  0.89692591  0.87186020  0.81262642  1
  O  O272  1  0.28648543  0.18750000  0.20692824  1
  O  O273  1  0.28648543  0.18750000  0.70692824  1
  O  O274  1  0.28648543  0.43750000  0.20692824  1
  O  O275  1  0.28648543  0.43750000  0.70692824  1
  O  O276  1  0.28648543  0.68750000  0.20692824  1
  O  O277  1  0.28648543  0.68750000  0.70692824  1
  O  O278  1  0.28648543  0.93750000  0.20692824  1
  O  O279  1  0.28648543  0.93750000  0.70692824  1
  O  O280  1  0.78648543  0.18750000  0.20692824  1
  O  O281  1  0.78648543  0.18750000  0.70692824  1
  O  O282  1  0.78648543  0.43750000  0.20692824  1
  O  O283  1  0.78648543  0.43750000  0.70692824  1
  O  O284  1  0.78648543  0.68750000  0.20692824  1
  O  O285  1  0.78648543  0.68750000  0.70692824  1
  O  O286  1  0.78648543  0.93750000  0.20692824  1
  O  O287  1  0.78648543  0.93750000  0.70692824  1
  O  O288  1  0.34246425  0.18750000  0.45773077  1
  O  O289  1  0.34246425  0.18750000  0.95773077  1
  O  O290  1  0.34246425  0.43750000  0.45773077  1
  O  O291  1  0.34246425  0.43750000  0.95773077  1
  O  O292  1  0.34246425  0.68750000  0.45773077  1
  O  O293  1  0.34246425  0.68750000  0.95773077  1
  O  O294  1  0.34246425  0.93750000  0.45773077  1
  O  O295  1  0.34246425  0.93750000  0.95773077  1
  O  O296  1  0.84246425  0.18750000  0.45773077  1
  O  O297  1  0.84246425  0.18750000  0.95773077  1
  O  O298  1  0.84246425  0.43750000  0.45773077  1
  O  O299  1  0.84246425  0.43750000  0.95773077  1
  O  O300  1  0.84246425  0.68750000  0.45773077  1
  O  O301  1  0.84246425  0.68750000  0.95773077  1
  O  O302  1  0.84246425  0.93750000  0.45773077  1
  O  O303  1  0.84246425  0.93750000  0.95773077  1
  O  O304  1  0.09246425  0.18750000  0.29226923  1
  O  O305  1  0.09246425  0.18750000  0.79226923  1
  O  O306  1  0.09246425  0.43750000  0.29226923  1
  O  O307  1  0.09246425  0.43750000  0.79226923  1
  O  O308  1  0.09246425  0.68750000  0.29226923  1
  O  O309  1  0.09246425  0.68750000  0.79226923  1
  O  O310  1  0.09246425  0.93750000  0.29226923  1
  O  O311  1  0.09246425  0.93750000  0.79226923  1
  O  O312  1  0.59246425  0.18750000  0.29226923  1
  O  O313  1  0.59246425  0.18750000  0.79226923  1
  O  O314  1  0.59246425  0.43750000  0.29226923  1
  O  O315  1  0.59246425  0.43750000  0.79226923  1
  O  O316  1  0.59246425  0.68750000  0.29226923  1
  O  O317  1  0.59246425  0.68750000  0.79226923  1
  O  O318  1  0.59246425  0.93750000  0.29226923  1
  O  O319  1  0.59246425  0.93750000  0.79226923  1
  O  O320  1  0.14692591  0.00313980  0.43737358  1
  O  O321  1  0.14692591  0.00313980  0.93737358  1
  O  O322  1  0.14692591  0.25313980  0.43737358  1
  O  O323  1  0.14692591  0.25313980  0.93737358  1
  O  O324  1  0.14692591  0.50313980  0.43737358  1
  O  O325  1  0.14692591  0.50313980  0.93737358  1
  O  O326  1  0.14692591  0.75313980  0.43737358  1
  O  O327  1  0.14692591  0.75313980  0.93737358  1
  O  O328  1  0.64692591  0.00313980  0.43737358  1
  O  O329  1  0.64692591  0.00313980  0.93737358  1
  O  O330  1  0.64692591  0.25313980  0.43737358  1
  O  O331  1  0.64692591  0.25313980  0.93737358  1
  O  O332  1  0.64692591  0.50313980  0.43737358  1
  O  O333  1  0.64692591  0.50313980  0.93737358  1
  O  O334  1  0.64692591  0.75313980  0.43737358  1
  O  O335  1  0.64692591  0.75313980  0.93737358  1
  O  O336  1  0.10307409  0.12813980  0.18737358  1
  O  O337  1  0.10307409  0.12813980  0.68737358  1
  O  O338  1  0.10307409  0.37813980  0.18737358  1
  O  O339  1  0.10307409  0.37813980  0.68737358  1
  O  O340  1  0.10307409  0.62813980  0.18737358  1
  O  O341  1  0.10307409  0.62813980  0.68737358  1
  O  O342  1  0.10307409  0.87813980  0.18737358  1
  O  O343  1  0.10307409  0.87813980  0.68737358  1
  O  O344  1  0.60307409  0.12813980  0.18737358  1
  O  O345  1  0.60307409  0.12813980  0.68737358  1
  O  O346  1  0.60307409  0.37813980  0.18737358  1
  O  O347  1  0.60307409  0.37813980  0.68737358  1
  O  O348  1  0.60307409  0.62813980  0.18737358  1
  O  O349  1  0.60307409  0.62813980  0.68737358  1
  O  O350  1  0.60307409  0.87813980  0.18737358  1
  O  O351  1  0.60307409  0.87813980  0.68737358  1
  O  O352  1  0.03648543  0.18750000  0.04307176  1
  O  O353  1  0.03648543  0.18750000  0.54307176  1
  O  O354  1  0.03648543  0.43750000  0.04307176  1
  O  O355  1  0.03648543  0.43750000  0.54307176  1
  O  O356  1  0.03648543  0.68750000  0.04307176  1
  O  O357  1  0.03648543  0.68750000  0.54307176  1
  O  O358  1  0.03648543  0.93750000  0.04307176  1
  O  O359  1  0.03648543  0.93750000  0.54307176  1
  O  O360  1  0.53648543  0.18750000  0.04307176  1
  O  O361  1  0.53648543  0.18750000  0.54307176  1
  O  O362  1  0.53648543  0.43750000  0.04307176  1
  O  O363  1  0.53648543  0.43750000  0.54307176  1
  O  O364  1  0.53648543  0.68750000  0.04307176  1
  O  O365  1  0.53648543  0.68750000  0.54307176  1
  O  O366  1  0.53648543  0.93750000  0.04307176  1
  O  O367  1  0.53648543  0.93750000  0.54307176  1
  O  O368  1  0.46351457  0.06250000  0.45692824  1
  O  O369  1  0.46351457  0.06250000  0.95692824  1
  O  O370  1  0.46351457  0.31250000  0.45692824  1
  O  O371  1  0.46351457  0.31250000  0.95692824  1
  O  O372  1  0.46351457  0.56250000  0.45692824  1
  O  O373  1  0.46351457  0.56250000  0.95692824  1
  O  O374  1  0.46351457  0.81250000  0.45692824  1
  O  O375  1  0.46351457  0.81250000  0.95692824  1
  O  O376  1  0.96351457  0.06250000  0.45692824  1
  O  O377  1  0.96351457  0.06250000  0.95692824  1
  O  O378  1  0.96351457  0.31250000  0.45692824  1
  O  O379  1  0.96351457  0.31250000  0.95692824  1
  O  O380  1  0.96351457  0.56250000  0.45692824  1
  O  O381  1  0.96351457  0.56250000  0.95692824  1
  O  O382  1  0.96351457  0.81250000  0.45692824  1
  O  O383  1  0.96351457  0.81250000  0.95692824  1
  O  O384  1  0.10307409  0.24686020  0.18737358  1
  O  O385  1  0.10307409  0.24686020  0.68737358  1
  O  O386  1  0.10307409  0.49686020  0.18737358  1
  O  O387  1  0.10307409  0.49686020  0.68737358  1
  O  O388  1  0.10307409  0.74686020  0.18737358  1
  O  O389  1  0.10307409  0.74686020  0.68737358  1
  O  O390  1  0.10307409  0.99686020  0.18737358  1
  O  O391  1  0.10307409  0.99686020  0.68737358  1
  O  O392  1  0.60307409  0.24686020  0.18737358  1
  O  O393  1  0.60307409  0.24686020  0.68737358  1
  O  O394  1  0.60307409  0.49686020  0.18737358  1
  O  O395  1  0.60307409  0.49686020  0.68737358  1
  O  O396  1  0.60307409  0.74686020  0.18737358  1
  O  O397  1  0.60307409  0.74686020  0.68737358  1
  O  O398  1  0.60307409  0.99686020  0.18737358  1
  O  O399  1  0.60307409  0.99686020  0.68737358  1
  O  O400  1  0.21351457  0.06250000  0.29307176  1
  O  O401  1  0.21351457  0.06250000  0.79307176  1
  O  O402  1  0.21351457  0.31250000  0.29307176  1
  O  O403  1  0.21351457  0.31250000  0.79307176  1
  O  O404  1  0.21351457  0.56250000  0.29307176  1
  O  O405  1  0.21351457  0.56250000  0.79307176  1
  O  O406  1  0.21351457  0.81250000  0.29307176  1
  O  O407  1  0.21351457  0.81250000  0.79307176  1
  O  O408  1  0.71351457  0.06250000  0.29307176  1
  O  O409  1  0.71351457  0.06250000  0.79307176  1
  O  O410  1  0.71351457  0.31250000  0.29307176  1
  O  O411  1  0.71351457  0.31250000  0.79307176  1
  O  O412  1  0.71351457  0.56250000  0.29307176  1
  O  O413  1  0.71351457  0.56250000  0.79307176  1
  O  O414  1  0.71351457  0.81250000  0.29307176  1
  O  O415  1  0.71351457  0.81250000  0.79307176  1
  O  O416  1  0.14692591  0.12186020  0.43737358  1
  O  O417  1  0.14692591  0.12186020  0.93737358  1
  O  O418  1  0.14692591  0.37186020  0.43737358  1
  O  O419  1  0.14692591  0.37186020  0.93737358  1
  O  O420  1  0.14692591  0.62186020  0.43737358  1
  O  O421  1  0.14692591  0.62186020  0.93737358  1
  O  O422  1  0.14692591  0.87186020  0.43737358  1
  O  O423  1  0.14692591  0.87186020  0.93737358  1
  O  O424  1  0.64692591  0.12186020  0.43737358  1
  O  O425  1  0.64692591  0.12186020  0.93737358  1
  O  O426  1  0.64692591  0.37186020  0.43737358  1
  O  O427  1  0.64692591  0.37186020  0.93737358  1
  O  O428  1  0.64692591  0.62186020  0.43737358  1
  O  O429  1  0.64692591  0.62186020  0.93737358  1
  O  O430  1  0.64692591  0.87186020  0.43737358  1
  O  O431  1  0.64692591  0.87186020  0.93737358  1
  O  O432  1  0.15753575  0.06250000  0.04226923  1
  O  O433  1  0.15753575  0.06250000  0.54226923  1
  O  O434  1  0.15753575  0.31250000  0.04226923  1
  O  O435  1  0.15753575  0.31250000  0.54226923  1
  O  O436  1  0.15753575  0.56250000  0.04226923  1
  O  O437  1  0.15753575  0.56250000  0.54226923  1
  O  O438  1  0.15753575  0.81250000  0.04226923  1
  O  O439  1  0.15753575  0.81250000  0.54226923  1
  O  O440  1  0.65753575  0.06250000  0.04226923  1
  O  O441  1  0.65753575  0.06250000  0.54226923  1
  O  O442  1  0.65753575  0.31250000  0.04226923  1
  O  O443  1  0.65753575  0.31250000  0.54226923  1
  O  O444  1  0.65753575  0.56250000  0.04226923  1
  O  O445  1  0.65753575  0.56250000  0.54226923  1
  O  O446  1  0.65753575  0.81250000  0.04226923  1
  O  O447  1  0.65753575  0.81250000  0.54226923  1
