# generated using pymatgen
data_K2MoO4
_symmetry_space_group_name_H-M   'P 1'
_cell_length_a   12.39934442
_cell_length_b   12.20446767
_cell_length_c   15.15908225
_cell_angle_alpha   90.00000000
_cell_angle_beta   115.66784580
_cell_angle_gamma   90.00000000
_symmetry_Int_Tables_number   1
_chemical_formula_structural   K2MoO4
_chemical_formula_sum   'K32 Mo16 O64'
_cell_volume   2067.61465434
_cell_formula_units_Z   16
loop_
 _symmetry_equiv_pos_site_id
 _symmetry_equiv_pos_as_xyz
  1  'x, y, z'
loop_
 _atom_site_type_symbol
 _atom_site_label
 _atom_site_symmetry_multiplicity
 _atom_site_fract_x
 _atom_site_fract_y
 _atom_site_fract_z
 _atom_site_occupancy
  K  K0  1  0.51150156  0.00000000  0.11814423  1
  K  K1  1  0.51150156  0.00000000  0.61814423  1
  K  K2  1  0.51150156  0.50000000  0.11814423  1
  K  K3  1  0.51150156  0.50000000  0.61814423  1
  K  K4  1  1.01150156  0.25000000  0.11814423  1
  K  K5  1  1.01150156  0.25000000  0.61814423  1
  K  K6  1  1.01150156  0.75000000  0.11814423  1
  K  K7  1  1.01150156  0.75000000  0.61814423  1
  K  K8  1  0.48849844  0.00000000  0.38185577  1
  K  K9  1  0.48849844  0.00000000  0.88185577  1
  K  K10  1  0.48849844  0.50000000  0.38185577  1
  K  K11  1  0.48849844  0.50000000  0.88185577  1
  K  K12  1  0.98849844  0.25000000  0.38185577  1
  K  K13  1  0.98849844  0.25000000  0.88185577  1
  K  K14  1  0.98849844  0.75000000  0.38185577  1
  K  K15  1  0.98849844  0.75000000  0.88185577  1
  K  K16  1  0.15632321  0.00000000  0.37460410  1
  K  K17  1  0.15632321  0.00000000  0.87460410  1
  K  K18  1  0.15632321  0.50000000  0.37460410  1
  K  K19  1  0.15632321  0.50000000  0.87460410  1
  K  K20  1  0.65632321  0.25000000  0.37460410  1
  K  K21  1  0.65632321  0.25000000  0.87460410  1
  K  K22  1  0.65632321  0.75000000  0.37460410  1
  K  K23  1  0.65632321  0.75000000  0.87460410  1
  K  K24  1  0.84367679  0.00000000  0.12539590  1
  K  K25  1  0.84367679  0.00000000  0.62539590  1
  K  K26  1  0.84367679  0.50000000  0.12539590  1
  K  K27  1  0.84367679  0.50000000  0.62539590  1
  K  K28  1  1.34367679  0.25000000  0.12539590  1
  K  K29  1  1.34367679  0.25000000  0.62539590  1
  K  K30  1  1.34367679  0.75000000  0.12539590  1
  K  K31  1  1.34367679  0.75000000  0.62539590  1
  Mo  Mo32  1  0.17551929  0.00000000  0.11213337  1
  Mo  Mo33  1  0.17551929  0.00000000  0.61213337  1
  Mo  Mo34  1  0.17551929  0.50000000  0.11213337  1
  Mo  Mo35  1  0.17551929  0.50000000  0.61213337  1
  Mo  Mo36  1  0.67551929  0.25000000  0.11213337  1
  Mo  Mo37  1  0.67551929  0.25000000  0.61213337  1
  Mo  Mo38  1  0.67551929  0.75000000  0.11213337  1
  Mo  Mo39  1  0.67551929  0.75000000  0.61213337  1
  Mo  Mo40  1  0.82448071  -0.00000000  0.38786663  1
  Mo  Mo41  1  0.82448071  -0.00000000  0.88786663  1
  Mo  Mo42  1  0.82448071  0.50000000  0.38786663  1
  Mo  Mo43  1  0.82448071  0.50000000  0.88786663  1
  Mo  Mo44  1  1.32448071  0.25000000  0.38786663  1
  Mo  Mo45  1  1.32448071  0.25000000  0.88786663  1
  Mo  Mo46  1  1.32448071  0.75000000  0.38786663  1
  Mo  Mo47  1  1.32448071  0.75000000  0.88786663  1
  O  O48  1  0.64155541  -0.13028148  0.03666063  1
  O  O49  1  0.64155541  -0.13028148  0.53666063  1
  O  O50  1  0.64155541  0.36971852  0.03666063  1
  O  O51  1  0.64155541  0.36971852  0.53666063  1
  O  O52  1  1.14155541  0.11971852  0.03666063  1
  O  O53  1  1.14155541  0.11971852  0.53666063  1
  O  O54  1  1.14155541  0.61971852  0.03666063  1
  O  O55  1  1.14155541  0.61971852  0.53666063  1
  O  O56  1  0.35844459  -0.13028148  0.46333937  1
  O  O57  1  0.35844459  -0.13028148  0.96333937  1
  O  O58  1  0.35844459  0.36971852  0.46333937  1
  O  O59  1  0.35844459  0.36971852  0.96333937  1
  O  O60  1  0.85844459  0.11971852  0.46333937  1
  O  O61  1  0.85844459  0.11971852  0.96333937  1
  O  O62  1  0.85844459  0.61971852  0.46333937  1
  O  O63  1  0.85844459  0.61971852  0.96333937  1
  O  O64  1  0.35844459  0.13028148  0.46333937  1
  O  O65  1  0.35844459  0.13028148  0.96333937  1
  O  O66  1  0.35844459  0.63028148  0.46333937  1
  O  O67  1  0.35844459  0.63028148  0.96333937  1
  O  O68  1  0.85844459  0.38028148  0.46333937  1
  O  O69  1  0.85844459  0.38028148  0.96333937  1
  O  O70  1  0.85844459  0.88028148  0.46333937  1
  O  O71  1  0.85844459  0.88028148  0.96333937  1
  O  O72  1  0.64155541  0.13028148  0.03666063  1
  O  O73  1  0.64155541  0.13028148  0.53666063  1
  O  O74  1  0.64155541  0.63028148  0.03666063  1
  O  O75  1  0.64155541  0.63028148  0.53666063  1
  O  O76  1  1.14155541  0.38028148  0.03666063  1
  O  O77  1  1.14155541  0.38028148  0.53666063  1
  O  O78  1  1.14155541  0.88028148  0.03666063  1
  O  O79  1  1.14155541  0.88028148  0.53666063  1
  O  O80  1  0.91164689  0.00000000  0.31948643  1
  O  O81  1  0.91164689  0.00000000  0.81948643  1
  O  O82  1  0.91164689  0.50000000  0.31948643  1
  O  O83  1  0.91164689  0.50000000  0.81948643  1
  O  O84  1  1.41164689  0.25000000  0.31948643  1
  O  O85  1  1.41164689  0.25000000  0.81948643  1
  O  O86  1  1.41164689  0.75000000  0.31948643  1
  O  O87  1  1.41164689  0.75000000  0.81948643  1
  O  O88  1  0.08835311  0.00000000  0.18051357  1
  O  O89  1  0.08835311  0.00000000  0.68051357  1
  O  O90  1  0.08835311  0.50000000  0.18051357  1
  O  O91  1  0.08835311  0.50000000  0.68051357  1
  O  O92  1  0.58835311  0.25000000  0.18051357  1
  O  O93  1  0.58835311  0.25000000  0.68051357  1
  O  O94  1  0.58835311  0.75000000  0.18051357  1
  O  O95  1  0.58835311  0.75000000  0.68051357  1
  O  O96  1  0.33323368  0.00000000  0.19003880  1
  O  O97  1  0.33323368  0.00000000  0.69003880  1
  O  O98  1  0.33323368  0.50000000  0.19003880  1
  O  O99  1  0.33323368  0.50000000  0.69003880  1
  O  O100  1  0.83323368  0.25000000  0.19003880  1
  O  O101  1  0.83323368  0.25000000  0.69003880  1
  O  O102  1  0.83323368  0.75000000  0.19003880  1
  O  O103  1  0.83323368  0.75000000  0.69003880  1
  O  O104  1  0.66676632  0.00000000  0.30996120  1
  O  O105  1  0.66676632  0.00000000  0.80996120  1
  O  O106  1  0.66676632  0.50000000  0.30996120  1
  O  O107  1  0.66676632  0.50000000  0.80996120  1
  O  O108  1  1.16676632  0.25000000  0.30996120  1
  O  O109  1  1.16676632  0.25000000  0.80996120  1
  O  O110  1  1.16676632  0.75000000  0.30996120  1
  O  O111  1  1.16676632  0.75000000  0.80996120  1
