# generated using pymatgen
data_Sr2YNbO6
_symmetry_space_group_name_H-M   'P 1'
_cell_length_a   17.35782271
_cell_length_b   17.66256219
_cell_length_c   20.07625724
_cell_angle_alpha   90.00000000
_cell_angle_beta   124.97851345
_cell_angle_gamma   90.00000000
_symmetry_Int_Tables_number   1
_chemical_formula_structural   Sr2YNbO6
_chemical_formula_sum   'Sr72 Y36 Nb36 O216'
_cell_volume   5043.24675077
_cell_formula_units_Z   36
loop_
 _symmetry_equiv_pos_site_id
 _symmetry_equiv_pos_as_xyz
  1  'x, y, z'
loop_
 _atom_site_type_symbol
 _atom_site_label
 _atom_site_symmetry_multiplicity
 _atom_site_fract_x
 _atom_site_fract_y
 _atom_site_fract_z
 _atom_site_occupancy
  Sr  Sr0  1  0.08641853  0.15317681  0.12467090  1
  Sr  Sr1  1  0.08641853  0.15317681  0.62467090  1
  Sr  Sr2  1  0.08641853  0.48651014  0.12467090  1
  Sr  Sr3  1  0.08641853  0.48651014  0.62467090  1
  Sr  Sr4  1  0.08641853  0.81984348  0.12467090  1
  Sr  Sr5  1  0.08641853  0.81984348  0.62467090  1
  Sr  Sr6  1  0.41975187  0.15317681  0.12467090  1
  Sr  Sr7  1  0.41975187  0.15317681  0.62467090  1
  Sr  Sr8  1  0.41975187  0.48651014  0.12467090  1
  Sr  Sr9  1  0.41975187  0.48651014  0.62467090  1
  Sr  Sr10  1  0.41975187  0.81984348  0.12467090  1
  Sr  Sr11  1  0.41975187  0.81984348  0.62467090  1
  Sr  Sr12  1  0.75308520  0.15317681  0.12467090  1
  Sr  Sr13  1  0.75308520  0.15317681  0.62467090  1
  Sr  Sr14  1  0.75308520  0.48651014  0.12467090  1
  Sr  Sr15  1  0.75308520  0.48651014  0.62467090  1
  Sr  Sr16  1  0.75308520  0.81984348  0.12467090  1
  Sr  Sr17  1  0.75308520  0.81984348  0.62467090  1
  Sr  Sr18  1  0.24691480  0.31984348  0.12532910  1
  Sr  Sr19  1  0.24691480  0.31984348  0.62532910  1
  Sr  Sr20  1  0.24691480  0.65317681  0.12532910  1
  Sr  Sr21  1  0.24691480  0.65317681  0.62532910  1
  Sr  Sr22  1  0.24691480  0.98651014  0.12532910  1
  Sr  Sr23  1  0.24691480  0.98651014  0.62532910  1
  Sr  Sr24  1  0.58024813  0.31984348  0.12532910  1
  Sr  Sr25  1  0.58024813  0.31984348  0.62532910  1
  Sr  Sr26  1  0.58024813  0.65317681  0.12532910  1
  Sr  Sr27  1  0.58024813  0.65317681  0.62532910  1
  Sr  Sr28  1  0.58024813  0.98651014  0.12532910  1
  Sr  Sr29  1  0.58024813  0.98651014  0.62532910  1
  Sr  Sr30  1  0.91358147  0.31984348  0.12532910  1
  Sr  Sr31  1  0.91358147  0.31984348  0.62532910  1
  Sr  Sr32  1  0.91358147  0.65317681  0.12532910  1
  Sr  Sr33  1  0.91358147  0.65317681  0.62532910  1
  Sr  Sr34  1  0.91358147  0.98651014  0.12532910  1
  Sr  Sr35  1  0.91358147  0.98651014  0.62532910  1
  Sr  Sr36  1  0.08641853  0.01348986  0.37467090  1
  Sr  Sr37  1  0.08641853  0.01348986  0.87467090  1
  Sr  Sr38  1  0.08641853  0.34682319  0.37467090  1
  Sr  Sr39  1  0.08641853  0.34682319  0.87467090  1
  Sr  Sr40  1  0.08641853  0.68015652  0.37467090  1
  Sr  Sr41  1  0.08641853  0.68015652  0.87467090  1
  Sr  Sr42  1  0.41975187  0.01348986  0.37467090  1
  Sr  Sr43  1  0.41975187  0.01348986  0.87467090  1
  Sr  Sr44  1  0.41975187  0.34682319  0.37467090  1
  Sr  Sr45  1  0.41975187  0.34682319  0.87467090  1
  Sr  Sr46  1  0.41975187  0.68015652  0.37467090  1
  Sr  Sr47  1  0.41975187  0.68015652  0.87467090  1
  Sr  Sr48  1  0.75308520  0.01348986  0.37467090  1
  Sr  Sr49  1  0.75308520  0.01348986  0.87467090  1
  Sr  Sr50  1  0.75308520  0.34682319  0.37467090  1
  Sr  Sr51  1  0.75308520  0.34682319  0.87467090  1
  Sr  Sr52  1  0.75308520  0.68015652  0.37467090  1
  Sr  Sr53  1  0.75308520  0.68015652  0.87467090  1
  Sr  Sr54  1  0.24691480  0.18015652  0.37532910  1
  Sr  Sr55  1  0.24691480  0.18015652  0.87532910  1
  Sr  Sr56  1  0.24691480  0.51348986  0.37532910  1
  Sr  Sr57  1  0.24691480  0.51348986  0.87532910  1
  Sr  Sr58  1  0.24691480  0.84682319  0.37532910  1
  Sr  Sr59  1  0.24691480  0.84682319  0.87532910  1
  Sr  Sr60  1  0.58024813  0.18015652  0.37532910  1
  Sr  Sr61  1  0.58024813  0.18015652  0.87532910  1
  Sr  Sr62  1  0.58024813  0.51348986  0.37532910  1
  Sr  Sr63  1  0.58024813  0.51348986  0.87532910  1
  Sr  Sr64  1  0.58024813  0.84682319  0.37532910  1
  Sr  Sr65  1  0.58024813  0.84682319  0.87532910  1
  Sr  Sr66  1  0.91358147  0.18015652  0.37532910  1
  Sr  Sr67  1  0.91358147  0.18015652  0.87532910  1
  Sr  Sr68  1  0.91358147  0.51348986  0.37532910  1
  Sr  Sr69  1  0.91358147  0.51348986  0.87532910  1
  Sr  Sr70  1  0.91358147  0.84682319  0.37532910  1
  Sr  Sr71  1  0.91358147  0.84682319  0.87532910  1
  Y  Y72  1  0.00000000  0.16666667  0.25000000  1
  Y  Y73  1  0.00000000  0.16666667  0.75000000  1
  Y  Y74  1  0.00000000  0.50000000  0.25000000  1
  Y  Y75  1  0.00000000  0.50000000  0.75000000  1
  Y  Y76  1  0.00000000  0.83333333  0.25000000  1
  Y  Y77  1  0.00000000  0.83333333  0.75000000  1
  Y  Y78  1  0.33333333  0.16666667  0.25000000  1
  Y  Y79  1  0.33333333  0.16666667  0.75000000  1
  Y  Y80  1  0.33333333  0.50000000  0.25000000  1
  Y  Y81  1  0.33333333  0.50000000  0.75000000  1
  Y  Y82  1  0.33333333  0.83333333  0.25000000  1
  Y  Y83  1  0.33333333  0.83333333  0.75000000  1
  Y  Y84  1  0.66666667  0.16666667  0.25000000  1
  Y  Y85  1  0.66666667  0.16666667  0.75000000  1
  Y  Y86  1  0.66666667  0.50000000  0.25000000  1
  Y  Y87  1  0.66666667  0.50000000  0.75000000  1
  Y  Y88  1  0.66666667  0.83333333  0.25000000  1
  Y  Y89  1  0.66666667  0.83333333  0.75000000  1
  Y  Y90  1  0.00000000  0.00000000  0.00000000  1
  Y  Y91  1  0.00000000  0.00000000  0.50000000  1
  Y  Y92  1  0.00000000  0.33333333  0.00000000  1
  Y  Y93  1  0.00000000  0.33333333  0.50000000  1
  Y  Y94  1  0.00000000  0.66666667  0.00000000  1
  Y  Y95  1  0.00000000  0.66666667  0.50000000  1
  Y  Y96  1  0.33333333  0.00000000  0.00000000  1
  Y  Y97  1  0.33333333  0.00000000  0.50000000  1
  Y  Y98  1  0.33333333  0.33333333  0.00000000  1
  Y  Y99  1  0.33333333  0.33333333  0.50000000  1
  Y  Y100  1  0.33333333  0.66666667  0.00000000  1
  Y  Y101  1  0.33333333  0.66666667  0.50000000  1
  Y  Y102  1  0.66666667  0.00000000  0.00000000  1
  Y  Y103  1  0.66666667  0.00000000  0.50000000  1
  Y  Y104  1  0.66666667  0.33333333  0.00000000  1
  Y  Y105  1  0.66666667  0.33333333  0.50000000  1
  Y  Y106  1  0.66666667  0.66666667  0.00000000  1
  Y  Y107  1  0.66666667  0.66666667  0.50000000  1
  Nb  Nb108  1  0.16666667  0.00000000  0.25000000  1
  Nb  Nb109  1  0.16666667  0.00000000  0.75000000  1
  Nb  Nb110  1  0.16666667  0.33333333  0.25000000  1
  Nb  Nb111  1  0.16666667  0.33333333  0.75000000  1
  Nb  Nb112  1  0.16666667  0.66666667  0.25000000  1
  Nb  Nb113  1  0.16666667  0.66666667  0.75000000  1
  Nb  Nb114  1  0.50000000  0.00000000  0.25000000  1
  Nb  Nb115  1  0.50000000  0.00000000  0.75000000  1
  Nb  Nb116  1  0.50000000  0.33333333  0.25000000  1
  Nb  Nb117  1  0.50000000  0.33333333  0.75000000  1
  Nb  Nb118  1  0.50000000  0.66666667  0.25000000  1
  Nb  Nb119  1  0.50000000  0.66666667  0.75000000  1
  Nb  Nb120  1  0.83333333  0.00000000  0.25000000  1
  Nb  Nb121  1  0.83333333  0.00000000  0.75000000  1
  Nb  Nb122  1  0.83333333  0.33333333  0.25000000  1
  Nb  Nb123  1  0.83333333  0.33333333  0.75000000  1
  Nb  Nb124  1  0.83333333  0.66666667  0.25000000  1
  Nb  Nb125  1  0.83333333  0.66666667  0.75000000  1
  Nb  Nb126  1  0.16666667  0.16666667  0.00000000  1
  Nb  Nb127  1  0.16666667  0.16666667  0.50000000  1
  Nb  Nb128  1  0.16666667  0.50000000  0.00000000  1
  Nb  Nb129  1  0.16666667  0.50000000  0.50000000  1
  Nb  Nb130  1  0.16666667  0.83333333  0.00000000  1
  Nb  Nb131  1  0.16666667  0.83333333  0.50000000  1
  Nb  Nb132  1  0.50000000  0.16666667  0.00000000  1
  Nb  Nb133  1  0.50000000  0.16666667  0.50000000  1
  Nb  Nb134  1  0.50000000  0.50000000  0.00000000  1
  Nb  Nb135  1  0.50000000  0.50000000  0.50000000  1
  Nb  Nb136  1  0.50000000  0.83333333  0.00000000  1
  Nb  Nb137  1  0.50000000  0.83333333  0.50000000  1
  Nb  Nb138  1  0.83333333  0.16666667  0.00000000  1
  Nb  Nb139  1  0.83333333  0.16666667  0.50000000  1
  Nb  Nb140  1  0.83333333  0.50000000  0.00000000  1
  Nb  Nb141  1  0.83333333  0.50000000  0.50000000  1
  Nb  Nb142  1  0.83333333  0.83333333  0.00000000  1
  Nb  Nb143  1  0.83333333  0.83333333  0.50000000  1
  O  O144  1  0.24452885  0.06578567  0.22827059  1
  O  O145  1  0.24452885  0.06578567  0.72827059  1
  O  O146  1  0.24452885  0.39911901  0.22827059  1
  O  O147  1  0.24452885  0.39911901  0.72827059  1
  O  O148  1  0.24452885  0.73245234  0.22827059  1
  O  O149  1  0.24452885  0.73245234  0.72827059  1
  O  O150  1  0.57786218  0.06578567  0.22827059  1
  O  O151  1  0.57786218  0.06578567  0.72827059  1
  O  O152  1  0.57786218  0.39911901  0.22827059  1
  O  O153  1  0.57786218  0.39911901  0.72827059  1
  O  O154  1  0.57786218  0.73245234  0.22827059  1
  O  O155  1  0.57786218  0.73245234  0.72827059  1
  O  O156  1  0.91119552  0.06578567  0.22827059  1
  O  O157  1  0.91119552  0.06578567  0.72827059  1
  O  O158  1  0.91119552  0.39911901  0.22827059  1
  O  O159  1  0.91119552  0.39911901  0.72827059  1
  O  O160  1  0.91119552  0.73245234  0.22827059  1
  O  O161  1  0.91119552  0.73245234  0.72827059  1
  O  O162  1  0.08880448  0.23245234  0.02172941  1
  O  O163  1  0.08880448  0.23245234  0.52172941  1
  O  O164  1  0.08880448  0.56578567  0.02172941  1
  O  O165  1  0.08880448  0.56578567  0.52172941  1
  O  O166  1  0.08880448  0.89911901  0.02172941  1
  O  O167  1  0.08880448  0.89911901  0.52172941  1
  O  O168  1  0.42213782  0.23245234  0.02172941  1
  O  O169  1  0.42213782  0.23245234  0.52172941  1
  O  O170  1  0.42213782  0.56578567  0.02172941  1
  O  O171  1  0.42213782  0.56578567  0.52172941  1
  O  O172  1  0.42213782  0.89911901  0.02172941  1
  O  O173  1  0.42213782  0.89911901  0.52172941  1
  O  O174  1  0.75547115  0.23245234  0.02172941  1
  O  O175  1  0.75547115  0.23245234  0.52172941  1
  O  O176  1  0.75547115  0.56578567  0.02172941  1
  O  O177  1  0.75547115  0.56578567  0.52172941  1
  O  O178  1  0.75547115  0.89911901  0.02172941  1
  O  O179  1  0.75547115  0.89911901  0.52172941  1
  O  O180  1  0.08880448  0.26754766  0.27172941  1
  O  O181  1  0.08880448  0.26754766  0.77172941  1
  O  O182  1  0.08880448  0.60088099  0.27172941  1
  O  O183  1  0.08880448  0.60088099  0.77172941  1
  O  O184  1  0.08880448  0.93421433  0.27172941  1
  O  O185  1  0.08880448  0.93421433  0.77172941  1
  O  O186  1  0.42213782  0.26754766  0.27172941  1
  O  O187  1  0.42213782  0.26754766  0.77172941  1
  O  O188  1  0.42213782  0.60088099  0.27172941  1
  O  O189  1  0.42213782  0.60088099  0.77172941  1
  O  O190  1  0.42213782  0.93421433  0.27172941  1
  O  O191  1  0.42213782  0.93421433  0.77172941  1
  O  O192  1  0.75547115  0.26754766  0.27172941  1
  O  O193  1  0.75547115  0.26754766  0.77172941  1
  O  O194  1  0.75547115  0.60088099  0.27172941  1
  O  O195  1  0.75547115  0.60088099  0.77172941  1
  O  O196  1  0.75547115  0.93421433  0.27172941  1
  O  O197  1  0.75547115  0.93421433  0.77172941  1
  O  O198  1  0.24452885  0.10088099  0.47827059  1
  O  O199  1  0.24452885  0.10088099  0.97827059  1
  O  O200  1  0.24452885  0.43421433  0.47827059  1
  O  O201  1  0.24452885  0.43421433  0.97827059  1
  O  O202  1  0.24452885  0.76754766  0.47827059  1
  O  O203  1  0.24452885  0.76754766  0.97827059  1
  O  O204  1  0.57786218  0.10088099  0.47827059  1
  O  O205  1  0.57786218  0.10088099  0.97827059  1
  O  O206  1  0.57786218  0.43421433  0.47827059  1
  O  O207  1  0.57786218  0.43421433  0.97827059  1
  O  O208  1  0.57786218  0.76754766  0.47827059  1
  O  O209  1  0.57786218  0.76754766  0.97827059  1
  O  O210  1  0.91119552  0.10088099  0.47827059  1
  O  O211  1  0.91119552  0.10088099  0.97827059  1
  O  O212  1  0.91119552  0.43421433  0.47827059  1
  O  O213  1  0.91119552  0.43421433  0.97827059  1
  O  O214  1  0.91119552  0.76754766  0.47827059  1
  O  O215  1  0.91119552  0.76754766  0.97827059  1
  O  O216  1  0.21564320  0.24093103  0.22606452  1
  O  O217  1  0.21564320  0.24093103  0.72606452  1
  O  O218  1  0.21564320  0.57426437  0.22606452  1
  O  O219  1  0.21564320  0.57426437  0.72606452  1
  O  O220  1  0.21564320  0.90759770  0.22606452  1
  O  O221  1  0.21564320  0.90759770  0.72606452  1
  O  O222  1  0.54897653  0.24093103  0.22606452  1
  O  O223  1  0.54897653  0.24093103  0.72606452  1
  O  O224  1  0.54897653  0.57426437  0.22606452  1
  O  O225  1  0.54897653  0.57426437  0.72606452  1
  O  O226  1  0.54897653  0.90759770  0.22606452  1
  O  O227  1  0.54897653  0.90759770  0.72606452  1
  O  O228  1  0.88230987  0.24093103  0.22606452  1
  O  O229  1  0.88230987  0.24093103  0.72606452  1
  O  O230  1  0.88230987  0.57426437  0.22606452  1
  O  O231  1  0.88230987  0.57426437  0.72606452  1
  O  O232  1  0.88230987  0.90759770  0.22606452  1
  O  O233  1  0.88230987  0.90759770  0.72606452  1
  O  O234  1  0.11769013  0.07426437  0.02393548  1
  O  O235  1  0.11769013  0.07426437  0.52393548  1
  O  O236  1  0.11769013  0.40759770  0.02393548  1
  O  O237  1  0.11769013  0.40759770  0.52393548  1
  O  O238  1  0.11769013  0.74093103  0.02393548  1
  O  O239  1  0.11769013  0.74093103  0.52393548  1
  O  O240  1  0.45102347  0.07426437  0.02393548  1
  O  O241  1  0.45102347  0.07426437  0.52393548  1
  O  O242  1  0.45102347  0.40759770  0.02393548  1
  O  O243  1  0.45102347  0.40759770  0.52393548  1
  O  O244  1  0.45102347  0.74093103  0.02393548  1
  O  O245  1  0.45102347  0.74093103  0.52393548  1
  O  O246  1  0.78435680  0.07426437  0.02393548  1
  O  O247  1  0.78435680  0.07426437  0.52393548  1
  O  O248  1  0.78435680  0.40759770  0.02393548  1
  O  O249  1  0.78435680  0.40759770  0.52393548  1
  O  O250  1  0.78435680  0.74093103  0.02393548  1
  O  O251  1  0.78435680  0.74093103  0.52393548  1
  O  O252  1  0.11769013  0.09240230  0.27393548  1
  O  O253  1  0.11769013  0.09240230  0.77393548  1
  O  O254  1  0.11769013  0.42573563  0.27393548  1
  O  O255  1  0.11769013  0.42573563  0.77393548  1
  O  O256  1  0.11769013  0.75906897  0.27393548  1
  O  O257  1  0.11769013  0.75906897  0.77393548  1
  O  O258  1  0.45102347  0.09240230  0.27393548  1
  O  O259  1  0.45102347  0.09240230  0.77393548  1
  O  O260  1  0.45102347  0.42573563  0.27393548  1
  O  O261  1  0.45102347  0.42573563  0.77393548  1
  O  O262  1  0.45102347  0.75906897  0.27393548  1
  O  O263  1  0.45102347  0.75906897  0.77393548  1
  O  O264  1  0.78435680  0.09240230  0.27393548  1
  O  O265  1  0.78435680  0.09240230  0.77393548  1
  O  O266  1  0.78435680  0.42573563  0.27393548  1
  O  O267  1  0.78435680  0.42573563  0.77393548  1
  O  O268  1  0.78435680  0.75906897  0.27393548  1
  O  O269  1  0.78435680  0.75906897  0.77393548  1
  O  O270  1  0.21564320  0.25906897  0.47606452  1
  O  O271  1  0.21564320  0.25906897  0.97606452  1
  O  O272  1  0.21564320  0.59240230  0.47606452  1
  O  O273  1  0.21564320  0.59240230  0.97606452  1
  O  O274  1  0.21564320  0.92573563  0.47606452  1
  O  O275  1  0.21564320  0.92573563  0.97606452  1
  O  O276  1  0.54897653  0.25906897  0.47606452  1
  O  O277  1  0.54897653  0.25906897  0.97606452  1
  O  O278  1  0.54897653  0.59240230  0.47606452  1
  O  O279  1  0.54897653  0.59240230  0.97606452  1
  O  O280  1  0.54897653  0.92573563  0.47606452  1
  O  O281  1  0.54897653  0.92573563  0.97606452  1
  O  O282  1  0.88230987  0.25906897  0.47606452  1
  O  O283  1  0.88230987  0.25906897  0.97606452  1
  O  O284  1  0.88230987  0.59240230  0.47606452  1
  O  O285  1  0.88230987  0.59240230  0.97606452  1
  O  O286  1  0.88230987  0.92573563  0.47606452  1
  O  O287  1  0.88230987  0.92573563  0.97606452  1
  O  O288  1  0.05943381  0.00896870  0.13191005  1
  O  O289  1  0.05943381  0.00896870  0.63191005  1
  O  O290  1  0.05943381  0.34230204  0.13191005  1
  O  O291  1  0.05943381  0.34230204  0.63191005  1
  O  O292  1  0.05943381  0.67563537  0.13191005  1
  O  O293  1  0.05943381  0.67563537  0.63191005  1
  O  O294  1  0.39276714  0.00896870  0.13191005  1
  O  O295  1  0.39276714  0.00896870  0.63191005  1
  O  O296  1  0.39276714  0.34230204  0.13191005  1
  O  O297  1  0.39276714  0.34230204  0.63191005  1
  O  O298  1  0.39276714  0.67563537  0.13191005  1
  O  O299  1  0.39276714  0.67563537  0.63191005  1
  O  O300  1  0.72610048  0.00896870  0.13191005  1
  O  O301  1  0.72610048  0.00896870  0.63191005  1
  O  O302  1  0.72610048  0.34230204  0.13191005  1
  O  O303  1  0.72610048  0.34230204  0.63191005  1
  O  O304  1  0.72610048  0.67563537  0.13191005  1
  O  O305  1  0.72610048  0.67563537  0.63191005  1
  O  O306  1  0.27389952  0.17563537  0.11808995  1
  O  O307  1  0.27389952  0.17563537  0.61808995  1
  O  O308  1  0.27389952  0.50896870  0.11808995  1
  O  O309  1  0.27389952  0.50896870  0.61808995  1
  O  O310  1  0.27389952  0.84230204  0.11808995  1
  O  O311  1  0.27389952  0.84230204  0.61808995  1
  O  O312  1  0.60723286  0.17563537  0.11808995  1
  O  O313  1  0.60723286  0.17563537  0.61808995  1
  O  O314  1  0.60723286  0.50896870  0.11808995  1
  O  O315  1  0.60723286  0.50896870  0.61808995  1
  O  O316  1  0.60723286  0.84230204  0.11808995  1
  O  O317  1  0.60723286  0.84230204  0.61808995  1
  O  O318  1  0.94056619  0.17563537  0.11808995  1
  O  O319  1  0.94056619  0.17563537  0.61808995  1
  O  O320  1  0.94056619  0.50896870  0.11808995  1
  O  O321  1  0.94056619  0.50896870  0.61808995  1
  O  O322  1  0.94056619  0.84230204  0.11808995  1
  O  O323  1  0.94056619  0.84230204  0.61808995  1
  O  O324  1  0.27389952  0.32436463  0.36808995  1
  O  O325  1  0.27389952  0.32436463  0.86808995  1
  O  O326  1  0.27389952  0.65769796  0.36808995  1
  O  O327  1  0.27389952  0.65769796  0.86808995  1
  O  O328  1  0.27389952  0.99103130  0.36808995  1
  O  O329  1  0.27389952  0.99103130  0.86808995  1
  O  O330  1  0.60723286  0.32436463  0.36808995  1
  O  O331  1  0.60723286  0.32436463  0.86808995  1
  O  O332  1  0.60723286  0.65769796  0.36808995  1
  O  O333  1  0.60723286  0.65769796  0.86808995  1
  O  O334  1  0.60723286  0.99103130  0.36808995  1
  O  O335  1  0.60723286  0.99103130  0.86808995  1
  O  O336  1  0.94056619  0.32436463  0.36808995  1
  O  O337  1  0.94056619  0.32436463  0.86808995  1
  O  O338  1  0.94056619  0.65769796  0.36808995  1
  O  O339  1  0.94056619  0.65769796  0.86808995  1
  O  O340  1  0.94056619  0.99103130  0.36808995  1
  O  O341  1  0.94056619  0.99103130  0.86808995  1
  O  O342  1  0.05943381  0.15769796  0.38191005  1
  O  O343  1  0.05943381  0.15769796  0.88191005  1
  O  O344  1  0.05943381  0.49103130  0.38191005  1
  O  O345  1  0.05943381  0.49103130  0.88191005  1
  O  O346  1  0.05943381  0.82436463  0.38191005  1
  O  O347  1  0.05943381  0.82436463  0.88191005  1
  O  O348  1  0.39276714  0.15769796  0.38191005  1
  O  O349  1  0.39276714  0.15769796  0.88191005  1
  O  O350  1  0.39276714  0.49103130  0.38191005  1
  O  O351  1  0.39276714  0.49103130  0.88191005  1
  O  O352  1  0.39276714  0.82436463  0.38191005  1
  O  O353  1  0.39276714  0.82436463  0.88191005  1
  O  O354  1  0.72610048  0.15769796  0.38191005  1
  O  O355  1  0.72610048  0.15769796  0.88191005  1
  O  O356  1  0.72610048  0.49103130  0.38191005  1
  O  O357  1  0.72610048  0.49103130  0.88191005  1
  O  O358  1  0.72610048  0.82436463  0.38191005  1
  O  O359  1  0.72610048  0.82436463  0.88191005  1
