# generated using pymatgen
data_B4PbO7
_symmetry_space_group_name_H-M   'P 1'
_cell_length_a   10.83537178
_cell_length_b   13.34062525
_cell_length_c   12.71595855
_cell_angle_alpha   90.00000000
_cell_angle_beta   90.00000000
_cell_angle_gamma   90.00000000
_symmetry_Int_Tables_number   1
_chemical_formula_structural   B4PbO7
_chemical_formula_sum   'B72 Pb18 O126'
_cell_volume   1838.09987505
_cell_formula_units_Z   18
loop_
 _symmetry_equiv_pos_site_id
 _symmetry_equiv_pos_as_xyz
  1  'x, y, z'
loop_
 _atom_site_type_symbol
 _atom_site_label
 _atom_site_symmetry_multiplicity
 _atom_site_fract_x
 _atom_site_fract_y
 _atom_site_fract_z
 _atom_site_occupancy
  B  B0  1  0.75134371  0.05870904  0.33275076  1
  B  B1  1  0.75134371  0.05870904  0.66608409  1
  B  B2  1  0.75134371  0.05870904  0.99941742  1
  B  B3  1  0.75134371  0.39204237  0.33275076  1
  B  B4  1  0.75134371  0.39204237  0.66608409  1
  B  B5  1  0.75134371  0.39204237  0.99941742  1
  B  B6  1  0.75134371  0.72537571  0.33275076  1
  B  B7  1  0.75134371  0.72537571  0.66608409  1
  B  B8  1  0.75134371  0.72537571  0.99941742  1
  B  B9  1  0.74865629  0.27462429  0.16608409  1
  B  B10  1  0.74865629  0.27462429  0.49941742  1
  B  B11  1  0.74865629  0.27462429  0.83275076  1
  B  B12  1  0.74865629  0.60795763  0.16608409  1
  B  B13  1  0.74865629  0.60795763  0.49941742  1
  B  B14  1  0.74865629  0.60795763  0.83275076  1
  B  B15  1  0.74865629  0.94129096  0.16608409  1
  B  B16  1  0.74865629  0.94129096  0.49941742  1
  B  B17  1  0.74865629  0.94129096  0.83275076  1
  B  B18  1  0.62175521  0.22478945  0.00768921  1
  B  B19  1  0.62175521  0.22478945  0.34102254  1
  B  B20  1  0.62175521  0.22478945  0.67435588  1
  B  B21  1  0.62175521  0.55812278  0.00768921  1
  B  B22  1  0.62175521  0.55812278  0.34102254  1
  B  B23  1  0.62175521  0.55812278  0.67435588  1
  B  B24  1  0.62175521  0.89145612  0.00768921  1
  B  B25  1  0.62175521  0.89145612  0.34102254  1
  B  B26  1  0.62175521  0.89145612  0.67435588  1
  B  B27  1  0.87824479  0.10854388  0.17435588  1
  B  B28  1  0.87824479  0.10854388  0.50768921  1
  B  B29  1  0.87824479  0.10854388  0.84102254  1
  B  B30  1  0.87824479  0.44187722  0.17435588  1
  B  B31  1  0.87824479  0.44187722  0.50768921  1
  B  B32  1  0.87824479  0.44187722  0.84102254  1
  B  B33  1  0.87824479  0.77521055  0.17435588  1
  B  B34  1  0.87824479  0.77521055  0.50768921  1
  B  B35  1  0.87824479  0.77521055  0.84102254  1
  B  B36  1  0.12175521  0.10854388  0.17435588  1
  B  B37  1  0.12175521  0.10854388  0.50768921  1
  B  B38  1  0.12175521  0.10854388  0.84102254  1
  B  B39  1  0.12175521  0.44187722  0.17435588  1
  B  B40  1  0.12175521  0.44187722  0.50768921  1
  B  B41  1  0.12175521  0.44187722  0.84102254  1
  B  B42  1  0.12175521  0.77521055  0.17435588  1
  B  B43  1  0.12175521  0.77521055  0.50768921  1
  B  B44  1  0.12175521  0.77521055  0.84102254  1
  B  B45  1  0.37824479  0.22478945  0.00768921  1
  B  B46  1  0.37824479  0.22478945  0.34102254  1
  B  B47  1  0.37824479  0.22478945  0.67435588  1
  B  B48  1  0.37824479  0.55812278  0.00768921  1
  B  B49  1  0.37824479  0.55812278  0.34102254  1
  B  B50  1  0.37824479  0.55812278  0.67435588  1
  B  B51  1  0.37824479  0.89145612  0.00768921  1
  B  B52  1  0.37824479  0.89145612  0.34102254  1
  B  B53  1  0.37824479  0.89145612  0.67435588  1
  B  B54  1  0.25134371  0.27462429  0.16608409  1
  B  B55  1  0.25134371  0.27462429  0.49941742  1
  B  B56  1  0.25134371  0.27462429  0.83275076  1
  B  B57  1  0.25134371  0.60795763  0.16608409  1
  B  B58  1  0.25134371  0.60795763  0.49941742  1
  B  B59  1  0.25134371  0.60795763  0.83275076  1
  B  B60  1  0.25134371  0.94129096  0.16608409  1
  B  B61  1  0.25134371  0.94129096  0.49941742  1
  B  B62  1  0.25134371  0.94129096  0.83275076  1
  B  B63  1  0.24865629  0.05870904  0.33275076  1
  B  B64  1  0.24865629  0.05870904  0.66608409  1
  B  B65  1  0.24865629  0.05870904  0.99941742  1
  B  B66  1  0.24865629  0.39204237  0.33275076  1
  B  B67  1  0.24865629  0.39204237  0.66608409  1
  B  B68  1  0.24865629  0.39204237  0.99941742  1
  B  B69  1  0.24865629  0.72537571  0.33275076  1
  B  B70  1  0.24865629  0.72537571  0.66608409  1
  B  B71  1  0.24865629  0.72537571  0.99941742  1
  Pb  Pb72  1  0.50000000  0.06471962  0.17604451  1
  Pb  Pb73  1  0.50000000  0.06471962  0.50937784  1
  Pb  Pb74  1  0.50000000  0.06471962  0.84271118  1
  Pb  Pb75  1  0.50000000  0.39805295  0.17604451  1
  Pb  Pb76  1  0.50000000  0.39805295  0.50937784  1
  Pb  Pb77  1  0.50000000  0.39805295  0.84271118  1
  Pb  Pb78  1  0.50000000  0.73138628  0.17604451  1
  Pb  Pb79  1  0.50000000  0.73138628  0.50937784  1
  Pb  Pb80  1  0.50000000  0.73138628  0.84271118  1
  Pb  Pb81  1  0.00000000  0.26861372  0.00937784  1
  Pb  Pb82  1  0.00000000  0.26861372  0.34271118  1
  Pb  Pb83  1  0.00000000  0.26861372  0.67604451  1
  Pb  Pb84  1  0.00000000  0.60194705  0.00937784  1
  Pb  Pb85  1  0.00000000  0.60194705  0.34271118  1
  Pb  Pb86  1  0.00000000  0.60194705  0.67604451  1
  Pb  Pb87  1  0.00000000  0.93528038  0.00937784  1
  Pb  Pb88  1  0.00000000  0.93528038  0.34271118  1
  Pb  Pb89  1  0.00000000  0.93528038  0.67604451  1
  O  O90  1  0.85670230  0.21365021  0.14989028  1
  O  O91  1  0.85670230  0.21365021  0.48322362  1
  O  O92  1  0.85670230  0.21365021  0.81655695  1
  O  O93  1  0.85670230  0.54698354  0.14989028  1
  O  O94  1  0.85670230  0.54698354  0.48322362  1
  O  O95  1  0.85670230  0.54698354  0.81655695  1
  O  O96  1  0.85670230  0.88031687  0.14989028  1
  O  O97  1  0.85670230  0.88031687  0.48322362  1
  O  O98  1  0.85670230  0.88031687  0.81655695  1
  O  O99  1  0.63582946  0.24335730  0.11925478  1
  O  O100  1  0.63582946  0.24335730  0.45258811  1
  O  O101  1  0.63582946  0.24335730  0.78592145  1
  O  O102  1  0.63582946  0.57669063  0.11925478  1
  O  O103  1  0.63582946  0.57669063  0.45258811  1
  O  O104  1  0.63582946  0.57669063  0.78592145  1
  O  O105  1  0.63582946  0.91002397  0.11925478  1
  O  O106  1  0.63582946  0.91002397  0.45258811  1
  O  O107  1  0.63582946  0.91002397  0.78592145  1
  O  O108  1  0.86417054  0.08997603  0.28592145  1
  O  O109  1  0.86417054  0.08997603  0.61925478  1
  O  O110  1  0.86417054  0.08997603  0.95258811  1
  O  O111  1  0.86417054  0.42330937  0.28592145  1
  O  O112  1  0.86417054  0.42330937  0.61925478  1
  O  O113  1  0.86417054  0.42330937  0.95258811  1
  O  O114  1  0.86417054  0.75664270  0.28592145  1
  O  O115  1  0.86417054  0.75664270  0.61925478  1
  O  O116  1  0.86417054  0.75664270  0.95258811  1
  O  O117  1  0.13582946  0.08997603  0.28592145  1
  O  O118  1  0.13582946  0.08997603  0.61925478  1
  O  O119  1  0.13582946  0.08997603  0.95258811  1
  O  O120  1  0.13582946  0.42330937  0.28592145  1
  O  O121  1  0.13582946  0.42330937  0.61925478  1
  O  O122  1  0.13582946  0.42330937  0.95258811  1
  O  O123  1  0.13582946  0.75664270  0.28592145  1
  O  O124  1  0.13582946  0.75664270  0.61925478  1
  O  O125  1  0.13582946  0.75664270  0.95258811  1
  O  O126  1  0.27982383  0.29008395  0.28432253  1
  O  O127  1  0.27982383  0.29008395  0.61765587  1
  O  O128  1  0.27982383  0.29008395  0.95098920  1
  O  O129  1  0.27982383  0.62341728  0.28432253  1
  O  O130  1  0.27982383  0.62341728  0.61765587  1
  O  O131  1  0.27982383  0.62341728  0.95098920  1
  O  O132  1  0.27982383  0.95675062  0.28432253  1
  O  O133  1  0.27982383  0.95675062  0.61765587  1
  O  O134  1  0.27982383  0.95675062  0.95098920  1
  O  O135  1  0.22017617  0.04324938  0.11765587  1
  O  O136  1  0.22017617  0.04324938  0.45098920  1
  O  O137  1  0.22017617  0.04324938  0.78432253  1
  O  O138  1  0.22017617  0.37658272  0.11765587  1
  O  O139  1  0.22017617  0.37658272  0.45098920  1
  O  O140  1  0.22017617  0.37658272  0.78432253  1
  O  O141  1  0.22017617  0.70991605  0.11765587  1
  O  O142  1  0.22017617  0.70991605  0.45098920  1
  O  O143  1  0.22017617  0.70991605  0.78432253  1
  O  O144  1  0.77982383  0.04324938  0.11765587  1
  O  O145  1  0.77982383  0.04324938  0.45098920  1
  O  O146  1  0.77982383  0.04324938  0.78432253  1
  O  O147  1  0.77982383  0.37658272  0.11765587  1
  O  O148  1  0.77982383  0.37658272  0.45098920  1
  O  O149  1  0.77982383  0.37658272  0.78432253  1
  O  O150  1  0.77982383  0.70991605  0.11765587  1
  O  O151  1  0.77982383  0.70991605  0.45098920  1
  O  O152  1  0.77982383  0.70991605  0.78432253  1
  O  O153  1  0.72017617  0.29008395  0.28432253  1
  O  O154  1  0.72017617  0.29008395  0.61765587  1
  O  O155  1  0.72017617  0.29008395  0.95098920  1
  O  O156  1  0.72017617  0.62341728  0.28432253  1
  O  O157  1  0.72017617  0.62341728  0.61765587  1
  O  O158  1  0.72017617  0.62341728  0.95098920  1
  O  O159  1  0.72017617  0.95675062  0.28432253  1
  O  O160  1  0.72017617  0.95675062  0.61765587  1
  O  O161  1  0.72017617  0.95675062  0.95098920  1
  O  O162  1  0.35670230  0.11968313  0.31655695  1
  O  O163  1  0.35670230  0.11968313  0.64989028  1
  O  O164  1  0.35670230  0.11968313  0.98322362  1
  O  O165  1  0.35670230  0.45301646  0.31655695  1
  O  O166  1  0.35670230  0.45301646  0.64989028  1
  O  O167  1  0.35670230  0.45301646  0.98322362  1
  O  O168  1  0.35670230  0.78634979  0.31655695  1
  O  O169  1  0.35670230  0.78634979  0.64989028  1
  O  O170  1  0.35670230  0.78634979  0.98322362  1
  O  O171  1  0.14329770  0.21365021  0.14989028  1
  O  O172  1  0.14329770  0.21365021  0.48322362  1
  O  O173  1  0.14329770  0.21365021  0.81655695  1
  O  O174  1  0.14329770  0.54698354  0.14989028  1
  O  O175  1  0.14329770  0.54698354  0.48322362  1
  O  O176  1  0.14329770  0.54698354  0.81655695  1
  O  O177  1  0.14329770  0.88031687  0.14989028  1
  O  O178  1  0.14329770  0.88031687  0.48322362  1
  O  O179  1  0.14329770  0.88031687  0.81655695  1
  O  O180  1  0.50000000  0.25589431  0.30474036  1
  O  O181  1  0.50000000  0.25589431  0.63807370  1
  O  O182  1  0.50000000  0.25589431  0.97140703  1
  O  O183  1  0.50000000  0.58922765  0.30474036  1
  O  O184  1  0.50000000  0.58922765  0.63807370  1
  O  O185  1  0.50000000  0.58922765  0.97140703  1
  O  O186  1  0.50000000  0.92256098  0.30474036  1
  O  O187  1  0.50000000  0.92256098  0.63807370  1
  O  O188  1  0.50000000  0.92256098  0.97140703  1
  O  O189  1  0.00000000  0.07743902  0.13807370  1
  O  O190  1  0.00000000  0.07743902  0.47140703  1
  O  O191  1  0.00000000  0.07743902  0.80474036  1
  O  O192  1  0.00000000  0.41077235  0.13807370  1
  O  O193  1  0.00000000  0.41077235  0.47140703  1
  O  O194  1  0.00000000  0.41077235  0.80474036  1
  O  O195  1  0.00000000  0.74410569  0.13807370  1
  O  O196  1  0.00000000  0.74410569  0.47140703  1
  O  O197  1  0.00000000  0.74410569  0.80474036  1
  O  O198  1  0.36417054  0.24335730  0.11925478  1
  O  O199  1  0.36417054  0.24335730  0.45258811  1
  O  O200  1  0.36417054  0.24335730  0.78592145  1
  O  O201  1  0.36417054  0.57669063  0.11925478  1
  O  O202  1  0.36417054  0.57669063  0.45258811  1
  O  O203  1  0.36417054  0.57669063  0.78592145  1
  O  O204  1  0.36417054  0.91002397  0.11925478  1
  O  O205  1  0.36417054  0.91002397  0.45258811  1
  O  O206  1  0.36417054  0.91002397  0.78592145  1
  O  O207  1  0.64329770  0.11968313  0.31655695  1
  O  O208  1  0.64329770  0.11968313  0.64989028  1
  O  O209  1  0.64329770  0.11968313  0.98322362  1
  O  O210  1  0.64329770  0.45301646  0.31655695  1
  O  O211  1  0.64329770  0.45301646  0.64989028  1
  O  O212  1  0.64329770  0.45301646  0.98322362  1
  O  O213  1  0.64329770  0.78634979  0.31655695  1
  O  O214  1  0.64329770  0.78634979  0.64989028  1
  O  O215  1  0.64329770  0.78634979  0.98322362  1
