# generated using pymatgen
data_Zn2PtO4
_symmetry_space_group_name_H-M   'P 1'
_cell_length_a   11.60468467
_cell_length_b   12.16077447
_cell_length_c   8.54447930
_cell_angle_alpha   90.00000000
_cell_angle_beta   90.00000000
_cell_angle_gamma   90.00000000
_symmetry_Int_Tables_number   1
_chemical_formula_structural   Zn2PtO4
_chemical_formula_sum   'Zn32 Pt16 O64'
_cell_volume   1205.81360743
_cell_formula_units_Z   16
loop_
 _symmetry_equiv_pos_site_id
 _symmetry_equiv_pos_as_xyz
  1  'x, y, z'
loop_
 _atom_site_type_symbol
 _atom_site_label
 _atom_site_symmetry_multiplicity
 _atom_site_fract_x
 _atom_site_fract_y
 _atom_site_fract_z
 _atom_site_occupancy
  Zn  Zn0  1  0.25000000  0.12500000  0.35101968  1
  Zn  Zn1  1  0.25000000  0.62500000  0.35101968  1
  Zn  Zn2  1  0.75000000  0.12500000  0.35101968  1
  Zn  Zn3  1  0.75000000  0.62500000  0.35101968  1
  Zn  Zn4  1  0.50000000  0.37500000  0.85101968  1
  Zn  Zn5  1  0.50000000  0.87500000  0.85101968  1
  Zn  Zn6  1  1.00000000  0.37500000  0.85101968  1
  Zn  Zn7  1  1.00000000  0.87500000  0.85101968  1
  Zn  Zn8  1  -0.00000000  0.12500000  0.14898032  1
  Zn  Zn9  1  -0.00000000  0.62500000  0.14898032  1
  Zn  Zn10  1  0.50000000  0.12500000  0.14898032  1
  Zn  Zn11  1  0.50000000  0.62500000  0.14898032  1
  Zn  Zn12  1  0.25000000  0.37500000  0.64898032  1
  Zn  Zn13  1  0.25000000  0.87500000  0.64898032  1
  Zn  Zn14  1  0.75000000  0.37500000  0.64898032  1
  Zn  Zn15  1  0.75000000  0.87500000  0.64898032  1
  Zn  Zn16  1  0.12500000  0.12500000  -0.25000000  1
  Zn  Zn17  1  0.12500000  0.62500000  -0.25000000  1
  Zn  Zn18  1  0.62500000  0.12500000  -0.25000000  1
  Zn  Zn19  1  0.62500000  0.62500000  -0.25000000  1
  Zn  Zn20  1  0.37500000  0.37500000  0.25000000  1
  Zn  Zn21  1  0.37500000  0.87500000  0.25000000  1
  Zn  Zn22  1  0.87500000  0.37500000  0.25000000  1
  Zn  Zn23  1  0.87500000  0.87500000  0.25000000  1
  Zn  Zn24  1  0.12500000  -0.12500000  0.25000000  1
  Zn  Zn25  1  0.12500000  0.37500000  0.25000000  1
  Zn  Zn26  1  0.62500000  -0.12500000  0.25000000  1
  Zn  Zn27  1  0.62500000  0.37500000  0.25000000  1
  Zn  Zn28  1  0.37500000  0.12500000  0.75000000  1
  Zn  Zn29  1  0.37500000  0.62500000  0.75000000  1
  Zn  Zn30  1  0.87500000  0.12500000  0.75000000  1
  Zn  Zn31  1  0.87500000  0.62500000  0.75000000  1
  Pt  Pt32  1  0.25000000  0.00000000  0.00000000  1
  Pt  Pt33  1  0.25000000  0.50000000  0.00000000  1
  Pt  Pt34  1  0.75000000  0.00000000  0.00000000  1
  Pt  Pt35  1  0.75000000  0.50000000  0.00000000  1
  Pt  Pt36  1  0.50000000  0.25000000  0.50000000  1
  Pt  Pt37  1  0.50000000  0.75000000  0.50000000  1
  Pt  Pt38  1  1.00000000  0.25000000  0.50000000  1
  Pt  Pt39  1  1.00000000  0.75000000  0.50000000  1
  Pt  Pt40  1  0.00000000  0.00000000  0.50000000  1
  Pt  Pt41  1  0.00000000  0.50000000  0.50000000  1
  Pt  Pt42  1  0.50000000  0.00000000  0.50000000  1
  Pt  Pt43  1  0.50000000  0.50000000  0.50000000  1
  Pt  Pt44  1  0.25000000  0.25000000  1.00000000  1
  Pt  Pt45  1  0.25000000  0.75000000  1.00000000  1
  Pt  Pt46  1  0.75000000  0.25000000  1.00000000  1
  Pt  Pt47  1  0.75000000  0.75000000  1.00000000  1
  O  O48  1  0.00000000  0.25952881  0.26386332  1
  O  O49  1  0.00000000  0.75952881  0.26386332  1
  O  O50  1  0.50000000  0.25952881  0.26386332  1
  O  O51  1  0.50000000  0.75952881  0.26386332  1
  O  O52  1  0.25000000  0.50952881  0.76386332  1
  O  O53  1  0.25000000  1.00952881  0.76386332  1
  O  O54  1  0.75000000  0.50952881  0.76386332  1
  O  O55  1  0.75000000  1.00952881  0.76386332  1
  O  O56  1  0.25000000  0.24047119  -0.23613668  1
  O  O57  1  0.25000000  0.74047119  -0.23613668  1
  O  O58  1  0.75000000  0.24047119  -0.23613668  1
  O  O59  1  0.75000000  0.74047119  -0.23613668  1
  O  O60  1  0.50000000  0.49047119  0.26386332  1
  O  O61  1  0.50000000  0.99047119  0.26386332  1
  O  O62  1  1.00000000  0.49047119  0.26386332  1
  O  O63  1  1.00000000  0.99047119  0.26386332  1
  O  O64  1  0.13463691  0.12500000  -0.00014574  1
  O  O65  1  0.13463691  0.62500000  -0.00014574  1
  O  O66  1  0.63463691  0.12500000  -0.00014574  1
  O  O67  1  0.63463691  0.62500000  -0.00014574  1
  O  O68  1  0.38463691  0.37500000  0.49985426  1
  O  O69  1  0.38463691  0.87500000  0.49985426  1
  O  O70  1  0.88463691  0.37500000  0.49985426  1
  O  O71  1  0.88463691  0.87500000  0.49985426  1
  O  O72  1  0.36536309  0.12500000  -0.00014574  1
  O  O73  1  0.36536309  0.62500000  -0.00014574  1
  O  O74  1  0.86536309  0.12500000  -0.00014574  1
  O  O75  1  0.86536309  0.62500000  -0.00014574  1
  O  O76  1  0.61536309  0.37500000  0.49985426  1
  O  O77  1  0.61536309  0.87500000  0.49985426  1
  O  O78  1  1.11536309  0.37500000  0.49985426  1
  O  O79  1  1.11536309  0.87500000  0.49985426  1
  O  O80  1  -0.11536309  0.12500000  0.50014574  1
  O  O81  1  -0.11536309  0.62500000  0.50014574  1
  O  O82  1  0.38463691  0.12500000  0.50014574  1
  O  O83  1  0.38463691  0.62500000  0.50014574  1
  O  O84  1  0.13463691  0.37500000  1.00014574  1
  O  O85  1  0.13463691  0.87500000  1.00014574  1
  O  O86  1  0.63463691  0.37500000  1.00014574  1
  O  O87  1  0.63463691  0.87500000  1.00014574  1
  O  O88  1  -0.00000000  0.00952881  0.73613668  1
  O  O89  1  -0.00000000  0.50952881  0.73613668  1
  O  O90  1  0.50000000  0.00952881  0.73613668  1
  O  O91  1  0.50000000  0.50952881  0.73613668  1
  O  O92  1  0.25000000  0.25952881  1.23613668  1
  O  O93  1  0.25000000  0.75952881  1.23613668  1
  O  O94  1  0.75000000  0.25952881  1.23613668  1
  O  O95  1  0.75000000  0.75952881  1.23613668  1
  O  O96  1  0.11536309  0.12500000  0.50014574  1
  O  O97  1  0.11536309  0.62500000  0.50014574  1
  O  O98  1  0.61536309  0.12500000  0.50014574  1
  O  O99  1  0.61536309  0.62500000  0.50014574  1
  O  O100  1  0.36536309  0.37500000  1.00014574  1
  O  O101  1  0.36536309  0.87500000  1.00014574  1
  O  O102  1  0.86536309  0.37500000  1.00014574  1
  O  O103  1  0.86536309  0.87500000  1.00014574  1
  O  O104  1  0.25000000  -0.00952881  0.23613668  1
  O  O105  1  0.25000000  0.49047119  0.23613668  1
  O  O106  1  0.75000000  -0.00952881  0.23613668  1
  O  O107  1  0.75000000  0.49047119  0.23613668  1
  O  O108  1  0.50000000  0.24047119  0.73613668  1
  O  O109  1  0.50000000  0.74047119  0.73613668  1
  O  O110  1  1.00000000  0.24047119  0.73613668  1
  O  O111  1  1.00000000  0.74047119  0.73613668  1
