# generated using pymatgen
data_YAl3(BO3)4
_symmetry_space_group_name_H-M   'P 1'
_cell_length_a   9.30561641
_cell_length_b   9.30561641
_cell_length_c   7.20221581
_cell_angle_alpha   90.00000000
_cell_angle_beta   90.00000000
_cell_angle_gamma   120.00000000
_symmetry_Int_Tables_number   1
_chemical_formula_structural   YAl3(BO3)4
_chemical_formula_sum   'Y3 Al9 B12 O36'
_cell_volume   540.11601574
_cell_formula_units_Z   3
loop_
 _symmetry_equiv_pos_site_id
 _symmetry_equiv_pos_as_xyz
  1  'x, y, z'
loop_
 _atom_site_type_symbol
 _atom_site_label
 _atom_site_symmetry_multiplicity
 _atom_site_fract_x
 _atom_site_fract_y
 _atom_site_fract_z
 _atom_site_occupancy
  Y  Y0  1  -0.00000000  -0.00000000  -0.00000000  1
  Y  Y1  1  0.66666667  0.33333333  0.33333333  1
  Y  Y2  1  0.33333333  0.66666667  0.66666667  1
  Al  Al3  1  0.11107260  0.33333333  0.33333333  1
  Al  Al4  1  0.77773927  0.66666667  0.66666667  1
  Al  Al5  1  0.44440594  1.00000000  1.00000000  1
  Al  Al6  1  -0.33333333  -0.22226073  0.33333333  1
  Al  Al7  1  0.33333333  0.11107260  0.66666667  1
  Al  Al8  1  -0.00000000  0.44440594  1.00000000  1
  Al  Al9  1  0.22226073  -0.11107260  0.33333333  1
  Al  Al10  1  0.88892740  0.22226073  0.66666667  1
  Al  Al11  1  0.55559406  0.55559406  1.00000000  1
  B  B12  1  -0.44335759  -0.00000000  0.50000000  1
  B  B13  1  0.22330907  0.33333333  0.83333333  1
  B  B14  1  -0.11002426  0.66666667  1.16666667  1
  B  B15  1  0.00000000  -0.44335759  0.50000000  1
  B  B16  1  0.66666667  -0.11002426  0.83333333  1
  B  B17  1  0.33333333  0.22330907  1.16666667  1
  B  B18  1  0.44335759  0.44335759  0.50000000  1
  B  B19  1  1.11002426  0.77669093  0.83333333  1
  B  B20  1  0.77669093  1.11002426  1.16666667  1
  B  B21  1  0.00000000  0.00000000  0.50000000  1
  B  B22  1  0.66666667  0.33333333  0.83333333  1
  B  B23  1  0.33333333  0.66666667  1.16666667  1
  O  O24  1  -0.30031784  0.15012032  0.52078807  1
  O  O25  1  0.36634883  0.48345365  0.85412140  1
  O  O26  1  0.03301549  0.81678699  1.18745473  1
  O  O27  1  0.30031784  0.45043816  0.47921193  1
  O  O28  1  0.96698451  0.78377149  0.81254527  1
  O  O29  1  0.63365117  1.11710482  1.14587860  1
  O  O30  1  0.15012032  -0.30031784  0.47921193  1
  O  O31  1  0.81678699  0.03301549  0.81254527  1
  O  O32  1  0.48345365  0.36634883  1.14587860  1
  O  O33  1  -0.45043816  -0.15012032  0.47921193  1
  O  O34  1  0.21622851  0.18321301  0.81254527  1
  O  O35  1  -0.11710482  0.51654635  1.14587860  1
  O  O36  1  -0.14898097  -0.14898097  0.50000000  1
  O  O37  1  0.51768569  0.18435236  0.83333333  1
  O  O38  1  0.18435236  0.51768569  1.16666667  1
  O  O39  1  -0.00000000  0.14898097  0.50000000  1
  O  O40  1  0.66666667  0.48231431  0.83333333  1
  O  O41  1  0.33333333  0.81564764  1.16666667  1
  O  O42  1  0.14898097  -0.00000000  0.50000000  1
  O  O43  1  0.81564764  0.33333333  0.83333333  1
  O  O44  1  0.48231431  0.66666667  1.16666667  1
  O  O45  1  -0.40807191  -0.40807191  0.50000000  1
  O  O46  1  0.25859476  -0.07473857  0.83333333  1
  O  O47  1  -0.07473857  0.25859476  1.16666667  1
  O  O48  1  -0.00000000  0.40807191  0.50000000  1
  O  O49  1  0.66666667  0.74140524  0.83333333  1
  O  O50  1  0.33333333  1.07473857  1.16666667  1
  O  O51  1  0.40807191  -0.00000000  0.50000000  1
  O  O52  1  1.07473857  0.33333333  0.83333333  1
  O  O53  1  0.74140524  0.66666667  1.16666667  1
  O  O54  1  0.45043816  0.30031784  0.52078807  1
  O  O55  1  1.11710482  0.63365117  0.85412140  1
  O  O56  1  0.78377149  0.96698451  1.18745473  1
  O  O57  1  -0.15012032  -0.45043816  0.52078807  1
  O  O58  1  0.51654635  -0.11710482  0.85412140  1
  O  O59  1  0.18321301  0.21622851  1.18745473  1
