# generated using pymatgen
data_CsAgO
_symmetry_space_group_name_H-M   'P 1'
_cell_length_a   20.26407109
_cell_length_b   20.26407109
_cell_length_c   18.44271513
_cell_angle_alpha   90.00000000
_cell_angle_beta   90.00000000
_cell_angle_gamma   90.00000000
_symmetry_Int_Tables_number   1
_chemical_formula_structural   CsAgO
_chemical_formula_sum   'Cs96 Ag96 O96'
_cell_volume   7573.17964599
_cell_formula_units_Z   96
loop_
 _symmetry_equiv_pos_site_id
 _symmetry_equiv_pos_as_xyz
  1  'x, y, z'
loop_
 _atom_site_type_symbol
 _atom_site_label
 _atom_site_symmetry_multiplicity
 _atom_site_fract_x
 _atom_site_fract_y
 _atom_site_fract_z
 _atom_site_occupancy
  Cs  Cs0  1  0.09725155  0.25000000  0.00000000  1
  Cs  Cs1  1  0.09725155  0.25000000  0.33333333  1
  Cs  Cs2  1  0.09725155  0.25000000  0.66666667  1
  Cs  Cs3  1  0.59725155  0.25000000  0.00000000  1
  Cs  Cs4  1  0.59725155  0.25000000  0.33333333  1
  Cs  Cs5  1  0.59725155  0.25000000  0.66666667  1
  Cs  Cs6  1  0.09725155  -0.25000000  0.00000000  1
  Cs  Cs7  1  0.09725155  -0.25000000  0.33333333  1
  Cs  Cs8  1  0.09725155  -0.25000000  0.66666667  1
  Cs  Cs9  1  0.59725155  -0.25000000  0.00000000  1
  Cs  Cs10  1  0.59725155  -0.25000000  0.33333333  1
  Cs  Cs11  1  0.59725155  -0.25000000  0.66666667  1
  Cs  Cs12  1  0.34725155  0.00000000  0.16666667  1
  Cs  Cs13  1  0.34725155  0.00000000  0.50000000  1
  Cs  Cs14  1  0.34725155  0.00000000  0.83333333  1
  Cs  Cs15  1  0.84725155  0.00000000  0.16666667  1
  Cs  Cs16  1  0.84725155  0.00000000  0.50000000  1
  Cs  Cs17  1  0.84725155  0.00000000  0.83333333  1
  Cs  Cs18  1  0.34725155  -0.50000000  0.16666667  1
  Cs  Cs19  1  0.34725155  -0.50000000  0.50000000  1
  Cs  Cs20  1  0.34725155  -0.50000000  0.83333333  1
  Cs  Cs21  1  0.84725155  -0.50000000  0.16666667  1
  Cs  Cs22  1  0.84725155  -0.50000000  0.50000000  1
  Cs  Cs23  1  0.84725155  -0.50000000  0.83333333  1
  Cs  Cs24  1  0.25000000  0.40274845  -0.00000000  1
  Cs  Cs25  1  0.25000000  0.40274845  0.33333333  1
  Cs  Cs26  1  0.25000000  0.40274845  0.66666667  1
  Cs  Cs27  1  0.75000000  0.40274845  -0.00000000  1
  Cs  Cs28  1  0.75000000  0.40274845  0.33333333  1
  Cs  Cs29  1  0.75000000  0.40274845  0.66666667  1
  Cs  Cs30  1  0.25000000  -0.09725155  -0.00000000  1
  Cs  Cs31  1  0.25000000  -0.09725155  0.33333333  1
  Cs  Cs32  1  0.25000000  -0.09725155  0.66666667  1
  Cs  Cs33  1  0.75000000  -0.09725155  -0.00000000  1
  Cs  Cs34  1  0.75000000  -0.09725155  0.33333333  1
  Cs  Cs35  1  0.75000000  -0.09725155  0.66666667  1
  Cs  Cs36  1  0.50000000  0.15274845  0.16666667  1
  Cs  Cs37  1  0.50000000  0.15274845  0.50000000  1
  Cs  Cs38  1  0.50000000  0.15274845  0.83333333  1
  Cs  Cs39  1  1.00000000  0.15274845  0.16666667  1
  Cs  Cs40  1  1.00000000  0.15274845  0.50000000  1
  Cs  Cs41  1  1.00000000  0.15274845  0.83333333  1
  Cs  Cs42  1  0.50000000  -0.34725155  0.16666667  1
  Cs  Cs43  1  0.50000000  -0.34725155  0.50000000  1
  Cs  Cs44  1  0.50000000  -0.34725155  0.83333333  1
  Cs  Cs45  1  1.00000000  -0.34725155  0.16666667  1
  Cs  Cs46  1  1.00000000  -0.34725155  0.50000000  1
  Cs  Cs47  1  1.00000000  -0.34725155  0.83333333  1
  Cs  Cs48  1  0.15274845  0.50000000  0.16666667  1
  Cs  Cs49  1  0.15274845  0.50000000  0.50000000  1
  Cs  Cs50  1  0.15274845  0.50000000  0.83333333  1
  Cs  Cs51  1  0.65274845  0.50000000  0.16666667  1
  Cs  Cs52  1  0.65274845  0.50000000  0.50000000  1
  Cs  Cs53  1  0.65274845  0.50000000  0.83333333  1
  Cs  Cs54  1  0.15274845  -0.00000000  0.16666667  1
  Cs  Cs55  1  0.15274845  -0.00000000  0.50000000  1
  Cs  Cs56  1  0.15274845  -0.00000000  0.83333333  1
  Cs  Cs57  1  0.65274845  -0.00000000  0.16666667  1
  Cs  Cs58  1  0.65274845  -0.00000000  0.50000000  1
  Cs  Cs59  1  0.65274845  -0.00000000  0.83333333  1
  Cs  Cs60  1  0.40274845  0.25000000  0.33333333  1
  Cs  Cs61  1  0.40274845  0.25000000  0.66666667  1
  Cs  Cs62  1  0.40274845  0.25000000  1.00000000  1
  Cs  Cs63  1  0.90274845  0.25000000  0.33333333  1
  Cs  Cs64  1  0.90274845  0.25000000  0.66666667  1
  Cs  Cs65  1  0.90274845  0.25000000  1.00000000  1
  Cs  Cs66  1  0.40274845  -0.25000000  0.33333333  1
  Cs  Cs67  1  0.40274845  -0.25000000  0.66666667  1
  Cs  Cs68  1  0.40274845  -0.25000000  1.00000000  1
  Cs  Cs69  1  0.90274845  -0.25000000  0.33333333  1
  Cs  Cs70  1  0.90274845  -0.25000000  0.66666667  1
  Cs  Cs71  1  0.90274845  -0.25000000  1.00000000  1
  Cs  Cs72  1  0.00000000  0.34725155  0.16666667  1
  Cs  Cs73  1  0.00000000  0.34725155  0.50000000  1
  Cs  Cs74  1  0.00000000  0.34725155  0.83333333  1
  Cs  Cs75  1  0.50000000  0.34725155  0.16666667  1
  Cs  Cs76  1  0.50000000  0.34725155  0.50000000  1
  Cs  Cs77  1  0.50000000  0.34725155  0.83333333  1
  Cs  Cs78  1  0.00000000  -0.15274845  0.16666667  1
  Cs  Cs79  1  0.00000000  -0.15274845  0.50000000  1
  Cs  Cs80  1  0.00000000  -0.15274845  0.83333333  1
  Cs  Cs81  1  0.50000000  -0.15274845  0.16666667  1
  Cs  Cs82  1  0.50000000  -0.15274845  0.50000000  1
  Cs  Cs83  1  0.50000000  -0.15274845  0.83333333  1
  Cs  Cs84  1  0.25000000  0.09725155  0.33333333  1
  Cs  Cs85  1  0.25000000  0.09725155  0.66666667  1
  Cs  Cs86  1  0.25000000  0.09725155  1.00000000  1
  Cs  Cs87  1  0.75000000  0.09725155  0.33333333  1
  Cs  Cs88  1  0.75000000  0.09725155  0.66666667  1
  Cs  Cs89  1  0.75000000  0.09725155  1.00000000  1
  Cs  Cs90  1  0.25000000  -0.40274845  0.33333333  1
  Cs  Cs91  1  0.25000000  -0.40274845  0.66666667  1
  Cs  Cs92  1  0.25000000  -0.40274845  1.00000000  1
  Cs  Cs93  1  0.75000000  -0.40274845  0.33333333  1
  Cs  Cs94  1  0.75000000  -0.40274845  0.66666667  1
  Cs  Cs95  1  0.75000000  -0.40274845  1.00000000  1
  Ag  Ag96  1  0.17905032  0.67905032  0.16666667  1
  Ag  Ag97  1  0.17905032  0.67905032  0.50000000  1
  Ag  Ag98  1  0.17905032  0.67905032  0.83333333  1
  Ag  Ag99  1  0.67905032  0.67905032  0.16666667  1
  Ag  Ag100  1  0.67905032  0.67905032  0.50000000  1
  Ag  Ag101  1  0.67905032  0.67905032  0.83333333  1
  Ag  Ag102  1  0.17905032  0.17905032  0.16666667  1
  Ag  Ag103  1  0.17905032  0.17905032  0.50000000  1
  Ag  Ag104  1  0.17905032  0.17905032  0.83333333  1
  Ag  Ag105  1  0.67905032  0.17905032  0.16666667  1
  Ag  Ag106  1  0.67905032  0.17905032  0.50000000  1
  Ag  Ag107  1  0.67905032  0.17905032  0.83333333  1
  Ag  Ag108  1  0.42905032  0.42905032  0.33333333  1
  Ag  Ag109  1  0.42905032  0.42905032  0.66666667  1
  Ag  Ag110  1  0.42905032  0.42905032  1.00000000  1
  Ag  Ag111  1  0.92905032  0.42905032  0.33333333  1
  Ag  Ag112  1  0.92905032  0.42905032  0.66666667  1
  Ag  Ag113  1  0.92905032  0.42905032  1.00000000  1
  Ag  Ag114  1  0.42905032  -0.07094968  0.33333333  1
  Ag  Ag115  1  0.42905032  -0.07094968  0.66666667  1
  Ag  Ag116  1  0.42905032  -0.07094968  1.00000000  1
  Ag  Ag117  1  0.92905032  -0.07094968  0.33333333  1
  Ag  Ag118  1  0.92905032  -0.07094968  0.66666667  1
  Ag  Ag119  1  0.92905032  -0.07094968  1.00000000  1
  Ag  Ag120  1  -0.17905032  0.32094968  0.16666667  1
  Ag  Ag121  1  -0.17905032  0.32094968  0.50000000  1
  Ag  Ag122  1  -0.17905032  0.32094968  0.83333333  1
  Ag  Ag123  1  0.32094968  0.32094968  0.16666667  1
  Ag  Ag124  1  0.32094968  0.32094968  0.50000000  1
  Ag  Ag125  1  0.32094968  0.32094968  0.83333333  1
  Ag  Ag126  1  -0.17905032  -0.17905032  0.16666667  1
  Ag  Ag127  1  -0.17905032  -0.17905032  0.50000000  1
  Ag  Ag128  1  -0.17905032  -0.17905032  0.83333333  1
  Ag  Ag129  1  0.32094968  -0.17905032  0.16666667  1
  Ag  Ag130  1  0.32094968  -0.17905032  0.50000000  1
  Ag  Ag131  1  0.32094968  -0.17905032  0.83333333  1
  Ag  Ag132  1  0.07094968  0.07094968  0.33333333  1
  Ag  Ag133  1  0.07094968  0.07094968  0.66666667  1
  Ag  Ag134  1  0.07094968  0.07094968  1.00000000  1
  Ag  Ag135  1  0.57094968  0.07094968  0.33333333  1
  Ag  Ag136  1  0.57094968  0.07094968  0.66666667  1
  Ag  Ag137  1  0.57094968  0.07094968  1.00000000  1
  Ag  Ag138  1  0.07094968  -0.42905032  0.33333333  1
  Ag  Ag139  1  0.07094968  -0.42905032  0.66666667  1
  Ag  Ag140  1  0.07094968  -0.42905032  1.00000000  1
  Ag  Ag141  1  0.57094968  -0.42905032  0.33333333  1
  Ag  Ag142  1  0.57094968  -0.42905032  0.66666667  1
  Ag  Ag143  1  0.57094968  -0.42905032  1.00000000  1
  Ag  Ag144  1  0.07094968  0.42905032  -0.00000000  1
  Ag  Ag145  1  0.07094968  0.42905032  0.33333333  1
  Ag  Ag146  1  0.07094968  0.42905032  0.66666667  1
  Ag  Ag147  1  0.57094968  0.42905032  -0.00000000  1
  Ag  Ag148  1  0.57094968  0.42905032  0.33333333  1
  Ag  Ag149  1  0.57094968  0.42905032  0.66666667  1
  Ag  Ag150  1  0.07094968  -0.07094968  -0.00000000  1
  Ag  Ag151  1  0.07094968  -0.07094968  0.33333333  1
  Ag  Ag152  1  0.07094968  -0.07094968  0.66666667  1
  Ag  Ag153  1  0.57094968  -0.07094968  -0.00000000  1
  Ag  Ag154  1  0.57094968  -0.07094968  0.33333333  1
  Ag  Ag155  1  0.57094968  -0.07094968  0.66666667  1
  Ag  Ag156  1  0.32094968  0.17905032  0.16666667  1
  Ag  Ag157  1  0.32094968  0.17905032  0.50000000  1
  Ag  Ag158  1  0.32094968  0.17905032  0.83333333  1
  Ag  Ag159  1  0.82094968  0.17905032  0.16666667  1
  Ag  Ag160  1  0.82094968  0.17905032  0.50000000  1
  Ag  Ag161  1  0.82094968  0.17905032  0.83333333  1
  Ag  Ag162  1  0.32094968  -0.32094968  0.16666667  1
  Ag  Ag163  1  0.32094968  -0.32094968  0.50000000  1
  Ag  Ag164  1  0.32094968  -0.32094968  0.83333333  1
  Ag  Ag165  1  0.82094968  -0.32094968  0.16666667  1
  Ag  Ag166  1  0.82094968  -0.32094968  0.50000000  1
  Ag  Ag167  1  0.82094968  -0.32094968  0.83333333  1
  Ag  Ag168  1  0.17905032  0.32094968  0.16666667  1
  Ag  Ag169  1  0.17905032  0.32094968  0.50000000  1
  Ag  Ag170  1  0.17905032  0.32094968  0.83333333  1
  Ag  Ag171  1  0.67905032  0.32094968  0.16666667  1
  Ag  Ag172  1  0.67905032  0.32094968  0.50000000  1
  Ag  Ag173  1  0.67905032  0.32094968  0.83333333  1
  Ag  Ag174  1  0.17905032  -0.17905032  0.16666667  1
  Ag  Ag175  1  0.17905032  -0.17905032  0.50000000  1
  Ag  Ag176  1  0.17905032  -0.17905032  0.83333333  1
  Ag  Ag177  1  0.67905032  -0.17905032  0.16666667  1
  Ag  Ag178  1  0.67905032  -0.17905032  0.50000000  1
  Ag  Ag179  1  0.67905032  -0.17905032  0.83333333  1
  Ag  Ag180  1  0.42905032  0.07094968  0.33333333  1
  Ag  Ag181  1  0.42905032  0.07094968  0.66666667  1
  Ag  Ag182  1  0.42905032  0.07094968  1.00000000  1
  Ag  Ag183  1  0.92905032  0.07094968  0.33333333  1
  Ag  Ag184  1  0.92905032  0.07094968  0.66666667  1
  Ag  Ag185  1  0.92905032  0.07094968  1.00000000  1
  Ag  Ag186  1  0.42905032  -0.42905032  0.33333333  1
  Ag  Ag187  1  0.42905032  -0.42905032  0.66666667  1
  Ag  Ag188  1  0.42905032  -0.42905032  1.00000000  1
  Ag  Ag189  1  0.92905032  -0.42905032  0.33333333  1
  Ag  Ag190  1  0.92905032  -0.42905032  0.66666667  1
  Ag  Ag191  1  0.92905032  -0.42905032  1.00000000  1
  O  O192  1  0.14200109  0.50000000  -0.00000000  1
  O  O193  1  0.14200109  0.50000000  0.33333333  1
  O  O194  1  0.14200109  0.50000000  0.66666667  1
  O  O195  1  0.64200109  0.50000000  -0.00000000  1
  O  O196  1  0.64200109  0.50000000  0.33333333  1
  O  O197  1  0.64200109  0.50000000  0.66666667  1
  O  O198  1  0.14200109  -0.00000000  -0.00000000  1
  O  O199  1  0.14200109  -0.00000000  0.33333333  1
  O  O200  1  0.14200109  -0.00000000  0.66666667  1
  O  O201  1  0.64200109  -0.00000000  -0.00000000  1
  O  O202  1  0.64200109  -0.00000000  0.33333333  1
  O  O203  1  0.64200109  -0.00000000  0.66666667  1
  O  O204  1  0.39200109  0.25000000  0.16666667  1
  O  O205  1  0.39200109  0.25000000  0.50000000  1
  O  O206  1  0.39200109  0.25000000  0.83333333  1
  O  O207  1  0.89200109  0.25000000  0.16666667  1
  O  O208  1  0.89200109  0.25000000  0.50000000  1
  O  O209  1  0.89200109  0.25000000  0.83333333  1
  O  O210  1  0.39200109  -0.25000000  0.16666667  1
  O  O211  1  0.39200109  -0.25000000  0.50000000  1
  O  O212  1  0.39200109  -0.25000000  0.83333333  1
  O  O213  1  0.89200109  -0.25000000  0.16666667  1
  O  O214  1  0.89200109  -0.25000000  0.50000000  1
  O  O215  1  0.89200109  -0.25000000  0.83333333  1
  O  O216  1  0.00000000  0.35799891  -0.00000000  1
  O  O217  1  0.00000000  0.35799891  0.33333333  1
  O  O218  1  0.00000000  0.35799891  0.66666667  1
  O  O219  1  0.50000000  0.35799891  -0.00000000  1
  O  O220  1  0.50000000  0.35799891  0.33333333  1
  O  O221  1  0.50000000  0.35799891  0.66666667  1
  O  O222  1  0.00000000  -0.14200109  -0.00000000  1
  O  O223  1  0.00000000  -0.14200109  0.33333333  1
  O  O224  1  0.00000000  -0.14200109  0.66666667  1
  O  O225  1  0.50000000  -0.14200109  -0.00000000  1
  O  O226  1  0.50000000  -0.14200109  0.33333333  1
  O  O227  1  0.50000000  -0.14200109  0.66666667  1
  O  O228  1  0.25000000  0.10799891  0.16666667  1
  O  O229  1  0.25000000  0.10799891  0.50000000  1
  O  O230  1  0.25000000  0.10799891  0.83333333  1
  O  O231  1  0.75000000  0.10799891  0.16666667  1
  O  O232  1  0.75000000  0.10799891  0.50000000  1
  O  O233  1  0.75000000  0.10799891  0.83333333  1
  O  O234  1  0.25000000  -0.39200109  0.16666667  1
  O  O235  1  0.25000000  -0.39200109  0.50000000  1
  O  O236  1  0.25000000  -0.39200109  0.83333333  1
  O  O237  1  0.75000000  -0.39200109  0.16666667  1
  O  O238  1  0.75000000  -0.39200109  0.50000000  1
  O  O239  1  0.75000000  -0.39200109  0.83333333  1
  O  O240  1  0.00000000  0.14200109  -0.00000000  1
  O  O241  1  0.00000000  0.14200109  0.33333333  1
  O  O242  1  0.00000000  0.14200109  0.66666667  1
  O  O243  1  0.50000000  0.14200109  -0.00000000  1
  O  O244  1  0.50000000  0.14200109  0.33333333  1
  O  O245  1  0.50000000  0.14200109  0.66666667  1
  O  O246  1  0.00000000  -0.35799891  -0.00000000  1
  O  O247  1  0.00000000  -0.35799891  0.33333333  1
  O  O248  1  0.00000000  -0.35799891  0.66666667  1
  O  O249  1  0.50000000  -0.35799891  -0.00000000  1
  O  O250  1  0.50000000  -0.35799891  0.33333333  1
  O  O251  1  0.50000000  -0.35799891  0.66666667  1
  O  O252  1  0.25000000  -0.10799891  0.16666667  1
  O  O253  1  0.25000000  -0.10799891  0.50000000  1
  O  O254  1  0.25000000  -0.10799891  0.83333333  1
  O  O255  1  0.75000000  -0.10799891  0.16666667  1
  O  O256  1  0.75000000  -0.10799891  0.50000000  1
  O  O257  1  0.75000000  -0.10799891  0.83333333  1
  O  O258  1  0.25000000  -0.60799891  0.16666667  1
  O  O259  1  0.25000000  -0.60799891  0.50000000  1
  O  O260  1  0.25000000  -0.60799891  0.83333333  1
  O  O261  1  0.75000000  -0.60799891  0.16666667  1
  O  O262  1  0.75000000  -0.60799891  0.50000000  1
  O  O263  1  0.75000000  -0.60799891  0.83333333  1
  O  O264  1  0.35799891  0.50000000  -0.00000000  1
  O  O265  1  0.35799891  0.50000000  0.33333333  1
  O  O266  1  0.35799891  0.50000000  0.66666667  1
  O  O267  1  0.85799891  0.50000000  -0.00000000  1
  O  O268  1  0.85799891  0.50000000  0.33333333  1
  O  O269  1  0.85799891  0.50000000  0.66666667  1
  O  O270  1  0.35799891  -0.00000000  -0.00000000  1
  O  O271  1  0.35799891  -0.00000000  0.33333333  1
  O  O272  1  0.35799891  -0.00000000  0.66666667  1
  O  O273  1  0.85799891  -0.00000000  -0.00000000  1
  O  O274  1  0.85799891  -0.00000000  0.33333333  1
  O  O275  1  0.85799891  -0.00000000  0.66666667  1
  O  O276  1  0.60799891  0.25000000  0.16666667  1
  O  O277  1  0.60799891  0.25000000  0.50000000  1
  O  O278  1  0.60799891  0.25000000  0.83333333  1
  O  O279  1  1.10799891  0.25000000  0.16666667  1
  O  O280  1  1.10799891  0.25000000  0.50000000  1
  O  O281  1  1.10799891  0.25000000  0.83333333  1
  O  O282  1  0.60799891  -0.25000000  0.16666667  1
  O  O283  1  0.60799891  -0.25000000  0.50000000  1
  O  O284  1  0.60799891  -0.25000000  0.83333333  1
  O  O285  1  1.10799891  -0.25000000  0.16666667  1
  O  O286  1  1.10799891  -0.25000000  0.50000000  1
  O  O287  1  1.10799891  -0.25000000  0.83333333  1
