# generated using pymatgen
data_Li8PtO6
_symmetry_space_group_name_H-M   'P 1'
_cell_length_a   16.23967760
_cell_length_b   16.23967760
_cell_length_c   14.95393970
_cell_angle_alpha   90.00000000
_cell_angle_beta   90.00000000
_cell_angle_gamma   120.00000000
_symmetry_Int_Tables_number   1
_chemical_formula_structural   Li8PtO6
_chemical_formula_sum   'Li216 Pt27 O162'
_cell_volume   3415.39598032
_cell_formula_units_Z   27
loop_
 _symmetry_equiv_pos_site_id
 _symmetry_equiv_pos_as_xyz
  1  'x, y, z'
loop_
 _atom_site_type_symbol
 _atom_site_label
 _atom_site_symmetry_multiplicity
 _atom_site_fract_x
 _atom_site_fract_y
 _atom_site_fract_z
 _atom_site_occupancy
  Li  Li0  1  -0.00000000  -0.00000000  0.34298478  1
  Li  Li1  1  0.00000000  0.33333333  0.34298478  1
  Li  Li2  1  0.00000000  0.66666667  0.34298478  1
  Li  Li3  1  0.33333333  -0.00000000  0.34298478  1
  Li  Li4  1  0.33333333  0.33333333  0.34298478  1
  Li  Li5  1  0.33333333  0.66666667  0.34298478  1
  Li  Li6  1  0.66666667  -0.00000000  0.34298478  1
  Li  Li7  1  0.66666667  0.33333333  0.34298478  1
  Li  Li8  1  0.66666667  0.66666667  0.34298478  1
  Li  Li9  1  0.22222222  0.11111111  0.67631811  1
  Li  Li10  1  0.22222222  0.44444444  0.67631811  1
  Li  Li11  1  0.22222222  0.77777778  0.67631811  1
  Li  Li12  1  0.55555556  0.11111111  0.67631811  1
  Li  Li13  1  0.55555556  0.44444444  0.67631811  1
  Li  Li14  1  0.55555556  0.77777778  0.67631811  1
  Li  Li15  1  0.88888889  0.11111111  0.67631811  1
  Li  Li16  1  0.88888889  0.44444444  0.67631811  1
  Li  Li17  1  0.88888889  0.77777778  0.67631811  1
  Li  Li18  1  0.11111111  0.22222222  1.00965144  1
  Li  Li19  1  0.11111111  0.55555556  1.00965144  1
  Li  Li20  1  0.11111111  0.88888889  1.00965144  1
  Li  Li21  1  0.44444444  0.22222222  1.00965144  1
  Li  Li22  1  0.44444444  0.55555556  1.00965144  1
  Li  Li23  1  0.44444444  0.88888889  1.00965144  1
  Li  Li24  1  0.77777778  0.22222222  1.00965144  1
  Li  Li25  1  0.77777778  0.55555556  1.00965144  1
  Li  Li26  1  0.77777778  0.88888889  1.00965144  1
  Li  Li27  1  -0.01215085  -0.11741464  0.54963970  1
  Li  Li28  1  -0.01215085  0.21591869  0.54963970  1
  Li  Li29  1  -0.01215085  0.54925203  0.54963970  1
  Li  Li30  1  0.32118248  -0.11741464  0.54963970  1
  Li  Li31  1  0.32118248  0.21591869  0.54963970  1
  Li  Li32  1  0.32118248  0.54925203  0.54963970  1
  Li  Li33  1  0.65451581  -0.11741464  0.54963970  1
  Li  Li34  1  0.65451581  0.21591869  0.54963970  1
  Li  Li35  1  0.65451581  0.54925203  0.54963970  1
  Li  Li36  1  0.21007137  -0.00630353  0.88297304  1
  Li  Li37  1  0.21007137  0.32702980  0.88297304  1
  Li  Li38  1  0.21007137  0.66036314  0.88297304  1
  Li  Li39  1  0.54340470  -0.00630353  0.88297304  1
  Li  Li40  1  0.54340470  0.32702980  0.88297304  1
  Li  Li41  1  0.54340470  0.66036314  0.88297304  1
  Li  Li42  1  0.87673803  -0.00630353  0.88297304  1
  Li  Li43  1  0.87673803  0.32702980  0.88297304  1
  Li  Li44  1  0.87673803  0.66036314  0.88297304  1
  Li  Li45  1  0.09896026  0.10480758  1.21630637  1
  Li  Li46  1  0.09896026  0.43814092  1.21630637  1
  Li  Li47  1  0.09896026  0.77147425  1.21630637  1
  Li  Li48  1  0.43229359  0.10480758  1.21630637  1
  Li  Li49  1  0.43229359  0.43814092  1.21630637  1
  Li  Li50  1  0.43229359  0.77147425  1.21630637  1
  Li  Li51  1  0.76562692  0.10480758  1.21630637  1
  Li  Li52  1  0.76562692  0.43814092  1.21630637  1
  Li  Li53  1  0.76562692  0.77147425  1.21630637  1
  Li  Li54  1  -0.10526379  0.01215085  0.54963970  1
  Li  Li55  1  -0.10526379  0.34548419  0.54963970  1
  Li  Li56  1  -0.10526379  0.67881752  0.54963970  1
  Li  Li57  1  0.22806955  0.01215085  0.54963970  1
  Li  Li58  1  0.22806955  0.34548419  0.54963970  1
  Li  Li59  1  0.22806955  0.67881752  0.54963970  1
  Li  Li60  1  0.56140288  0.01215085  0.54963970  1
  Li  Li61  1  0.56140288  0.34548419  0.54963970  1
  Li  Li62  1  0.56140288  0.67881752  0.54963970  1
  Li  Li63  1  0.11695844  0.12326197  0.88297304  1
  Li  Li64  1  0.11695844  0.45659530  0.88297304  1
  Li  Li65  1  0.11695844  0.78992863  0.88297304  1
  Li  Li66  1  0.45029177  0.12326197  0.88297304  1
  Li  Li67  1  0.45029177  0.45659530  0.88297304  1
  Li  Li68  1  0.45029177  0.78992863  0.88297304  1
  Li  Li69  1  0.78362510  0.12326197  0.88297304  1
  Li  Li70  1  0.78362510  0.45659530  0.88297304  1
  Li  Li71  1  0.78362510  0.78992863  0.88297304  1
  Li  Li72  1  0.00584733  0.23437308  1.21630637  1
  Li  Li73  1  0.00584733  0.56770641  1.21630637  1
  Li  Li74  1  0.00584733  0.90103974  1.21630637  1
  Li  Li75  1  0.33918066  0.23437308  1.21630637  1
  Li  Li76  1  0.33918066  0.56770641  1.21630637  1
  Li  Li77  1  0.33918066  0.90103974  1.21630637  1
  Li  Li78  1  0.67251399  0.23437308  1.21630637  1
  Li  Li79  1  0.67251399  0.56770641  1.21630637  1
  Li  Li80  1  0.67251399  0.90103974  1.21630637  1
  Li  Li81  1  0.11741464  0.10526379  0.54963970  1
  Li  Li82  1  0.11741464  0.43859712  0.54963970  1
  Li  Li83  1  0.11741464  0.77193045  0.54963970  1
  Li  Li84  1  0.45074797  0.10526379  0.54963970  1
  Li  Li85  1  0.45074797  0.43859712  0.54963970  1
  Li  Li86  1  0.45074797  0.77193045  0.54963970  1
  Li  Li87  1  0.78408131  0.10526379  0.54963970  1
  Li  Li88  1  0.78408131  0.43859712  0.54963970  1
  Li  Li89  1  0.78408131  0.77193045  0.54963970  1
  Li  Li90  1  0.33963686  0.21637490  0.88297304  1
  Li  Li91  1  0.33963686  0.54970823  0.88297304  1
  Li  Li92  1  0.33963686  0.88304156  0.88297304  1
  Li  Li93  1  0.67297020  0.21637490  0.88297304  1
  Li  Li94  1  0.67297020  0.54970823  0.88297304  1
  Li  Li95  1  0.67297020  0.88304156  0.88297304  1
  Li  Li96  1  1.00630353  0.21637490  0.88297304  1
  Li  Li97  1  1.00630353  0.54970823  0.88297304  1
  Li  Li98  1  1.00630353  0.88304156  0.88297304  1
  Li  Li99  1  0.22852575  0.32748601  1.21630637  1
  Li  Li100  1  0.22852575  0.66081934  1.21630637  1
  Li  Li101  1  0.22852575  0.99415267  1.21630637  1
  Li  Li102  1  0.56185908  0.32748601  1.21630637  1
  Li  Li103  1  0.56185908  0.66081934  1.21630637  1
  Li  Li104  1  0.56185908  0.99415267  1.21630637  1
  Li  Li105  1  0.89519242  0.32748601  1.21630637  1
  Li  Li106  1  0.89519242  0.66081934  1.21630637  1
  Li  Li107  1  0.89519242  0.99415267  1.21630637  1
  Li  Li108  1  0.01215085  0.11741464  0.45036030  1
  Li  Li109  1  0.01215085  0.45074797  0.45036030  1
  Li  Li110  1  0.01215085  0.78408131  0.45036030  1
  Li  Li111  1  0.34548419  0.11741464  0.45036030  1
  Li  Li112  1  0.34548419  0.45074797  0.45036030  1
  Li  Li113  1  0.34548419  0.78408131  0.45036030  1
  Li  Li114  1  0.67881752  0.11741464  0.45036030  1
  Li  Li115  1  0.67881752  0.45074797  0.45036030  1
  Li  Li116  1  0.67881752  0.78408131  0.45036030  1
  Li  Li117  1  0.23437308  0.22852575  0.78369363  1
  Li  Li118  1  0.23437308  0.56185908  0.78369363  1
  Li  Li119  1  0.23437308  0.89519242  0.78369363  1
  Li  Li120  1  0.56770641  0.22852575  0.78369363  1
  Li  Li121  1  0.56770641  0.56185908  0.78369363  1
  Li  Li122  1  0.56770641  0.89519242  0.78369363  1
  Li  Li123  1  0.90103974  0.22852575  0.78369363  1
  Li  Li124  1  0.90103974  0.56185908  0.78369363  1
  Li  Li125  1  0.90103974  0.89519242  0.78369363  1
  Li  Li126  1  0.12326197  0.33963686  1.11702696  1
  Li  Li127  1  0.12326197  0.67297020  1.11702696  1
  Li  Li128  1  0.12326197  1.00630353  1.11702696  1
  Li  Li129  1  0.45659530  0.33963686  1.11702696  1
  Li  Li130  1  0.45659530  0.67297020  1.11702696  1
  Li  Li131  1  0.45659530  1.00630353  1.11702696  1
  Li  Li132  1  0.78992863  0.33963686  1.11702696  1
  Li  Li133  1  0.78992863  0.67297020  1.11702696  1
  Li  Li134  1  0.78992863  1.00630353  1.11702696  1
  Li  Li135  1  0.10526379  -0.01215085  0.45036030  1
  Li  Li136  1  0.10526379  0.32118248  0.45036030  1
  Li  Li137  1  0.10526379  0.65451581  0.45036030  1
  Li  Li138  1  0.43859712  -0.01215085  0.45036030  1
  Li  Li139  1  0.43859712  0.32118248  0.45036030  1
  Li  Li140  1  0.43859712  0.65451581  0.45036030  1
  Li  Li141  1  0.77193045  -0.01215085  0.45036030  1
  Li  Li142  1  0.77193045  0.32118248  0.45036030  1
  Li  Li143  1  0.77193045  0.65451581  0.45036030  1
  Li  Li144  1  0.32748601  0.09896026  0.78369363  1
  Li  Li145  1  0.32748601  0.43229359  0.78369363  1
  Li  Li146  1  0.32748601  0.76562692  0.78369363  1
  Li  Li147  1  0.66081934  0.09896026  0.78369363  1
  Li  Li148  1  0.66081934  0.43229359  0.78369363  1
  Li  Li149  1  0.66081934  0.76562692  0.78369363  1
  Li  Li150  1  0.99415267  0.09896026  0.78369363  1
  Li  Li151  1  0.99415267  0.43229359  0.78369363  1
  Li  Li152  1  0.99415267  0.76562692  0.78369363  1
  Li  Li153  1  0.21637490  0.21007137  1.11702696  1
  Li  Li154  1  0.21637490  0.54340470  1.11702696  1
  Li  Li155  1  0.21637490  0.87673803  1.11702696  1
  Li  Li156  1  0.54970823  0.21007137  1.11702696  1
  Li  Li157  1  0.54970823  0.54340470  1.11702696  1
  Li  Li158  1  0.54970823  0.87673803  1.11702696  1
  Li  Li159  1  0.88304156  0.21007137  1.11702696  1
  Li  Li160  1  0.88304156  0.54340470  1.11702696  1
  Li  Li161  1  0.88304156  0.87673803  1.11702696  1
  Li  Li162  1  0.00000000  0.00000000  0.65701522  1
  Li  Li163  1  0.00000000  0.33333333  0.65701522  1
  Li  Li164  1  0.00000000  0.66666667  0.65701522  1
  Li  Li165  1  0.33333333  0.00000000  0.65701522  1
  Li  Li166  1  0.33333333  0.33333333  0.65701522  1
  Li  Li167  1  0.33333333  0.66666667  0.65701522  1
  Li  Li168  1  0.66666667  0.00000000  0.65701522  1
  Li  Li169  1  0.66666667  0.33333333  0.65701522  1
  Li  Li170  1  0.66666667  0.66666667  0.65701522  1
  Li  Li171  1  0.22222222  0.11111111  0.99034856  1
  Li  Li172  1  0.22222222  0.44444444  0.99034856  1
  Li  Li173  1  0.22222222  0.77777778  0.99034856  1
  Li  Li174  1  0.55555556  0.11111111  0.99034856  1
  Li  Li175  1  0.55555556  0.44444444  0.99034856  1
  Li  Li176  1  0.55555556  0.77777778  0.99034856  1
  Li  Li177  1  0.88888889  0.11111111  0.99034856  1
  Li  Li178  1  0.88888889  0.44444444  0.99034856  1
  Li  Li179  1  0.88888889  0.77777778  0.99034856  1
  Li  Li180  1  0.11111111  0.22222222  1.32368189  1
  Li  Li181  1  0.11111111  0.55555556  1.32368189  1
  Li  Li182  1  0.11111111  0.88888889  1.32368189  1
  Li  Li183  1  0.44444444  0.22222222  1.32368189  1
  Li  Li184  1  0.44444444  0.55555556  1.32368189  1
  Li  Li185  1  0.44444444  0.88888889  1.32368189  1
  Li  Li186  1  0.77777778  0.22222222  1.32368189  1
  Li  Li187  1  0.77777778  0.55555556  1.32368189  1
  Li  Li188  1  0.77777778  0.88888889  1.32368189  1
  Li  Li189  1  -0.11741464  -0.10526379  0.45036030  1
  Li  Li190  1  -0.11741464  0.22806955  0.45036030  1
  Li  Li191  1  -0.11741464  0.56140288  0.45036030  1
  Li  Li192  1  0.21591869  -0.10526379  0.45036030  1
  Li  Li193  1  0.21591869  0.22806955  0.45036030  1
  Li  Li194  1  0.21591869  0.56140288  0.45036030  1
  Li  Li195  1  0.54925203  -0.10526379  0.45036030  1
  Li  Li196  1  0.54925203  0.22806955  0.45036030  1
  Li  Li197  1  0.54925203  0.56140288  0.45036030  1
  Li  Li198  1  0.10480758  0.00584733  0.78369363  1
  Li  Li199  1  0.10480758  0.33918066  0.78369363  1
  Li  Li200  1  0.10480758  0.67251399  0.78369363  1
  Li  Li201  1  0.43814092  0.00584733  0.78369363  1
  Li  Li202  1  0.43814092  0.33918066  0.78369363  1
  Li  Li203  1  0.43814092  0.67251399  0.78369363  1
  Li  Li204  1  0.77147425  0.00584733  0.78369363  1
  Li  Li205  1  0.77147425  0.33918066  0.78369363  1
  Li  Li206  1  0.77147425  0.67251399  0.78369363  1
  Li  Li207  1  -0.00630353  0.11695844  1.11702696  1
  Li  Li208  1  -0.00630353  0.45029177  1.11702696  1
  Li  Li209  1  -0.00630353  0.78362510  1.11702696  1
  Li  Li210  1  0.32702980  0.11695844  1.11702696  1
  Li  Li211  1  0.32702980  0.45029177  1.11702696  1
  Li  Li212  1  0.32702980  0.78362510  1.11702696  1
  Li  Li213  1  0.66036314  0.11695844  1.11702696  1
  Li  Li214  1  0.66036314  0.45029177  1.11702696  1
  Li  Li215  1  0.66036314  0.78362510  1.11702696  1
  Pt  Pt216  1  -0.00000000  -0.00000000  -0.00000000  1
  Pt  Pt217  1  0.00000000  0.33333333  -0.00000000  1
  Pt  Pt218  1  0.00000000  0.66666667  -0.00000000  1
  Pt  Pt219  1  0.33333333  -0.00000000  -0.00000000  1
  Pt  Pt220  1  0.33333333  0.33333333  -0.00000000  1
  Pt  Pt221  1  0.33333333  0.66666667  -0.00000000  1
  Pt  Pt222  1  0.66666667  -0.00000000  -0.00000000  1
  Pt  Pt223  1  0.66666667  0.33333333  -0.00000000  1
  Pt  Pt224  1  0.66666667  0.66666667  -0.00000000  1
  Pt  Pt225  1  0.22222222  0.11111111  0.33333333  1
  Pt  Pt226  1  0.22222222  0.44444444  0.33333333  1
  Pt  Pt227  1  0.22222222  0.77777778  0.33333333  1
  Pt  Pt228  1  0.55555556  0.11111111  0.33333333  1
  Pt  Pt229  1  0.55555556  0.44444444  0.33333333  1
  Pt  Pt230  1  0.55555556  0.77777778  0.33333333  1
  Pt  Pt231  1  0.88888889  0.11111111  0.33333333  1
  Pt  Pt232  1  0.88888889  0.44444444  0.33333333  1
  Pt  Pt233  1  0.88888889  0.77777778  0.33333333  1
  Pt  Pt234  1  0.11111111  0.22222222  0.66666667  1
  Pt  Pt235  1  0.11111111  0.55555556  0.66666667  1
  Pt  Pt236  1  0.11111111  0.88888889  0.66666667  1
  Pt  Pt237  1  0.44444444  0.22222222  0.66666667  1
  Pt  Pt238  1  0.44444444  0.55555556  0.66666667  1
  Pt  Pt239  1  0.44444444  0.88888889  0.66666667  1
  Pt  Pt240  1  0.77777778  0.22222222  0.66666667  1
  Pt  Pt241  1  0.77777778  0.55555556  0.66666667  1
  Pt  Pt242  1  0.77777778  0.88888889  0.66666667  1
  O  O243  1  -0.11680907  -0.10668102  0.58674563  1
  O  O244  1  -0.11680907  0.22665231  0.58674563  1
  O  O245  1  -0.11680907  0.55998565  0.58674563  1
  O  O246  1  0.21652427  -0.10668102  0.58674563  1
  O  O247  1  0.21652427  0.22665231  0.58674563  1
  O  O248  1  0.21652427  0.55998565  0.58674563  1
  O  O249  1  0.54985760  -0.10668102  0.58674563  1
  O  O250  1  0.54985760  0.22665231  0.58674563  1
  O  O251  1  0.54985760  0.55998565  0.58674563  1
  O  O252  1  0.10541315  0.00443009  0.92007896  1
  O  O253  1  0.10541315  0.33776342  0.92007896  1
  O  O254  1  0.10541315  0.67109676  0.92007896  1
  O  O255  1  0.43874649  0.00443009  0.92007896  1
  O  O256  1  0.43874649  0.33776342  0.92007896  1
  O  O257  1  0.43874649  0.67109676  0.92007896  1
  O  O258  1  0.77207982  0.00443009  0.92007896  1
  O  O259  1  0.77207982  0.33776342  0.92007896  1
  O  O260  1  0.77207982  0.67109676  0.92007896  1
  O  O261  1  -0.00569796  0.11554120  1.25341229  1
  O  O262  1  -0.00569796  0.44887453  1.25341229  1
  O  O263  1  -0.00569796  0.78220787  1.25341229  1
  O  O264  1  0.32763538  0.11554120  1.25341229  1
  O  O265  1  0.32763538  0.44887453  1.25341229  1
  O  O266  1  0.32763538  0.78220787  1.25341229  1
  O  O267  1  0.66096871  0.11554120  1.25341229  1
  O  O268  1  0.66096871  0.44887453  1.25341229  1
  O  O269  1  0.66096871  0.78220787  1.25341229  1
  O  O270  1  -0.10668102  0.01012805  0.41325437  1
  O  O271  1  -0.10668102  0.34346138  0.41325437  1
  O  O272  1  -0.10668102  0.67679471  0.41325437  1
  O  O273  1  0.22665231  0.01012805  0.41325437  1
  O  O274  1  0.22665231  0.34346138  0.41325437  1
  O  O275  1  0.22665231  0.67679471  0.41325437  1
  O  O276  1  0.55998565  0.01012805  0.41325437  1
  O  O277  1  0.55998565  0.34346138  0.41325437  1
  O  O278  1  0.55998565  0.67679471  0.41325437  1
  O  O279  1  0.11554120  0.12123916  0.74658771  1
  O  O280  1  0.11554120  0.45457249  0.74658771  1
  O  O281  1  0.11554120  0.78790582  0.74658771  1
  O  O282  1  0.44887453  0.12123916  0.74658771  1
  O  O283  1  0.44887453  0.45457249  0.74658771  1
  O  O284  1  0.44887453  0.78790582  0.74658771  1
  O  O285  1  0.78220787  0.12123916  0.74658771  1
  O  O286  1  0.78220787  0.45457249  0.74658771  1
  O  O287  1  0.78220787  0.78790582  0.74658771  1
  O  O288  1  0.00443009  0.23235027  1.07992104  1
  O  O289  1  0.00443009  0.56568360  1.07992104  1
  O  O290  1  0.00443009  0.89901694  1.07992104  1
  O  O291  1  0.33776342  0.23235027  1.07992104  1
  O  O292  1  0.33776342  0.56568360  1.07992104  1
  O  O293  1  0.33776342  0.89901694  1.07992104  1
  O  O294  1  0.67109676  0.23235027  1.07992104  1
  O  O295  1  0.67109676  0.56568360  1.07992104  1
  O  O296  1  0.67109676  0.89901694  1.07992104  1
  O  O297  1  0.11680907  0.10668102  0.41325437  1
  O  O298  1  0.11680907  0.44001435  0.41325437  1
  O  O299  1  0.11680907  0.77334769  0.41325437  1
  O  O300  1  0.45014240  0.10668102  0.41325437  1
  O  O301  1  0.45014240  0.44001435  0.41325437  1
  O  O302  1  0.45014240  0.77334769  0.41325437  1
  O  O303  1  0.78347573  0.10668102  0.41325437  1
  O  O304  1  0.78347573  0.44001435  0.41325437  1
  O  O305  1  0.78347573  0.77334769  0.41325437  1
  O  O306  1  0.33903129  0.21779213  0.74658771  1
  O  O307  1  0.33903129  0.55112547  0.74658771  1
  O  O308  1  0.33903129  0.88445880  0.74658771  1
  O  O309  1  0.67236462  0.21779213  0.74658771  1
  O  O310  1  0.67236462  0.55112547  0.74658771  1
  O  O311  1  0.67236462  0.88445880  0.74658771  1
  O  O312  1  1.00569796  0.21779213  0.74658771  1
  O  O313  1  1.00569796  0.55112547  0.74658771  1
  O  O314  1  1.00569796  0.88445880  0.74658771  1
  O  O315  1  0.22792018  0.32890324  1.07992104  1
  O  O316  1  0.22792018  0.66223658  1.07992104  1
  O  O317  1  0.22792018  0.99556991  1.07992104  1
  O  O318  1  0.56125351  0.32890324  1.07992104  1
  O  O319  1  0.56125351  0.66223658  1.07992104  1
  O  O320  1  0.56125351  0.99556991  1.07992104  1
  O  O321  1  0.89458685  0.32890324  1.07992104  1
  O  O322  1  0.89458685  0.66223658  1.07992104  1
  O  O323  1  0.89458685  0.99556991  1.07992104  1
  O  O324  1  0.01012805  0.11680907  0.58674563  1
  O  O325  1  0.01012805  0.45014240  0.58674563  1
  O  O326  1  0.01012805  0.78347573  0.58674563  1
  O  O327  1  0.34346138  0.11680907  0.58674563  1
  O  O328  1  0.34346138  0.45014240  0.58674563  1
  O  O329  1  0.34346138  0.78347573  0.58674563  1
  O  O330  1  0.67679471  0.11680907  0.58674563  1
  O  O331  1  0.67679471  0.45014240  0.58674563  1
  O  O332  1  0.67679471  0.78347573  0.58674563  1
  O  O333  1  0.23235027  0.22792018  0.92007896  1
  O  O334  1  0.23235027  0.56125351  0.92007896  1
  O  O335  1  0.23235027  0.89458685  0.92007896  1
  O  O336  1  0.56568360  0.22792018  0.92007896  1
  O  O337  1  0.56568360  0.56125351  0.92007896  1
  O  O338  1  0.56568360  0.89458685  0.92007896  1
  O  O339  1  0.89901694  0.22792018  0.92007896  1
  O  O340  1  0.89901694  0.56125351  0.92007896  1
  O  O341  1  0.89901694  0.89458685  0.92007896  1
  O  O342  1  0.12123916  0.33903129  1.25341229  1
  O  O343  1  0.12123916  0.67236462  1.25341229  1
  O  O344  1  0.12123916  1.00569796  1.25341229  1
  O  O345  1  0.45457249  0.33903129  1.25341229  1
  O  O346  1  0.45457249  0.67236462  1.25341229  1
  O  O347  1  0.45457249  1.00569796  1.25341229  1
  O  O348  1  0.78790582  0.33903129  1.25341229  1
  O  O349  1  0.78790582  0.67236462  1.25341229  1
  O  O350  1  0.78790582  1.00569796  1.25341229  1
  O  O351  1  0.10668102  -0.01012805  0.58674563  1
  O  O352  1  0.10668102  0.32320529  0.58674563  1
  O  O353  1  0.10668102  0.65653862  0.58674563  1
  O  O354  1  0.44001435  -0.01012805  0.58674563  1
  O  O355  1  0.44001435  0.32320529  0.58674563  1
  O  O356  1  0.44001435  0.65653862  0.58674563  1
  O  O357  1  0.77334769  -0.01012805  0.58674563  1
  O  O358  1  0.77334769  0.32320529  0.58674563  1
  O  O359  1  0.77334769  0.65653862  0.58674563  1
  O  O360  1  0.32890324  0.10098306  0.92007896  1
  O  O361  1  0.32890324  0.43431640  0.92007896  1
  O  O362  1  0.32890324  0.76764973  0.92007896  1
  O  O363  1  0.66223658  0.10098306  0.92007896  1
  O  O364  1  0.66223658  0.43431640  0.92007896  1
  O  O365  1  0.66223658  0.76764973  0.92007896  1
  O  O366  1  0.99556991  0.10098306  0.92007896  1
  O  O367  1  0.99556991  0.43431640  0.92007896  1
  O  O368  1  0.99556991  0.76764973  0.92007896  1
  O  O369  1  0.21779213  0.21209418  1.25341229  1
  O  O370  1  0.21779213  0.54542751  1.25341229  1
  O  O371  1  0.21779213  0.87876084  1.25341229  1
  O  O372  1  0.55112547  0.21209418  1.25341229  1
  O  O373  1  0.55112547  0.54542751  1.25341229  1
  O  O374  1  0.55112547  0.87876084  1.25341229  1
  O  O375  1  0.88445880  0.21209418  1.25341229  1
  O  O376  1  0.88445880  0.54542751  1.25341229  1
  O  O377  1  0.88445880  0.87876084  1.25341229  1
  O  O378  1  -0.01012805  -0.11680907  0.41325437  1
  O  O379  1  -0.01012805  0.21652427  0.41325437  1
  O  O380  1  -0.01012805  0.54985760  0.41325437  1
  O  O381  1  0.32320529  -0.11680907  0.41325437  1
  O  O382  1  0.32320529  0.21652427  0.41325437  1
  O  O383  1  0.32320529  0.54985760  0.41325437  1
  O  O384  1  0.65653862  -0.11680907  0.41325437  1
  O  O385  1  0.65653862  0.21652427  0.41325437  1
  O  O386  1  0.65653862  0.54985760  0.41325437  1
  O  O387  1  0.21209418  -0.00569796  0.74658771  1
  O  O388  1  0.21209418  0.32763538  0.74658771  1
  O  O389  1  0.21209418  0.66096871  0.74658771  1
  O  O390  1  0.54542751  -0.00569796  0.74658771  1
  O  O391  1  0.54542751  0.32763538  0.74658771  1
  O  O392  1  0.54542751  0.66096871  0.74658771  1
  O  O393  1  0.87876084  -0.00569796  0.74658771  1
  O  O394  1  0.87876084  0.32763538  0.74658771  1
  O  O395  1  0.87876084  0.66096871  0.74658771  1
  O  O396  1  0.10098306  0.10541315  1.07992104  1
  O  O397  1  0.10098306  0.43874649  1.07992104  1
  O  O398  1  0.10098306  0.77207982  1.07992104  1
  O  O399  1  0.43431640  0.10541315  1.07992104  1
  O  O400  1  0.43431640  0.43874649  1.07992104  1
  O  O401  1  0.43431640  0.77207982  1.07992104  1
  O  O402  1  0.76764973  0.10541315  1.07992104  1
  O  O403  1  0.76764973  0.43874649  1.07992104  1
  O  O404  1  0.76764973  0.77207982  1.07992104  1
