# generated using pymatgen
data_GaAsO4
_symmetry_space_group_name_H-M   'P 1'
_cell_length_a   10.01149230
_cell_length_b   10.01149230
_cell_length_c   11.49358025
_cell_angle_alpha   90.00000000
_cell_angle_beta   90.00000000
_cell_angle_gamma   120.00000000
_symmetry_Int_Tables_number   1
_chemical_formula_structural   GaAsO4
_chemical_formula_sum   'Ga12 As12 O48'
_cell_volume   997.66238845
_cell_formula_units_Z   12
loop_
 _symmetry_equiv_pos_site_id
 _symmetry_equiv_pos_as_xyz
  1  'x, y, z'
loop_
 _atom_site_type_symbol
 _atom_site_label
 _atom_site_symmetry_multiplicity
 _atom_site_fract_x
 _atom_site_fract_y
 _atom_site_fract_z
 _atom_site_occupancy
  Ga  Ga0  1  0.22528686  0.00000000  0.33333333  1
  Ga  Ga1  1  0.22528686  0.50000000  0.33333333  1
  Ga  Ga2  1  0.72528686  0.00000000  0.33333333  1
  Ga  Ga3  1  0.72528686  0.50000000  0.33333333  1
  Ga  Ga4  1  -0.00000000  0.22528686  0.66666667  1
  Ga  Ga5  1  -0.00000000  0.72528686  0.66666667  1
  Ga  Ga6  1  0.50000000  0.22528686  0.66666667  1
  Ga  Ga7  1  0.50000000  0.72528686  0.66666667  1
  Ga  Ga8  1  0.27471314  0.27471314  0.00000000  1
  Ga  Ga9  1  0.27471314  0.77471314  0.00000000  1
  Ga  Ga10  1  0.77471314  0.27471314  0.00000000  1
  Ga  Ga11  1  0.77471314  0.77471314  0.00000000  1
  As  As12  1  0.22436102  0.00000000  0.83333333  1
  As  As13  1  0.22436102  0.50000000  0.83333333  1
  As  As14  1  0.72436102  0.00000000  0.83333333  1
  As  As15  1  0.72436102  0.50000000  0.83333333  1
  As  As16  1  -0.00000000  0.22436102  0.16666667  1
  As  As17  1  -0.00000000  0.72436102  0.16666667  1
  As  As18  1  0.50000000  0.22436102  0.16666667  1
  As  As19  1  0.50000000  0.72436102  0.16666667  1
  As  As20  1  0.27563898  0.27563898  0.50000000  1
  As  As21  1  0.27563898  0.77563898  0.50000000  1
  As  As22  1  0.77563898  0.27563898  0.50000000  1
  As  As23  1  0.77563898  0.77563898  0.50000000  1
  O  O24  1  0.14966152  0.19739292  0.12900928  1
  O  O25  1  0.14966152  0.69739292  0.12900928  1
  O  O26  1  0.64966152  0.19739292  0.12900928  1
  O  O27  1  0.64966152  0.69739292  0.12900928  1
  O  O28  1  0.30260708  0.45226860  0.46234262  1
  O  O29  1  0.30260708  0.95226860  0.46234262  1
  O  O30  1  0.80260708  0.45226860  0.46234262  1
  O  O31  1  0.80260708  0.95226860  0.46234262  1
  O  O32  1  0.04773140  0.35033848  0.79567595  1
  O  O33  1  0.04773140  0.85033848  0.79567595  1
  O  O34  1  0.54773140  0.35033848  0.79567595  1
  O  O35  1  0.54773140  0.85033848  0.79567595  1
  O  O36  1  0.45226860  0.30260708  0.53765738  1
  O  O37  1  0.45226860  0.80260708  0.53765738  1
  O  O38  1  0.95226860  0.30260708  0.53765738  1
  O  O39  1  0.95226860  0.80260708  0.53765738  1
  O  O40  1  0.35033848  0.04773140  0.20432405  1
  O  O41  1  0.35033848  0.54773140  0.20432405  1
  O  O42  1  0.85033848  0.04773140  0.20432405  1
  O  O43  1  0.85033848  0.54773140  0.20432405  1
  O  O44  1  0.19739292  0.14966152  0.87099072  1
  O  O45  1  0.19739292  0.64966152  0.87099072  1
  O  O46  1  0.69739292  0.14966152  0.87099072  1
  O  O47  1  0.69739292  0.64966152  0.87099072  1
  O  O48  1  0.19737159  0.15921526  0.38126557  1
  O  O49  1  0.19737159  0.65921526  0.38126557  1
  O  O50  1  0.69737159  0.15921526  0.38126557  1
  O  O51  1  0.69737159  0.65921526  0.38126557  1
  O  O52  1  0.34078474  0.03815634  0.71459890  1
  O  O53  1  0.34078474  0.53815634  0.71459890  1
  O  O54  1  0.84078474  0.03815634  0.71459890  1
  O  O55  1  0.84078474  0.53815634  0.71459890  1
  O  O56  1  0.46184366  0.30262841  0.04793224  1
  O  O57  1  0.46184366  0.80262841  0.04793224  1
  O  O58  1  0.96184366  0.30262841  0.04793224  1
  O  O59  1  0.96184366  0.80262841  0.04793224  1
  O  O60  1  0.03815634  0.34078474  0.28540110  1
  O  O61  1  0.03815634  0.84078474  0.28540110  1
  O  O62  1  0.53815634  0.34078474  0.28540110  1
  O  O63  1  0.53815634  0.84078474  0.28540110  1
  O  O64  1  0.30262841  0.46184366  0.95206776  1
  O  O65  1  0.30262841  0.96184366  0.95206776  1
  O  O66  1  0.80262841  0.46184366  0.95206776  1
  O  O67  1  0.80262841  0.96184366  0.95206776  1
  O  O68  1  0.15921526  0.19737159  0.61873443  1
  O  O69  1  0.15921526  0.69737159  0.61873443  1
  O  O70  1  0.65921526  0.19737159  0.61873443  1
  O  O71  1  0.65921526  0.69737159  0.61873443  1
