# generated using pymatgen
data_YAsO4
_symmetry_space_group_name_H-M   'P 1'
_cell_length_a   14.12718500
_cell_length_b   14.12718500
_cell_length_c   12.59681761
_cell_angle_alpha   90.00000000
_cell_angle_beta   90.00000000
_cell_angle_gamma   90.00000000
_symmetry_Int_Tables_number   1
_chemical_formula_structural   YAsO4
_chemical_formula_sum   'Y32 As32 O128'
_cell_volume   2514.03955334
_cell_formula_units_Z   32
loop_
 _symmetry_equiv_pos_site_id
 _symmetry_equiv_pos_as_xyz
  1  'x, y, z'
loop_
 _atom_site_type_symbol
 _atom_site_label
 _atom_site_symmetry_multiplicity
 _atom_site_fract_x
 _atom_site_fract_y
 _atom_site_fract_z
 _atom_site_occupancy
  Y  Y0  1  0.00000000  0.50000000  0.25000000  1
  Y  Y1  1  0.00000000  0.50000000  0.75000000  1
  Y  Y2  1  0.50000000  0.50000000  0.25000000  1
  Y  Y3  1  0.50000000  0.50000000  0.75000000  1
  Y  Y4  1  0.00000000  0.00000000  0.25000000  1
  Y  Y5  1  0.00000000  0.00000000  0.75000000  1
  Y  Y6  1  0.50000000  0.00000000  0.25000000  1
  Y  Y7  1  0.50000000  0.00000000  0.75000000  1
  Y  Y8  1  0.25000000  0.25000000  0.50000000  1
  Y  Y9  1  0.25000000  0.25000000  1.00000000  1
  Y  Y10  1  0.75000000  0.25000000  0.50000000  1
  Y  Y11  1  0.75000000  0.25000000  1.00000000  1
  Y  Y12  1  0.25000000  -0.25000000  0.50000000  1
  Y  Y13  1  0.25000000  -0.25000000  1.00000000  1
  Y  Y14  1  0.75000000  -0.25000000  0.50000000  1
  Y  Y15  1  0.75000000  -0.25000000  1.00000000  1
  Y  Y16  1  0.00000000  0.25000000  0.12500000  1
  Y  Y17  1  0.00000000  0.25000000  0.62500000  1
  Y  Y18  1  0.50000000  0.25000000  0.12500000  1
  Y  Y19  1  0.50000000  0.25000000  0.62500000  1
  Y  Y20  1  0.00000000  -0.25000000  0.12500000  1
  Y  Y21  1  0.00000000  -0.25000000  0.62500000  1
  Y  Y22  1  0.50000000  -0.25000000  0.12500000  1
  Y  Y23  1  0.50000000  -0.25000000  0.62500000  1
  Y  Y24  1  0.25000000  0.00000000  0.37500000  1
  Y  Y25  1  0.25000000  0.00000000  0.87500000  1
  Y  Y26  1  0.75000000  0.00000000  0.37500000  1
  Y  Y27  1  0.75000000  0.00000000  0.87500000  1
  Y  Y28  1  0.25000000  -0.50000000  0.37500000  1
  Y  Y29  1  0.25000000  -0.50000000  0.87500000  1
  Y  Y30  1  0.75000000  -0.50000000  0.37500000  1
  Y  Y31  1  0.75000000  -0.50000000  0.87500000  1
  As  As32  1  0.00000000  0.50000000  0.00000000  1
  As  As33  1  0.00000000  0.50000000  0.50000000  1
  As  As34  1  0.50000000  0.50000000  0.00000000  1
  As  As35  1  0.50000000  0.50000000  0.50000000  1
  As  As36  1  0.00000000  0.00000000  0.00000000  1
  As  As37  1  0.00000000  0.00000000  0.50000000  1
  As  As38  1  0.50000000  0.00000000  0.00000000  1
  As  As39  1  0.50000000  0.00000000  0.50000000  1
  As  As40  1  0.25000000  0.25000000  0.25000000  1
  As  As41  1  0.25000000  0.25000000  0.75000000  1
  As  As42  1  0.75000000  0.25000000  0.25000000  1
  As  As43  1  0.75000000  0.25000000  0.75000000  1
  As  As44  1  0.25000000  -0.25000000  0.25000000  1
  As  As45  1  0.25000000  -0.25000000  0.75000000  1
  As  As46  1  0.75000000  -0.25000000  0.25000000  1
  As  As47  1  0.75000000  -0.25000000  0.75000000  1
  As  As48  1  0.25000000  0.50000000  0.12500000  1
  As  As49  1  0.25000000  0.50000000  0.62500000  1
  As  As50  1  0.75000000  0.50000000  0.12500000  1
  As  As51  1  0.75000000  0.50000000  0.62500000  1
  As  As52  1  0.25000000  0.00000000  0.12500000  1
  As  As53  1  0.25000000  0.00000000  0.62500000  1
  As  As54  1  0.75000000  0.00000000  0.12500000  1
  As  As55  1  0.75000000  0.00000000  0.62500000  1
  As  As56  1  0.50000000  0.25000000  0.37500000  1
  As  As57  1  0.50000000  0.25000000  0.87500000  1
  As  As58  1  1.00000000  0.25000000  0.37500000  1
  As  As59  1  1.00000000  0.25000000  0.87500000  1
  As  As60  1  0.50000000  -0.25000000  0.37500000  1
  As  As61  1  0.50000000  -0.25000000  0.87500000  1
  As  As62  1  1.00000000  -0.25000000  0.37500000  1
  As  As63  1  1.00000000  -0.25000000  0.87500000  1
  O  O64  1  0.25000000  0.40875421  0.03598135  1
  O  O65  1  0.25000000  0.40875421  0.53598135  1
  O  O66  1  0.75000000  0.40875421  0.03598135  1
  O  O67  1  0.75000000  0.40875421  0.53598135  1
  O  O68  1  0.25000000  -0.09124579  0.03598135  1
  O  O69  1  0.25000000  -0.09124579  0.53598135  1
  O  O70  1  0.75000000  -0.09124579  0.03598135  1
  O  O71  1  0.75000000  -0.09124579  0.53598135  1
  O  O72  1  0.50000000  0.15875421  0.28598135  1
  O  O73  1  0.50000000  0.15875421  0.78598135  1
  O  O74  1  1.00000000  0.15875421  0.28598135  1
  O  O75  1  1.00000000  0.15875421  0.78598135  1
  O  O76  1  0.50000000  -0.34124579  0.28598135  1
  O  O77  1  0.50000000  -0.34124579  0.78598135  1
  O  O78  1  1.00000000  -0.34124579  0.28598135  1
  O  O79  1  1.00000000  -0.34124579  0.78598135  1
  O  O80  1  0.15875421  0.25000000  0.16098135  1
  O  O81  1  0.15875421  0.25000000  0.66098135  1
  O  O82  1  0.65875421  0.25000000  0.16098135  1
  O  O83  1  0.65875421  0.25000000  0.66098135  1
  O  O84  1  0.15875421  -0.25000000  0.16098135  1
  O  O85  1  0.15875421  -0.25000000  0.66098135  1
  O  O86  1  0.65875421  -0.25000000  0.16098135  1
  O  O87  1  0.65875421  -0.25000000  0.66098135  1
  O  O88  1  0.40875421  0.00000000  0.41098135  1
  O  O89  1  0.40875421  0.00000000  0.91098135  1
  O  O90  1  0.90875421  0.00000000  0.41098135  1
  O  O91  1  0.90875421  0.00000000  0.91098135  1
  O  O92  1  0.40875421  -0.50000000  0.41098135  1
  O  O93  1  0.40875421  -0.50000000  0.91098135  1
  O  O94  1  0.90875421  -0.50000000  0.41098135  1
  O  O95  1  0.90875421  -0.50000000  0.91098135  1
  O  O96  1  -0.15875421  0.25000000  0.16098135  1
  O  O97  1  -0.15875421  0.25000000  0.66098135  1
  O  O98  1  0.34124579  0.25000000  0.16098135  1
  O  O99  1  0.34124579  0.25000000  0.66098135  1
  O  O100  1  -0.15875421  -0.25000000  0.16098135  1
  O  O101  1  -0.15875421  -0.25000000  0.66098135  1
  O  O102  1  0.34124579  -0.25000000  0.16098135  1
  O  O103  1  0.34124579  -0.25000000  0.66098135  1
  O  O104  1  0.09124579  0.00000000  0.41098135  1
  O  O105  1  0.09124579  0.00000000  0.91098135  1
  O  O106  1  0.59124579  0.00000000  0.41098135  1
  O  O107  1  0.59124579  0.00000000  0.91098135  1
  O  O108  1  0.09124579  -0.50000000  0.41098135  1
  O  O109  1  0.09124579  -0.50000000  0.91098135  1
  O  O110  1  0.59124579  -0.50000000  0.41098135  1
  O  O111  1  0.59124579  -0.50000000  0.91098135  1
  O  O112  1  0.00000000  0.34124579  0.28598135  1
  O  O113  1  0.00000000  0.34124579  0.78598135  1
  O  O114  1  0.50000000  0.34124579  0.28598135  1
  O  O115  1  0.50000000  0.34124579  0.78598135  1
  O  O116  1  0.00000000  -0.15875421  0.28598135  1
  O  O117  1  0.00000000  -0.15875421  0.78598135  1
  O  O118  1  0.50000000  -0.15875421  0.28598135  1
  O  O119  1  0.50000000  -0.15875421  0.78598135  1
  O  O120  1  0.25000000  0.09124579  0.53598135  1
  O  O121  1  0.25000000  0.09124579  1.03598135  1
  O  O122  1  0.75000000  0.09124579  0.53598135  1
  O  O123  1  0.75000000  0.09124579  1.03598135  1
  O  O124  1  0.25000000  -0.40875421  0.53598135  1
  O  O125  1  0.25000000  -0.40875421  1.03598135  1
  O  O126  1  0.75000000  -0.40875421  0.53598135  1
  O  O127  1  0.75000000  -0.40875421  1.03598135  1
  O  O128  1  0.09124579  0.25000000  -0.03598135  1
  O  O129  1  0.09124579  0.25000000  0.46401865  1
  O  O130  1  0.59124579  0.25000000  -0.03598135  1
  O  O131  1  0.59124579  0.25000000  0.46401865  1
  O  O132  1  0.09124579  -0.25000000  -0.03598135  1
  O  O133  1  0.09124579  -0.25000000  0.46401865  1
  O  O134  1  0.59124579  -0.25000000  -0.03598135  1
  O  O135  1  0.59124579  -0.25000000  0.46401865  1
  O  O136  1  0.34124579  0.00000000  0.21401865  1
  O  O137  1  0.34124579  0.00000000  0.71401865  1
  O  O138  1  0.84124579  0.00000000  0.21401865  1
  O  O139  1  0.84124579  0.00000000  0.71401865  1
  O  O140  1  0.34124579  -0.50000000  0.21401865  1
  O  O141  1  0.34124579  -0.50000000  0.71401865  1
  O  O142  1  0.84124579  -0.50000000  0.21401865  1
  O  O143  1  0.84124579  -0.50000000  0.71401865  1
  O  O144  1  -0.00000000  0.09124579  0.08901865  1
  O  O145  1  -0.00000000  0.09124579  0.58901865  1
  O  O146  1  0.50000000  0.09124579  0.08901865  1
  O  O147  1  0.50000000  0.09124579  0.58901865  1
  O  O148  1  -0.00000000  -0.40875421  0.08901865  1
  O  O149  1  -0.00000000  -0.40875421  0.58901865  1
  O  O150  1  0.50000000  -0.40875421  0.08901865  1
  O  O151  1  0.50000000  -0.40875421  0.58901865  1
  O  O152  1  0.25000000  -0.15875421  0.33901865  1
  O  O153  1  0.25000000  -0.15875421  0.83901865  1
  O  O154  1  0.75000000  -0.15875421  0.33901865  1
  O  O155  1  0.75000000  -0.15875421  0.83901865  1
  O  O156  1  0.25000000  -0.65875421  0.33901865  1
  O  O157  1  0.25000000  -0.65875421  0.83901865  1
  O  O158  1  0.75000000  -0.65875421  0.33901865  1
  O  O159  1  0.75000000  -0.65875421  0.83901865  1
  O  O160  1  0.00000000  0.40875421  0.08901865  1
  O  O161  1  0.00000000  0.40875421  0.58901865  1
  O  O162  1  0.50000000  0.40875421  0.08901865  1
  O  O163  1  0.50000000  0.40875421  0.58901865  1
  O  O164  1  0.00000000  -0.09124579  0.08901865  1
  O  O165  1  0.00000000  -0.09124579  0.58901865  1
  O  O166  1  0.50000000  -0.09124579  0.08901865  1
  O  O167  1  0.50000000  -0.09124579  0.58901865  1
  O  O168  1  0.25000000  0.15875421  0.33901865  1
  O  O169  1  0.25000000  0.15875421  0.83901865  1
  O  O170  1  0.75000000  0.15875421  0.33901865  1
  O  O171  1  0.75000000  0.15875421  0.83901865  1
  O  O172  1  0.25000000  -0.34124579  0.33901865  1
  O  O173  1  0.25000000  -0.34124579  0.83901865  1
  O  O174  1  0.75000000  -0.34124579  0.33901865  1
  O  O175  1  0.75000000  -0.34124579  0.83901865  1
  O  O176  1  0.15875421  0.50000000  0.21401865  1
  O  O177  1  0.15875421  0.50000000  0.71401865  1
  O  O178  1  0.65875421  0.50000000  0.21401865  1
  O  O179  1  0.65875421  0.50000000  0.71401865  1
  O  O180  1  0.15875421  0.00000000  0.21401865  1
  O  O181  1  0.15875421  0.00000000  0.71401865  1
  O  O182  1  0.65875421  0.00000000  0.21401865  1
  O  O183  1  0.65875421  0.00000000  0.71401865  1
  O  O184  1  0.40875421  0.25000000  0.46401865  1
  O  O185  1  0.40875421  0.25000000  0.96401865  1
  O  O186  1  0.90875421  0.25000000  0.46401865  1
  O  O187  1  0.90875421  0.25000000  0.96401865  1
  O  O188  1  0.40875421  -0.25000000  0.46401865  1
  O  O189  1  0.40875421  -0.25000000  0.96401865  1
  O  O190  1  0.90875421  -0.25000000  0.46401865  1
  O  O191  1  0.90875421  -0.25000000  0.96401865  1
