# generated using pymatgen
data_BiO2
_symmetry_space_group_name_H-M   'P 1'
_cell_length_a   12.31091926
_cell_length_b   10.46906998
_cell_length_c   11.15350179
_cell_angle_alpha   90.00000000
_cell_angle_beta   109.06981489
_cell_angle_gamma   90.00000000
_symmetry_Int_Tables_number   1
_chemical_formula_structural   BiO2
_chemical_formula_sum   'Bi32 O64'
_cell_volume   1358.61785372
_cell_formula_units_Z   32
loop_
 _symmetry_equiv_pos_site_id
 _symmetry_equiv_pos_as_xyz
  1  'x, y, z'
loop_
 _atom_site_type_symbol
 _atom_site_label
 _atom_site_symmetry_multiplicity
 _atom_site_fract_x
 _atom_site_fract_y
 _atom_site_fract_z
 _atom_site_occupancy
  Bi  Bi0  1  0.50000000  -0.11997406  0.37500000  1
  Bi  Bi1  1  0.50000000  -0.11997406  0.87500000  1
  Bi  Bi2  1  0.50000000  0.38002594  0.37500000  1
  Bi  Bi3  1  0.50000000  0.38002594  0.87500000  1
  Bi  Bi4  1  1.00000000  0.13002594  0.37500000  1
  Bi  Bi5  1  1.00000000  0.13002594  0.87500000  1
  Bi  Bi6  1  1.00000000  0.63002594  0.37500000  1
  Bi  Bi7  1  1.00000000  0.63002594  0.87500000  1
  Bi  Bi8  1  0.50000000  0.11997406  0.12500000  1
  Bi  Bi9  1  0.50000000  0.11997406  0.62500000  1
  Bi  Bi10  1  0.50000000  0.61997406  0.12500000  1
  Bi  Bi11  1  0.50000000  0.61997406  0.62500000  1
  Bi  Bi12  1  1.00000000  0.36997406  0.12500000  1
  Bi  Bi13  1  1.00000000  0.36997406  0.62500000  1
  Bi  Bi14  1  1.00000000  0.86997406  0.12500000  1
  Bi  Bi15  1  1.00000000  0.86997406  0.62500000  1
  Bi  Bi16  1  0.25000000  -0.12500000  0.00000000  1
  Bi  Bi17  1  0.25000000  -0.12500000  0.50000000  1
  Bi  Bi18  1  0.25000000  0.37500000  0.00000000  1
  Bi  Bi19  1  0.25000000  0.37500000  0.50000000  1
  Bi  Bi20  1  0.75000000  0.12500000  0.00000000  1
  Bi  Bi21  1  0.75000000  0.12500000  0.50000000  1
  Bi  Bi22  1  0.75000000  0.62500000  0.00000000  1
  Bi  Bi23  1  0.75000000  0.62500000  0.50000000  1
  Bi  Bi24  1  0.25000000  0.12500000  0.25000000  1
  Bi  Bi25  1  0.25000000  0.12500000  0.75000000  1
  Bi  Bi26  1  0.25000000  0.62500000  0.25000000  1
  Bi  Bi27  1  0.25000000  0.62500000  0.75000000  1
  Bi  Bi28  1  0.75000000  0.37500000  0.25000000  1
  Bi  Bi29  1  0.75000000  0.37500000  0.75000000  1
  Bi  Bi30  1  0.75000000  0.87500000  0.25000000  1
  Bi  Bi31  1  0.75000000  0.87500000  0.75000000  1
  O  O32  1  0.59407284  0.03996190  0.49264415  1
  O  O33  1  0.59407284  0.03996190  0.99264415  1
  O  O34  1  0.59407284  0.53996190  0.49264415  1
  O  O35  1  0.59407284  0.53996190  0.99264415  1
  O  O36  1  1.09407284  0.28996190  0.49264415  1
  O  O37  1  1.09407284  0.28996190  0.99264415  1
  O  O38  1  1.09407284  0.78996190  0.49264415  1
  O  O39  1  1.09407284  0.78996190  0.99264415  1
  O  O40  1  0.82852628  0.03021044  0.17771112  1
  O  O41  1  0.82852628  0.03021044  0.67771112  1
  O  O42  1  0.82852628  0.53021044  0.17771112  1
  O  O43  1  0.82852628  0.53021044  0.67771112  1
  O  O44  1  1.32852628  0.28021044  0.17771112  1
  O  O45  1  1.32852628  0.28021044  0.67771112  1
  O  O46  1  1.32852628  0.78021044  0.17771112  1
  O  O47  1  1.32852628  0.78021044  0.67771112  1
  O  O48  1  0.17147372  -0.03021044  0.32228888  1
  O  O49  1  0.17147372  -0.03021044  0.82228888  1
  O  O50  1  0.17147372  0.46978956  0.32228888  1
  O  O51  1  0.17147372  0.46978956  0.82228888  1
  O  O52  1  0.67147372  0.21978956  0.32228888  1
  O  O53  1  0.67147372  0.21978956  0.82228888  1
  O  O54  1  0.67147372  0.71978956  0.32228888  1
  O  O55  1  0.67147372  0.71978956  0.82228888  1
  O  O56  1  0.17147372  0.03021044  0.07228888  1
  O  O57  1  0.17147372  0.03021044  0.57228888  1
  O  O58  1  0.17147372  0.53021044  0.07228888  1
  O  O59  1  0.17147372  0.53021044  0.57228888  1
  O  O60  1  0.67147372  0.28021044  0.07228888  1
  O  O61  1  0.67147372  0.28021044  0.57228888  1
  O  O62  1  0.67147372  0.78021044  0.07228888  1
  O  O63  1  0.67147372  0.78021044  0.57228888  1
  O  O64  1  0.82852628  -0.03021044  0.42771112  1
  O  O65  1  0.82852628  -0.03021044  0.92771112  1
  O  O66  1  0.82852628  0.46978956  0.42771112  1
  O  O67  1  0.82852628  0.46978956  0.92771112  1
  O  O68  1  1.32852628  0.21978956  0.42771112  1
  O  O69  1  1.32852628  0.21978956  0.92771112  1
  O  O70  1  1.32852628  0.71978956  0.42771112  1
  O  O71  1  1.32852628  0.71978956  0.92771112  1
  O  O72  1  0.59407284  -0.03996190  0.24264415  1
  O  O73  1  0.59407284  -0.03996190  0.74264415  1
  O  O74  1  0.59407284  0.46003810  0.24264415  1
  O  O75  1  0.59407284  0.46003810  0.74264415  1
  O  O76  1  1.09407284  0.21003810  0.24264415  1
  O  O77  1  1.09407284  0.21003810  0.74264415  1
  O  O78  1  1.09407284  0.71003810  0.24264415  1
  O  O79  1  1.09407284  0.71003810  0.74264415  1
  O  O80  1  0.40592716  0.03996190  0.25735585  1
  O  O81  1  0.40592716  0.03996190  0.75735585  1
  O  O82  1  0.40592716  0.53996190  0.25735585  1
  O  O83  1  0.40592716  0.53996190  0.75735585  1
  O  O84  1  0.90592716  0.28996190  0.25735585  1
  O  O85  1  0.90592716  0.28996190  0.75735585  1
  O  O86  1  0.90592716  0.78996190  0.25735585  1
  O  O87  1  0.90592716  0.78996190  0.75735585  1
  O  O88  1  0.40592716  -0.03996190  0.00735585  1
  O  O89  1  0.40592716  -0.03996190  0.50735585  1
  O  O90  1  0.40592716  0.46003810  0.00735585  1
  O  O91  1  0.40592716  0.46003810  0.50735585  1
  O  O92  1  0.90592716  0.21003810  0.00735585  1
  O  O93  1  0.90592716  0.21003810  0.50735585  1
  O  O94  1  0.90592716  0.71003810  0.00735585  1
  O  O95  1  0.90592716  0.71003810  0.50735585  1
