# generated using pymatgen
data_CaO
_symmetry_space_group_name_H-M   'P 1'
_cell_length_a   9.53248228
_cell_length_b   9.53248228
_cell_length_c   9.53248228
_cell_angle_alpha   90.00000000
_cell_angle_beta   90.00000000
_cell_angle_gamma   90.00000000
_symmetry_Int_Tables_number   1
_chemical_formula_structural   CaO
_chemical_formula_sum   'Ca32 O32'
_cell_volume   866.19968072
_cell_formula_units_Z   32
loop_
 _symmetry_equiv_pos_site_id
 _symmetry_equiv_pos_as_xyz
  1  'x, y, z'
loop_
 _atom_site_type_symbol
 _atom_site_label
 _atom_site_symmetry_multiplicity
 _atom_site_fract_x
 _atom_site_fract_y
 _atom_site_fract_z
 _atom_site_occupancy
  Ca  Ca0  1  0.00000000  0.00000000  0.00000000  1
  Ca  Ca1  1  0.00000000  0.00000000  0.50000000  1
  Ca  Ca2  1  0.00000000  0.50000000  0.00000000  1
  Ca  Ca3  1  0.00000000  0.50000000  0.50000000  1
  Ca  Ca4  1  0.50000000  0.00000000  0.00000000  1
  Ca  Ca5  1  0.50000000  0.00000000  0.50000000  1
  Ca  Ca6  1  0.50000000  0.50000000  0.00000000  1
  Ca  Ca7  1  0.50000000  0.50000000  0.50000000  1
  Ca  Ca8  1  0.25000000  0.25000000  0.00000000  1
  Ca  Ca9  1  0.25000000  0.25000000  0.50000000  1
  Ca  Ca10  1  0.25000000  0.75000000  0.00000000  1
  Ca  Ca11  1  0.25000000  0.75000000  0.50000000  1
  Ca  Ca12  1  0.75000000  0.25000000  0.00000000  1
  Ca  Ca13  1  0.75000000  0.25000000  0.50000000  1
  Ca  Ca14  1  0.75000000  0.75000000  0.00000000  1
  Ca  Ca15  1  0.75000000  0.75000000  0.50000000  1
  Ca  Ca16  1  0.25000000  0.00000000  0.25000000  1
  Ca  Ca17  1  0.25000000  0.00000000  0.75000000  1
  Ca  Ca18  1  0.25000000  0.50000000  0.25000000  1
  Ca  Ca19  1  0.25000000  0.50000000  0.75000000  1
  Ca  Ca20  1  0.75000000  0.00000000  0.25000000  1
  Ca  Ca21  1  0.75000000  0.00000000  0.75000000  1
  Ca  Ca22  1  0.75000000  0.50000000  0.25000000  1
  Ca  Ca23  1  0.75000000  0.50000000  0.75000000  1
  Ca  Ca24  1  0.00000000  0.25000000  0.25000000  1
  Ca  Ca25  1  0.00000000  0.25000000  0.75000000  1
  Ca  Ca26  1  0.00000000  0.75000000  0.25000000  1
  Ca  Ca27  1  0.00000000  0.75000000  0.75000000  1
  Ca  Ca28  1  0.50000000  0.25000000  0.25000000  1
  Ca  Ca29  1  0.50000000  0.25000000  0.75000000  1
  Ca  Ca30  1  0.50000000  0.75000000  0.25000000  1
  Ca  Ca31  1  0.50000000  0.75000000  0.75000000  1
  O  O32  1  0.25000000  0.25000000  0.25000000  1
  O  O33  1  0.25000000  0.25000000  0.75000000  1
  O  O34  1  0.25000000  0.75000000  0.25000000  1
  O  O35  1  0.25000000  0.75000000  0.75000000  1
  O  O36  1  0.75000000  0.25000000  0.25000000  1
  O  O37  1  0.75000000  0.25000000  0.75000000  1
  O  O38  1  0.75000000  0.75000000  0.25000000  1
  O  O39  1  0.75000000  0.75000000  0.75000000  1
  O  O40  1  0.50000000  0.50000000  0.25000000  1
  O  O41  1  0.50000000  0.50000000  0.75000000  1
  O  O42  1  0.50000000  1.00000000  0.25000000  1
  O  O43  1  0.50000000  1.00000000  0.75000000  1
  O  O44  1  1.00000000  0.50000000  0.25000000  1
  O  O45  1  1.00000000  0.50000000  0.75000000  1
  O  O46  1  1.00000000  1.00000000  0.25000000  1
  O  O47  1  1.00000000  1.00000000  0.75000000  1
  O  O48  1  0.50000000  0.25000000  0.50000000  1
  O  O49  1  0.50000000  0.25000000  1.00000000  1
  O  O50  1  0.50000000  0.75000000  0.50000000  1
  O  O51  1  0.50000000  0.75000000  1.00000000  1
  O  O52  1  1.00000000  0.25000000  0.50000000  1
  O  O53  1  1.00000000  0.25000000  1.00000000  1
  O  O54  1  1.00000000  0.75000000  0.50000000  1
  O  O55  1  1.00000000  0.75000000  1.00000000  1
  O  O56  1  0.25000000  0.50000000  0.50000000  1
  O  O57  1  0.25000000  0.50000000  1.00000000  1
  O  O58  1  0.25000000  1.00000000  0.50000000  1
  O  O59  1  0.25000000  1.00000000  1.00000000  1
  O  O60  1  0.75000000  0.50000000  0.50000000  1
  O  O61  1  0.75000000  0.50000000  1.00000000  1
  O  O62  1  0.75000000  1.00000000  0.50000000  1
  O  O63  1  0.75000000  1.00000000  1.00000000  1
