# generated using pymatgen
data_CsSc(WO4)2
_symmetry_space_group_name_H-M   'P 1'
_cell_length_a   17.55265735
_cell_length_b   17.55265735
_cell_length_c   15.99005647
_cell_angle_alpha   90.00000000
_cell_angle_beta   90.00000000
_cell_angle_gamma   120.00000000
_symmetry_Int_Tables_number   1
_chemical_formula_structural   CsSc(WO4)2
_chemical_formula_sum   'Cs18 Sc18 W36 O144'
_cell_volume   4266.44723690
_cell_formula_units_Z   18
loop_
 _symmetry_equiv_pos_site_id
 _symmetry_equiv_pos_as_xyz
  1  'x, y, z'
loop_
 _atom_site_type_symbol
 _atom_site_label
 _atom_site_symmetry_multiplicity
 _atom_site_fract_x
 _atom_site_fract_y
 _atom_site_fract_z
 _atom_site_occupancy
  Cs  Cs0  1  0.00000000  0.00000000  0.00000000  1
  Cs  Cs1  1  0.00000000  0.00000000  0.50000000  1
  Cs  Cs2  1  -0.00000000  0.33333333  0.00000000  1
  Cs  Cs3  1  -0.00000000  0.33333333  0.50000000  1
  Cs  Cs4  1  -0.00000000  0.66666667  0.00000000  1
  Cs  Cs5  1  -0.00000000  0.66666667  0.50000000  1
  Cs  Cs6  1  0.33333333  0.00000000  0.00000000  1
  Cs  Cs7  1  0.33333333  0.00000000  0.50000000  1
  Cs  Cs8  1  0.33333333  0.33333333  0.00000000  1
  Cs  Cs9  1  0.33333333  0.33333333  0.50000000  1
  Cs  Cs10  1  0.33333333  0.66666667  0.00000000  1
  Cs  Cs11  1  0.33333333  0.66666667  0.50000000  1
  Cs  Cs12  1  0.66666667  0.00000000  0.00000000  1
  Cs  Cs13  1  0.66666667  0.00000000  0.50000000  1
  Cs  Cs14  1  0.66666667  0.33333333  0.00000000  1
  Cs  Cs15  1  0.66666667  0.33333333  0.50000000  1
  Cs  Cs16  1  0.66666667  0.66666667  0.00000000  1
  Cs  Cs17  1  0.66666667  0.66666667  0.50000000  1
  Sc  Sc18  1  0.00000000  0.00000000  0.25000000  1
  Sc  Sc19  1  0.00000000  0.00000000  0.75000000  1
  Sc  Sc20  1  -0.00000000  0.33333333  0.25000000  1
  Sc  Sc21  1  -0.00000000  0.33333333  0.75000000  1
  Sc  Sc22  1  -0.00000000  0.66666667  0.25000000  1
  Sc  Sc23  1  -0.00000000  0.66666667  0.75000000  1
  Sc  Sc24  1  0.33333333  0.00000000  0.25000000  1
  Sc  Sc25  1  0.33333333  0.00000000  0.75000000  1
  Sc  Sc26  1  0.33333333  0.33333333  0.25000000  1
  Sc  Sc27  1  0.33333333  0.33333333  0.75000000  1
  Sc  Sc28  1  0.33333333  0.66666667  0.25000000  1
  Sc  Sc29  1  0.33333333  0.66666667  0.75000000  1
  Sc  Sc30  1  0.66666667  0.00000000  0.25000000  1
  Sc  Sc31  1  0.66666667  0.00000000  0.75000000  1
  Sc  Sc32  1  0.66666667  0.33333333  0.25000000  1
  Sc  Sc33  1  0.66666667  0.33333333  0.75000000  1
  Sc  Sc34  1  0.66666667  0.66666667  0.25000000  1
  Sc  Sc35  1  0.66666667  0.66666667  0.75000000  1
  W  W36  1  0.11111111  0.22222222  0.13812388  1
  W  W37  1  0.11111111  0.22222222  0.63812388  1
  W  W38  1  0.11111111  0.55555556  0.13812388  1
  W  W39  1  0.11111111  0.55555556  0.63812388  1
  W  W40  1  0.11111111  0.88888889  0.13812388  1
  W  W41  1  0.11111111  0.88888889  0.63812388  1
  W  W42  1  0.44444444  0.22222222  0.13812388  1
  W  W43  1  0.44444444  0.22222222  0.63812388  1
  W  W44  1  0.44444444  0.55555556  0.13812388  1
  W  W45  1  0.44444444  0.55555556  0.63812388  1
  W  W46  1  0.44444444  0.88888889  0.13812388  1
  W  W47  1  0.44444444  0.88888889  0.63812388  1
  W  W48  1  0.77777778  0.22222222  0.13812388  1
  W  W49  1  0.77777778  0.22222222  0.63812388  1
  W  W50  1  0.77777778  0.55555556  0.13812388  1
  W  W51  1  0.77777778  0.55555556  0.63812388  1
  W  W52  1  0.77777778  0.88888889  0.13812388  1
  W  W53  1  0.77777778  0.88888889  0.63812388  1
  W  W54  1  0.22222222  0.11111111  0.36187612  1
  W  W55  1  0.22222222  0.11111111  0.86187612  1
  W  W56  1  0.22222222  0.44444444  0.36187612  1
  W  W57  1  0.22222222  0.44444444  0.86187612  1
  W  W58  1  0.22222222  0.77777778  0.36187612  1
  W  W59  1  0.22222222  0.77777778  0.86187612  1
  W  W60  1  0.55555556  0.11111111  0.36187612  1
  W  W61  1  0.55555556  0.11111111  0.86187612  1
  W  W62  1  0.55555556  0.44444444  0.36187612  1
  W  W63  1  0.55555556  0.44444444  0.86187612  1
  W  W64  1  0.55555556  0.77777778  0.36187612  1
  W  W65  1  0.55555556  0.77777778  0.86187612  1
  W  W66  1  0.88888889  0.11111111  0.36187612  1
  W  W67  1  0.88888889  0.11111111  0.86187612  1
  W  W68  1  0.88888889  0.44444444  0.36187612  1
  W  W69  1  0.88888889  0.44444444  0.86187612  1
  W  W70  1  0.88888889  0.77777778  0.36187612  1
  W  W71  1  0.88888889  0.77777778  0.86187612  1
  O  O72  1  0.05481599  0.27851734  0.17294398  1
  O  O73  1  0.05481599  0.27851734  0.67294398  1
  O  O74  1  0.05481599  0.61185068  0.17294398  1
  O  O75  1  0.05481599  0.61185068  0.67294398  1
  O  O76  1  0.05481599  0.94518401  0.17294398  1
  O  O77  1  0.05481599  0.94518401  0.67294398  1
  O  O78  1  0.38814932  0.27851734  0.17294398  1
  O  O79  1  0.38814932  0.27851734  0.67294398  1
  O  O80  1  0.38814932  0.61185068  0.17294398  1
  O  O81  1  0.38814932  0.61185068  0.67294398  1
  O  O82  1  0.38814932  0.94518401  0.17294398  1
  O  O83  1  0.38814932  0.94518401  0.67294398  1
  O  O84  1  0.72148266  0.27851734  0.17294398  1
  O  O85  1  0.72148266  0.27851734  0.67294398  1
  O  O86  1  0.72148266  0.61185068  0.17294398  1
  O  O87  1  0.72148266  0.61185068  0.67294398  1
  O  O88  1  0.72148266  0.94518401  0.17294398  1
  O  O89  1  0.72148266  0.94518401  0.67294398  1
  O  O90  1  0.27851734  0.05481599  0.32705602  1
  O  O91  1  0.27851734  0.05481599  0.82705602  1
  O  O92  1  0.27851734  0.38814932  0.32705602  1
  O  O93  1  0.27851734  0.38814932  0.82705602  1
  O  O94  1  0.27851734  0.72148266  0.32705602  1
  O  O95  1  0.27851734  0.72148266  0.82705602  1
  O  O96  1  0.61185068  0.05481599  0.32705602  1
  O  O97  1  0.61185068  0.05481599  0.82705602  1
  O  O98  1  0.61185068  0.38814932  0.32705602  1
  O  O99  1  0.61185068  0.38814932  0.82705602  1
  O  O100  1  0.61185068  0.72148266  0.32705602  1
  O  O101  1  0.61185068  0.72148266  0.82705602  1
  O  O102  1  0.94518401  0.05481599  0.32705602  1
  O  O103  1  0.94518401  0.05481599  0.82705602  1
  O  O104  1  0.94518401  0.38814932  0.32705602  1
  O  O105  1  0.94518401  0.38814932  0.82705602  1
  O  O106  1  0.94518401  0.72148266  0.32705602  1
  O  O107  1  0.94518401  0.72148266  0.82705602  1
  O  O108  1  0.05481599  0.10963198  0.17294398  1
  O  O109  1  0.05481599  0.10963198  0.67294398  1
  O  O110  1  0.05481599  0.44296531  0.17294398  1
  O  O111  1  0.05481599  0.44296531  0.67294398  1
  O  O112  1  0.05481599  0.77629865  0.17294398  1
  O  O113  1  0.05481599  0.77629865  0.67294398  1
  O  O114  1  0.38814932  0.10963198  0.17294398  1
  O  O115  1  0.38814932  0.10963198  0.67294398  1
  O  O116  1  0.38814932  0.44296531  0.17294398  1
  O  O117  1  0.38814932  0.44296531  0.67294398  1
  O  O118  1  0.38814932  0.77629865  0.17294398  1
  O  O119  1  0.38814932  0.77629865  0.67294398  1
  O  O120  1  0.72148266  0.10963198  0.17294398  1
  O  O121  1  0.72148266  0.10963198  0.67294398  1
  O  O122  1  0.72148266  0.44296531  0.17294398  1
  O  O123  1  0.72148266  0.44296531  0.67294398  1
  O  O124  1  0.72148266  0.77629865  0.17294398  1
  O  O125  1  0.72148266  0.77629865  0.67294398  1
  O  O126  1  0.27851734  0.22370135  0.32705602  1
  O  O127  1  0.27851734  0.22370135  0.82705602  1
  O  O128  1  0.27851734  0.55703469  0.32705602  1
  O  O129  1  0.27851734  0.55703469  0.82705602  1
  O  O130  1  0.27851734  0.89036802  0.32705602  1
  O  O131  1  0.27851734  0.89036802  0.82705602  1
  O  O132  1  0.61185068  0.22370135  0.32705602  1
  O  O133  1  0.61185068  0.22370135  0.82705602  1
  O  O134  1  0.61185068  0.55703469  0.32705602  1
  O  O135  1  0.61185068  0.55703469  0.82705602  1
  O  O136  1  0.61185068  0.89036802  0.32705602  1
  O  O137  1  0.61185068  0.89036802  0.82705602  1
  O  O138  1  0.94518401  0.22370135  0.32705602  1
  O  O139  1  0.94518401  0.22370135  0.82705602  1
  O  O140  1  0.94518401  0.55703469  0.32705602  1
  O  O141  1  0.94518401  0.55703469  0.82705602  1
  O  O142  1  0.94518401  0.89036802  0.32705602  1
  O  O143  1  0.94518401  0.89036802  0.82705602  1
  O  O144  1  0.22370135  0.27851734  0.17294398  1
  O  O145  1  0.22370135  0.27851734  0.67294398  1
  O  O146  1  0.22370135  0.61185068  0.17294398  1
  O  O147  1  0.22370135  0.61185068  0.67294398  1
  O  O148  1  0.22370135  0.94518401  0.17294398  1
  O  O149  1  0.22370135  0.94518401  0.67294398  1
  O  O150  1  0.55703469  0.27851734  0.17294398  1
  O  O151  1  0.55703469  0.27851734  0.67294398  1
  O  O152  1  0.55703469  0.61185068  0.17294398  1
  O  O153  1  0.55703469  0.61185068  0.67294398  1
  O  O154  1  0.55703469  0.94518401  0.17294398  1
  O  O155  1  0.55703469  0.94518401  0.67294398  1
  O  O156  1  0.89036802  0.27851734  0.17294398  1
  O  O157  1  0.89036802  0.27851734  0.67294398  1
  O  O158  1  0.89036802  0.61185068  0.17294398  1
  O  O159  1  0.89036802  0.61185068  0.67294398  1
  O  O160  1  0.89036802  0.94518401  0.17294398  1
  O  O161  1  0.89036802  0.94518401  0.67294398  1
  O  O162  1  0.10963198  0.05481599  0.32705602  1
  O  O163  1  0.10963198  0.05481599  0.82705602  1
  O  O164  1  0.10963198  0.38814932  0.32705602  1
  O  O165  1  0.10963198  0.38814932  0.82705602  1
  O  O166  1  0.10963198  0.72148266  0.32705602  1
  O  O167  1  0.10963198  0.72148266  0.82705602  1
  O  O168  1  0.44296531  0.05481599  0.32705602  1
  O  O169  1  0.44296531  0.05481599  0.82705602  1
  O  O170  1  0.44296531  0.38814932  0.32705602  1
  O  O171  1  0.44296531  0.38814932  0.82705602  1
  O  O172  1  0.44296531  0.72148266  0.32705602  1
  O  O173  1  0.44296531  0.72148266  0.82705602  1
  O  O174  1  0.77629865  0.05481599  0.32705602  1
  O  O175  1  0.77629865  0.05481599  0.82705602  1
  O  O176  1  0.77629865  0.38814932  0.32705602  1
  O  O177  1  0.77629865  0.38814932  0.82705602  1
  O  O178  1  0.77629865  0.72148266  0.32705602  1
  O  O179  1  0.77629865  0.72148266  0.82705602  1
  O  O180  1  0.11111111  0.22222222  0.02852665  1
  O  O181  1  0.11111111  0.22222222  0.52852665  1
  O  O182  1  0.11111111  0.55555556  0.02852665  1
  O  O183  1  0.11111111  0.55555556  0.52852665  1
  O  O184  1  0.11111111  0.88888889  0.02852665  1
  O  O185  1  0.11111111  0.88888889  0.52852665  1
  O  O186  1  0.44444444  0.22222222  0.02852665  1
  O  O187  1  0.44444444  0.22222222  0.52852665  1
  O  O188  1  0.44444444  0.55555556  0.02852665  1
  O  O189  1  0.44444444  0.55555556  0.52852665  1
  O  O190  1  0.44444444  0.88888889  0.02852665  1
  O  O191  1  0.44444444  0.88888889  0.52852665  1
  O  O192  1  0.77777778  0.22222222  0.02852665  1
  O  O193  1  0.77777778  0.22222222  0.52852665  1
  O  O194  1  0.77777778  0.55555556  0.02852665  1
  O  O195  1  0.77777778  0.55555556  0.52852665  1
  O  O196  1  0.77777778  0.88888889  0.02852665  1
  O  O197  1  0.77777778  0.88888889  0.52852665  1
  O  O198  1  0.22222222  0.11111111  0.47147335  1
  O  O199  1  0.22222222  0.11111111  0.97147335  1
  O  O200  1  0.22222222  0.44444444  0.47147335  1
  O  O201  1  0.22222222  0.44444444  0.97147335  1
  O  O202  1  0.22222222  0.77777778  0.47147335  1
  O  O203  1  0.22222222  0.77777778  0.97147335  1
  O  O204  1  0.55555556  0.11111111  0.47147335  1
  O  O205  1  0.55555556  0.11111111  0.97147335  1
  O  O206  1  0.55555556  0.44444444  0.47147335  1
  O  O207  1  0.55555556  0.44444444  0.97147335  1
  O  O208  1  0.55555556  0.77777778  0.47147335  1
  O  O209  1  0.55555556  0.77777778  0.97147335  1
  O  O210  1  0.88888889  0.11111111  0.47147335  1
  O  O211  1  0.88888889  0.11111111  0.97147335  1
  O  O212  1  0.88888889  0.44444444  0.47147335  1
  O  O213  1  0.88888889  0.44444444  0.97147335  1
  O  O214  1  0.88888889  0.77777778  0.47147335  1
  O  O215  1  0.88888889  0.77777778  0.97147335  1
