# generated using pymatgen
data_NaInO2
_symmetry_space_group_name_H-M   'P 1'
_cell_length_a   16.26471793
_cell_length_b   16.26471793
_cell_length_c   16.27021230
_cell_angle_alpha   90.00000000
_cell_angle_beta   90.00000000
_cell_angle_gamma   120.00000000
_symmetry_Int_Tables_number   1
_chemical_formula_structural   NaInO2
_chemical_formula_sum   'Na75 In75 O150'
_cell_volume   3727.49374621
_cell_formula_units_Z   75
loop_
 _symmetry_equiv_pos_site_id
 _symmetry_equiv_pos_as_xyz
  1  'x, y, z'
loop_
 _atom_site_type_symbol
 _atom_site_label
 _atom_site_symmetry_multiplicity
 _atom_site_fract_x
 _atom_site_fract_y
 _atom_site_fract_z
 _atom_site_occupancy
  Na  Na0  1  -0.00000000  -0.00000000  0.50000000  1
  Na  Na1  1  -0.00000000  0.20000000  0.50000000  1
  Na  Na2  1  -0.00000000  0.40000000  0.50000000  1
  Na  Na3  1  0.00000000  0.60000000  0.50000000  1
  Na  Na4  1  0.00000000  0.80000000  0.50000000  1
  Na  Na5  1  0.20000000  -0.00000000  0.50000000  1
  Na  Na6  1  0.20000000  0.20000000  0.50000000  1
  Na  Na7  1  0.20000000  0.40000000  0.50000000  1
  Na  Na8  1  0.20000000  0.60000000  0.50000000  1
  Na  Na9  1  0.20000000  0.80000000  0.50000000  1
  Na  Na10  1  0.40000000  -0.00000000  0.50000000  1
  Na  Na11  1  0.40000000  0.20000000  0.50000000  1
  Na  Na12  1  0.40000000  0.40000000  0.50000000  1
  Na  Na13  1  0.40000000  0.60000000  0.50000000  1
  Na  Na14  1  0.40000000  0.80000000  0.50000000  1
  Na  Na15  1  0.60000000  -0.00000000  0.50000000  1
  Na  Na16  1  0.60000000  0.20000000  0.50000000  1
  Na  Na17  1  0.60000000  0.40000000  0.50000000  1
  Na  Na18  1  0.60000000  0.60000000  0.50000000  1
  Na  Na19  1  0.60000000  0.80000000  0.50000000  1
  Na  Na20  1  0.80000000  -0.00000000  0.50000000  1
  Na  Na21  1  0.80000000  0.20000000  0.50000000  1
  Na  Na22  1  0.80000000  0.40000000  0.50000000  1
  Na  Na23  1  0.80000000  0.60000000  0.50000000  1
  Na  Na24  1  0.80000000  0.80000000  0.50000000  1
  Na  Na25  1  0.13333333  0.06666667  0.83333333  1
  Na  Na26  1  0.13333333  0.26666667  0.83333333  1
  Na  Na27  1  0.13333333  0.46666667  0.83333333  1
  Na  Na28  1  0.13333333  0.66666667  0.83333333  1
  Na  Na29  1  0.13333333  0.86666667  0.83333333  1
  Na  Na30  1  0.33333333  0.06666667  0.83333333  1
  Na  Na31  1  0.33333333  0.26666667  0.83333333  1
  Na  Na32  1  0.33333333  0.46666667  0.83333333  1
  Na  Na33  1  0.33333333  0.66666667  0.83333333  1
  Na  Na34  1  0.33333333  0.86666667  0.83333333  1
  Na  Na35  1  0.53333333  0.06666667  0.83333333  1
  Na  Na36  1  0.53333333  0.26666667  0.83333333  1
  Na  Na37  1  0.53333333  0.46666667  0.83333333  1
  Na  Na38  1  0.53333333  0.66666667  0.83333333  1
  Na  Na39  1  0.53333333  0.86666667  0.83333333  1
  Na  Na40  1  0.73333333  0.06666667  0.83333333  1
  Na  Na41  1  0.73333333  0.26666667  0.83333333  1
  Na  Na42  1  0.73333333  0.46666667  0.83333333  1
  Na  Na43  1  0.73333333  0.66666667  0.83333333  1
  Na  Na44  1  0.73333333  0.86666667  0.83333333  1
  Na  Na45  1  0.93333333  0.06666667  0.83333333  1
  Na  Na46  1  0.93333333  0.26666667  0.83333333  1
  Na  Na47  1  0.93333333  0.46666667  0.83333333  1
  Na  Na48  1  0.93333333  0.66666667  0.83333333  1
  Na  Na49  1  0.93333333  0.86666667  0.83333333  1
  Na  Na50  1  0.06666667  0.13333333  1.16666667  1
  Na  Na51  1  0.06666667  0.33333333  1.16666667  1
  Na  Na52  1  0.06666667  0.53333333  1.16666667  1
  Na  Na53  1  0.06666667  0.73333333  1.16666667  1
  Na  Na54  1  0.06666667  0.93333333  1.16666667  1
  Na  Na55  1  0.26666667  0.13333333  1.16666667  1
  Na  Na56  1  0.26666667  0.33333333  1.16666667  1
  Na  Na57  1  0.26666667  0.53333333  1.16666667  1
  Na  Na58  1  0.26666667  0.73333333  1.16666667  1
  Na  Na59  1  0.26666667  0.93333333  1.16666667  1
  Na  Na60  1  0.46666667  0.13333333  1.16666667  1
  Na  Na61  1  0.46666667  0.33333333  1.16666667  1
  Na  Na62  1  0.46666667  0.53333333  1.16666667  1
  Na  Na63  1  0.46666667  0.73333333  1.16666667  1
  Na  Na64  1  0.46666667  0.93333333  1.16666667  1
  Na  Na65  1  0.66666667  0.13333333  1.16666667  1
  Na  Na66  1  0.66666667  0.33333333  1.16666667  1
  Na  Na67  1  0.66666667  0.53333333  1.16666667  1
  Na  Na68  1  0.66666667  0.73333333  1.16666667  1
  Na  Na69  1  0.66666667  0.93333333  1.16666667  1
  Na  Na70  1  0.86666667  0.13333333  1.16666667  1
  Na  Na71  1  0.86666667  0.33333333  1.16666667  1
  Na  Na72  1  0.86666667  0.53333333  1.16666667  1
  Na  Na73  1  0.86666667  0.73333333  1.16666667  1
  Na  Na74  1  0.86666667  0.93333333  1.16666667  1
  In  In75  1  -0.00000000  -0.00000000  -0.00000000  1
  In  In76  1  0.00000000  0.20000000  -0.00000000  1
  In  In77  1  0.00000000  0.40000000  -0.00000000  1
  In  In78  1  0.00000000  0.60000000  -0.00000000  1
  In  In79  1  0.00000000  0.80000000  -0.00000000  1
  In  In80  1  0.20000000  -0.00000000  -0.00000000  1
  In  In81  1  0.20000000  0.20000000  -0.00000000  1
  In  In82  1  0.20000000  0.40000000  -0.00000000  1
  In  In83  1  0.20000000  0.60000000  -0.00000000  1
  In  In84  1  0.20000000  0.80000000  -0.00000000  1
  In  In85  1  0.40000000  -0.00000000  -0.00000000  1
  In  In86  1  0.40000000  0.20000000  -0.00000000  1
  In  In87  1  0.40000000  0.40000000  -0.00000000  1
  In  In88  1  0.40000000  0.60000000  -0.00000000  1
  In  In89  1  0.40000000  0.80000000  -0.00000000  1
  In  In90  1  0.60000000  -0.00000000  -0.00000000  1
  In  In91  1  0.60000000  0.20000000  -0.00000000  1
  In  In92  1  0.60000000  0.40000000  -0.00000000  1
  In  In93  1  0.60000000  0.60000000  -0.00000000  1
  In  In94  1  0.60000000  0.80000000  -0.00000000  1
  In  In95  1  0.80000000  -0.00000000  -0.00000000  1
  In  In96  1  0.80000000  0.20000000  -0.00000000  1
  In  In97  1  0.80000000  0.40000000  -0.00000000  1
  In  In98  1  0.80000000  0.60000000  -0.00000000  1
  In  In99  1  0.80000000  0.80000000  -0.00000000  1
  In  In100  1  0.13333333  0.06666667  0.33333333  1
  In  In101  1  0.13333333  0.26666667  0.33333333  1
  In  In102  1  0.13333333  0.46666667  0.33333333  1
  In  In103  1  0.13333333  0.66666667  0.33333333  1
  In  In104  1  0.13333333  0.86666667  0.33333333  1
  In  In105  1  0.33333333  0.06666667  0.33333333  1
  In  In106  1  0.33333333  0.26666667  0.33333333  1
  In  In107  1  0.33333333  0.46666667  0.33333333  1
  In  In108  1  0.33333333  0.66666667  0.33333333  1
  In  In109  1  0.33333333  0.86666667  0.33333333  1
  In  In110  1  0.53333333  0.06666667  0.33333333  1
  In  In111  1  0.53333333  0.26666667  0.33333333  1
  In  In112  1  0.53333333  0.46666667  0.33333333  1
  In  In113  1  0.53333333  0.66666667  0.33333333  1
  In  In114  1  0.53333333  0.86666667  0.33333333  1
  In  In115  1  0.73333333  0.06666667  0.33333333  1
  In  In116  1  0.73333333  0.26666667  0.33333333  1
  In  In117  1  0.73333333  0.46666667  0.33333333  1
  In  In118  1  0.73333333  0.66666667  0.33333333  1
  In  In119  1  0.73333333  0.86666667  0.33333333  1
  In  In120  1  0.93333333  0.06666667  0.33333333  1
  In  In121  1  0.93333333  0.26666667  0.33333333  1
  In  In122  1  0.93333333  0.46666667  0.33333333  1
  In  In123  1  0.93333333  0.66666667  0.33333333  1
  In  In124  1  0.93333333  0.86666667  0.33333333  1
  In  In125  1  0.06666667  0.13333333  0.66666667  1
  In  In126  1  0.06666667  0.33333333  0.66666667  1
  In  In127  1  0.06666667  0.53333333  0.66666667  1
  In  In128  1  0.06666667  0.73333333  0.66666667  1
  In  In129  1  0.06666667  0.93333333  0.66666667  1
  In  In130  1  0.26666667  0.13333333  0.66666667  1
  In  In131  1  0.26666667  0.33333333  0.66666667  1
  In  In132  1  0.26666667  0.53333333  0.66666667  1
  In  In133  1  0.26666667  0.73333333  0.66666667  1
  In  In134  1  0.26666667  0.93333333  0.66666667  1
  In  In135  1  0.46666667  0.13333333  0.66666667  1
  In  In136  1  0.46666667  0.33333333  0.66666667  1
  In  In137  1  0.46666667  0.53333333  0.66666667  1
  In  In138  1  0.46666667  0.73333333  0.66666667  1
  In  In139  1  0.46666667  0.93333333  0.66666667  1
  In  In140  1  0.66666667  0.13333333  0.66666667  1
  In  In141  1  0.66666667  0.33333333  0.66666667  1
  In  In142  1  0.66666667  0.53333333  0.66666667  1
  In  In143  1  0.66666667  0.73333333  0.66666667  1
  In  In144  1  0.66666667  0.93333333  0.66666667  1
  In  In145  1  0.86666667  0.13333333  0.66666667  1
  In  In146  1  0.86666667  0.33333333  0.66666667  1
  In  In147  1  0.86666667  0.53333333  0.66666667  1
  In  In148  1  0.86666667  0.73333333  0.66666667  1
  In  In149  1  0.86666667  0.93333333  0.66666667  1
  O  O150  1  -0.00000000  -0.00000000  0.74009194  1
  O  O151  1  -0.00000000  0.20000000  0.74009194  1
  O  O152  1  0.00000000  0.40000000  0.74009194  1
  O  O153  1  0.00000000  0.60000000  0.74009194  1
  O  O154  1  0.00000000  0.80000000  0.74009194  1
  O  O155  1  0.20000000  -0.00000000  0.74009194  1
  O  O156  1  0.20000000  0.20000000  0.74009194  1
  O  O157  1  0.20000000  0.40000000  0.74009194  1
  O  O158  1  0.20000000  0.60000000  0.74009194  1
  O  O159  1  0.20000000  0.80000000  0.74009194  1
  O  O160  1  0.40000000  -0.00000000  0.74009194  1
  O  O161  1  0.40000000  0.20000000  0.74009194  1
  O  O162  1  0.40000000  0.40000000  0.74009194  1
  O  O163  1  0.40000000  0.60000000  0.74009194  1
  O  O164  1  0.40000000  0.80000000  0.74009194  1
  O  O165  1  0.60000000  -0.00000000  0.74009194  1
  O  O166  1  0.60000000  0.20000000  0.74009194  1
  O  O167  1  0.60000000  0.40000000  0.74009194  1
  O  O168  1  0.60000000  0.60000000  0.74009194  1
  O  O169  1  0.60000000  0.80000000  0.74009194  1
  O  O170  1  0.80000000  -0.00000000  0.74009194  1
  O  O171  1  0.80000000  0.20000000  0.74009194  1
  O  O172  1  0.80000000  0.40000000  0.74009194  1
  O  O173  1  0.80000000  0.60000000  0.74009194  1
  O  O174  1  0.80000000  0.80000000  0.74009194  1
  O  O175  1  0.13333333  0.06666667  1.07342527  1
  O  O176  1  0.13333333  0.26666667  1.07342527  1
  O  O177  1  0.13333333  0.46666667  1.07342527  1
  O  O178  1  0.13333333  0.66666667  1.07342527  1
  O  O179  1  0.13333333  0.86666667  1.07342527  1
  O  O180  1  0.33333333  0.06666667  1.07342527  1
  O  O181  1  0.33333333  0.26666667  1.07342527  1
  O  O182  1  0.33333333  0.46666667  1.07342527  1
  O  O183  1  0.33333333  0.66666667  1.07342527  1
  O  O184  1  0.33333333  0.86666667  1.07342527  1
  O  O185  1  0.53333333  0.06666667  1.07342527  1
  O  O186  1  0.53333333  0.26666667  1.07342527  1
  O  O187  1  0.53333333  0.46666667  1.07342527  1
  O  O188  1  0.53333333  0.66666667  1.07342527  1
  O  O189  1  0.53333333  0.86666667  1.07342527  1
  O  O190  1  0.73333333  0.06666667  1.07342527  1
  O  O191  1  0.73333333  0.26666667  1.07342527  1
  O  O192  1  0.73333333  0.46666667  1.07342527  1
  O  O193  1  0.73333333  0.66666667  1.07342527  1
  O  O194  1  0.73333333  0.86666667  1.07342527  1
  O  O195  1  0.93333333  0.06666667  1.07342527  1
  O  O196  1  0.93333333  0.26666667  1.07342527  1
  O  O197  1  0.93333333  0.46666667  1.07342527  1
  O  O198  1  0.93333333  0.66666667  1.07342527  1
  O  O199  1  0.93333333  0.86666667  1.07342527  1
  O  O200  1  0.06666667  0.13333333  1.40675860  1
  O  O201  1  0.06666667  0.33333333  1.40675860  1
  O  O202  1  0.06666667  0.53333333  1.40675860  1
  O  O203  1  0.06666667  0.73333333  1.40675860  1
  O  O204  1  0.06666667  0.93333333  1.40675860  1
  O  O205  1  0.26666667  0.13333333  1.40675860  1
  O  O206  1  0.26666667  0.33333333  1.40675860  1
  O  O207  1  0.26666667  0.53333333  1.40675860  1
  O  O208  1  0.26666667  0.73333333  1.40675860  1
  O  O209  1  0.26666667  0.93333333  1.40675860  1
  O  O210  1  0.46666667  0.13333333  1.40675860  1
  O  O211  1  0.46666667  0.33333333  1.40675860  1
  O  O212  1  0.46666667  0.53333333  1.40675860  1
  O  O213  1  0.46666667  0.73333333  1.40675860  1
  O  O214  1  0.46666667  0.93333333  1.40675860  1
  O  O215  1  0.66666667  0.13333333  1.40675860  1
  O  O216  1  0.66666667  0.33333333  1.40675860  1
  O  O217  1  0.66666667  0.53333333  1.40675860  1
  O  O218  1  0.66666667  0.73333333  1.40675860  1
  O  O219  1  0.66666667  0.93333333  1.40675860  1
  O  O220  1  0.86666667  0.13333333  1.40675860  1
  O  O221  1  0.86666667  0.33333333  1.40675860  1
  O  O222  1  0.86666667  0.53333333  1.40675860  1
  O  O223  1  0.86666667  0.73333333  1.40675860  1
  O  O224  1  0.86666667  0.93333333  1.40675860  1
  O  O225  1  -0.00000000  -0.00000000  0.25990806  1
  O  O226  1  0.00000000  0.20000000  0.25990806  1
  O  O227  1  0.00000000  0.40000000  0.25990806  1
  O  O228  1  0.00000000  0.60000000  0.25990806  1
  O  O229  1  0.00000000  0.80000000  0.25990806  1
  O  O230  1  0.20000000  -0.00000000  0.25990806  1
  O  O231  1  0.20000000  0.20000000  0.25990806  1
  O  O232  1  0.20000000  0.40000000  0.25990806  1
  O  O233  1  0.20000000  0.60000000  0.25990806  1
  O  O234  1  0.20000000  0.80000000  0.25990806  1
  O  O235  1  0.40000000  -0.00000000  0.25990806  1
  O  O236  1  0.40000000  0.20000000  0.25990806  1
  O  O237  1  0.40000000  0.40000000  0.25990806  1
  O  O238  1  0.40000000  0.60000000  0.25990806  1
  O  O239  1  0.40000000  0.80000000  0.25990806  1
  O  O240  1  0.60000000  -0.00000000  0.25990806  1
  O  O241  1  0.60000000  0.20000000  0.25990806  1
  O  O242  1  0.60000000  0.40000000  0.25990806  1
  O  O243  1  0.60000000  0.60000000  0.25990806  1
  O  O244  1  0.60000000  0.80000000  0.25990806  1
  O  O245  1  0.80000000  -0.00000000  0.25990806  1
  O  O246  1  0.80000000  0.20000000  0.25990806  1
  O  O247  1  0.80000000  0.40000000  0.25990806  1
  O  O248  1  0.80000000  0.60000000  0.25990806  1
  O  O249  1  0.80000000  0.80000000  0.25990806  1
  O  O250  1  0.13333333  0.06666667  0.59324140  1
  O  O251  1  0.13333333  0.26666667  0.59324140  1
  O  O252  1  0.13333333  0.46666667  0.59324140  1
  O  O253  1  0.13333333  0.66666667  0.59324140  1
  O  O254  1  0.13333333  0.86666667  0.59324140  1
  O  O255  1  0.33333333  0.06666667  0.59324140  1
  O  O256  1  0.33333333  0.26666667  0.59324140  1
  O  O257  1  0.33333333  0.46666667  0.59324140  1
  O  O258  1  0.33333333  0.66666667  0.59324140  1
  O  O259  1  0.33333333  0.86666667  0.59324140  1
  O  O260  1  0.53333333  0.06666667  0.59324140  1
  O  O261  1  0.53333333  0.26666667  0.59324140  1
  O  O262  1  0.53333333  0.46666667  0.59324140  1
  O  O263  1  0.53333333  0.66666667  0.59324140  1
  O  O264  1  0.53333333  0.86666667  0.59324140  1
  O  O265  1  0.73333333  0.06666667  0.59324140  1
  O  O266  1  0.73333333  0.26666667  0.59324140  1
  O  O267  1  0.73333333  0.46666667  0.59324140  1
  O  O268  1  0.73333333  0.66666667  0.59324140  1
  O  O269  1  0.73333333  0.86666667  0.59324140  1
  O  O270  1  0.93333333  0.06666667  0.59324140  1
  O  O271  1  0.93333333  0.26666667  0.59324140  1
  O  O272  1  0.93333333  0.46666667  0.59324140  1
  O  O273  1  0.93333333  0.66666667  0.59324140  1
  O  O274  1  0.93333333  0.86666667  0.59324140  1
  O  O275  1  0.06666667  0.13333333  0.92657473  1
  O  O276  1  0.06666667  0.33333333  0.92657473  1
  O  O277  1  0.06666667  0.53333333  0.92657473  1
  O  O278  1  0.06666667  0.73333333  0.92657473  1
  O  O279  1  0.06666667  0.93333333  0.92657473  1
  O  O280  1  0.26666667  0.13333333  0.92657473  1
  O  O281  1  0.26666667  0.33333333  0.92657473  1
  O  O282  1  0.26666667  0.53333333  0.92657473  1
  O  O283  1  0.26666667  0.73333333  0.92657473  1
  O  O284  1  0.26666667  0.93333333  0.92657473  1
  O  O285  1  0.46666667  0.13333333  0.92657473  1
  O  O286  1  0.46666667  0.33333333  0.92657473  1
  O  O287  1  0.46666667  0.53333333  0.92657473  1
  O  O288  1  0.46666667  0.73333333  0.92657473  1
  O  O289  1  0.46666667  0.93333333  0.92657473  1
  O  O290  1  0.66666667  0.13333333  0.92657473  1
  O  O291  1  0.66666667  0.33333333  0.92657473  1
  O  O292  1  0.66666667  0.53333333  0.92657473  1
  O  O293  1  0.66666667  0.73333333  0.92657473  1
  O  O294  1  0.66666667  0.93333333  0.92657473  1
  O  O295  1  0.86666667  0.13333333  0.92657473  1
  O  O296  1  0.86666667  0.33333333  0.92657473  1
  O  O297  1  0.86666667  0.53333333  0.92657473  1
  O  O298  1  0.86666667  0.73333333  0.92657473  1
  O  O299  1  0.86666667  0.93333333  0.92657473  1
