# generated using pymatgen
data_VBO4
_symmetry_space_group_name_H-M   'P 1'
_cell_length_a   14.92481865
_cell_length_b   14.92481865
_cell_length_c   14.54312019
_cell_angle_alpha   90.00000000
_cell_angle_beta   90.00000000
_cell_angle_gamma   90.00000000
_symmetry_Int_Tables_number   1
_chemical_formula_structural   VBO4
_chemical_formula_sum   'V36 B36 O144'
_cell_volume   3239.48310001
_cell_formula_units_Z   36
loop_
 _symmetry_equiv_pos_site_id
 _symmetry_equiv_pos_as_xyz
  1  'x, y, z'
loop_
 _atom_site_type_symbol
 _atom_site_label
 _atom_site_symmetry_multiplicity
 _atom_site_fract_x
 _atom_site_fract_y
 _atom_site_fract_z
 _atom_site_occupancy
  V  V0  1  0.00000000  0.00000000  -0.00000000  1
  V  V1  1  0.00000000  0.00000000  0.50000000  1
  V  V2  1  0.00000000  0.33333333  -0.00000000  1
  V  V3  1  0.00000000  0.33333333  0.50000000  1
  V  V4  1  0.00000000  0.66666667  -0.00000000  1
  V  V5  1  0.00000000  0.66666667  0.50000000  1
  V  V6  1  0.33333333  0.00000000  -0.00000000  1
  V  V7  1  0.33333333  0.00000000  0.50000000  1
  V  V8  1  0.33333333  0.33333333  -0.00000000  1
  V  V9  1  0.33333333  0.33333333  0.50000000  1
  V  V10  1  0.33333333  0.66666667  -0.00000000  1
  V  V11  1  0.33333333  0.66666667  0.50000000  1
  V  V12  1  0.66666667  0.00000000  -0.00000000  1
  V  V13  1  0.66666667  0.00000000  0.50000000  1
  V  V14  1  0.66666667  0.33333333  -0.00000000  1
  V  V15  1  0.66666667  0.33333333  0.50000000  1
  V  V16  1  0.66666667  0.66666667  -0.00000000  1
  V  V17  1  0.66666667  0.66666667  0.50000000  1
  V  V18  1  0.16666667  0.16666667  0.25000000  1
  V  V19  1  0.16666667  0.16666667  0.75000000  1
  V  V20  1  0.16666667  0.50000000  0.25000000  1
  V  V21  1  0.16666667  0.50000000  0.75000000  1
  V  V22  1  0.16666667  0.83333333  0.25000000  1
  V  V23  1  0.16666667  0.83333333  0.75000000  1
  V  V24  1  0.50000000  0.16666667  0.25000000  1
  V  V25  1  0.50000000  0.16666667  0.75000000  1
  V  V26  1  0.50000000  0.50000000  0.25000000  1
  V  V27  1  0.50000000  0.50000000  0.75000000  1
  V  V28  1  0.50000000  0.83333333  0.25000000  1
  V  V29  1  0.50000000  0.83333333  0.75000000  1
  V  V30  1  0.83333333  0.16666667  0.25000000  1
  V  V31  1  0.83333333  0.16666667  0.75000000  1
  V  V32  1  0.83333333  0.50000000  0.25000000  1
  V  V33  1  0.83333333  0.50000000  0.75000000  1
  V  V34  1  0.83333333  0.83333333  0.25000000  1
  V  V35  1  0.83333333  0.83333333  0.75000000  1
  B  B36  1  0.16666667  0.00000000  0.12500000  1
  B  B37  1  0.16666667  0.00000000  0.62500000  1
  B  B38  1  0.16666667  0.33333333  0.12500000  1
  B  B39  1  0.16666667  0.33333333  0.62500000  1
  B  B40  1  0.16666667  0.66666667  0.12500000  1
  B  B41  1  0.16666667  0.66666667  0.62500000  1
  B  B42  1  0.50000000  0.00000000  0.12500000  1
  B  B43  1  0.50000000  0.00000000  0.62500000  1
  B  B44  1  0.50000000  0.33333333  0.12500000  1
  B  B45  1  0.50000000  0.33333333  0.62500000  1
  B  B46  1  0.50000000  0.66666667  0.12500000  1
  B  B47  1  0.50000000  0.66666667  0.62500000  1
  B  B48  1  0.83333333  0.00000000  0.12500000  1
  B  B49  1  0.83333333  0.00000000  0.62500000  1
  B  B50  1  0.83333333  0.33333333  0.12500000  1
  B  B51  1  0.83333333  0.33333333  0.62500000  1
  B  B52  1  0.83333333  0.66666667  0.12500000  1
  B  B53  1  0.83333333  0.66666667  0.62500000  1
  B  B54  1  0.33333333  0.16666667  0.37500000  1
  B  B55  1  0.33333333  0.16666667  0.87500000  1
  B  B56  1  0.33333333  0.50000000  0.37500000  1
  B  B57  1  0.33333333  0.50000000  0.87500000  1
  B  B58  1  0.33333333  0.83333333  0.37500000  1
  B  B59  1  0.33333333  0.83333333  0.87500000  1
  B  B60  1  0.66666667  0.16666667  0.37500000  1
  B  B61  1  0.66666667  0.16666667  0.87500000  1
  B  B62  1  0.66666667  0.50000000  0.37500000  1
  B  B63  1  0.66666667  0.50000000  0.87500000  1
  B  B64  1  0.66666667  0.83333333  0.37500000  1
  B  B65  1  0.66666667  0.83333333  0.87500000  1
  B  B66  1  1.00000000  0.16666667  0.37500000  1
  B  B67  1  1.00000000  0.16666667  0.87500000  1
  B  B68  1  1.00000000  0.50000000  0.37500000  1
  B  B69  1  1.00000000  0.50000000  0.87500000  1
  B  B70  1  1.00000000  0.83333333  0.37500000  1
  B  B71  1  1.00000000  0.83333333  0.87500000  1
  O  O72  1  0.19152422  0.07612716  0.18267472  1
  O  O73  1  0.19152422  0.07612716  0.68267472  1
  O  O74  1  0.19152422  0.40946050  0.18267472  1
  O  O75  1  0.19152422  0.40946050  0.68267472  1
  O  O76  1  0.19152422  0.74279383  0.18267472  1
  O  O77  1  0.19152422  0.74279383  0.68267472  1
  O  O78  1  0.52485755  0.07612716  0.18267472  1
  O  O79  1  0.52485755  0.07612716  0.68267472  1
  O  O80  1  0.52485755  0.40946050  0.18267472  1
  O  O81  1  0.52485755  0.40946050  0.68267472  1
  O  O82  1  0.52485755  0.74279383  0.18267472  1
  O  O83  1  0.52485755  0.74279383  0.68267472  1
  O  O84  1  0.85819089  0.07612716  0.18267472  1
  O  O85  1  0.85819089  0.07612716  0.68267472  1
  O  O86  1  0.85819089  0.40946050  0.18267472  1
  O  O87  1  0.85819089  0.40946050  0.68267472  1
  O  O88  1  0.85819089  0.74279383  0.18267472  1
  O  O89  1  0.85819089  0.74279383  0.68267472  1
  O  O90  1  0.35819089  0.24279383  0.43267472  1
  O  O91  1  0.35819089  0.24279383  0.93267472  1
  O  O92  1  0.35819089  0.57612716  0.43267472  1
  O  O93  1  0.35819089  0.57612716  0.93267472  1
  O  O94  1  0.35819089  0.90946050  0.43267472  1
  O  O95  1  0.35819089  0.90946050  0.93267472  1
  O  O96  1  0.69152422  0.24279383  0.43267472  1
  O  O97  1  0.69152422  0.24279383  0.93267472  1
  O  O98  1  0.69152422  0.57612716  0.43267472  1
  O  O99  1  0.69152422  0.57612716  0.93267472  1
  O  O100  1  0.69152422  0.90946050  0.43267472  1
  O  O101  1  0.69152422  0.90946050  0.93267472  1
  O  O102  1  1.02485755  0.24279383  0.43267472  1
  O  O103  1  1.02485755  0.24279383  0.93267472  1
  O  O104  1  1.02485755  0.57612716  0.43267472  1
  O  O105  1  1.02485755  0.57612716  0.93267472  1
  O  O106  1  1.02485755  0.90946050  0.43267472  1
  O  O107  1  1.02485755  0.90946050  0.93267472  1
  O  O108  1  0.09053950  0.02485755  0.06732528  1
  O  O109  1  0.09053950  0.02485755  0.56732528  1
  O  O110  1  0.09053950  0.35819089  0.06732528  1
  O  O111  1  0.09053950  0.35819089  0.56732528  1
  O  O112  1  0.09053950  0.69152422  0.06732528  1
  O  O113  1  0.09053950  0.69152422  0.56732528  1
  O  O114  1  0.42387284  0.02485755  0.06732528  1
  O  O115  1  0.42387284  0.02485755  0.56732528  1
  O  O116  1  0.42387284  0.35819089  0.06732528  1
  O  O117  1  0.42387284  0.35819089  0.56732528  1
  O  O118  1  0.42387284  0.69152422  0.06732528  1
  O  O119  1  0.42387284  0.69152422  0.56732528  1
  O  O120  1  0.75720617  0.02485755  0.06732528  1
  O  O121  1  0.75720617  0.02485755  0.56732528  1
  O  O122  1  0.75720617  0.35819089  0.06732528  1
  O  O123  1  0.75720617  0.35819089  0.56732528  1
  O  O124  1  0.75720617  0.69152422  0.06732528  1
  O  O125  1  0.75720617  0.69152422  0.56732528  1
  O  O126  1  0.25720617  0.19152422  0.31732528  1
  O  O127  1  0.25720617  0.19152422  0.81732528  1
  O  O128  1  0.25720617  0.52485755  0.31732528  1
  O  O129  1  0.25720617  0.52485755  0.81732528  1
  O  O130  1  0.25720617  0.85819089  0.31732528  1
  O  O131  1  0.25720617  0.85819089  0.81732528  1
  O  O132  1  0.59053950  0.19152422  0.31732528  1
  O  O133  1  0.59053950  0.19152422  0.81732528  1
  O  O134  1  0.59053950  0.52485755  0.31732528  1
  O  O135  1  0.59053950  0.52485755  0.81732528  1
  O  O136  1  0.59053950  0.85819089  0.31732528  1
  O  O137  1  0.59053950  0.85819089  0.81732528  1
  O  O138  1  0.92387284  0.19152422  0.31732528  1
  O  O139  1  0.92387284  0.19152422  0.81732528  1
  O  O140  1  0.92387284  0.52485755  0.31732528  1
  O  O141  1  0.92387284  0.52485755  0.81732528  1
  O  O142  1  0.92387284  0.85819089  0.31732528  1
  O  O143  1  0.92387284  0.85819089  0.81732528  1
  O  O144  1  0.14180911  -0.07612716  0.18267472  1
  O  O145  1  0.14180911  -0.07612716  0.68267472  1
  O  O146  1  0.14180911  0.25720617  0.18267472  1
  O  O147  1  0.14180911  0.25720617  0.68267472  1
  O  O148  1  0.14180911  0.59053950  0.18267472  1
  O  O149  1  0.14180911  0.59053950  0.68267472  1
  O  O150  1  0.47514245  -0.07612716  0.18267472  1
  O  O151  1  0.47514245  -0.07612716  0.68267472  1
  O  O152  1  0.47514245  0.25720617  0.18267472  1
  O  O153  1  0.47514245  0.25720617  0.68267472  1
  O  O154  1  0.47514245  0.59053950  0.18267472  1
  O  O155  1  0.47514245  0.59053950  0.68267472  1
  O  O156  1  0.80847578  -0.07612716  0.18267472  1
  O  O157  1  0.80847578  -0.07612716  0.68267472  1
  O  O158  1  0.80847578  0.25720617  0.18267472  1
  O  O159  1  0.80847578  0.25720617  0.68267472  1
  O  O160  1  0.80847578  0.59053950  0.18267472  1
  O  O161  1  0.80847578  0.59053950  0.68267472  1
  O  O162  1  0.30847578  0.09053950  0.43267472  1
  O  O163  1  0.30847578  0.09053950  0.93267472  1
  O  O164  1  0.30847578  0.42387284  0.43267472  1
  O  O165  1  0.30847578  0.42387284  0.93267472  1
  O  O166  1  0.30847578  0.75720617  0.43267472  1
  O  O167  1  0.30847578  0.75720617  0.93267472  1
  O  O168  1  0.64180911  0.09053950  0.43267472  1
  O  O169  1  0.64180911  0.09053950  0.93267472  1
  O  O170  1  0.64180911  0.42387284  0.43267472  1
  O  O171  1  0.64180911  0.42387284  0.93267472  1
  O  O172  1  0.64180911  0.75720617  0.43267472  1
  O  O173  1  0.64180911  0.75720617  0.93267472  1
  O  O174  1  0.97514245  0.09053950  0.43267472  1
  O  O175  1  0.97514245  0.09053950  0.93267472  1
  O  O176  1  0.97514245  0.42387284  0.43267472  1
  O  O177  1  0.97514245  0.42387284  0.93267472  1
  O  O178  1  0.97514245  0.75720617  0.43267472  1
  O  O179  1  0.97514245  0.75720617  0.93267472  1
  O  O180  1  0.24279383  -0.02485755  0.06732528  1
  O  O181  1  0.24279383  -0.02485755  0.56732528  1
  O  O182  1  0.24279383  0.30847578  0.06732528  1
  O  O183  1  0.24279383  0.30847578  0.56732528  1
  O  O184  1  0.24279383  0.64180911  0.06732528  1
  O  O185  1  0.24279383  0.64180911  0.56732528  1
  O  O186  1  0.57612716  -0.02485755  0.06732528  1
  O  O187  1  0.57612716  -0.02485755  0.56732528  1
  O  O188  1  0.57612716  0.30847578  0.06732528  1
  O  O189  1  0.57612716  0.30847578  0.56732528  1
  O  O190  1  0.57612716  0.64180911  0.06732528  1
  O  O191  1  0.57612716  0.64180911  0.56732528  1
  O  O192  1  0.90946050  -0.02485755  0.06732528  1
  O  O193  1  0.90946050  -0.02485755  0.56732528  1
  O  O194  1  0.90946050  0.30847578  0.06732528  1
  O  O195  1  0.90946050  0.30847578  0.56732528  1
  O  O196  1  0.90946050  0.64180911  0.06732528  1
  O  O197  1  0.90946050  0.64180911  0.56732528  1
  O  O198  1  0.40946050  0.14180911  0.31732528  1
  O  O199  1  0.40946050  0.14180911  0.81732528  1
  O  O200  1  0.40946050  0.47514245  0.31732528  1
  O  O201  1  0.40946050  0.47514245  0.81732528  1
  O  O202  1  0.40946050  0.80847578  0.31732528  1
  O  O203  1  0.40946050  0.80847578  0.81732528  1
  O  O204  1  0.74279383  0.14180911  0.31732528  1
  O  O205  1  0.74279383  0.14180911  0.81732528  1
  O  O206  1  0.74279383  0.47514245  0.31732528  1
  O  O207  1  0.74279383  0.47514245  0.81732528  1
  O  O208  1  0.74279383  0.80847578  0.31732528  1
  O  O209  1  0.74279383  0.80847578  0.81732528  1
  O  O210  1  1.07612716  0.14180911  0.31732528  1
  O  O211  1  1.07612716  0.14180911  0.81732528  1
  O  O212  1  1.07612716  0.47514245  0.31732528  1
  O  O213  1  1.07612716  0.47514245  0.81732528  1
  O  O214  1  1.07612716  0.80847578  0.31732528  1
  O  O215  1  1.07612716  0.80847578  0.81732528  1
