# generated using pymatgen
data_Li2PbO3
_symmetry_space_group_name_H-M   'P 1'
_cell_length_a   16.21836439
_cell_length_b   18.64591477
_cell_length_c   16.44100675
_cell_angle_alpha   90.00000000
_cell_angle_beta   110.41493636
_cell_angle_gamma   90.00000000
_symmetry_Int_Tables_number   1
_chemical_formula_structural   Li2PbO3
_chemical_formula_sum   'Li144 Pb72 O216'
_cell_volume   4659.58573476
_cell_formula_units_Z   72
loop_
 _symmetry_equiv_pos_site_id
 _symmetry_equiv_pos_as_xyz
  1  'x, y, z'
loop_
 _atom_site_type_symbol
 _atom_site_label
 _atom_site_symmetry_multiplicity
 _atom_site_fract_x
 _atom_site_fract_y
 _atom_site_fract_z
 _atom_site_occupancy
  Li  Li0  1  0.16666667  -0.12177439  0.08333333  1
  Li  Li1  1  0.16666667  -0.12177439  0.41666667  1
  Li  Li2  1  0.16666667  -0.12177439  0.75000000  1
  Li  Li3  1  0.16666667  0.37822561  0.08333333  1
  Li  Li4  1  0.16666667  0.37822561  0.41666667  1
  Li  Li5  1  0.16666667  0.37822561  0.75000000  1
  Li  Li6  1  0.50000000  -0.12177439  0.08333333  1
  Li  Li7  1  0.50000000  -0.12177439  0.41666667  1
  Li  Li8  1  0.50000000  -0.12177439  0.75000000  1
  Li  Li9  1  0.50000000  0.37822561  0.08333333  1
  Li  Li10  1  0.50000000  0.37822561  0.41666667  1
  Li  Li11  1  0.50000000  0.37822561  0.75000000  1
  Li  Li12  1  0.83333333  -0.12177439  0.08333333  1
  Li  Li13  1  0.83333333  -0.12177439  0.41666667  1
  Li  Li14  1  0.83333333  -0.12177439  0.75000000  1
  Li  Li15  1  0.83333333  0.37822561  0.08333333  1
  Li  Li16  1  0.83333333  0.37822561  0.41666667  1
  Li  Li17  1  0.83333333  0.37822561  0.75000000  1
  Li  Li18  1  0.33333333  0.12822561  0.08333333  1
  Li  Li19  1  0.33333333  0.12822561  0.41666667  1
  Li  Li20  1  0.33333333  0.12822561  0.75000000  1
  Li  Li21  1  0.33333333  0.62822561  0.08333333  1
  Li  Li22  1  0.33333333  0.62822561  0.41666667  1
  Li  Li23  1  0.33333333  0.62822561  0.75000000  1
  Li  Li24  1  0.66666667  0.12822561  0.08333333  1
  Li  Li25  1  0.66666667  0.12822561  0.41666667  1
  Li  Li26  1  0.66666667  0.12822561  0.75000000  1
  Li  Li27  1  0.66666667  0.62822561  0.08333333  1
  Li  Li28  1  0.66666667  0.62822561  0.41666667  1
  Li  Li29  1  0.66666667  0.62822561  0.75000000  1
  Li  Li30  1  1.00000000  0.12822561  0.08333333  1
  Li  Li31  1  1.00000000  0.12822561  0.41666667  1
  Li  Li32  1  1.00000000  0.12822561  0.75000000  1
  Li  Li33  1  1.00000000  0.62822561  0.08333333  1
  Li  Li34  1  1.00000000  0.62822561  0.41666667  1
  Li  Li35  1  1.00000000  0.62822561  0.75000000  1
  Li  Li36  1  0.16666667  0.12177439  0.25000000  1
  Li  Li37  1  0.16666667  0.12177439  0.58333333  1
  Li  Li38  1  0.16666667  0.12177439  0.91666667  1
  Li  Li39  1  0.16666667  0.62177439  0.25000000  1
  Li  Li40  1  0.16666667  0.62177439  0.58333333  1
  Li  Li41  1  0.16666667  0.62177439  0.91666667  1
  Li  Li42  1  0.50000000  0.12177439  0.25000000  1
  Li  Li43  1  0.50000000  0.12177439  0.58333333  1
  Li  Li44  1  0.50000000  0.12177439  0.91666667  1
  Li  Li45  1  0.50000000  0.62177439  0.25000000  1
  Li  Li46  1  0.50000000  0.62177439  0.58333333  1
  Li  Li47  1  0.50000000  0.62177439  0.91666667  1
  Li  Li48  1  0.83333333  0.12177439  0.25000000  1
  Li  Li49  1  0.83333333  0.12177439  0.58333333  1
  Li  Li50  1  0.83333333  0.12177439  0.91666667  1
  Li  Li51  1  0.83333333  0.62177439  0.25000000  1
  Li  Li52  1  0.83333333  0.62177439  0.58333333  1
  Li  Li53  1  0.83333333  0.62177439  0.91666667  1
  Li  Li54  1  0.33333333  0.37177439  0.25000000  1
  Li  Li55  1  0.33333333  0.37177439  0.58333333  1
  Li  Li56  1  0.33333333  0.37177439  0.91666667  1
  Li  Li57  1  0.33333333  0.87177439  0.25000000  1
  Li  Li58  1  0.33333333  0.87177439  0.58333333  1
  Li  Li59  1  0.33333333  0.87177439  0.91666667  1
  Li  Li60  1  0.66666667  0.37177439  0.25000000  1
  Li  Li61  1  0.66666667  0.37177439  0.58333333  1
  Li  Li62  1  0.66666667  0.37177439  0.91666667  1
  Li  Li63  1  0.66666667  0.87177439  0.25000000  1
  Li  Li64  1  0.66666667  0.87177439  0.58333333  1
  Li  Li65  1  0.66666667  0.87177439  0.91666667  1
  Li  Li66  1  1.00000000  0.37177439  0.25000000  1
  Li  Li67  1  1.00000000  0.37177439  0.58333333  1
  Li  Li68  1  1.00000000  0.37177439  0.91666667  1
  Li  Li69  1  1.00000000  0.87177439  0.25000000  1
  Li  Li70  1  1.00000000  0.87177439  0.58333333  1
  Li  Li71  1  1.00000000  0.87177439  0.91666667  1
  Li  Li72  1  0.16666667  0.04142764  0.08333333  1
  Li  Li73  1  0.16666667  0.04142764  0.41666667  1
  Li  Li74  1  0.16666667  0.04142764  0.75000000  1
  Li  Li75  1  0.16666667  0.54142764  0.08333333  1
  Li  Li76  1  0.16666667  0.54142764  0.41666667  1
  Li  Li77  1  0.16666667  0.54142764  0.75000000  1
  Li  Li78  1  0.50000000  0.04142764  0.08333333  1
  Li  Li79  1  0.50000000  0.04142764  0.41666667  1
  Li  Li80  1  0.50000000  0.04142764  0.75000000  1
  Li  Li81  1  0.50000000  0.54142764  0.08333333  1
  Li  Li82  1  0.50000000  0.54142764  0.41666667  1
  Li  Li83  1  0.50000000  0.54142764  0.75000000  1
  Li  Li84  1  0.83333333  0.04142764  0.08333333  1
  Li  Li85  1  0.83333333  0.04142764  0.41666667  1
  Li  Li86  1  0.83333333  0.04142764  0.75000000  1
  Li  Li87  1  0.83333333  0.54142764  0.08333333  1
  Li  Li88  1  0.83333333  0.54142764  0.41666667  1
  Li  Li89  1  0.83333333  0.54142764  0.75000000  1
  Li  Li90  1  0.33333333  0.29142764  0.08333333  1
  Li  Li91  1  0.33333333  0.29142764  0.41666667  1
  Li  Li92  1  0.33333333  0.29142764  0.75000000  1
  Li  Li93  1  0.33333333  0.79142764  0.08333333  1
  Li  Li94  1  0.33333333  0.79142764  0.41666667  1
  Li  Li95  1  0.33333333  0.79142764  0.75000000  1
  Li  Li96  1  0.66666667  0.29142764  0.08333333  1
  Li  Li97  1  0.66666667  0.29142764  0.41666667  1
  Li  Li98  1  0.66666667  0.29142764  0.75000000  1
  Li  Li99  1  0.66666667  0.79142764  0.08333333  1
  Li  Li100  1  0.66666667  0.79142764  0.41666667  1
  Li  Li101  1  0.66666667  0.79142764  0.75000000  1
  Li  Li102  1  1.00000000  0.29142764  0.08333333  1
  Li  Li103  1  1.00000000  0.29142764  0.41666667  1
  Li  Li104  1  1.00000000  0.29142764  0.75000000  1
  Li  Li105  1  1.00000000  0.79142764  0.08333333  1
  Li  Li106  1  1.00000000  0.79142764  0.41666667  1
  Li  Li107  1  1.00000000  0.79142764  0.75000000  1
  Li  Li108  1  0.16666667  -0.04142764  0.25000000  1
  Li  Li109  1  0.16666667  -0.04142764  0.58333333  1
  Li  Li110  1  0.16666667  -0.04142764  0.91666667  1
  Li  Li111  1  0.16666667  0.45857236  0.25000000  1
  Li  Li112  1  0.16666667  0.45857236  0.58333333  1
  Li  Li113  1  0.16666667  0.45857236  0.91666667  1
  Li  Li114  1  0.50000000  -0.04142764  0.25000000  1
  Li  Li115  1  0.50000000  -0.04142764  0.58333333  1
  Li  Li116  1  0.50000000  -0.04142764  0.91666667  1
  Li  Li117  1  0.50000000  0.45857236  0.25000000  1
  Li  Li118  1  0.50000000  0.45857236  0.58333333  1
  Li  Li119  1  0.50000000  0.45857236  0.91666667  1
  Li  Li120  1  0.83333333  -0.04142764  0.25000000  1
  Li  Li121  1  0.83333333  -0.04142764  0.58333333  1
  Li  Li122  1  0.83333333  -0.04142764  0.91666667  1
  Li  Li123  1  0.83333333  0.45857236  0.25000000  1
  Li  Li124  1  0.83333333  0.45857236  0.58333333  1
  Li  Li125  1  0.83333333  0.45857236  0.91666667  1
  Li  Li126  1  0.33333333  0.20857236  0.25000000  1
  Li  Li127  1  0.33333333  0.20857236  0.58333333  1
  Li  Li128  1  0.33333333  0.20857236  0.91666667  1
  Li  Li129  1  0.33333333  0.70857236  0.25000000  1
  Li  Li130  1  0.33333333  0.70857236  0.58333333  1
  Li  Li131  1  0.33333333  0.70857236  0.91666667  1
  Li  Li132  1  0.66666667  0.20857236  0.25000000  1
  Li  Li133  1  0.66666667  0.20857236  0.58333333  1
  Li  Li134  1  0.66666667  0.20857236  0.91666667  1
  Li  Li135  1  0.66666667  0.70857236  0.25000000  1
  Li  Li136  1  0.66666667  0.70857236  0.58333333  1
  Li  Li137  1  0.66666667  0.70857236  0.91666667  1
  Li  Li138  1  1.00000000  0.20857236  0.25000000  1
  Li  Li139  1  1.00000000  0.20857236  0.58333333  1
  Li  Li140  1  1.00000000  0.20857236  0.91666667  1
  Li  Li141  1  1.00000000  0.70857236  0.25000000  1
  Li  Li142  1  1.00000000  0.70857236  0.58333333  1
  Li  Li143  1  1.00000000  0.70857236  0.91666667  1
  Pb  Pb144  1  0.16666667  -0.20595359  0.25000000  1
  Pb  Pb145  1  0.16666667  -0.20595359  0.58333333  1
  Pb  Pb146  1  0.16666667  -0.20595359  0.91666667  1
  Pb  Pb147  1  0.16666667  0.29404641  0.25000000  1
  Pb  Pb148  1  0.16666667  0.29404641  0.58333333  1
  Pb  Pb149  1  0.16666667  0.29404641  0.91666667  1
  Pb  Pb150  1  0.50000000  -0.20595359  0.25000000  1
  Pb  Pb151  1  0.50000000  -0.20595359  0.58333333  1
  Pb  Pb152  1  0.50000000  -0.20595359  0.91666667  1
  Pb  Pb153  1  0.50000000  0.29404641  0.25000000  1
  Pb  Pb154  1  0.50000000  0.29404641  0.58333333  1
  Pb  Pb155  1  0.50000000  0.29404641  0.91666667  1
  Pb  Pb156  1  0.83333333  -0.20595359  0.25000000  1
  Pb  Pb157  1  0.83333333  -0.20595359  0.58333333  1
  Pb  Pb158  1  0.83333333  -0.20595359  0.91666667  1
  Pb  Pb159  1  0.83333333  0.29404641  0.25000000  1
  Pb  Pb160  1  0.83333333  0.29404641  0.58333333  1
  Pb  Pb161  1  0.83333333  0.29404641  0.91666667  1
  Pb  Pb162  1  0.33333333  0.04404641  0.25000000  1
  Pb  Pb163  1  0.33333333  0.04404641  0.58333333  1
  Pb  Pb164  1  0.33333333  0.04404641  0.91666667  1
  Pb  Pb165  1  0.33333333  0.54404641  0.25000000  1
  Pb  Pb166  1  0.33333333  0.54404641  0.58333333  1
  Pb  Pb167  1  0.33333333  0.54404641  0.91666667  1
  Pb  Pb168  1  0.66666667  0.04404641  0.25000000  1
  Pb  Pb169  1  0.66666667  0.04404641  0.58333333  1
  Pb  Pb170  1  0.66666667  0.04404641  0.91666667  1
  Pb  Pb171  1  0.66666667  0.54404641  0.25000000  1
  Pb  Pb172  1  0.66666667  0.54404641  0.58333333  1
  Pb  Pb173  1  0.66666667  0.54404641  0.91666667  1
  Pb  Pb174  1  1.00000000  0.04404641  0.25000000  1
  Pb  Pb175  1  1.00000000  0.04404641  0.58333333  1
  Pb  Pb176  1  1.00000000  0.04404641  0.91666667  1
  Pb  Pb177  1  1.00000000  0.54404641  0.25000000  1
  Pb  Pb178  1  1.00000000  0.54404641  0.58333333  1
  Pb  Pb179  1  1.00000000  0.54404641  0.91666667  1
  Pb  Pb180  1  0.16666667  0.20595359  0.08333333  1
  Pb  Pb181  1  0.16666667  0.20595359  0.41666667  1
  Pb  Pb182  1  0.16666667  0.20595359  0.75000000  1
  Pb  Pb183  1  0.16666667  0.70595359  0.08333333  1
  Pb  Pb184  1  0.16666667  0.70595359  0.41666667  1
  Pb  Pb185  1  0.16666667  0.70595359  0.75000000  1
  Pb  Pb186  1  0.50000000  0.20595359  0.08333333  1
  Pb  Pb187  1  0.50000000  0.20595359  0.41666667  1
  Pb  Pb188  1  0.50000000  0.20595359  0.75000000  1
  Pb  Pb189  1  0.50000000  0.70595359  0.08333333  1
  Pb  Pb190  1  0.50000000  0.70595359  0.41666667  1
  Pb  Pb191  1  0.50000000  0.70595359  0.75000000  1
  Pb  Pb192  1  0.83333333  0.20595359  0.08333333  1
  Pb  Pb193  1  0.83333333  0.20595359  0.41666667  1
  Pb  Pb194  1  0.83333333  0.20595359  0.75000000  1
  Pb  Pb195  1  0.83333333  0.70595359  0.08333333  1
  Pb  Pb196  1  0.83333333  0.70595359  0.41666667  1
  Pb  Pb197  1  0.83333333  0.70595359  0.75000000  1
  Pb  Pb198  1  0.33333333  0.45595359  0.08333333  1
  Pb  Pb199  1  0.33333333  0.45595359  0.41666667  1
  Pb  Pb200  1  0.33333333  0.45595359  0.75000000  1
  Pb  Pb201  1  0.33333333  0.95595359  0.08333333  1
  Pb  Pb202  1  0.33333333  0.95595359  0.41666667  1
  Pb  Pb203  1  0.33333333  0.95595359  0.75000000  1
  Pb  Pb204  1  0.66666667  0.45595359  0.08333333  1
  Pb  Pb205  1  0.66666667  0.45595359  0.41666667  1
  Pb  Pb206  1  0.66666667  0.45595359  0.75000000  1
  Pb  Pb207  1  0.66666667  0.95595359  0.08333333  1
  Pb  Pb208  1  0.66666667  0.95595359  0.41666667  1
  Pb  Pb209  1  0.66666667  0.95595359  0.75000000  1
  Pb  Pb210  1  1.00000000  0.45595359  0.08333333  1
  Pb  Pb211  1  1.00000000  0.45595359  0.41666667  1
  Pb  Pb212  1  1.00000000  0.45595359  0.75000000  1
  Pb  Pb213  1  1.00000000  0.95595359  0.08333333  1
  Pb  Pb214  1  1.00000000  0.95595359  0.41666667  1
  Pb  Pb215  1  1.00000000  0.95595359  0.75000000  1
  O  O216  1  0.08333333  0.12500000  0.00000000  1
  O  O217  1  0.08333333  0.12500000  0.33333333  1
  O  O218  1  0.08333333  0.12500000  0.66666667  1
  O  O219  1  0.08333333  0.62500000  0.00000000  1
  O  O220  1  0.08333333  0.62500000  0.33333333  1
  O  O221  1  0.08333333  0.62500000  0.66666667  1
  O  O222  1  0.41666667  0.12500000  0.00000000  1
  O  O223  1  0.41666667  0.12500000  0.33333333  1
  O  O224  1  0.41666667  0.12500000  0.66666667  1
  O  O225  1  0.41666667  0.62500000  0.00000000  1
  O  O226  1  0.41666667  0.62500000  0.33333333  1
  O  O227  1  0.41666667  0.62500000  0.66666667  1
  O  O228  1  0.75000000  0.12500000  0.00000000  1
  O  O229  1  0.75000000  0.12500000  0.33333333  1
  O  O230  1  0.75000000  0.12500000  0.66666667  1
  O  O231  1  0.75000000  0.62500000  0.00000000  1
  O  O232  1  0.75000000  0.62500000  0.33333333  1
  O  O233  1  0.75000000  0.62500000  0.66666667  1
  O  O234  1  0.25000000  0.37500000  0.00000000  1
  O  O235  1  0.25000000  0.37500000  0.33333333  1
  O  O236  1  0.25000000  0.37500000  0.66666667  1
  O  O237  1  0.25000000  0.87500000  0.00000000  1
  O  O238  1  0.25000000  0.87500000  0.33333333  1
  O  O239  1  0.25000000  0.87500000  0.66666667  1
  O  O240  1  0.58333333  0.37500000  0.00000000  1
  O  O241  1  0.58333333  0.37500000  0.33333333  1
  O  O242  1  0.58333333  0.37500000  0.66666667  1
  O  O243  1  0.58333333  0.87500000  0.00000000  1
  O  O244  1  0.58333333  0.87500000  0.33333333  1
  O  O245  1  0.58333333  0.87500000  0.66666667  1
  O  O246  1  0.91666667  0.37500000  0.00000000  1
  O  O247  1  0.91666667  0.37500000  0.33333333  1
  O  O248  1  0.91666667  0.37500000  0.66666667  1
  O  O249  1  0.91666667  0.87500000  0.00000000  1
  O  O250  1  0.91666667  0.87500000  0.33333333  1
  O  O251  1  0.91666667  0.87500000  0.66666667  1
  O  O252  1  0.08333333  -0.12500000  0.16666667  1
  O  O253  1  0.08333333  -0.12500000  0.50000000  1
  O  O254  1  0.08333333  -0.12500000  0.83333333  1
  O  O255  1  0.08333333  0.37500000  0.16666667  1
  O  O256  1  0.08333333  0.37500000  0.50000000  1
  O  O257  1  0.08333333  0.37500000  0.83333333  1
  O  O258  1  0.41666667  -0.12500000  0.16666667  1
  O  O259  1  0.41666667  -0.12500000  0.50000000  1
  O  O260  1  0.41666667  -0.12500000  0.83333333  1
  O  O261  1  0.41666667  0.37500000  0.16666667  1
  O  O262  1  0.41666667  0.37500000  0.50000000  1
  O  O263  1  0.41666667  0.37500000  0.83333333  1
  O  O264  1  0.75000000  -0.12500000  0.16666667  1
  O  O265  1  0.75000000  -0.12500000  0.50000000  1
  O  O266  1  0.75000000  -0.12500000  0.83333333  1
  O  O267  1  0.75000000  0.37500000  0.16666667  1
  O  O268  1  0.75000000  0.37500000  0.50000000  1
  O  O269  1  0.75000000  0.37500000  0.83333333  1
  O  O270  1  0.25000000  0.12500000  0.16666667  1
  O  O271  1  0.25000000  0.12500000  0.50000000  1
  O  O272  1  0.25000000  0.12500000  0.83333333  1
  O  O273  1  0.25000000  0.62500000  0.16666667  1
  O  O274  1  0.25000000  0.62500000  0.50000000  1
  O  O275  1  0.25000000  0.62500000  0.83333333  1
  O  O276  1  0.58333333  0.12500000  0.16666667  1
  O  O277  1  0.58333333  0.12500000  0.50000000  1
  O  O278  1  0.58333333  0.12500000  0.83333333  1
  O  O279  1  0.58333333  0.62500000  0.16666667  1
  O  O280  1  0.58333333  0.62500000  0.50000000  1
  O  O281  1  0.58333333  0.62500000  0.83333333  1
  O  O282  1  0.91666667  0.12500000  0.16666667  1
  O  O283  1  0.91666667  0.12500000  0.50000000  1
  O  O284  1  0.91666667  0.12500000  0.83333333  1
  O  O285  1  0.91666667  0.62500000  0.16666667  1
  O  O286  1  0.91666667  0.62500000  0.50000000  1
  O  O287  1  0.91666667  0.62500000  0.83333333  1
  O  O288  1  0.08179336  -0.04015628  0.00269024  1
  O  O289  1  0.08179336  -0.04015628  0.33602357  1
  O  O290  1  0.08179336  -0.04015628  0.66935690  1
  O  O291  1  0.08179336  0.45984372  0.00269024  1
  O  O292  1  0.08179336  0.45984372  0.33602357  1
  O  O293  1  0.08179336  0.45984372  0.66935690  1
  O  O294  1  0.41512669  -0.04015628  0.00269024  1
  O  O295  1  0.41512669  -0.04015628  0.33602357  1
  O  O296  1  0.41512669  -0.04015628  0.66935690  1
  O  O297  1  0.41512669  0.45984372  0.00269024  1
  O  O298  1  0.41512669  0.45984372  0.33602357  1
  O  O299  1  0.41512669  0.45984372  0.66935690  1
  O  O300  1  0.74846003  -0.04015628  0.00269024  1
  O  O301  1  0.74846003  -0.04015628  0.33602357  1
  O  O302  1  0.74846003  -0.04015628  0.66935690  1
  O  O303  1  0.74846003  0.45984372  0.00269024  1
  O  O304  1  0.74846003  0.45984372  0.33602357  1
  O  O305  1  0.74846003  0.45984372  0.66935690  1
  O  O306  1  0.24846003  0.20984372  0.00269024  1
  O  O307  1  0.24846003  0.20984372  0.33602357  1
  O  O308  1  0.24846003  0.20984372  0.66935690  1
  O  O309  1  0.24846003  0.70984372  0.00269024  1
  O  O310  1  0.24846003  0.70984372  0.33602357  1
  O  O311  1  0.24846003  0.70984372  0.66935690  1
  O  O312  1  0.58179336  0.20984372  0.00269024  1
  O  O313  1  0.58179336  0.20984372  0.33602357  1
  O  O314  1  0.58179336  0.20984372  0.66935690  1
  O  O315  1  0.58179336  0.70984372  0.00269024  1
  O  O316  1  0.58179336  0.70984372  0.33602357  1
  O  O317  1  0.58179336  0.70984372  0.66935690  1
  O  O318  1  0.91512669  0.20984372  0.00269024  1
  O  O319  1  0.91512669  0.20984372  0.33602357  1
  O  O320  1  0.91512669  0.20984372  0.66935690  1
  O  O321  1  0.91512669  0.70984372  0.00269024  1
  O  O322  1  0.91512669  0.70984372  0.33602357  1
  O  O323  1  0.91512669  0.70984372  0.66935690  1
  O  O324  1  0.25153997  -0.04015628  0.16397643  1
  O  O325  1  0.25153997  -0.04015628  0.49730976  1
  O  O326  1  0.25153997  -0.04015628  0.83064310  1
  O  O327  1  0.25153997  0.45984372  0.16397643  1
  O  O328  1  0.25153997  0.45984372  0.49730976  1
  O  O329  1  0.25153997  0.45984372  0.83064310  1
  O  O330  1  0.58487331  -0.04015628  0.16397643  1
  O  O331  1  0.58487331  -0.04015628  0.49730976  1
  O  O332  1  0.58487331  -0.04015628  0.83064310  1
  O  O333  1  0.58487331  0.45984372  0.16397643  1
  O  O334  1  0.58487331  0.45984372  0.49730976  1
  O  O335  1  0.58487331  0.45984372  0.83064310  1
  O  O336  1  0.91820664  -0.04015628  0.16397643  1
  O  O337  1  0.91820664  -0.04015628  0.49730976  1
  O  O338  1  0.91820664  -0.04015628  0.83064310  1
  O  O339  1  0.91820664  0.45984372  0.16397643  1
  O  O340  1  0.91820664  0.45984372  0.49730976  1
  O  O341  1  0.91820664  0.45984372  0.83064310  1
  O  O342  1  0.41820664  0.20984372  0.16397643  1
  O  O343  1  0.41820664  0.20984372  0.49730976  1
  O  O344  1  0.41820664  0.20984372  0.83064310  1
  O  O345  1  0.41820664  0.70984372  0.16397643  1
  O  O346  1  0.41820664  0.70984372  0.49730976  1
  O  O347  1  0.41820664  0.70984372  0.83064310  1
  O  O348  1  0.75153997  0.20984372  0.16397643  1
  O  O349  1  0.75153997  0.20984372  0.49730976  1
  O  O350  1  0.75153997  0.20984372  0.83064310  1
  O  O351  1  0.75153997  0.70984372  0.16397643  1
  O  O352  1  0.75153997  0.70984372  0.49730976  1
  O  O353  1  0.75153997  0.70984372  0.83064310  1
  O  O354  1  1.08487331  0.20984372  0.16397643  1
  O  O355  1  1.08487331  0.20984372  0.49730976  1
  O  O356  1  1.08487331  0.20984372  0.83064310  1
  O  O357  1  1.08487331  0.70984372  0.16397643  1
  O  O358  1  1.08487331  0.70984372  0.49730976  1
  O  O359  1  1.08487331  0.70984372  0.83064310  1
  O  O360  1  0.25153997  0.04015628  0.33064310  1
  O  O361  1  0.25153997  0.04015628  0.66397643  1
  O  O362  1  0.25153997  0.04015628  0.99730976  1
  O  O363  1  0.25153997  0.54015628  0.33064310  1
  O  O364  1  0.25153997  0.54015628  0.66397643  1
  O  O365  1  0.25153997  0.54015628  0.99730976  1
  O  O366  1  0.58487331  0.04015628  0.33064310  1
  O  O367  1  0.58487331  0.04015628  0.66397643  1
  O  O368  1  0.58487331  0.04015628  0.99730976  1
  O  O369  1  0.58487331  0.54015628  0.33064310  1
  O  O370  1  0.58487331  0.54015628  0.66397643  1
  O  O371  1  0.58487331  0.54015628  0.99730976  1
  O  O372  1  0.91820664  0.04015628  0.33064310  1
  O  O373  1  0.91820664  0.04015628  0.66397643  1
  O  O374  1  0.91820664  0.04015628  0.99730976  1
  O  O375  1  0.91820664  0.54015628  0.33064310  1
  O  O376  1  0.91820664  0.54015628  0.66397643  1
  O  O377  1  0.91820664  0.54015628  0.99730976  1
  O  O378  1  0.41820664  0.29015628  0.33064310  1
  O  O379  1  0.41820664  0.29015628  0.66397643  1
  O  O380  1  0.41820664  0.29015628  0.99730976  1
  O  O381  1  0.41820664  0.79015628  0.33064310  1
  O  O382  1  0.41820664  0.79015628  0.66397643  1
  O  O383  1  0.41820664  0.79015628  0.99730976  1
  O  O384  1  0.75153997  0.29015628  0.33064310  1
  O  O385  1  0.75153997  0.29015628  0.66397643  1
  O  O386  1  0.75153997  0.29015628  0.99730976  1
  O  O387  1  0.75153997  0.79015628  0.33064310  1
  O  O388  1  0.75153997  0.79015628  0.66397643  1
  O  O389  1  0.75153997  0.79015628  0.99730976  1
  O  O390  1  1.08487331  0.29015628  0.33064310  1
  O  O391  1  1.08487331  0.29015628  0.66397643  1
  O  O392  1  1.08487331  0.29015628  0.99730976  1
  O  O393  1  1.08487331  0.79015628  0.33064310  1
  O  O394  1  1.08487331  0.79015628  0.66397643  1
  O  O395  1  1.08487331  0.79015628  0.99730976  1
  O  O396  1  0.08179336  0.04015628  0.16935690  1
  O  O397  1  0.08179336  0.04015628  0.50269024  1
  O  O398  1  0.08179336  0.04015628  0.83602357  1
  O  O399  1  0.08179336  0.54015628  0.16935690  1
  O  O400  1  0.08179336  0.54015628  0.50269024  1
  O  O401  1  0.08179336  0.54015628  0.83602357  1
  O  O402  1  0.41512669  0.04015628  0.16935690  1
  O  O403  1  0.41512669  0.04015628  0.50269024  1
  O  O404  1  0.41512669  0.04015628  0.83602357  1
  O  O405  1  0.41512669  0.54015628  0.16935690  1
  O  O406  1  0.41512669  0.54015628  0.50269024  1
  O  O407  1  0.41512669  0.54015628  0.83602357  1
  O  O408  1  0.74846003  0.04015628  0.16935690  1
  O  O409  1  0.74846003  0.04015628  0.50269024  1
  O  O410  1  0.74846003  0.04015628  0.83602357  1
  O  O411  1  0.74846003  0.54015628  0.16935690  1
  O  O412  1  0.74846003  0.54015628  0.50269024  1
  O  O413  1  0.74846003  0.54015628  0.83602357  1
  O  O414  1  0.24846003  0.29015628  0.16935690  1
  O  O415  1  0.24846003  0.29015628  0.50269024  1
  O  O416  1  0.24846003  0.29015628  0.83602357  1
  O  O417  1  0.24846003  0.79015628  0.16935690  1
  O  O418  1  0.24846003  0.79015628  0.50269024  1
  O  O419  1  0.24846003  0.79015628  0.83602357  1
  O  O420  1  0.58179336  0.29015628  0.16935690  1
  O  O421  1  0.58179336  0.29015628  0.50269024  1
  O  O422  1  0.58179336  0.29015628  0.83602357  1
  O  O423  1  0.58179336  0.79015628  0.16935690  1
  O  O424  1  0.58179336  0.79015628  0.50269024  1
  O  O425  1  0.58179336  0.79015628  0.83602357  1
  O  O426  1  0.91512669  0.29015628  0.16935690  1
  O  O427  1  0.91512669  0.29015628  0.50269024  1
  O  O428  1  0.91512669  0.29015628  0.83602357  1
  O  O429  1  0.91512669  0.79015628  0.16935690  1
  O  O430  1  0.91512669  0.79015628  0.50269024  1
  O  O431  1  0.91512669  0.79015628  0.83602357  1
