# generated using pymatgen
data_K4TiO4
_symmetry_space_group_name_H-M   'P 1'
_cell_length_a   19.21284205
_cell_length_b   19.37786484
_cell_length_c   19.15184228
_cell_angle_alpha   72.23404086
_cell_angle_beta   79.96491771
_cell_angle_gamma   66.97844228
_symmetry_Int_Tables_number   1
_chemical_formula_structural   K4TiO4
_chemical_formula_sum   'K144 Ti36 O144'
_cell_volume   6237.19285459
_cell_formula_units_Z   36
loop_
 _symmetry_equiv_pos_site_id
 _symmetry_equiv_pos_as_xyz
  1  'x, y, z'
loop_
 _atom_site_type_symbol
 _atom_site_label
 _atom_site_symmetry_multiplicity
 _atom_site_fract_x
 _atom_site_fract_y
 _atom_site_fract_z
 _atom_site_occupancy
  K  K0  1  0.09210147  0.01297108  0.19066538  1
  K  K1  1  0.09210147  0.01297108  0.69066538  1
  K  K2  1  0.09210147  0.34630441  0.19066538  1
  K  K3  1  0.09210147  0.34630441  0.69066538  1
  K  K4  1  0.09210147  0.67963775  0.19066538  1
  K  K5  1  0.09210147  0.67963775  0.69066538  1
  K  K6  1  0.42543481  0.01297108  0.19066538  1
  K  K7  1  0.42543481  0.01297108  0.69066538  1
  K  K8  1  0.42543481  0.34630441  0.19066538  1
  K  K9  1  0.42543481  0.34630441  0.69066538  1
  K  K10  1  0.42543481  0.67963775  0.19066538  1
  K  K11  1  0.42543481  0.67963775  0.69066538  1
  K  K12  1  0.75876814  0.01297108  0.19066538  1
  K  K13  1  0.75876814  0.01297108  0.69066538  1
  K  K14  1  0.75876814  0.34630441  0.19066538  1
  K  K15  1  0.75876814  0.34630441  0.69066538  1
  K  K16  1  0.75876814  0.67963775  0.19066538  1
  K  K17  1  0.75876814  0.67963775  0.69066538  1
  K  K18  1  0.08472129  0.19391230  0.08078772  1
  K  K19  1  0.08472129  0.19391230  0.58078772  1
  K  K20  1  0.08472129  0.52724563  0.08078772  1
  K  K21  1  0.08472129  0.52724563  0.58078772  1
  K  K22  1  0.08472129  0.86057896  0.08078772  1
  K  K23  1  0.08472129  0.86057896  0.58078772  1
  K  K24  1  0.41805462  0.19391230  0.08078772  1
  K  K25  1  0.41805462  0.19391230  0.58078772  1
  K  K26  1  0.41805462  0.52724563  0.08078772  1
  K  K27  1  0.41805462  0.52724563  0.58078772  1
  K  K28  1  0.41805462  0.86057896  0.08078772  1
  K  K29  1  0.41805462  0.86057896  0.58078772  1
  K  K30  1  0.75138795  0.19391230  0.08078772  1
  K  K31  1  0.75138795  0.19391230  0.58078772  1
  K  K32  1  0.75138795  0.52724563  0.08078772  1
  K  K33  1  0.75138795  0.52724563  0.58078772  1
  K  K34  1  0.75138795  0.86057896  0.08078772  1
  K  K35  1  0.75138795  0.86057896  0.58078772  1
  K  K36  1  0.07460206  0.16266527  0.28131827  1
  K  K37  1  0.07460206  0.16266527  0.78131827  1
  K  K38  1  0.07460206  0.49599860  0.28131827  1
  K  K39  1  0.07460206  0.49599860  0.78131827  1
  K  K40  1  0.07460206  0.82933193  0.28131827  1
  K  K41  1  0.07460206  0.82933193  0.78131827  1
  K  K42  1  0.40793539  0.16266527  0.28131827  1
  K  K43  1  0.40793539  0.16266527  0.78131827  1
  K  K44  1  0.40793539  0.49599860  0.28131827  1
  K  K45  1  0.40793539  0.49599860  0.78131827  1
  K  K46  1  0.40793539  0.82933193  0.28131827  1
  K  K47  1  0.40793539  0.82933193  0.78131827  1
  K  K48  1  0.74126873  0.16266527  0.28131827  1
  K  K49  1  0.74126873  0.16266527  0.78131827  1
  K  K50  1  0.74126873  0.49599860  0.28131827  1
  K  K51  1  0.74126873  0.49599860  0.78131827  1
  K  K52  1  0.74126873  0.82933193  0.28131827  1
  K  K53  1  0.74126873  0.82933193  0.78131827  1
  K  K54  1  0.08332209  0.07684943  0.48543070  1
  K  K55  1  0.08332209  0.07684943  0.98543070  1
  K  K56  1  0.08332209  0.41018277  0.48543070  1
  K  K57  1  0.08332209  0.41018277  0.98543070  1
  K  K58  1  0.08332209  0.74351610  0.48543070  1
  K  K59  1  0.08332209  0.74351610  0.98543070  1
  K  K60  1  0.41665542  0.07684943  0.48543070  1
  K  K61  1  0.41665542  0.07684943  0.98543070  1
  K  K62  1  0.41665542  0.41018277  0.48543070  1
  K  K63  1  0.41665542  0.41018277  0.98543070  1
  K  K64  1  0.41665542  0.74351610  0.48543070  1
  K  K65  1  0.41665542  0.74351610  0.98543070  1
  K  K66  1  0.74998875  0.07684943  0.48543070  1
  K  K67  1  0.74998875  0.07684943  0.98543070  1
  K  K68  1  0.74998875  0.41018277  0.48543070  1
  K  K69  1  0.74998875  0.41018277  0.98543070  1
  K  K70  1  0.74998875  0.74351610  0.48543070  1
  K  K71  1  0.74998875  0.74351610  0.98543070  1
  K  K72  1  0.25001125  0.25648390  0.01456930  1
  K  K73  1  0.25001125  0.25648390  0.51456930  1
  K  K74  1  0.25001125  0.58981723  0.01456930  1
  K  K75  1  0.25001125  0.58981723  0.51456930  1
  K  K76  1  0.25001125  0.92315057  0.01456930  1
  K  K77  1  0.25001125  0.92315057  0.51456930  1
  K  K78  1  0.58334458  0.25648390  0.01456930  1
  K  K79  1  0.58334458  0.25648390  0.51456930  1
  K  K80  1  0.58334458  0.58981723  0.01456930  1
  K  K81  1  0.58334458  0.58981723  0.51456930  1
  K  K82  1  0.58334458  0.92315057  0.01456930  1
  K  K83  1  0.58334458  0.92315057  0.51456930  1
  K  K84  1  0.91667791  0.25648390  0.01456930  1
  K  K85  1  0.91667791  0.25648390  0.51456930  1
  K  K86  1  0.91667791  0.58981723  0.01456930  1
  K  K87  1  0.91667791  0.58981723  0.51456930  1
  K  K88  1  0.91667791  0.92315057  0.01456930  1
  K  K89  1  0.91667791  0.92315057  0.51456930  1
  K  K90  1  0.25873127  0.17066807  0.21868173  1
  K  K91  1  0.25873127  0.17066807  0.71868173  1
  K  K92  1  0.25873127  0.50400140  0.21868173  1
  K  K93  1  0.25873127  0.50400140  0.71868173  1
  K  K94  1  0.25873127  0.83733473  0.21868173  1
  K  K95  1  0.25873127  0.83733473  0.71868173  1
  K  K96  1  0.59206461  0.17066807  0.21868173  1
  K  K97  1  0.59206461  0.17066807  0.71868173  1
  K  K98  1  0.59206461  0.50400140  0.21868173  1
  K  K99  1  0.59206461  0.50400140  0.71868173  1
  K  K100  1  0.59206461  0.83733473  0.21868173  1
  K  K101  1  0.59206461  0.83733473  0.71868173  1
  K  K102  1  0.92539794  0.17066807  0.21868173  1
  K  K103  1  0.92539794  0.17066807  0.71868173  1
  K  K104  1  0.92539794  0.50400140  0.21868173  1
  K  K105  1  0.92539794  0.50400140  0.71868173  1
  K  K106  1  0.92539794  0.83733473  0.21868173  1
  K  K107  1  0.92539794  0.83733473  0.71868173  1
  K  K108  1  0.24861205  0.13942104  0.41921228  1
  K  K109  1  0.24861205  0.13942104  0.91921228  1
  K  K110  1  0.24861205  0.47275437  0.41921228  1
  K  K111  1  0.24861205  0.47275437  0.91921228  1
  K  K112  1  0.24861205  0.80608770  0.41921228  1
  K  K113  1  0.24861205  0.80608770  0.91921228  1
  K  K114  1  0.58194538  0.13942104  0.41921228  1
  K  K115  1  0.58194538  0.13942104  0.91921228  1
  K  K116  1  0.58194538  0.47275437  0.41921228  1
  K  K117  1  0.58194538  0.47275437  0.91921228  1
  K  K118  1  0.58194538  0.80608770  0.41921228  1
  K  K119  1  0.58194538  0.80608770  0.91921228  1
  K  K120  1  0.91527871  0.13942104  0.41921228  1
  K  K121  1  0.91527871  0.13942104  0.91921228  1
  K  K122  1  0.91527871  0.47275437  0.41921228  1
  K  K123  1  0.91527871  0.47275437  0.91921228  1
  K  K124  1  0.91527871  0.80608770  0.41921228  1
  K  K125  1  0.91527871  0.80608770  0.91921228  1
  K  K126  1  0.24123186  0.32036225  0.30933462  1
  K  K127  1  0.24123186  0.32036225  0.80933462  1
  K  K128  1  0.24123186  0.65369559  0.30933462  1
  K  K129  1  0.24123186  0.65369559  0.80933462  1
  K  K130  1  0.24123186  0.98702892  0.30933462  1
  K  K131  1  0.24123186  0.98702892  0.80933462  1
  K  K132  1  0.57456519  0.32036225  0.30933462  1
  K  K133  1  0.57456519  0.32036225  0.80933462  1
  K  K134  1  0.57456519  0.65369559  0.30933462  1
  K  K135  1  0.57456519  0.65369559  0.80933462  1
  K  K136  1  0.57456519  0.98702892  0.30933462  1
  K  K137  1  0.57456519  0.98702892  0.80933462  1
  K  K138  1  0.90789853  0.32036225  0.30933462  1
  K  K139  1  0.90789853  0.32036225  0.80933462  1
  K  K140  1  0.90789853  0.65369559  0.30933462  1
  K  K141  1  0.90789853  0.65369559  0.80933462  1
  K  K142  1  0.90789853  0.98702892  0.30933462  1
  K  K143  1  0.90789853  0.98702892  0.80933462  1
  Ti  Ti144  1  0.07611078  0.28108891  0.37617148  1
  Ti  Ti145  1  0.07611078  0.28108891  0.87617148  1
  Ti  Ti146  1  0.07611078  0.61442225  0.37617148  1
  Ti  Ti147  1  0.07611078  0.61442225  0.87617148  1
  Ti  Ti148  1  0.07611078  0.94775558  0.37617148  1
  Ti  Ti149  1  0.07611078  0.94775558  0.87617148  1
  Ti  Ti150  1  0.40944411  0.28108891  0.37617148  1
  Ti  Ti151  1  0.40944411  0.28108891  0.87617148  1
  Ti  Ti152  1  0.40944411  0.61442225  0.37617148  1
  Ti  Ti153  1  0.40944411  0.61442225  0.87617148  1
  Ti  Ti154  1  0.40944411  0.94775558  0.37617148  1
  Ti  Ti155  1  0.40944411  0.94775558  0.87617148  1
  Ti  Ti156  1  0.74277745  0.28108891  0.37617148  1
  Ti  Ti157  1  0.74277745  0.28108891  0.87617148  1
  Ti  Ti158  1  0.74277745  0.61442225  0.37617148  1
  Ti  Ti159  1  0.74277745  0.61442225  0.87617148  1
  Ti  Ti160  1  0.74277745  0.94775558  0.37617148  1
  Ti  Ti161  1  0.74277745  0.94775558  0.87617148  1
  Ti  Ti162  1  0.25722255  0.05224442  0.12382852  1
  Ti  Ti163  1  0.25722255  0.05224442  0.62382852  1
  Ti  Ti164  1  0.25722255  0.38557775  0.12382852  1
  Ti  Ti165  1  0.25722255  0.38557775  0.62382852  1
  Ti  Ti166  1  0.25722255  0.71891109  0.12382852  1
  Ti  Ti167  1  0.25722255  0.71891109  0.62382852  1
  Ti  Ti168  1  0.59055589  0.05224442  0.12382852  1
  Ti  Ti169  1  0.59055589  0.05224442  0.62382852  1
  Ti  Ti170  1  0.59055589  0.38557775  0.12382852  1
  Ti  Ti171  1  0.59055589  0.38557775  0.62382852  1
  Ti  Ti172  1  0.59055589  0.71891109  0.12382852  1
  Ti  Ti173  1  0.59055589  0.71891109  0.62382852  1
  Ti  Ti174  1  0.92388922  0.05224442  0.12382852  1
  Ti  Ti175  1  0.92388922  0.05224442  0.62382852  1
  Ti  Ti176  1  0.92388922  0.38557775  0.12382852  1
  Ti  Ti177  1  0.92388922  0.38557775  0.62382852  1
  Ti  Ti178  1  0.92388922  0.71891109  0.12382852  1
  Ti  Ti179  1  0.92388922  0.71891109  0.62382852  1
  O  O180  1  0.01717480  0.04780524  0.32776511  1
  O  O181  1  0.01717480  0.04780524  0.82776511  1
  O  O182  1  0.01717480  0.38113857  0.32776511  1
  O  O183  1  0.01717480  0.38113857  0.82776511  1
  O  O184  1  0.01717480  0.71447191  0.32776511  1
  O  O185  1  0.01717480  0.71447191  0.82776511  1
  O  O186  1  0.35050814  0.04780524  0.32776511  1
  O  O187  1  0.35050814  0.04780524  0.82776511  1
  O  O188  1  0.35050814  0.38113857  0.32776511  1
  O  O189  1  0.35050814  0.38113857  0.82776511  1
  O  O190  1  0.35050814  0.71447191  0.32776511  1
  O  O191  1  0.35050814  0.71447191  0.82776511  1
  O  O192  1  0.68384147  0.04780524  0.32776511  1
  O  O193  1  0.68384147  0.04780524  0.82776511  1
  O  O194  1  0.68384147  0.38113857  0.32776511  1
  O  O195  1  0.68384147  0.38113857  0.82776511  1
  O  O196  1  0.68384147  0.71447191  0.32776511  1
  O  O197  1  0.68384147  0.71447191  0.82776511  1
  O  O198  1  0.01600843  0.22087091  0.40428699  1
  O  O199  1  0.01600843  0.22087091  0.90428699  1
  O  O200  1  0.01600843  0.55420424  0.40428699  1
  O  O201  1  0.01600843  0.55420424  0.90428699  1
  O  O202  1  0.01600843  0.88753758  0.40428699  1
  O  O203  1  0.01600843  0.88753758  0.90428699  1
  O  O204  1  0.34934177  0.22087091  0.40428699  1
  O  O205  1  0.34934177  0.22087091  0.90428699  1
  O  O206  1  0.34934177  0.55420424  0.40428699  1
  O  O207  1  0.34934177  0.55420424  0.90428699  1
  O  O208  1  0.34934177  0.88753758  0.40428699  1
  O  O209  1  0.34934177  0.88753758  0.90428699  1
  O  O210  1  0.68267510  0.22087091  0.40428699  1
  O  O211  1  0.68267510  0.22087091  0.90428699  1
  O  O212  1  0.68267510  0.55420424  0.40428699  1
  O  O213  1  0.68267510  0.55420424  0.90428699  1
  O  O214  1  0.68267510  0.88753758  0.40428699  1
  O  O215  1  0.68267510  0.88753758  0.90428699  1
  O  O216  1  0.20803030  0.05607174  0.04725234  1
  O  O217  1  0.20803030  0.05607174  0.54725234  1
  O  O218  1  0.20803030  0.38940507  0.04725234  1
  O  O219  1  0.20803030  0.38940507  0.54725234  1
  O  O220  1  0.20803030  0.72273840  0.04725234  1
  O  O221  1  0.20803030  0.72273840  0.54725234  1
  O  O222  1  0.54136363  0.05607174  0.04725234  1
  O  O223  1  0.54136363  0.05607174  0.54725234  1
  O  O224  1  0.54136363  0.38940507  0.04725234  1
  O  O225  1  0.54136363  0.38940507  0.54725234  1
  O  O226  1  0.54136363  0.72273840  0.04725234  1
  O  O227  1  0.54136363  0.72273840  0.54725234  1
  O  O228  1  0.87469697  0.05607174  0.04725234  1
  O  O229  1  0.87469697  0.05607174  0.54725234  1
  O  O230  1  0.87469697  0.38940507  0.04725234  1
  O  O231  1  0.87469697  0.38940507  0.54725234  1
  O  O232  1  0.87469697  0.72273840  0.04725234  1
  O  O233  1  0.87469697  0.72273840  0.54725234  1
  O  O234  1  0.18165123  0.09621716  0.18856083  1
  O  O235  1  0.18165123  0.09621716  0.68856083  1
  O  O236  1  0.18165123  0.42955049  0.18856083  1
  O  O237  1  0.18165123  0.42955049  0.68856083  1
  O  O238  1  0.18165123  0.76288383  0.18856083  1
  O  O239  1  0.18165123  0.76288383  0.68856083  1
  O  O240  1  0.51498456  0.09621716  0.18856083  1
  O  O241  1  0.51498456  0.09621716  0.68856083  1
  O  O242  1  0.51498456  0.42955049  0.18856083  1
  O  O243  1  0.51498456  0.42955049  0.68856083  1
  O  O244  1  0.51498456  0.76288383  0.18856083  1
  O  O245  1  0.51498456  0.76288383  0.68856083  1
  O  O246  1  0.84831790  0.09621716  0.18856083  1
  O  O247  1  0.84831790  0.09621716  0.68856083  1
  O  O248  1  0.84831790  0.42955049  0.18856083  1
  O  O249  1  0.84831790  0.42955049  0.68856083  1
  O  O250  1  0.84831790  0.76288383  0.18856083  1
  O  O251  1  0.84831790  0.76288383  0.68856083  1
  O  O252  1  0.15168210  0.23711617  0.31143917  1
  O  O253  1  0.15168210  0.23711617  0.81143917  1
  O  O254  1  0.15168210  0.57044951  0.31143917  1
  O  O255  1  0.15168210  0.57044951  0.81143917  1
  O  O256  1  0.15168210  0.90378284  0.31143917  1
  O  O257  1  0.15168210  0.90378284  0.81143917  1
  O  O258  1  0.48501544  0.23711617  0.31143917  1
  O  O259  1  0.48501544  0.23711617  0.81143917  1
  O  O260  1  0.48501544  0.57044951  0.31143917  1
  O  O261  1  0.48501544  0.57044951  0.81143917  1
  O  O262  1  0.48501544  0.90378284  0.31143917  1
  O  O263  1  0.48501544  0.90378284  0.81143917  1
  O  O264  1  0.81834877  0.23711617  0.31143917  1
  O  O265  1  0.81834877  0.23711617  0.81143917  1
  O  O266  1  0.81834877  0.57044951  0.31143917  1
  O  O267  1  0.81834877  0.57044951  0.81143917  1
  O  O268  1  0.81834877  0.90378284  0.31143917  1
  O  O269  1  0.81834877  0.90378284  0.81143917  1
  O  O270  1  0.12530303  0.27726160  0.45274766  1
  O  O271  1  0.12530303  0.27726160  0.95274766  1
  O  O272  1  0.12530303  0.61059493  0.45274766  1
  O  O273  1  0.12530303  0.61059493  0.95274766  1
  O  O274  1  0.12530303  0.94392826  0.45274766  1
  O  O275  1  0.12530303  0.94392826  0.95274766  1
  O  O276  1  0.45863637  0.27726160  0.45274766  1
  O  O277  1  0.45863637  0.27726160  0.95274766  1
  O  O278  1  0.45863637  0.61059493  0.45274766  1
  O  O279  1  0.45863637  0.61059493  0.95274766  1
  O  O280  1  0.45863637  0.94392826  0.45274766  1
  O  O281  1  0.45863637  0.94392826  0.95274766  1
  O  O282  1  0.79196970  0.27726160  0.45274766  1
  O  O283  1  0.79196970  0.27726160  0.95274766  1
  O  O284  1  0.79196970  0.61059493  0.45274766  1
  O  O285  1  0.79196970  0.61059493  0.95274766  1
  O  O286  1  0.79196970  0.94392826  0.45274766  1
  O  O287  1  0.79196970  0.94392826  0.95274766  1
  O  O288  1  0.31732490  0.11246242  0.09571301  1
  O  O289  1  0.31732490  0.11246242  0.59571301  1
  O  O290  1  0.31732490  0.44579576  0.09571301  1
  O  O291  1  0.31732490  0.44579576  0.59571301  1
  O  O292  1  0.31732490  0.77912909  0.09571301  1
  O  O293  1  0.31732490  0.77912909  0.59571301  1
  O  O294  1  0.65065823  0.11246242  0.09571301  1
  O  O295  1  0.65065823  0.11246242  0.59571301  1
  O  O296  1  0.65065823  0.44579576  0.09571301  1
  O  O297  1  0.65065823  0.44579576  0.59571301  1
  O  O298  1  0.65065823  0.77912909  0.09571301  1
  O  O299  1  0.65065823  0.77912909  0.59571301  1
  O  O300  1  0.98399157  0.11246242  0.09571301  1
  O  O301  1  0.98399157  0.11246242  0.59571301  1
  O  O302  1  0.98399157  0.44579576  0.09571301  1
  O  O303  1  0.98399157  0.44579576  0.59571301  1
  O  O304  1  0.98399157  0.77912909  0.09571301  1
  O  O305  1  0.98399157  0.77912909  0.59571301  1
  O  O306  1  0.31615853  0.28552809  0.17223489  1
  O  O307  1  0.31615853  0.28552809  0.67223489  1
  O  O308  1  0.31615853  0.61886143  0.17223489  1
  O  O309  1  0.31615853  0.61886143  0.67223489  1
  O  O310  1  0.31615853  0.95219476  0.17223489  1
  O  O311  1  0.31615853  0.95219476  0.67223489  1
  O  O312  1  0.64949186  0.28552809  0.17223489  1
  O  O313  1  0.64949186  0.28552809  0.67223489  1
  O  O314  1  0.64949186  0.61886143  0.17223489  1
  O  O315  1  0.64949186  0.61886143  0.67223489  1
  O  O316  1  0.64949186  0.95219476  0.17223489  1
  O  O317  1  0.64949186  0.95219476  0.67223489  1
  O  O318  1  0.98282520  0.28552809  0.17223489  1
  O  O319  1  0.98282520  0.28552809  0.67223489  1
  O  O320  1  0.98282520  0.61886143  0.17223489  1
  O  O321  1  0.98282520  0.61886143  0.67223489  1
  O  O322  1  0.98282520  0.95219476  0.17223489  1
  O  O323  1  0.98282520  0.95219476  0.67223489  1
