# generated using pymatgen
data_CaAl2(SiO4)2
_symmetry_space_group_name_H-M   'P 1'
_cell_length_a   15.34368765
_cell_length_b   15.34368765
_cell_length_c   14.72927788
_cell_angle_alpha   90.00000000
_cell_angle_beta   90.00000000
_cell_angle_gamma   120.00000000
_symmetry_Int_Tables_number   1
_chemical_formula_structural   CaAl2(SiO4)2
_chemical_formula_sum   'Ca18 Al36 Si36 O144'
_cell_volume   3003.11238557
_cell_formula_units_Z   18
loop_
 _symmetry_equiv_pos_site_id
 _symmetry_equiv_pos_as_xyz
  1  'x, y, z'
loop_
 _atom_site_type_symbol
 _atom_site_label
 _atom_site_symmetry_multiplicity
 _atom_site_fract_x
 _atom_site_fract_y
 _atom_site_fract_z
 _atom_site_occupancy
  Ca  Ca0  1  0.00000000  0.00000000  0.50000000  1
  Ca  Ca1  1  0.00000000  0.33333333  0.50000000  1
  Ca  Ca2  1  0.00000000  0.66666667  0.50000000  1
  Ca  Ca3  1  0.33333333  0.00000000  0.50000000  1
  Ca  Ca4  1  0.33333333  0.33333333  0.50000000  1
  Ca  Ca5  1  0.33333333  0.66666667  0.50000000  1
  Ca  Ca6  1  0.66666667  0.00000000  0.50000000  1
  Ca  Ca7  1  0.66666667  0.33333333  0.50000000  1
  Ca  Ca8  1  0.66666667  0.66666667  0.50000000  1
  Ca  Ca9  1  0.00000000  0.00000000  0.00000000  1
  Ca  Ca10  1  0.00000000  0.33333333  0.00000000  1
  Ca  Ca11  1  0.00000000  0.66666667  0.00000000  1
  Ca  Ca12  1  0.33333333  0.00000000  0.00000000  1
  Ca  Ca13  1  0.33333333  0.33333333  0.00000000  1
  Ca  Ca14  1  0.33333333  0.66666667  0.00000000  1
  Ca  Ca15  1  0.66666667  0.00000000  0.00000000  1
  Ca  Ca16  1  0.66666667  0.33333333  0.00000000  1
  Ca  Ca17  1  0.66666667  0.66666667  0.00000000  1
  Al  Al18  1  0.11111111  0.22222222  0.35952486  1
  Al  Al19  1  0.11111111  0.55555556  0.35952486  1
  Al  Al20  1  0.11111111  0.88888889  0.35952486  1
  Al  Al21  1  0.44444444  0.22222222  0.35952486  1
  Al  Al22  1  0.44444444  0.55555556  0.35952486  1
  Al  Al23  1  0.44444444  0.88888889  0.35952486  1
  Al  Al24  1  0.77777778  0.22222222  0.35952486  1
  Al  Al25  1  0.77777778  0.55555556  0.35952486  1
  Al  Al26  1  0.77777778  0.88888889  0.35952486  1
  Al  Al27  1  0.22222222  0.11111111  0.64047514  1
  Al  Al28  1  0.22222222  0.44444444  0.64047514  1
  Al  Al29  1  0.22222222  0.77777778  0.64047514  1
  Al  Al30  1  0.55555556  0.11111111  0.64047514  1
  Al  Al31  1  0.55555556  0.44444444  0.64047514  1
  Al  Al32  1  0.55555556  0.77777778  0.64047514  1
  Al  Al33  1  0.88888889  0.11111111  0.64047514  1
  Al  Al34  1  0.88888889  0.44444444  0.64047514  1
  Al  Al35  1  0.88888889  0.77777778  0.64047514  1
  Al  Al36  1  0.11111111  0.22222222  0.85952486  1
  Al  Al37  1  0.11111111  0.55555556  0.85952486  1
  Al  Al38  1  0.11111111  0.88888889  0.85952486  1
  Al  Al39  1  0.44444444  0.22222222  0.85952486  1
  Al  Al40  1  0.44444444  0.55555556  0.85952486  1
  Al  Al41  1  0.44444444  0.88888889  0.85952486  1
  Al  Al42  1  0.77777778  0.22222222  0.85952486  1
  Al  Al43  1  0.77777778  0.55555556  0.85952486  1
  Al  Al44  1  0.77777778  0.88888889  0.85952486  1
  Al  Al45  1  0.22222222  0.11111111  0.14047514  1
  Al  Al46  1  0.22222222  0.44444444  0.14047514  1
  Al  Al47  1  0.22222222  0.77777778  0.14047514  1
  Al  Al48  1  0.55555556  0.11111111  0.14047514  1
  Al  Al49  1  0.55555556  0.44444444  0.14047514  1
  Al  Al50  1  0.55555556  0.77777778  0.14047514  1
  Al  Al51  1  0.88888889  0.11111111  0.14047514  1
  Al  Al52  1  0.88888889  0.44444444  0.14047514  1
  Al  Al53  1  0.88888889  0.77777778  0.14047514  1
  Si  Si54  1  0.22222222  0.11111111  0.36458182  1
  Si  Si55  1  0.22222222  0.44444444  0.36458182  1
  Si  Si56  1  0.22222222  0.77777778  0.36458182  1
  Si  Si57  1  0.55555556  0.11111111  0.36458182  1
  Si  Si58  1  0.55555556  0.44444444  0.36458182  1
  Si  Si59  1  0.55555556  0.77777778  0.36458182  1
  Si  Si60  1  0.88888889  0.11111111  0.36458182  1
  Si  Si61  1  0.88888889  0.44444444  0.36458182  1
  Si  Si62  1  0.88888889  0.77777778  0.36458182  1
  Si  Si63  1  0.11111111  0.22222222  0.63541818  1
  Si  Si64  1  0.11111111  0.55555556  0.63541818  1
  Si  Si65  1  0.11111111  0.88888889  0.63541818  1
  Si  Si66  1  0.44444444  0.22222222  0.63541818  1
  Si  Si67  1  0.44444444  0.55555556  0.63541818  1
  Si  Si68  1  0.44444444  0.88888889  0.63541818  1
  Si  Si69  1  0.77777778  0.22222222  0.63541818  1
  Si  Si70  1  0.77777778  0.55555556  0.63541818  1
  Si  Si71  1  0.77777778  0.88888889  0.63541818  1
  Si  Si72  1  0.22222222  0.11111111  0.86458182  1
  Si  Si73  1  0.22222222  0.44444444  0.86458182  1
  Si  Si74  1  0.22222222  0.77777778  0.86458182  1
  Si  Si75  1  0.55555556  0.11111111  0.86458182  1
  Si  Si76  1  0.55555556  0.44444444  0.86458182  1
  Si  Si77  1  0.55555556  0.77777778  0.86458182  1
  Si  Si78  1  0.88888889  0.11111111  0.86458182  1
  Si  Si79  1  0.88888889  0.44444444  0.86458182  1
  Si  Si80  1  0.88888889  0.77777778  0.86458182  1
  Si  Si81  1  0.11111111  0.22222222  0.13541818  1
  Si  Si82  1  0.11111111  0.55555556  0.13541818  1
  Si  Si83  1  0.11111111  0.88888889  0.13541818  1
  Si  Si84  1  0.44444444  0.22222222  0.13541818  1
  Si  Si85  1  0.44444444  0.55555556  0.13541818  1
  Si  Si86  1  0.44444444  0.88888889  0.13541818  1
  Si  Si87  1  0.77777778  0.22222222  0.13541818  1
  Si  Si88  1  0.77777778  0.55555556  0.13541818  1
  Si  Si89  1  0.77777778  0.88888889  0.13541818  1
  O  O90  1  0.32896118  0.20418304  0.40427335  1
  O  O91  1  0.32896118  0.53751638  0.40427335  1
  O  O92  1  0.32896118  0.87084971  0.40427335  1
  O  O93  1  0.66229451  0.20418304  0.40427335  1
  O  O94  1  0.66229451  0.53751638  0.40427335  1
  O  O95  1  0.66229451  0.87084971  0.40427335  1
  O  O96  1  0.99562785  0.20418304  0.40427335  1
  O  O97  1  0.99562785  0.53751638  0.40427335  1
  O  O98  1  0.99562785  0.87084971  0.40427335  1
  O  O99  1  0.12915029  0.12477814  0.40427335  1
  O  O100  1  0.12915029  0.45811147  0.40427335  1
  O  O101  1  0.12915029  0.79144481  0.40427335  1
  O  O102  1  0.46248362  0.12477814  0.40427335  1
  O  O103  1  0.46248362  0.45811147  0.40427335  1
  O  O104  1  0.46248362  0.79144481  0.40427335  1
  O  O105  1  0.79581696  0.12477814  0.40427335  1
  O  O106  1  0.79581696  0.45811147  0.40427335  1
  O  O107  1  0.79581696  0.79144481  0.40427335  1
  O  O108  1  0.20855519  0.00437215  0.40427335  1
  O  O109  1  0.20855519  0.33770549  0.40427335  1
  O  O110  1  0.20855519  0.67103882  0.40427335  1
  O  O111  1  0.54188853  0.00437215  0.40427335  1
  O  O112  1  0.54188853  0.33770549  0.40427335  1
  O  O113  1  0.54188853  0.67103882  0.40427335  1
  O  O114  1  0.87522186  0.00437215  0.40427335  1
  O  O115  1  0.87522186  0.33770549  0.40427335  1
  O  O116  1  0.87522186  0.67103882  0.40427335  1
  O  O117  1  0.00437215  0.12915029  0.59572665  1
  O  O118  1  0.00437215  0.46248362  0.59572665  1
  O  O119  1  0.00437215  0.79581696  0.59572665  1
  O  O120  1  0.33770549  0.12915029  0.59572665  1
  O  O121  1  0.33770549  0.46248362  0.59572665  1
  O  O122  1  0.33770549  0.79581696  0.59572665  1
  O  O123  1  0.67103882  0.12915029  0.59572665  1
  O  O124  1  0.67103882  0.46248362  0.59572665  1
  O  O125  1  0.67103882  0.79581696  0.59572665  1
  O  O126  1  0.20418304  0.20855519  0.59572665  1
  O  O127  1  0.20418304  0.54188853  0.59572665  1
  O  O128  1  0.20418304  0.87522186  0.59572665  1
  O  O129  1  0.53751638  0.20855519  0.59572665  1
  O  O130  1  0.53751638  0.54188853  0.59572665  1
  O  O131  1  0.53751638  0.87522186  0.59572665  1
  O  O132  1  0.87084971  0.20855519  0.59572665  1
  O  O133  1  0.87084971  0.54188853  0.59572665  1
  O  O134  1  0.87084971  0.87522186  0.59572665  1
  O  O135  1  0.12477814  0.32896118  0.59572665  1
  O  O136  1  0.12477814  0.66229451  0.59572665  1
  O  O137  1  0.12477814  0.99562785  0.59572665  1
  O  O138  1  0.45811147  0.32896118  0.59572665  1
  O  O139  1  0.45811147  0.66229451  0.59572665  1
  O  O140  1  0.45811147  0.99562785  0.59572665  1
  O  O141  1  0.79144481  0.32896118  0.59572665  1
  O  O142  1  0.79144481  0.66229451  0.59572665  1
  O  O143  1  0.79144481  0.99562785  0.59572665  1
  O  O144  1  0.32896118  0.12477814  0.90427335  1
  O  O145  1  0.32896118  0.45811147  0.90427335  1
  O  O146  1  0.32896118  0.79144481  0.90427335  1
  O  O147  1  0.66229451  0.12477814  0.90427335  1
  O  O148  1  0.66229451  0.45811147  0.90427335  1
  O  O149  1  0.66229451  0.79144481  0.90427335  1
  O  O150  1  0.99562785  0.12477814  0.90427335  1
  O  O151  1  0.99562785  0.45811147  0.90427335  1
  O  O152  1  0.99562785  0.79144481  0.90427335  1
  O  O153  1  0.20855519  0.20418304  0.90427335  1
  O  O154  1  0.20855519  0.53751638  0.90427335  1
  O  O155  1  0.20855519  0.87084971  0.90427335  1
  O  O156  1  0.54188853  0.20418304  0.90427335  1
  O  O157  1  0.54188853  0.53751638  0.90427335  1
  O  O158  1  0.54188853  0.87084971  0.90427335  1
  O  O159  1  0.87522186  0.20418304  0.90427335  1
  O  O160  1  0.87522186  0.53751638  0.90427335  1
  O  O161  1  0.87522186  0.87084971  0.90427335  1
  O  O162  1  0.12915029  0.00437215  0.90427335  1
  O  O163  1  0.12915029  0.33770549  0.90427335  1
  O  O164  1  0.12915029  0.67103882  0.90427335  1
  O  O165  1  0.46248362  0.00437215  0.90427335  1
  O  O166  1  0.46248362  0.33770549  0.90427335  1
  O  O167  1  0.46248362  0.67103882  0.90427335  1
  O  O168  1  0.79581696  0.00437215  0.90427335  1
  O  O169  1  0.79581696  0.33770549  0.90427335  1
  O  O170  1  0.79581696  0.67103882  0.90427335  1
  O  O171  1  0.00437215  0.20855519  0.09572665  1
  O  O172  1  0.00437215  0.54188853  0.09572665  1
  O  O173  1  0.00437215  0.87522186  0.09572665  1
  O  O174  1  0.33770549  0.20855519  0.09572665  1
  O  O175  1  0.33770549  0.54188853  0.09572665  1
  O  O176  1  0.33770549  0.87522186  0.09572665  1
  O  O177  1  0.67103882  0.20855519  0.09572665  1
  O  O178  1  0.67103882  0.54188853  0.09572665  1
  O  O179  1  0.67103882  0.87522186  0.09572665  1
  O  O180  1  0.12477814  0.12915029  0.09572665  1
  O  O181  1  0.12477814  0.46248362  0.09572665  1
  O  O182  1  0.12477814  0.79581696  0.09572665  1
  O  O183  1  0.45811147  0.12915029  0.09572665  1
  O  O184  1  0.45811147  0.46248362  0.09572665  1
  O  O185  1  0.45811147  0.79581696  0.09572665  1
  O  O186  1  0.79144481  0.12915029  0.09572665  1
  O  O187  1  0.79144481  0.46248362  0.09572665  1
  O  O188  1  0.79144481  0.79581696  0.09572665  1
  O  O189  1  0.20418304  0.32896118  0.09572665  1
  O  O190  1  0.20418304  0.66229451  0.09572665  1
  O  O191  1  0.20418304  0.99562785  0.09572665  1
  O  O192  1  0.53751638  0.32896118  0.09572665  1
  O  O193  1  0.53751638  0.66229451  0.09572665  1
  O  O194  1  0.53751638  0.99562785  0.09572665  1
  O  O195  1  0.87084971  0.32896118  0.09572665  1
  O  O196  1  0.87084971  0.66229451  0.09572665  1
  O  O197  1  0.87084971  0.99562785  0.09572665  1
  O  O198  1  0.11111111  0.22222222  0.24354637  1
  O  O199  1  0.11111111  0.55555556  0.24354637  1
  O  O200  1  0.11111111  0.88888889  0.24354637  1
  O  O201  1  0.44444444  0.22222222  0.24354637  1
  O  O202  1  0.44444444  0.55555556  0.24354637  1
  O  O203  1  0.44444444  0.88888889  0.24354637  1
  O  O204  1  0.77777778  0.22222222  0.24354637  1
  O  O205  1  0.77777778  0.55555556  0.24354637  1
  O  O206  1  0.77777778  0.88888889  0.24354637  1
  O  O207  1  0.22222222  0.11111111  0.25645363  1
  O  O208  1  0.22222222  0.44444444  0.25645363  1
  O  O209  1  0.22222222  0.77777778  0.25645363  1
  O  O210  1  0.55555556  0.11111111  0.25645363  1
  O  O211  1  0.55555556  0.44444444  0.25645363  1
  O  O212  1  0.55555556  0.77777778  0.25645363  1
  O  O213  1  0.88888889  0.11111111  0.25645363  1
  O  O214  1  0.88888889  0.44444444  0.25645363  1
  O  O215  1  0.88888889  0.77777778  0.25645363  1
  O  O216  1  0.22222222  0.11111111  0.75645363  1
  O  O217  1  0.22222222  0.44444444  0.75645363  1
  O  O218  1  0.22222222  0.77777778  0.75645363  1
  O  O219  1  0.55555556  0.11111111  0.75645363  1
  O  O220  1  0.55555556  0.44444444  0.75645363  1
  O  O221  1  0.55555556  0.77777778  0.75645363  1
  O  O222  1  0.88888889  0.11111111  0.75645363  1
  O  O223  1  0.88888889  0.44444444  0.75645363  1
  O  O224  1  0.88888889  0.77777778  0.75645363  1
  O  O225  1  0.11111111  0.22222222  0.74354637  1
  O  O226  1  0.11111111  0.55555556  0.74354637  1
  O  O227  1  0.11111111  0.88888889  0.74354637  1
  O  O228  1  0.44444444  0.22222222  0.74354637  1
  O  O229  1  0.44444444  0.55555556  0.74354637  1
  O  O230  1  0.44444444  0.88888889  0.74354637  1
  O  O231  1  0.77777778  0.22222222  0.74354637  1
  O  O232  1  0.77777778  0.55555556  0.74354637  1
  O  O233  1  0.77777778  0.88888889  0.74354637  1
