# generated using pymatgen
data_Na3Sc(BO3)2
_symmetry_space_group_name_H-M   'P 1'
_cell_length_a   15.09126178
_cell_length_b   18.00639016
_cell_length_c   13.67040964
_cell_angle_alpha   90.00000000
_cell_angle_beta   122.97524312
_cell_angle_gamma   90.00000000
_symmetry_Int_Tables_number   1
_chemical_formula_structural   Na3Sc(BO3)2
_chemical_formula_sum   'Na72 Sc24 B48 O144'
_cell_volume   3116.35515313
_cell_formula_units_Z   24
loop_
 _symmetry_equiv_pos_site_id
 _symmetry_equiv_pos_as_xyz
  1  'x, y, z'
loop_
 _atom_site_type_symbol
 _atom_site_label
 _atom_site_symmetry_multiplicity
 _atom_site_fract_x
 _atom_site_fract_y
 _atom_site_fract_z
 _atom_site_occupancy
  Na  Na0  1  0.00000000  0.25000000  0.00000000  1
  Na  Na1  1  0.00000000  0.25000000  0.50000000  1
  Na  Na2  1  0.00000000  0.75000000  0.00000000  1
  Na  Na3  1  0.00000000  0.75000000  0.50000000  1
  Na  Na4  1  0.33333333  0.25000000  0.00000000  1
  Na  Na5  1  0.33333333  0.25000000  0.50000000  1
  Na  Na6  1  0.33333333  0.75000000  0.00000000  1
  Na  Na7  1  0.33333333  0.75000000  0.50000000  1
  Na  Na8  1  0.66666667  0.25000000  0.00000000  1
  Na  Na9  1  0.66666667  0.25000000  0.50000000  1
  Na  Na10  1  0.66666667  0.75000000  0.00000000  1
  Na  Na11  1  0.66666667  0.75000000  0.50000000  1
  Na  Na12  1  0.00000000  0.00000000  0.25000000  1
  Na  Na13  1  0.00000000  0.00000000  0.75000000  1
  Na  Na14  1  0.00000000  0.50000000  0.25000000  1
  Na  Na15  1  0.00000000  0.50000000  0.75000000  1
  Na  Na16  1  0.33333333  0.00000000  0.25000000  1
  Na  Na17  1  0.33333333  0.00000000  0.75000000  1
  Na  Na18  1  0.33333333  0.50000000  0.25000000  1
  Na  Na19  1  0.33333333  0.50000000  0.75000000  1
  Na  Na20  1  0.66666667  0.00000000  0.25000000  1
  Na  Na21  1  0.66666667  0.00000000  0.75000000  1
  Na  Na22  1  0.66666667  0.50000000  0.25000000  1
  Na  Na23  1  0.66666667  0.50000000  0.75000000  1
  Na  Na24  1  0.24431896  0.41585436  0.36646699  1
  Na  Na25  1  0.24431896  0.41585436  0.86646699  1
  Na  Na26  1  0.24431896  0.91585436  0.36646699  1
  Na  Na27  1  0.24431896  0.91585436  0.86646699  1
  Na  Na28  1  0.57765229  0.41585436  0.36646699  1
  Na  Na29  1  0.57765229  0.41585436  0.86646699  1
  Na  Na30  1  0.57765229  0.91585436  0.36646699  1
  Na  Na31  1  0.57765229  0.91585436  0.86646699  1
  Na  Na32  1  0.91098563  0.41585436  0.36646699  1
  Na  Na33  1  0.91098563  0.41585436  0.86646699  1
  Na  Na34  1  0.91098563  0.91585436  0.36646699  1
  Na  Na35  1  0.91098563  0.91585436  0.86646699  1
  Na  Na36  1  0.08901437  0.16585436  0.38353301  1
  Na  Na37  1  0.08901437  0.16585436  0.88353301  1
  Na  Na38  1  0.08901437  0.66585436  0.38353301  1
  Na  Na39  1  0.08901437  0.66585436  0.88353301  1
  Na  Na40  1  0.42234771  0.16585436  0.38353301  1
  Na  Na41  1  0.42234771  0.16585436  0.88353301  1
  Na  Na42  1  0.42234771  0.66585436  0.38353301  1
  Na  Na43  1  0.42234771  0.66585436  0.88353301  1
  Na  Na44  1  0.75568104  0.16585436  0.38353301  1
  Na  Na45  1  0.75568104  0.16585436  0.88353301  1
  Na  Na46  1  0.75568104  0.66585436  0.38353301  1
  Na  Na47  1  0.75568104  0.66585436  0.88353301  1
  Na  Na48  1  0.08901437  0.08414564  0.13353301  1
  Na  Na49  1  0.08901437  0.08414564  0.63353301  1
  Na  Na50  1  0.08901437  0.58414564  0.13353301  1
  Na  Na51  1  0.08901437  0.58414564  0.63353301  1
  Na  Na52  1  0.42234771  0.08414564  0.13353301  1
  Na  Na53  1  0.42234771  0.08414564  0.63353301  1
  Na  Na54  1  0.42234771  0.58414564  0.13353301  1
  Na  Na55  1  0.42234771  0.58414564  0.63353301  1
  Na  Na56  1  0.75568104  0.08414564  0.13353301  1
  Na  Na57  1  0.75568104  0.08414564  0.63353301  1
  Na  Na58  1  0.75568104  0.58414564  0.13353301  1
  Na  Na59  1  0.75568104  0.58414564  0.63353301  1
  Na  Na60  1  0.24431896  0.33414564  0.11646699  1
  Na  Na61  1  0.24431896  0.33414564  0.61646699  1
  Na  Na62  1  0.24431896  0.83414564  0.11646699  1
  Na  Na63  1  0.24431896  0.83414564  0.61646699  1
  Na  Na64  1  0.57765229  0.33414564  0.11646699  1
  Na  Na65  1  0.57765229  0.33414564  0.61646699  1
  Na  Na66  1  0.57765229  0.83414564  0.11646699  1
  Na  Na67  1  0.57765229  0.83414564  0.61646699  1
  Na  Na68  1  0.91098563  0.33414564  0.11646699  1
  Na  Na69  1  0.91098563  0.33414564  0.61646699  1
  Na  Na70  1  0.91098563  0.83414564  0.11646699  1
  Na  Na71  1  0.91098563  0.83414564  0.61646699  1
  Sc  Sc72  1  0.16666667  0.25000000  0.25000000  1
  Sc  Sc73  1  0.16666667  0.25000000  0.75000000  1
  Sc  Sc74  1  0.16666667  0.75000000  0.25000000  1
  Sc  Sc75  1  0.16666667  0.75000000  0.75000000  1
  Sc  Sc76  1  0.50000000  0.25000000  0.25000000  1
  Sc  Sc77  1  0.50000000  0.25000000  0.75000000  1
  Sc  Sc78  1  0.50000000  0.75000000  0.25000000  1
  Sc  Sc79  1  0.50000000  0.75000000  0.75000000  1
  Sc  Sc80  1  0.83333333  0.25000000  0.25000000  1
  Sc  Sc81  1  0.83333333  0.25000000  0.75000000  1
  Sc  Sc82  1  0.83333333  0.75000000  0.25000000  1
  Sc  Sc83  1  0.83333333  0.75000000  0.75000000  1
  Sc  Sc84  1  0.16666667  0.00000000  0.00000000  1
  Sc  Sc85  1  0.16666667  0.00000000  0.50000000  1
  Sc  Sc86  1  0.16666667  0.50000000  0.00000000  1
  Sc  Sc87  1  0.16666667  0.50000000  0.50000000  1
  Sc  Sc88  1  0.50000000  0.00000000  0.00000000  1
  Sc  Sc89  1  0.50000000  0.00000000  0.50000000  1
  Sc  Sc90  1  0.50000000  0.50000000  0.00000000  1
  Sc  Sc91  1  0.50000000  0.50000000  0.50000000  1
  Sc  Sc92  1  0.83333333  0.00000000  0.00000000  1
  Sc  Sc93  1  0.83333333  0.00000000  0.50000000  1
  Sc  Sc94  1  0.83333333  0.50000000  0.00000000  1
  Sc  Sc95  1  0.83333333  0.50000000  0.50000000  1
  B  B96  1  0.07463934  0.33505559  0.36830549  1
  B  B97  1  0.07463934  0.33505559  0.86830549  1
  B  B98  1  0.07463934  0.83505559  0.36830549  1
  B  B99  1  0.07463934  0.83505559  0.86830549  1
  B  B100  1  0.40797267  0.33505559  0.36830549  1
  B  B101  1  0.40797267  0.33505559  0.86830549  1
  B  B102  1  0.40797267  0.83505559  0.36830549  1
  B  B103  1  0.40797267  0.83505559  0.86830549  1
  B  B104  1  0.74130601  0.33505559  0.36830549  1
  B  B105  1  0.74130601  0.33505559  0.86830549  1
  B  B106  1  0.74130601  0.83505559  0.36830549  1
  B  B107  1  0.74130601  0.83505559  0.86830549  1
  B  B108  1  0.25869399  0.08505559  0.38169451  1
  B  B109  1  0.25869399  0.08505559  0.88169451  1
  B  B110  1  0.25869399  0.58505559  0.38169451  1
  B  B111  1  0.25869399  0.58505559  0.88169451  1
  B  B112  1  0.59202733  0.08505559  0.38169451  1
  B  B113  1  0.59202733  0.08505559  0.88169451  1
  B  B114  1  0.59202733  0.58505559  0.38169451  1
  B  B115  1  0.59202733  0.58505559  0.88169451  1
  B  B116  1  0.92536066  0.08505559  0.38169451  1
  B  B117  1  0.92536066  0.08505559  0.88169451  1
  B  B118  1  0.92536066  0.58505559  0.38169451  1
  B  B119  1  0.92536066  0.58505559  0.88169451  1
  B  B120  1  0.25869399  0.16494441  0.13169451  1
  B  B121  1  0.25869399  0.16494441  0.63169451  1
  B  B122  1  0.25869399  0.66494441  0.13169451  1
  B  B123  1  0.25869399  0.66494441  0.63169451  1
  B  B124  1  0.59202733  0.16494441  0.13169451  1
  B  B125  1  0.59202733  0.16494441  0.63169451  1
  B  B126  1  0.59202733  0.66494441  0.13169451  1
  B  B127  1  0.59202733  0.66494441  0.63169451  1
  B  B128  1  0.92536066  0.16494441  0.13169451  1
  B  B129  1  0.92536066  0.16494441  0.63169451  1
  B  B130  1  0.92536066  0.66494441  0.13169451  1
  B  B131  1  0.92536066  0.66494441  0.63169451  1
  B  B132  1  0.07463934  0.41494441  0.11830549  1
  B  B133  1  0.07463934  0.41494441  0.61830549  1
  B  B134  1  0.07463934  0.91494441  0.11830549  1
  B  B135  1  0.07463934  0.91494441  0.61830549  1
  B  B136  1  0.40797267  0.41494441  0.11830549  1
  B  B137  1  0.40797267  0.41494441  0.61830549  1
  B  B138  1  0.40797267  0.91494441  0.11830549  1
  B  B139  1  0.40797267  0.91494441  0.61830549  1
  B  B140  1  0.74130601  0.41494441  0.11830549  1
  B  B141  1  0.74130601  0.41494441  0.61830549  1
  B  B142  1  0.74130601  0.91494441  0.11830549  1
  B  B143  1  0.74130601  0.91494441  0.61830549  1
  O  O144  1  0.15959507  0.29208828  0.38999459  1
  O  O145  1  0.15959507  0.29208828  0.88999459  1
  O  O146  1  0.15959507  0.79208828  0.38999459  1
  O  O147  1  0.15959507  0.79208828  0.88999459  1
  O  O148  1  0.49292841  0.29208828  0.38999459  1
  O  O149  1  0.49292841  0.29208828  0.88999459  1
  O  O150  1  0.49292841  0.79208828  0.38999459  1
  O  O151  1  0.49292841  0.79208828  0.88999459  1
  O  O152  1  0.82626174  0.29208828  0.38999459  1
  O  O153  1  0.82626174  0.29208828  0.88999459  1
  O  O154  1  0.82626174  0.79208828  0.38999459  1
  O  O155  1  0.82626174  0.79208828  0.88999459  1
  O  O156  1  0.17373826  0.04208828  0.36000541  1
  O  O157  1  0.17373826  0.04208828  0.86000541  1
  O  O158  1  0.17373826  0.54208828  0.36000541  1
  O  O159  1  0.17373826  0.54208828  0.86000541  1
  O  O160  1  0.50707159  0.04208828  0.36000541  1
  O  O161  1  0.50707159  0.04208828  0.86000541  1
  O  O162  1  0.50707159  0.54208828  0.36000541  1
  O  O163  1  0.50707159  0.54208828  0.86000541  1
  O  O164  1  0.84040493  0.04208828  0.36000541  1
  O  O165  1  0.84040493  0.04208828  0.86000541  1
  O  O166  1  0.84040493  0.54208828  0.36000541  1
  O  O167  1  0.84040493  0.54208828  0.86000541  1
  O  O168  1  0.17373826  0.20791172  0.11000541  1
  O  O169  1  0.17373826  0.20791172  0.61000541  1
  O  O170  1  0.17373826  0.70791172  0.11000541  1
  O  O171  1  0.17373826  0.70791172  0.61000541  1
  O  O172  1  0.50707159  0.20791172  0.11000541  1
  O  O173  1  0.50707159  0.20791172  0.61000541  1
  O  O174  1  0.50707159  0.70791172  0.11000541  1
  O  O175  1  0.50707159  0.70791172  0.61000541  1
  O  O176  1  0.84040493  0.20791172  0.11000541  1
  O  O177  1  0.84040493  0.20791172  0.61000541  1
  O  O178  1  0.84040493  0.70791172  0.11000541  1
  O  O179  1  0.84040493  0.70791172  0.61000541  1
  O  O180  1  0.15959507  0.45791172  0.13999459  1
  O  O181  1  0.15959507  0.45791172  0.63999459  1
  O  O182  1  0.15959507  0.95791172  0.13999459  1
  O  O183  1  0.15959507  0.95791172  0.63999459  1
  O  O184  1  0.49292841  0.45791172  0.13999459  1
  O  O185  1  0.49292841  0.45791172  0.63999459  1
  O  O186  1  0.49292841  0.95791172  0.13999459  1
  O  O187  1  0.49292841  0.95791172  0.63999459  1
  O  O188  1  0.82626174  0.45791172  0.13999459  1
  O  O189  1  0.82626174  0.45791172  0.63999459  1
  O  O190  1  0.82626174  0.95791172  0.13999459  1
  O  O191  1  0.82626174  0.95791172  0.63999459  1
  O  O192  1  0.30965790  0.30427498  0.32472436  1
  O  O193  1  0.30965790  0.30427498  0.82472436  1
  O  O194  1  0.30965790  0.80427498  0.32472436  1
  O  O195  1  0.30965790  0.80427498  0.82472436  1
  O  O196  1  0.64299123  0.30427498  0.32472436  1
  O  O197  1  0.64299123  0.30427498  0.82472436  1
  O  O198  1  0.64299123  0.80427498  0.32472436  1
  O  O199  1  0.64299123  0.80427498  0.82472436  1
  O  O200  1  0.97632457  0.30427498  0.32472436  1
  O  O201  1  0.97632457  0.30427498  0.82472436  1
  O  O202  1  0.97632457  0.80427498  0.32472436  1
  O  O203  1  0.97632457  0.80427498  0.82472436  1
  O  O204  1  0.02367543  0.05427498  0.42527564  1
  O  O205  1  0.02367543  0.05427498  0.92527564  1
  O  O206  1  0.02367543  0.55427498  0.42527564  1
  O  O207  1  0.02367543  0.55427498  0.92527564  1
  O  O208  1  0.35700877  0.05427498  0.42527564  1
  O  O209  1  0.35700877  0.05427498  0.92527564  1
  O  O210  1  0.35700877  0.55427498  0.42527564  1
  O  O211  1  0.35700877  0.55427498  0.92527564  1
  O  O212  1  0.69034210  0.05427498  0.42527564  1
  O  O213  1  0.69034210  0.05427498  0.92527564  1
  O  O214  1  0.69034210  0.55427498  0.42527564  1
  O  O215  1  0.69034210  0.55427498  0.92527564  1
  O  O216  1  0.02367543  0.19572502  0.17527564  1
  O  O217  1  0.02367543  0.19572502  0.67527564  1
  O  O218  1  0.02367543  0.69572502  0.17527564  1
  O  O219  1  0.02367543  0.69572502  0.67527564  1
  O  O220  1  0.35700877  0.19572502  0.17527564  1
  O  O221  1  0.35700877  0.19572502  0.67527564  1
  O  O222  1  0.35700877  0.69572502  0.17527564  1
  O  O223  1  0.35700877  0.69572502  0.67527564  1
  O  O224  1  0.69034210  0.19572502  0.17527564  1
  O  O225  1  0.69034210  0.19572502  0.67527564  1
  O  O226  1  0.69034210  0.69572502  0.17527564  1
  O  O227  1  0.69034210  0.69572502  0.67527564  1
  O  O228  1  0.30965790  0.44572502  0.07472436  1
  O  O229  1  0.30965790  0.44572502  0.57472436  1
  O  O230  1  0.30965790  0.94572502  0.07472436  1
  O  O231  1  0.30965790  0.94572502  0.57472436  1
  O  O232  1  0.64299123  0.44572502  0.07472436  1
  O  O233  1  0.64299123  0.44572502  0.57472436  1
  O  O234  1  0.64299123  0.94572502  0.07472436  1
  O  O235  1  0.64299123  0.94572502  0.57472436  1
  O  O236  1  0.97632457  0.44572502  0.07472436  1
  O  O237  1  0.97632457  0.44572502  0.57472436  1
  O  O238  1  0.97632457  0.94572502  0.07472436  1
  O  O239  1  0.97632457  0.94572502  0.57472436  1
  O  O240  1  0.08745861  0.41034824  0.39260937  1
  O  O241  1  0.08745861  0.41034824  0.89260937  1
  O  O242  1  0.08745861  0.91034824  0.39260937  1
  O  O243  1  0.08745861  0.91034824  0.89260937  1
  O  O244  1  0.42079195  0.41034824  0.39260937  1
  O  O245  1  0.42079195  0.41034824  0.89260937  1
  O  O246  1  0.42079195  0.91034824  0.39260937  1
  O  O247  1  0.42079195  0.91034824  0.89260937  1
  O  O248  1  0.75412528  0.41034824  0.39260937  1
  O  O249  1  0.75412528  0.41034824  0.89260937  1
  O  O250  1  0.75412528  0.91034824  0.39260937  1
  O  O251  1  0.75412528  0.91034824  0.89260937  1
  O  O252  1  0.24587472  0.16034824  0.35739063  1
  O  O253  1  0.24587472  0.16034824  0.85739063  1
  O  O254  1  0.24587472  0.66034824  0.35739063  1
  O  O255  1  0.24587472  0.66034824  0.85739063  1
  O  O256  1  0.57920805  0.16034824  0.35739063  1
  O  O257  1  0.57920805  0.16034824  0.85739063  1
  O  O258  1  0.57920805  0.66034824  0.35739063  1
  O  O259  1  0.57920805  0.66034824  0.85739063  1
  O  O260  1  0.91254139  0.16034824  0.35739063  1
  O  O261  1  0.91254139  0.16034824  0.85739063  1
  O  O262  1  0.91254139  0.66034824  0.35739063  1
  O  O263  1  0.91254139  0.66034824  0.85739063  1
  O  O264  1  0.24587472  0.08965176  0.10739063  1
  O  O265  1  0.24587472  0.08965176  0.60739063  1
  O  O266  1  0.24587472  0.58965176  0.10739063  1
  O  O267  1  0.24587472  0.58965176  0.60739063  1
  O  O268  1  0.57920805  0.08965176  0.10739063  1
  O  O269  1  0.57920805  0.08965176  0.60739063  1
  O  O270  1  0.57920805  0.58965176  0.10739063  1
  O  O271  1  0.57920805  0.58965176  0.60739063  1
  O  O272  1  0.91254139  0.08965176  0.10739063  1
  O  O273  1  0.91254139  0.08965176  0.60739063  1
  O  O274  1  0.91254139  0.58965176  0.10739063  1
  O  O275  1  0.91254139  0.58965176  0.60739063  1
  O  O276  1  0.08745861  0.33965176  0.14260937  1
  O  O277  1  0.08745861  0.33965176  0.64260937  1
  O  O278  1  0.08745861  0.83965176  0.14260937  1
  O  O279  1  0.08745861  0.83965176  0.64260937  1
  O  O280  1  0.42079195  0.33965176  0.14260937  1
  O  O281  1  0.42079195  0.33965176  0.64260937  1
  O  O282  1  0.42079195  0.83965176  0.14260937  1
  O  O283  1  0.42079195  0.83965176  0.64260937  1
  O  O284  1  0.75412528  0.33965176  0.14260937  1
  O  O285  1  0.75412528  0.33965176  0.64260937  1
  O  O286  1  0.75412528  0.83965176  0.14260937  1
  O  O287  1  0.75412528  0.83965176  0.64260937  1
