# generated using pymatgen
data_TlSbO3
_symmetry_space_group_name_H-M   'P 1'
_cell_length_a   16.06678317
_cell_length_b   16.06678317
_cell_length_c   14.29896619
_cell_angle_alpha   90.00000000
_cell_angle_beta   90.00000000
_cell_angle_gamma   120.00000000
_symmetry_Int_Tables_number   1
_chemical_formula_structural   TlSbO3
_chemical_formula_sum   'Tl36 Sb36 O108'
_cell_volume   3196.63563263
_cell_formula_units_Z   36
loop_
 _symmetry_equiv_pos_site_id
 _symmetry_equiv_pos_as_xyz
  1  'x, y, z'
loop_
 _atom_site_type_symbol
 _atom_site_label
 _atom_site_symmetry_multiplicity
 _atom_site_fract_x
 _atom_site_fract_y
 _atom_site_fract_z
 _atom_site_occupancy
  Tl  Tl0  1  0.22222222  0.11111111  0.93262698  1
  Tl  Tl1  1  0.22222222  0.44444444  0.93262698  1
  Tl  Tl2  1  0.22222222  0.77777778  0.93262698  1
  Tl  Tl3  1  0.55555556  0.11111111  0.93262698  1
  Tl  Tl4  1  0.55555556  0.44444444  0.93262698  1
  Tl  Tl5  1  0.55555556  0.77777778  0.93262698  1
  Tl  Tl6  1  0.88888889  0.11111111  0.93262698  1
  Tl  Tl7  1  0.88888889  0.44444444  0.93262698  1
  Tl  Tl8  1  0.88888889  0.77777778  0.93262698  1
  Tl  Tl9  1  0.11111111  0.22222222  0.43262698  1
  Tl  Tl10  1  0.11111111  0.55555556  0.43262698  1
  Tl  Tl11  1  0.11111111  0.88888889  0.43262698  1
  Tl  Tl12  1  0.44444444  0.22222222  0.43262698  1
  Tl  Tl13  1  0.44444444  0.55555556  0.43262698  1
  Tl  Tl14  1  0.44444444  0.88888889  0.43262698  1
  Tl  Tl15  1  0.77777778  0.22222222  0.43262698  1
  Tl  Tl16  1  0.77777778  0.55555556  0.43262698  1
  Tl  Tl17  1  0.77777778  0.88888889  0.43262698  1
  Tl  Tl18  1  0.11111111  0.22222222  0.06737302  1
  Tl  Tl19  1  0.11111111  0.55555556  0.06737302  1
  Tl  Tl20  1  0.11111111  0.88888889  0.06737302  1
  Tl  Tl21  1  0.44444444  0.22222222  0.06737302  1
  Tl  Tl22  1  0.44444444  0.55555556  0.06737302  1
  Tl  Tl23  1  0.44444444  0.88888889  0.06737302  1
  Tl  Tl24  1  0.77777778  0.22222222  0.06737302  1
  Tl  Tl25  1  0.77777778  0.55555556  0.06737302  1
  Tl  Tl26  1  0.77777778  0.88888889  0.06737302  1
  Tl  Tl27  1  0.22222222  0.11111111  0.56737302  1
  Tl  Tl28  1  0.22222222  0.44444444  0.56737302  1
  Tl  Tl29  1  0.22222222  0.77777778  0.56737302  1
  Tl  Tl30  1  0.55555556  0.11111111  0.56737302  1
  Tl  Tl31  1  0.55555556  0.44444444  0.56737302  1
  Tl  Tl32  1  0.55555556  0.77777778  0.56737302  1
  Tl  Tl33  1  0.88888889  0.11111111  0.56737302  1
  Tl  Tl34  1  0.88888889  0.44444444  0.56737302  1
  Tl  Tl35  1  0.88888889  0.77777778  0.56737302  1
  Sb  Sb36  1  0.22222222  0.11111111  0.25000000  1
  Sb  Sb37  1  0.22222222  0.44444444  0.25000000  1
  Sb  Sb38  1  0.22222222  0.77777778  0.25000000  1
  Sb  Sb39  1  0.55555556  0.11111111  0.25000000  1
  Sb  Sb40  1  0.55555556  0.44444444  0.25000000  1
  Sb  Sb41  1  0.55555556  0.77777778  0.25000000  1
  Sb  Sb42  1  0.88888889  0.11111111  0.25000000  1
  Sb  Sb43  1  0.88888889  0.44444444  0.25000000  1
  Sb  Sb44  1  0.88888889  0.77777778  0.25000000  1
  Sb  Sb45  1  0.00000000  0.00000000  0.25000000  1
  Sb  Sb46  1  0.00000000  0.33333333  0.25000000  1
  Sb  Sb47  1  0.00000000  0.66666667  0.25000000  1
  Sb  Sb48  1  0.33333333  0.00000000  0.25000000  1
  Sb  Sb49  1  0.33333333  0.33333333  0.25000000  1
  Sb  Sb50  1  0.33333333  0.66666667  0.25000000  1
  Sb  Sb51  1  0.66666667  0.00000000  0.25000000  1
  Sb  Sb52  1  0.66666667  0.33333333  0.25000000  1
  Sb  Sb53  1  0.66666667  0.66666667  0.25000000  1
  Sb  Sb54  1  0.11111111  0.22222222  0.75000000  1
  Sb  Sb55  1  0.11111111  0.55555556  0.75000000  1
  Sb  Sb56  1  0.11111111  0.88888889  0.75000000  1
  Sb  Sb57  1  0.44444444  0.22222222  0.75000000  1
  Sb  Sb58  1  0.44444444  0.55555556  0.75000000  1
  Sb  Sb59  1  0.44444444  0.88888889  0.75000000  1
  Sb  Sb60  1  0.77777778  0.22222222  0.75000000  1
  Sb  Sb61  1  0.77777778  0.55555556  0.75000000  1
  Sb  Sb62  1  0.77777778  0.88888889  0.75000000  1
  Sb  Sb63  1  0.00000000  0.00000000  0.75000000  1
  Sb  Sb64  1  0.00000000  0.33333333  0.75000000  1
  Sb  Sb65  1  0.00000000  0.66666667  0.75000000  1
  Sb  Sb66  1  0.33333333  0.00000000  0.75000000  1
  Sb  Sb67  1  0.33333333  0.33333333  0.75000000  1
  Sb  Sb68  1  0.33333333  0.66666667  0.75000000  1
  Sb  Sb69  1  0.66666667  0.00000000  0.75000000  1
  Sb  Sb70  1  0.66666667  0.33333333  0.75000000  1
  Sb  Sb71  1  0.66666667  0.66666667  0.75000000  1
  O  O72  1  0.09494712  0.11110915  0.82849025  1
  O  O73  1  0.09494712  0.44444248  0.82849025  1
  O  O74  1  0.09494712  0.77777581  0.82849025  1
  O  O75  1  0.42828046  0.11110915  0.82849025  1
  O  O76  1  0.42828046  0.44444248  0.82849025  1
  O  O77  1  0.42828046  0.77777581  0.82849025  1
  O  O78  1  0.76161379  0.11110915  0.82849025  1
  O  O79  1  0.76161379  0.44444248  0.82849025  1
  O  O80  1  0.76161379  0.77777581  0.82849025  1
  O  O81  1  0.23838621  0.01616202  0.32849025  1
  O  O82  1  0.23838621  0.34949536  0.32849025  1
  O  O83  1  0.23838621  0.68282869  0.32849025  1
  O  O84  1  0.57171954  0.01616202  0.32849025  1
  O  O85  1  0.57171954  0.34949536  0.32849025  1
  O  O86  1  0.57171954  0.68282869  0.32849025  1
  O  O87  1  0.90505288  0.01616202  0.32849025  1
  O  O88  1  0.90505288  0.34949536  0.32849025  1
  O  O89  1  0.90505288  0.68282869  0.32849025  1
  O  O90  1  0.23838621  0.22222419  0.17150975  1
  O  O91  1  0.23838621  0.55555752  0.17150975  1
  O  O92  1  0.23838621  0.88889085  0.17150975  1
  O  O93  1  0.57171954  0.22222419  0.17150975  1
  O  O94  1  0.57171954  0.55555752  0.17150975  1
  O  O95  1  0.57171954  0.88889085  0.17150975  1
  O  O96  1  0.90505288  0.22222419  0.17150975  1
  O  O97  1  0.90505288  0.55555752  0.17150975  1
  O  O98  1  0.90505288  0.88889085  0.17150975  1
  O  O99  1  0.01616202  0.11110915  0.67150975  1
  O  O100  1  0.01616202  0.44444248  0.67150975  1
  O  O101  1  0.01616202  0.77777581  0.67150975  1
  O  O102  1  0.34949536  0.11110915  0.67150975  1
  O  O103  1  0.34949536  0.44444248  0.67150975  1
  O  O104  1  0.34949536  0.77777581  0.67150975  1
  O  O105  1  0.68282869  0.11110915  0.67150975  1
  O  O106  1  0.68282869  0.44444248  0.67150975  1
  O  O107  1  0.68282869  0.77777581  0.67150975  1
  O  O108  1  0.31717131  0.09494712  0.17150975  1
  O  O109  1  0.31717131  0.42828046  0.17150975  1
  O  O110  1  0.31717131  0.76161379  0.17150975  1
  O  O111  1  0.65050464  0.09494712  0.17150975  1
  O  O112  1  0.65050464  0.42828046  0.17150975  1
  O  O113  1  0.65050464  0.76161379  0.17150975  1
  O  O114  1  0.98383798  0.09494712  0.17150975  1
  O  O115  1  0.98383798  0.42828046  0.17150975  1
  O  O116  1  0.98383798  0.76161379  0.17150975  1
  O  O117  1  0.11110915  0.01616202  0.17150975  1
  O  O118  1  0.11110915  0.34949536  0.17150975  1
  O  O119  1  0.11110915  0.68282869  0.17150975  1
  O  O120  1  0.44444248  0.01616202  0.17150975  1
  O  O121  1  0.44444248  0.34949536  0.17150975  1
  O  O122  1  0.44444248  0.68282869  0.17150975  1
  O  O123  1  0.77777581  0.01616202  0.17150975  1
  O  O124  1  0.77777581  0.34949536  0.17150975  1
  O  O125  1  0.77777581  0.68282869  0.17150975  1
  O  O126  1  0.22222419  0.23838621  0.67150975  1
  O  O127  1  0.22222419  0.57171954  0.67150975  1
  O  O128  1  0.22222419  0.90505288  0.67150975  1
  O  O129  1  0.55555752  0.23838621  0.67150975  1
  O  O130  1  0.55555752  0.57171954  0.67150975  1
  O  O131  1  0.55555752  0.90505288  0.67150975  1
  O  O132  1  0.88889085  0.23838621  0.67150975  1
  O  O133  1  0.88889085  0.57171954  0.67150975  1
  O  O134  1  0.88889085  0.90505288  0.67150975  1
  O  O135  1  0.01616202  0.23838621  0.82849025  1
  O  O136  1  0.01616202  0.57171954  0.82849025  1
  O  O137  1  0.01616202  0.90505288  0.82849025  1
  O  O138  1  0.34949536  0.23838621  0.82849025  1
  O  O139  1  0.34949536  0.57171954  0.82849025  1
  O  O140  1  0.34949536  0.90505288  0.82849025  1
  O  O141  1  0.68282869  0.23838621  0.82849025  1
  O  O142  1  0.68282869  0.57171954  0.82849025  1
  O  O143  1  0.68282869  0.90505288  0.82849025  1
  O  O144  1  0.11110915  0.09494712  0.32849025  1
  O  O145  1  0.11110915  0.42828046  0.32849025  1
  O  O146  1  0.11110915  0.76161379  0.32849025  1
  O  O147  1  0.44444248  0.09494712  0.32849025  1
  O  O148  1  0.44444248  0.42828046  0.32849025  1
  O  O149  1  0.44444248  0.76161379  0.32849025  1
  O  O150  1  0.77777581  0.09494712  0.32849025  1
  O  O151  1  0.77777581  0.42828046  0.32849025  1
  O  O152  1  0.77777581  0.76161379  0.32849025  1
  O  O153  1  0.22222419  0.31717131  0.82849025  1
  O  O154  1  0.22222419  0.65050464  0.82849025  1
  O  O155  1  0.22222419  0.98383798  0.82849025  1
  O  O156  1  0.55555752  0.31717131  0.82849025  1
  O  O157  1  0.55555752  0.65050464  0.82849025  1
  O  O158  1  0.55555752  0.98383798  0.82849025  1
  O  O159  1  0.88889085  0.31717131  0.82849025  1
  O  O160  1  0.88889085  0.65050464  0.82849025  1
  O  O161  1  0.88889085  0.98383798  0.82849025  1
  O  O162  1  0.31717131  0.22222419  0.32849025  1
  O  O163  1  0.31717131  0.55555752  0.32849025  1
  O  O164  1  0.31717131  0.88889085  0.32849025  1
  O  O165  1  0.65050464  0.22222419  0.32849025  1
  O  O166  1  0.65050464  0.55555752  0.32849025  1
  O  O167  1  0.65050464  0.88889085  0.32849025  1
  O  O168  1  0.98383798  0.22222419  0.32849025  1
  O  O169  1  0.98383798  0.55555752  0.32849025  1
  O  O170  1  0.98383798  0.88889085  0.32849025  1
  O  O171  1  0.09494712  0.31717131  0.67150975  1
  O  O172  1  0.09494712  0.65050464  0.67150975  1
  O  O173  1  0.09494712  0.98383798  0.67150975  1
  O  O174  1  0.42828046  0.31717131  0.67150975  1
  O  O175  1  0.42828046  0.65050464  0.67150975  1
  O  O176  1  0.42828046  0.98383798  0.67150975  1
  O  O177  1  0.76161379  0.31717131  0.67150975  1
  O  O178  1  0.76161379  0.65050464  0.67150975  1
  O  O179  1  0.76161379  0.98383798  0.67150975  1
