# generated using pymatgen
data_K3AlO3
_symmetry_space_group_name_H-M   'P 1'
_cell_length_a   14.01615301
_cell_length_b   11.06284283
_cell_length_c   12.97908767
_cell_angle_alpha   90.00000000
_cell_angle_beta   102.73434529
_cell_angle_gamma   90.00000000
_symmetry_Int_Tables_number   1
_chemical_formula_structural   K3AlO3
_chemical_formula_sum   'K48 Al16 O48'
_cell_volume   1963.01509906
_cell_formula_units_Z   16
loop_
 _symmetry_equiv_pos_site_id
 _symmetry_equiv_pos_as_xyz
  1  'x, y, z'
loop_
 _atom_site_type_symbol
 _atom_site_label
 _atom_site_symmetry_multiplicity
 _atom_site_fract_x
 _atom_site_fract_y
 _atom_site_fract_z
 _atom_site_occupancy
  K  K0  1  0.18594931  -0.00000000  0.32388756  1
  K  K1  1  0.18594931  -0.00000000  0.82388756  1
  K  K2  1  0.68594931  -0.00000000  0.32388756  1
  K  K3  1  0.68594931  -0.00000000  0.82388756  1
  K  K4  1  0.43594931  0.50000000  0.32388756  1
  K  K5  1  0.43594931  0.50000000  0.82388756  1
  K  K6  1  0.93594931  0.50000000  0.32388756  1
  K  K7  1  0.93594931  0.50000000  0.82388756  1
  K  K8  1  0.31405069  -0.00000000  0.17611244  1
  K  K9  1  0.31405069  -0.00000000  0.67611244  1
  K  K10  1  0.81405069  -0.00000000  0.17611244  1
  K  K11  1  0.81405069  -0.00000000  0.67611244  1
  K  K12  1  0.56405069  0.50000000  0.17611244  1
  K  K13  1  0.56405069  0.50000000  0.67611244  1
  K  K14  1  1.06405069  0.50000000  0.17611244  1
  K  K15  1  1.06405069  0.50000000  0.67611244  1
  K  K16  1  0.25000000  -0.30391527  0.25000000  1
  K  K17  1  0.25000000  -0.30391527  0.75000000  1
  K  K18  1  0.75000000  -0.30391527  0.25000000  1
  K  K19  1  0.75000000  -0.30391527  0.75000000  1
  K  K20  1  0.50000000  0.19608473  0.25000000  1
  K  K21  1  0.50000000  0.19608473  0.75000000  1
  K  K22  1  1.00000000  0.19608473  0.25000000  1
  K  K23  1  1.00000000  0.19608473  0.75000000  1
  K  K24  1  0.25000000  0.30391527  0.25000000  1
  K  K25  1  0.25000000  0.30391527  0.75000000  1
  K  K26  1  0.75000000  0.30391527  0.25000000  1
  K  K27  1  0.75000000  0.30391527  0.75000000  1
  K  K28  1  0.50000000  0.80391527  0.25000000  1
  K  K29  1  0.50000000  0.80391527  0.75000000  1
  K  K30  1  1.00000000  0.80391527  0.25000000  1
  K  K31  1  1.00000000  0.80391527  0.75000000  1
  K  K32  1  0.25000000  -0.23504337  0.00000000  1
  K  K33  1  0.25000000  -0.23504337  0.50000000  1
  K  K34  1  0.75000000  -0.23504337  0.00000000  1
  K  K35  1  0.75000000  -0.23504337  0.50000000  1
  K  K36  1  0.50000000  0.26495663  0.00000000  1
  K  K37  1  0.50000000  0.26495663  0.50000000  1
  K  K38  1  1.00000000  0.26495663  0.00000000  1
  K  K39  1  1.00000000  0.26495663  0.50000000  1
  K  K40  1  0.25000000  0.23504337  0.00000000  1
  K  K41  1  0.25000000  0.23504337  0.50000000  1
  K  K42  1  0.75000000  0.23504337  0.00000000  1
  K  K43  1  0.75000000  0.23504337  0.50000000  1
  K  K44  1  0.50000000  0.73504337  0.00000000  1
  K  K45  1  0.50000000  0.73504337  0.50000000  1
  K  K46  1  1.00000000  0.73504337  0.00000000  1
  K  K47  1  1.00000000  0.73504337  0.50000000  1
  Al  Al48  1  0.41896917  0.00000000  0.42705178  1
  Al  Al49  1  0.41896917  0.00000000  0.92705178  1
  Al  Al50  1  0.91896917  0.00000000  0.42705178  1
  Al  Al51  1  0.91896917  0.00000000  0.92705178  1
  Al  Al52  1  0.66896917  0.50000000  0.42705178  1
  Al  Al53  1  0.66896917  0.50000000  0.92705178  1
  Al  Al54  1  1.16896917  0.50000000  0.42705178  1
  Al  Al55  1  1.16896917  0.50000000  0.92705178  1
  Al  Al56  1  0.08103083  -0.00000000  0.07294822  1
  Al  Al57  1  0.08103083  -0.00000000  0.57294822  1
  Al  Al58  1  0.58103083  -0.00000000  0.07294822  1
  Al  Al59  1  0.58103083  -0.00000000  0.57294822  1
  Al  Al60  1  0.33103083  0.50000000  0.07294822  1
  Al  Al61  1  0.33103083  0.50000000  0.57294822  1
  Al  Al62  1  0.83103083  0.50000000  0.07294822  1
  Al  Al63  1  0.83103083  0.50000000  0.57294822  1
  O  O64  1  0.35871687  0.13114256  0.36858980  1
  O  O65  1  0.35871687  0.13114256  0.86858980  1
  O  O66  1  0.85871687  0.13114256  0.36858980  1
  O  O67  1  0.85871687  0.13114256  0.86858980  1
  O  O68  1  0.60871687  0.63114256  0.36858980  1
  O  O69  1  0.60871687  0.63114256  0.86858980  1
  O  O70  1  1.10871687  0.63114256  0.36858980  1
  O  O71  1  1.10871687  0.63114256  0.86858980  1
  O  O72  1  0.14128313  0.13114256  0.13141020  1
  O  O73  1  0.14128313  0.13114256  0.63141020  1
  O  O74  1  0.64128313  0.13114256  0.13141020  1
  O  O75  1  0.64128313  0.13114256  0.63141020  1
  O  O76  1  0.39128313  0.63114256  0.13141020  1
  O  O77  1  0.39128313  0.63114256  0.63141020  1
  O  O78  1  0.89128313  0.63114256  0.13141020  1
  O  O79  1  0.89128313  0.63114256  0.63141020  1
  O  O80  1  0.14128313  -0.13114256  0.13141020  1
  O  O81  1  0.14128313  -0.13114256  0.63141020  1
  O  O82  1  0.64128313  -0.13114256  0.13141020  1
  O  O83  1  0.64128313  -0.13114256  0.63141020  1
  O  O84  1  0.39128313  0.36885744  0.13141020  1
  O  O85  1  0.39128313  0.36885744  0.63141020  1
  O  O86  1  0.89128313  0.36885744  0.13141020  1
  O  O87  1  0.89128313  0.36885744  0.63141020  1
  O  O88  1  0.35871687  -0.13114256  0.36858980  1
  O  O89  1  0.35871687  -0.13114256  0.86858980  1
  O  O90  1  0.85871687  -0.13114256  0.36858980  1
  O  O91  1  0.85871687  -0.13114256  0.86858980  1
  O  O92  1  0.60871687  0.36885744  0.36858980  1
  O  O93  1  0.60871687  0.36885744  0.86858980  1
  O  O94  1  1.10871687  0.36885744  0.36858980  1
  O  O95  1  1.10871687  0.36885744  0.86858980  1
  O  O96  1  0.44999792  -0.00000000  0.07224960  1
  O  O97  1  0.44999792  -0.00000000  0.57224960  1
  O  O98  1  0.94999792  -0.00000000  0.07224960  1
  O  O99  1  0.94999792  -0.00000000  0.57224960  1
  O  O100  1  0.69999792  0.50000000  0.07224960  1
  O  O101  1  0.69999792  0.50000000  0.57224960  1
  O  O102  1  1.19999792  0.50000000  0.07224960  1
  O  O103  1  1.19999792  0.50000000  0.57224960  1
  O  O104  1  0.05000208  -0.00000000  0.42775040  1
  O  O105  1  0.05000208  -0.00000000  0.92775040  1
  O  O106  1  0.55000208  -0.00000000  0.42775040  1
  O  O107  1  0.55000208  -0.00000000  0.92775040  1
  O  O108  1  0.30000208  0.50000000  0.42775040  1
  O  O109  1  0.30000208  0.50000000  0.92775040  1
  O  O110  1  0.80000208  0.50000000  0.42775040  1
  O  O111  1  0.80000208  0.50000000  0.92775040  1
