# generated using pymatgen
data_Zn3(AsO4)2
_symmetry_space_group_name_H-M   'P 1'
_cell_length_a   15.76888425
_cell_length_b   16.62435619
_cell_length_c   17.57448218
_cell_angle_alpha   90.00000000
_cell_angle_beta   119.25261949
_cell_angle_gamma   90.00000000
_symmetry_Int_Tables_number   1
_chemical_formula_structural   Zn3(AsO4)2
_chemical_formula_sum   'Zn72 As48 O192'
_cell_volume   4019.57990529
_cell_formula_units_Z   24
loop_
 _symmetry_equiv_pos_site_id
 _symmetry_equiv_pos_as_xyz
  1  'x, y, z'
loop_
 _atom_site_type_symbol
 _atom_site_label
 _atom_site_symmetry_multiplicity
 _atom_site_fract_x
 _atom_site_fract_y
 _atom_site_fract_z
 _atom_site_occupancy
  Zn  Zn0  1  0.17016079  0.07012675  0.05307380  1
  Zn  Zn1  1  0.17016079  0.07012675  0.55307380  1
  Zn  Zn2  1  0.17016079  0.57012675  0.05307380  1
  Zn  Zn3  1  0.17016079  0.57012675  0.55307380  1
  Zn  Zn4  1  0.50349412  0.07012675  0.05307380  1
  Zn  Zn5  1  0.50349412  0.07012675  0.55307380  1
  Zn  Zn6  1  0.50349412  0.57012675  0.05307380  1
  Zn  Zn7  1  0.50349412  0.57012675  0.55307380  1
  Zn  Zn8  1  0.83682745  0.07012675  0.05307380  1
  Zn  Zn9  1  0.83682745  0.07012675  0.55307380  1
  Zn  Zn10  1  0.83682745  0.57012675  0.05307380  1
  Zn  Zn11  1  0.83682745  0.57012675  0.55307380  1
  Zn  Zn12  1  0.16317255  0.32012675  0.19692620  1
  Zn  Zn13  1  0.16317255  0.32012675  0.69692620  1
  Zn  Zn14  1  0.16317255  0.82012675  0.19692620  1
  Zn  Zn15  1  0.16317255  0.82012675  0.69692620  1
  Zn  Zn16  1  0.49650588  0.32012675  0.19692620  1
  Zn  Zn17  1  0.49650588  0.32012675  0.69692620  1
  Zn  Zn18  1  0.49650588  0.82012675  0.19692620  1
  Zn  Zn19  1  0.49650588  0.82012675  0.69692620  1
  Zn  Zn20  1  0.82983921  0.32012675  0.19692620  1
  Zn  Zn21  1  0.82983921  0.32012675  0.69692620  1
  Zn  Zn22  1  0.82983921  0.82012675  0.19692620  1
  Zn  Zn23  1  0.82983921  0.82012675  0.69692620  1
  Zn  Zn24  1  0.16317255  0.42987325  0.44692620  1
  Zn  Zn25  1  0.16317255  0.42987325  0.94692620  1
  Zn  Zn26  1  0.16317255  0.92987325  0.44692620  1
  Zn  Zn27  1  0.16317255  0.92987325  0.94692620  1
  Zn  Zn28  1  0.49650588  0.42987325  0.44692620  1
  Zn  Zn29  1  0.49650588  0.42987325  0.94692620  1
  Zn  Zn30  1  0.49650588  0.92987325  0.44692620  1
  Zn  Zn31  1  0.49650588  0.92987325  0.94692620  1
  Zn  Zn32  1  0.82983921  0.42987325  0.44692620  1
  Zn  Zn33  1  0.82983921  0.42987325  0.94692620  1
  Zn  Zn34  1  0.82983921  0.92987325  0.44692620  1
  Zn  Zn35  1  0.82983921  0.92987325  0.94692620  1
  Zn  Zn36  1  0.17016079  0.17987325  0.30307380  1
  Zn  Zn37  1  0.17016079  0.17987325  0.80307380  1
  Zn  Zn38  1  0.17016079  0.67987325  0.30307380  1
  Zn  Zn39  1  0.17016079  0.67987325  0.80307380  1
  Zn  Zn40  1  0.50349412  0.17987325  0.30307380  1
  Zn  Zn41  1  0.50349412  0.17987325  0.80307380  1
  Zn  Zn42  1  0.50349412  0.67987325  0.30307380  1
  Zn  Zn43  1  0.50349412  0.67987325  0.80307380  1
  Zn  Zn44  1  0.83682745  0.17987325  0.30307380  1
  Zn  Zn45  1  0.83682745  0.17987325  0.80307380  1
  Zn  Zn46  1  0.83682745  0.67987325  0.30307380  1
  Zn  Zn47  1  0.83682745  0.67987325  0.80307380  1
  Zn  Zn48  1  0.16666667  0.00000000  0.25000000  1
  Zn  Zn49  1  0.16666667  0.00000000  0.75000000  1
  Zn  Zn50  1  0.16666667  0.50000000  0.25000000  1
  Zn  Zn51  1  0.16666667  0.50000000  0.75000000  1
  Zn  Zn52  1  0.50000000  0.00000000  0.25000000  1
  Zn  Zn53  1  0.50000000  0.00000000  0.75000000  1
  Zn  Zn54  1  0.50000000  0.50000000  0.25000000  1
  Zn  Zn55  1  0.50000000  0.50000000  0.75000000  1
  Zn  Zn56  1  0.83333333  0.00000000  0.25000000  1
  Zn  Zn57  1  0.83333333  0.00000000  0.75000000  1
  Zn  Zn58  1  0.83333333  0.50000000  0.25000000  1
  Zn  Zn59  1  0.83333333  0.50000000  0.75000000  1
  Zn  Zn60  1  0.16666667  0.25000000  0.00000000  1
  Zn  Zn61  1  0.16666667  0.25000000  0.50000000  1
  Zn  Zn62  1  0.16666667  0.75000000  0.00000000  1
  Zn  Zn63  1  0.16666667  0.75000000  0.50000000  1
  Zn  Zn64  1  0.50000000  0.25000000  0.00000000  1
  Zn  Zn65  1  0.50000000  0.25000000  0.50000000  1
  Zn  Zn66  1  0.50000000  0.75000000  0.00000000  1
  Zn  Zn67  1  0.50000000  0.75000000  0.50000000  1
  Zn  Zn68  1  0.83333333  0.25000000  0.00000000  1
  Zn  Zn69  1  0.83333333  0.25000000  0.50000000  1
  Zn  Zn70  1  0.83333333  0.75000000  0.00000000  1
  Zn  Zn71  1  0.83333333  0.75000000  0.50000000  1
  As  As72  1  0.04842210  0.15335821  0.09617514  1
  As  As73  1  0.04842210  0.15335821  0.59617514  1
  As  As74  1  0.04842210  0.65335821  0.09617514  1
  As  As75  1  0.04842210  0.65335821  0.59617514  1
  As  As76  1  0.38175544  0.15335821  0.09617514  1
  As  As77  1  0.38175544  0.15335821  0.59617514  1
  As  As78  1  0.38175544  0.65335821  0.09617514  1
  As  As79  1  0.38175544  0.65335821  0.59617514  1
  As  As80  1  0.71508877  0.15335821  0.09617514  1
  As  As81  1  0.71508877  0.15335821  0.59617514  1
  As  As82  1  0.71508877  0.65335821  0.09617514  1
  As  As83  1  0.71508877  0.65335821  0.59617514  1
  As  As84  1  0.28491123  0.40335821  0.15382486  1
  As  As85  1  0.28491123  0.40335821  0.65382486  1
  As  As86  1  0.28491123  0.90335821  0.15382486  1
  As  As87  1  0.28491123  0.90335821  0.65382486  1
  As  As88  1  0.61824456  0.40335821  0.15382486  1
  As  As89  1  0.61824456  0.40335821  0.65382486  1
  As  As90  1  0.61824456  0.90335821  0.15382486  1
  As  As91  1  0.61824456  0.90335821  0.65382486  1
  As  As92  1  0.95157790  0.40335821  0.15382486  1
  As  As93  1  0.95157790  0.40335821  0.65382486  1
  As  As94  1  0.95157790  0.90335821  0.15382486  1
  As  As95  1  0.95157790  0.90335821  0.65382486  1
  As  As96  1  0.28491123  0.34664179  0.40382486  1
  As  As97  1  0.28491123  0.34664179  0.90382486  1
  As  As98  1  0.28491123  0.84664179  0.40382486  1
  As  As99  1  0.28491123  0.84664179  0.90382486  1
  As  As100  1  0.61824456  0.34664179  0.40382486  1
  As  As101  1  0.61824456  0.34664179  0.90382486  1
  As  As102  1  0.61824456  0.84664179  0.40382486  1
  As  As103  1  0.61824456  0.84664179  0.90382486  1
  As  As104  1  0.95157790  0.34664179  0.40382486  1
  As  As105  1  0.95157790  0.34664179  0.90382486  1
  As  As106  1  0.95157790  0.84664179  0.40382486  1
  As  As107  1  0.95157790  0.84664179  0.90382486  1
  As  As108  1  0.04842210  0.09664179  0.34617514  1
  As  As109  1  0.04842210  0.09664179  0.84617514  1
  As  As110  1  0.04842210  0.59664179  0.34617514  1
  As  As111  1  0.04842210  0.59664179  0.84617514  1
  As  As112  1  0.38175544  0.09664179  0.34617514  1
  As  As113  1  0.38175544  0.09664179  0.84617514  1
  As  As114  1  0.38175544  0.59664179  0.34617514  1
  As  As115  1  0.38175544  0.59664179  0.84617514  1
  As  As116  1  0.71508877  0.09664179  0.34617514  1
  As  As117  1  0.71508877  0.09664179  0.84617514  1
  As  As118  1  0.71508877  0.59664179  0.34617514  1
  As  As119  1  0.71508877  0.59664179  0.84617514  1
  O  O120  1  0.09564755  0.03099871  0.43225492  1
  O  O121  1  0.09564755  0.03099871  0.93225492  1
  O  O122  1  0.09564755  0.53099871  0.43225492  1
  O  O123  1  0.09564755  0.53099871  0.93225492  1
  O  O124  1  0.42898089  0.03099871  0.43225492  1
  O  O125  1  0.42898089  0.03099871  0.93225492  1
  O  O126  1  0.42898089  0.53099871  0.43225492  1
  O  O127  1  0.42898089  0.53099871  0.93225492  1
  O  O128  1  0.76231422  0.03099871  0.43225492  1
  O  O129  1  0.76231422  0.03099871  0.93225492  1
  O  O130  1  0.76231422  0.53099871  0.43225492  1
  O  O131  1  0.76231422  0.53099871  0.93225492  1
  O  O132  1  0.23768578  0.28099871  0.31774508  1
  O  O133  1  0.23768578  0.28099871  0.81774508  1
  O  O134  1  0.23768578  0.78099871  0.31774508  1
  O  O135  1  0.23768578  0.78099871  0.81774508  1
  O  O136  1  0.57101911  0.28099871  0.31774508  1
  O  O137  1  0.57101911  0.28099871  0.81774508  1
  O  O138  1  0.57101911  0.78099871  0.31774508  1
  O  O139  1  0.57101911  0.78099871  0.81774508  1
  O  O140  1  0.90435245  0.28099871  0.31774508  1
  O  O141  1  0.90435245  0.28099871  0.81774508  1
  O  O142  1  0.90435245  0.78099871  0.31774508  1
  O  O143  1  0.90435245  0.78099871  0.81774508  1
  O  O144  1  0.23768578  0.46900129  0.06774508  1
  O  O145  1  0.23768578  0.46900129  0.56774508  1
  O  O146  1  0.23768578  0.96900129  0.06774508  1
  O  O147  1  0.23768578  0.96900129  0.56774508  1
  O  O148  1  0.57101911  0.46900129  0.06774508  1
  O  O149  1  0.57101911  0.46900129  0.56774508  1
  O  O150  1  0.57101911  0.96900129  0.06774508  1
  O  O151  1  0.57101911  0.96900129  0.56774508  1
  O  O152  1  0.90435245  0.46900129  0.06774508  1
  O  O153  1  0.90435245  0.46900129  0.56774508  1
  O  O154  1  0.90435245  0.96900129  0.06774508  1
  O  O155  1  0.90435245  0.96900129  0.56774508  1
  O  O156  1  0.09564755  0.21900129  0.18225492  1
  O  O157  1  0.09564755  0.21900129  0.68225492  1
  O  O158  1  0.09564755  0.71900129  0.18225492  1
  O  O159  1  0.09564755  0.71900129  0.68225492  1
  O  O160  1  0.42898089  0.21900129  0.18225492  1
  O  O161  1  0.42898089  0.21900129  0.68225492  1
  O  O162  1  0.42898089  0.71900129  0.18225492  1
  O  O163  1  0.42898089  0.71900129  0.68225492  1
  O  O164  1  0.76231422  0.21900129  0.18225492  1
  O  O165  1  0.76231422  0.21900129  0.68225492  1
  O  O166  1  0.76231422  0.71900129  0.18225492  1
  O  O167  1  0.76231422  0.71900129  0.68225492  1
  O  O168  1  0.25918746  0.09897173  0.30728238  1
  O  O169  1  0.25918746  0.09897173  0.80728238  1
  O  O170  1  0.25918746  0.59897173  0.30728238  1
  O  O171  1  0.25918746  0.59897173  0.80728238  1
  O  O172  1  0.59252079  0.09897173  0.30728238  1
  O  O173  1  0.59252079  0.09897173  0.80728238  1
  O  O174  1  0.59252079  0.59897173  0.30728238  1
  O  O175  1  0.59252079  0.59897173  0.80728238  1
  O  O176  1  0.92585412  0.09897173  0.30728238  1
  O  O177  1  0.92585412  0.09897173  0.80728238  1
  O  O178  1  0.92585412  0.59897173  0.30728238  1
  O  O179  1  0.92585412  0.59897173  0.80728238  1
  O  O180  1  0.07414588  0.34897173  0.44271762  1
  O  O181  1  0.07414588  0.34897173  0.94271762  1
  O  O182  1  0.07414588  0.84897173  0.44271762  1
  O  O183  1  0.07414588  0.84897173  0.94271762  1
  O  O184  1  0.40747921  0.34897173  0.44271762  1
  O  O185  1  0.40747921  0.34897173  0.94271762  1
  O  O186  1  0.40747921  0.84897173  0.44271762  1
  O  O187  1  0.40747921  0.84897173  0.94271762  1
  O  O188  1  0.74081254  0.34897173  0.44271762  1
  O  O189  1  0.74081254  0.34897173  0.94271762  1
  O  O190  1  0.74081254  0.84897173  0.44271762  1
  O  O191  1  0.74081254  0.84897173  0.94271762  1
  O  O192  1  0.07414588  0.40102827  0.19271762  1
  O  O193  1  0.07414588  0.40102827  0.69271762  1
  O  O194  1  0.07414588  0.90102827  0.19271762  1
  O  O195  1  0.07414588  0.90102827  0.69271762  1
  O  O196  1  0.40747921  0.40102827  0.19271762  1
  O  O197  1  0.40747921  0.40102827  0.69271762  1
  O  O198  1  0.40747921  0.90102827  0.19271762  1
  O  O199  1  0.40747921  0.90102827  0.69271762  1
  O  O200  1  0.74081254  0.40102827  0.19271762  1
  O  O201  1  0.74081254  0.40102827  0.69271762  1
  O  O202  1  0.74081254  0.90102827  0.19271762  1
  O  O203  1  0.74081254  0.90102827  0.69271762  1
  O  O204  1  0.25918746  0.15102827  0.05728238  1
  O  O205  1  0.25918746  0.15102827  0.55728238  1
  O  O206  1  0.25918746  0.65102827  0.05728238  1
  O  O207  1  0.25918746  0.65102827  0.55728238  1
  O  O208  1  0.59252079  0.15102827  0.05728238  1
  O  O209  1  0.59252079  0.15102827  0.55728238  1
  O  O210  1  0.59252079  0.65102827  0.05728238  1
  O  O211  1  0.59252079  0.65102827  0.55728238  1
  O  O212  1  0.92585412  0.15102827  0.05728238  1
  O  O213  1  0.92585412  0.15102827  0.55728238  1
  O  O214  1  0.92585412  0.65102827  0.05728238  1
  O  O215  1  0.92585412  0.65102827  0.55728238  1
  O  O216  1  0.07368797  0.06943153  0.26554929  1
  O  O217  1  0.07368797  0.06943153  0.76554929  1
  O  O218  1  0.07368797  0.56943153  0.26554929  1
  O  O219  1  0.07368797  0.56943153  0.76554929  1
  O  O220  1  0.40702130  0.06943153  0.26554929  1
  O  O221  1  0.40702130  0.06943153  0.76554929  1
  O  O222  1  0.40702130  0.56943153  0.26554929  1
  O  O223  1  0.40702130  0.56943153  0.76554929  1
  O  O224  1  0.74035463  0.06943153  0.26554929  1
  O  O225  1  0.74035463  0.06943153  0.76554929  1
  O  O226  1  0.74035463  0.56943153  0.26554929  1
  O  O227  1  0.74035463  0.56943153  0.76554929  1
  O  O228  1  0.25964537  0.31943153  0.48445071  1
  O  O229  1  0.25964537  0.31943153  0.98445071  1
  O  O230  1  0.25964537  0.81943153  0.48445071  1
  O  O231  1  0.25964537  0.81943153  0.98445071  1
  O  O232  1  0.59297870  0.31943153  0.48445071  1
  O  O233  1  0.59297870  0.31943153  0.98445071  1
  O  O234  1  0.59297870  0.81943153  0.48445071  1
  O  O235  1  0.59297870  0.81943153  0.98445071  1
  O  O236  1  0.92631203  0.31943153  0.48445071  1
  O  O237  1  0.92631203  0.31943153  0.98445071  1
  O  O238  1  0.92631203  0.81943153  0.48445071  1
  O  O239  1  0.92631203  0.81943153  0.98445071  1
  O  O240  1  0.10985033  0.06253593  0.12723783  1
  O  O241  1  0.10985033  0.06253593  0.62723783  1
  O  O242  1  0.10985033  0.56253593  0.12723783  1
  O  O243  1  0.10985033  0.56253593  0.62723783  1
  O  O244  1  0.44318366  0.06253593  0.12723783  1
  O  O245  1  0.44318366  0.06253593  0.62723783  1
  O  O246  1  0.44318366  0.56253593  0.12723783  1
  O  O247  1  0.44318366  0.56253593  0.62723783  1
  O  O248  1  0.77651699  0.06253593  0.12723783  1
  O  O249  1  0.77651699  0.06253593  0.62723783  1
  O  O250  1  0.77651699  0.56253593  0.12723783  1
  O  O251  1  0.77651699  0.56253593  0.62723783  1
  O  O252  1  0.22348301  0.31253593  0.12276217  1
  O  O253  1  0.22348301  0.31253593  0.62276217  1
  O  O254  1  0.22348301  0.81253593  0.12276217  1
  O  O255  1  0.22348301  0.81253593  0.62276217  1
  O  O256  1  0.55681634  0.31253593  0.12276217  1
  O  O257  1  0.55681634  0.31253593  0.62276217  1
  O  O258  1  0.55681634  0.81253593  0.12276217  1
  O  O259  1  0.55681634  0.81253593  0.62276217  1
  O  O260  1  0.89014967  0.31253593  0.12276217  1
  O  O261  1  0.89014967  0.31253593  0.62276217  1
  O  O262  1  0.89014967  0.81253593  0.12276217  1
  O  O263  1  0.89014967  0.81253593  0.62276217  1
  O  O264  1  0.22348301  0.43746407  0.37276217  1
  O  O265  1  0.22348301  0.43746407  0.87276217  1
  O  O266  1  0.22348301  0.93746407  0.37276217  1
  O  O267  1  0.22348301  0.93746407  0.87276217  1
  O  O268  1  0.55681634  0.43746407  0.37276217  1
  O  O269  1  0.55681634  0.43746407  0.87276217  1
  O  O270  1  0.55681634  0.93746407  0.37276217  1
  O  O271  1  0.55681634  0.93746407  0.87276217  1
  O  O272  1  0.89014967  0.43746407  0.37276217  1
  O  O273  1  0.89014967  0.43746407  0.87276217  1
  O  O274  1  0.89014967  0.93746407  0.37276217  1
  O  O275  1  0.89014967  0.93746407  0.87276217  1
  O  O276  1  0.10985033  0.18746407  0.37723783  1
  O  O277  1  0.10985033  0.18746407  0.87723783  1
  O  O278  1  0.10985033  0.68746407  0.37723783  1
  O  O279  1  0.10985033  0.68746407  0.87723783  1
  O  O280  1  0.44318366  0.18746407  0.37723783  1
  O  O281  1  0.44318366  0.18746407  0.87723783  1
  O  O282  1  0.44318366  0.68746407  0.37723783  1
  O  O283  1  0.44318366  0.68746407  0.87723783  1
  O  O284  1  0.77651699  0.18746407  0.37723783  1
  O  O285  1  0.77651699  0.18746407  0.87723783  1
  O  O286  1  0.77651699  0.68746407  0.37723783  1
  O  O287  1  0.77651699  0.68746407  0.87723783  1
  O  O288  1  0.07368797  0.18056847  0.01554929  1
  O  O289  1  0.07368797  0.18056847  0.51554929  1
  O  O290  1  0.07368797  0.68056847  0.01554929  1
  O  O291  1  0.07368797  0.68056847  0.51554929  1
  O  O292  1  0.40702130  0.18056847  0.01554929  1
  O  O293  1  0.40702130  0.18056847  0.51554929  1
  O  O294  1  0.40702130  0.68056847  0.01554929  1
  O  O295  1  0.40702130  0.68056847  0.51554929  1
  O  O296  1  0.74035463  0.18056847  0.01554929  1
  O  O297  1  0.74035463  0.18056847  0.51554929  1
  O  O298  1  0.74035463  0.68056847  0.01554929  1
  O  O299  1  0.74035463  0.68056847  0.51554929  1
  O  O300  1  0.25964537  0.43056847  0.23445071  1
  O  O301  1  0.25964537  0.43056847  0.73445071  1
  O  O302  1  0.25964537  0.93056847  0.23445071  1
  O  O303  1  0.25964537  0.93056847  0.73445071  1
  O  O304  1  0.59297870  0.43056847  0.23445071  1
  O  O305  1  0.59297870  0.43056847  0.73445071  1
  O  O306  1  0.59297870  0.93056847  0.23445071  1
  O  O307  1  0.59297870  0.93056847  0.73445071  1
  O  O308  1  0.92631203  0.43056847  0.23445071  1
  O  O309  1  0.92631203  0.43056847  0.73445071  1
  O  O310  1  0.92631203  0.93056847  0.23445071  1
  O  O311  1  0.92631203  0.93056847  0.73445071  1
