# generated using pymatgen
data_VAg3O4
_symmetry_space_group_name_H-M   'P 1'
_cell_length_a   9.88501429
_cell_length_b   9.97783616
_cell_length_c   10.03969187
_cell_angle_alpha   90.00000000
_cell_angle_beta   115.39668366
_cell_angle_gamma   90.00000000
_symmetry_Int_Tables_number   1
_chemical_formula_structural   VAg3O4
_chemical_formula_sum   'V8 Ag24 O32'
_cell_volume   894.53011758
_cell_formula_units_Z   8
loop_
 _symmetry_equiv_pos_site_id
 _symmetry_equiv_pos_as_xyz
  1  'x, y, z'
loop_
 _atom_site_type_symbol
 _atom_site_label
 _atom_site_symmetry_multiplicity
 _atom_site_fract_x
 _atom_site_fract_y
 _atom_site_fract_z
 _atom_site_occupancy
  V  V0  1  0.50000000  -0.02593048  0.75000000  1
  V  V1  1  0.50000000  0.47406952  0.75000000  1
  V  V2  1  1.00000000  0.22406952  0.75000000  1
  V  V3  1  1.00000000  0.72406952  0.75000000  1
  V  V4  1  0.50000000  0.02593048  0.25000000  1
  V  V5  1  0.50000000  0.52593048  0.25000000  1
  V  V6  1  1.00000000  0.27593048  0.25000000  1
  V  V7  1  1.00000000  0.77593048  0.25000000  1
  Ag  Ag8  1  0.26011569  0.02394044  0.90542768  1
  Ag  Ag9  1  0.26011569  0.52394044  0.90542768  1
  Ag  Ag10  1  0.76011569  0.27394044  0.90542768  1
  Ag  Ag11  1  0.76011569  0.77394044  0.90542768  1
  Ag  Ag12  1  0.26011569  -0.02394044  0.40542768  1
  Ag  Ag13  1  0.26011569  0.47605956  0.40542768  1
  Ag  Ag14  1  0.76011569  0.22605956  0.40542768  1
  Ag  Ag15  1  0.76011569  0.72605956  0.40542768  1
  Ag  Ag16  1  0.73988431  -0.02394044  0.09457232  1
  Ag  Ag17  1  0.73988431  0.47605956  0.09457232  1
  Ag  Ag18  1  1.23988431  0.22605956  0.09457232  1
  Ag  Ag19  1  1.23988431  0.72605956  0.09457232  1
  Ag  Ag20  1  0.73988431  0.02394044  0.59457232  1
  Ag  Ag21  1  0.73988431  0.52394044  0.59457232  1
  Ag  Ag22  1  1.23988431  0.27394044  0.59457232  1
  Ag  Ag23  1  1.23988431  0.77394044  0.59457232  1
  Ag  Ag24  1  0.00000000  0.00000000  0.00000000  1
  Ag  Ag25  1  0.00000000  0.50000000  0.00000000  1
  Ag  Ag26  1  0.50000000  0.25000000  0.00000000  1
  Ag  Ag27  1  0.50000000  0.75000000  0.00000000  1
  Ag  Ag28  1  -0.00000000  0.00000000  0.50000000  1
  Ag  Ag29  1  -0.00000000  0.50000000  0.50000000  1
  Ag  Ag30  1  0.50000000  0.25000000  0.50000000  1
  Ag  Ag31  1  0.50000000  0.75000000  0.50000000  1
  O  O32  1  0.62239467  0.12572756  0.20666677  1
  O  O33  1  0.62239467  0.62572756  0.20666677  1
  O  O34  1  1.12239467  0.37572756  0.20666677  1
  O  O35  1  1.12239467  0.87572756  0.20666677  1
  O  O36  1  0.37760533  0.12572756  0.29333323  1
  O  O37  1  0.37760533  0.62572756  0.29333323  1
  O  O38  1  0.87760533  0.37572756  0.29333323  1
  O  O39  1  0.87760533  0.87572756  0.29333323  1
  O  O40  1  0.37760533  -0.12572756  0.79333323  1
  O  O41  1  0.37760533  0.37427244  0.79333323  1
  O  O42  1  0.87760533  0.12427244  0.79333323  1
  O  O43  1  0.87760533  0.62427244  0.79333323  1
  O  O44  1  0.62239467  -0.12572756  0.70666677  1
  O  O45  1  0.62239467  0.37427244  0.70666677  1
  O  O46  1  1.12239467  0.12427244  0.70666677  1
  O  O47  1  1.12239467  0.62427244  0.70666677  1
  O  O48  1  0.59682441  0.07843957  0.89822135  1
  O  O49  1  0.59682441  0.57843957  0.89822135  1
  O  O50  1  1.09682441  0.32843957  0.89822135  1
  O  O51  1  1.09682441  0.82843957  0.89822135  1
  O  O52  1  0.40317559  -0.07843957  0.10177865  1
  O  O53  1  0.40317559  0.42156043  0.10177865  1
  O  O54  1  0.90317559  0.17156043  0.10177865  1
  O  O55  1  0.90317559  0.67156043  0.10177865  1
  O  O56  1  0.40317559  0.07843957  0.60177865  1
  O  O57  1  0.40317559  0.57843957  0.60177865  1
  O  O58  1  0.90317559  0.32843957  0.60177865  1
  O  O59  1  0.90317559  0.82843957  0.60177865  1
  O  O60  1  0.59682441  -0.07843957  0.39822135  1
  O  O61  1  0.59682441  0.42156043  0.39822135  1
  O  O62  1  1.09682441  0.17156043  0.39822135  1
  O  O63  1  1.09682441  0.67156043  0.39822135  1
