# generated using pymatgen
data_Li2PdO2
_symmetry_space_group_name_H-M   'P 1'
_cell_length_a   8.96706833
_cell_length_b   7.55980179
_cell_length_c   9.08666878
_cell_angle_alpha   90.00000000
_cell_angle_beta   90.00000000
_cell_angle_gamma   90.00000000
_symmetry_Int_Tables_number   1
_chemical_formula_structural   Li2PdO2
_chemical_formula_sum   'Li24 Pd12 O24'
_cell_volume   615.97854549
_cell_formula_units_Z   12
loop_
 _symmetry_equiv_pos_site_id
 _symmetry_equiv_pos_as_xyz
  1  'x, y, z'
loop_
 _atom_site_type_symbol
 _atom_site_label
 _atom_site_symmetry_multiplicity
 _atom_site_fract_x
 _atom_site_fract_y
 _atom_site_fract_z
 _atom_site_occupancy
  Li  Li0  1  -0.00000000  0.00000000  0.69604841  1
  Li  Li1  1  -0.00000000  0.50000000  0.69604841  1
  Li  Li2  1  0.33333333  0.00000000  0.69604841  1
  Li  Li3  1  0.33333333  0.50000000  0.69604841  1
  Li  Li4  1  0.66666667  0.00000000  0.69604841  1
  Li  Li5  1  0.66666667  0.50000000  0.69604841  1
  Li  Li6  1  0.16666667  0.25000000  1.19604841  1
  Li  Li7  1  0.16666667  0.75000000  1.19604841  1
  Li  Li8  1  0.50000000  0.25000000  1.19604841  1
  Li  Li9  1  0.50000000  0.75000000  1.19604841  1
  Li  Li10  1  0.83333333  0.25000000  1.19604841  1
  Li  Li11  1  0.83333333  0.75000000  1.19604841  1
  Li  Li12  1  -0.00000000  -0.00000000  0.30395159  1
  Li  Li13  1  -0.00000000  0.50000000  0.30395159  1
  Li  Li14  1  0.33333333  -0.00000000  0.30395159  1
  Li  Li15  1  0.33333333  0.50000000  0.30395159  1
  Li  Li16  1  0.66666667  -0.00000000  0.30395159  1
  Li  Li17  1  0.66666667  0.50000000  0.30395159  1
  Li  Li18  1  0.16666667  0.25000000  0.80395159  1
  Li  Li19  1  0.16666667  0.75000000  0.80395159  1
  Li  Li20  1  0.50000000  0.25000000  0.80395159  1
  Li  Li21  1  0.50000000  0.75000000  0.80395159  1
  Li  Li22  1  0.83333333  0.25000000  0.80395159  1
  Li  Li23  1  0.83333333  0.75000000  0.80395159  1
  Pd  Pd24  1  -0.00000000  0.00000000  0.00000000  1
  Pd  Pd25  1  -0.00000000  0.50000000  0.00000000  1
  Pd  Pd26  1  0.33333333  0.00000000  0.00000000  1
  Pd  Pd27  1  0.33333333  0.50000000  0.00000000  1
  Pd  Pd28  1  0.66666667  0.00000000  0.00000000  1
  Pd  Pd29  1  0.66666667  0.50000000  0.00000000  1
  Pd  Pd30  1  0.16666667  0.25000000  0.50000000  1
  Pd  Pd31  1  0.16666667  0.75000000  0.50000000  1
  Pd  Pd32  1  0.50000000  0.25000000  0.50000000  1
  Pd  Pd33  1  0.50000000  0.75000000  0.50000000  1
  Pd  Pd34  1  0.83333333  0.25000000  0.50000000  1
  Pd  Pd35  1  0.83333333  0.75000000  0.50000000  1
  O  O36  1  0.16666667  0.00000000  0.15059324  1
  O  O37  1  0.16666667  0.50000000  0.15059324  1
  O  O38  1  0.50000000  0.00000000  0.15059324  1
  O  O39  1  0.50000000  0.50000000  0.15059324  1
  O  O40  1  0.83333333  0.00000000  0.15059324  1
  O  O41  1  0.83333333  0.50000000  0.15059324  1
  O  O42  1  0.33333333  0.25000000  0.65059324  1
  O  O43  1  0.33333333  0.75000000  0.65059324  1
  O  O44  1  0.66666667  0.25000000  0.65059324  1
  O  O45  1  0.66666667  0.75000000  0.65059324  1
  O  O46  1  1.00000000  0.25000000  0.65059324  1
  O  O47  1  1.00000000  0.75000000  0.65059324  1
  O  O48  1  -0.00000000  0.25000000  0.34940676  1
  O  O49  1  -0.00000000  0.75000000  0.34940676  1
  O  O50  1  0.33333333  0.25000000  0.34940676  1
  O  O51  1  0.33333333  0.75000000  0.34940676  1
  O  O52  1  0.66666667  0.25000000  0.34940676  1
  O  O53  1  0.66666667  0.75000000  0.34940676  1
  O  O54  1  0.16666667  0.50000000  0.84940676  1
  O  O55  1  0.16666667  1.00000000  0.84940676  1
  O  O56  1  0.50000000  0.50000000  0.84940676  1
  O  O57  1  0.50000000  1.00000000  0.84940676  1
  O  O58  1  0.83333333  0.50000000  0.84940676  1
  O  O59  1  0.83333333  1.00000000  0.84940676  1
