# generated using pymatgen
data_SrAl2(SiO4)2
_symmetry_space_group_name_H-M   'P 1'
_cell_length_a   15.59767605
_cell_length_b   15.59767605
_cell_length_c   15.23541454
_cell_angle_alpha   90.00000000
_cell_angle_beta   90.00000000
_cell_angle_gamma   120.00000000
_symmetry_Int_Tables_number   1
_chemical_formula_structural   SrAl2(SiO4)2
_chemical_formula_sum   'Sr18 Al36 Si36 O144'
_cell_volume   3209.99753817
_cell_formula_units_Z   18
loop_
 _symmetry_equiv_pos_site_id
 _symmetry_equiv_pos_as_xyz
  1  'x, y, z'
loop_
 _atom_site_type_symbol
 _atom_site_label
 _atom_site_symmetry_multiplicity
 _atom_site_fract_x
 _atom_site_fract_y
 _atom_site_fract_z
 _atom_site_occupancy
  Sr  Sr0  1  0.00000000  0.00000000  0.00000000  1
  Sr  Sr1  1  -0.00000000  0.33333333  0.00000000  1
  Sr  Sr2  1  -0.00000000  0.66666667  0.00000000  1
  Sr  Sr3  1  0.33333333  0.00000000  0.00000000  1
  Sr  Sr4  1  0.33333333  0.33333333  0.00000000  1
  Sr  Sr5  1  0.33333333  0.66666667  0.00000000  1
  Sr  Sr6  1  0.66666667  0.00000000  0.00000000  1
  Sr  Sr7  1  0.66666667  0.33333333  0.00000000  1
  Sr  Sr8  1  0.66666667  0.66666667  0.00000000  1
  Sr  Sr9  1  0.00000000  0.00000000  0.50000000  1
  Sr  Sr10  1  -0.00000000  0.33333333  0.50000000  1
  Sr  Sr11  1  -0.00000000  0.66666667  0.50000000  1
  Sr  Sr12  1  0.33333333  0.00000000  0.50000000  1
  Sr  Sr13  1  0.33333333  0.33333333  0.50000000  1
  Sr  Sr14  1  0.33333333  0.66666667  0.50000000  1
  Sr  Sr15  1  0.66666667  0.00000000  0.50000000  1
  Sr  Sr16  1  0.66666667  0.33333333  0.50000000  1
  Sr  Sr17  1  0.66666667  0.66666667  0.50000000  1
  Al  Al18  1  0.11111111  0.22222222  0.85573244  1
  Al  Al19  1  0.11111111  0.55555556  0.85573244  1
  Al  Al20  1  0.11111111  0.88888889  0.85573244  1
  Al  Al21  1  0.44444444  0.22222222  0.85573244  1
  Al  Al22  1  0.44444444  0.55555556  0.85573244  1
  Al  Al23  1  0.44444444  0.88888889  0.85573244  1
  Al  Al24  1  0.77777778  0.22222222  0.85573244  1
  Al  Al25  1  0.77777778  0.55555556  0.85573244  1
  Al  Al26  1  0.77777778  0.88888889  0.85573244  1
  Al  Al27  1  0.22222222  0.11111111  0.14426756  1
  Al  Al28  1  0.22222222  0.44444444  0.14426756  1
  Al  Al29  1  0.22222222  0.77777778  0.14426756  1
  Al  Al30  1  0.55555556  0.11111111  0.14426756  1
  Al  Al31  1  0.55555556  0.44444444  0.14426756  1
  Al  Al32  1  0.55555556  0.77777778  0.14426756  1
  Al  Al33  1  0.88888889  0.11111111  0.14426756  1
  Al  Al34  1  0.88888889  0.44444444  0.14426756  1
  Al  Al35  1  0.88888889  0.77777778  0.14426756  1
  Al  Al36  1  0.11111111  0.22222222  0.35573244  1
  Al  Al37  1  0.11111111  0.55555556  0.35573244  1
  Al  Al38  1  0.11111111  0.88888889  0.35573244  1
  Al  Al39  1  0.44444444  0.22222222  0.35573244  1
  Al  Al40  1  0.44444444  0.55555556  0.35573244  1
  Al  Al41  1  0.44444444  0.88888889  0.35573244  1
  Al  Al42  1  0.77777778  0.22222222  0.35573244  1
  Al  Al43  1  0.77777778  0.55555556  0.35573244  1
  Al  Al44  1  0.77777778  0.88888889  0.35573244  1
  Al  Al45  1  0.22222222  0.11111111  0.64426756  1
  Al  Al46  1  0.22222222  0.44444444  0.64426756  1
  Al  Al47  1  0.22222222  0.77777778  0.64426756  1
  Al  Al48  1  0.55555556  0.11111111  0.64426756  1
  Al  Al49  1  0.55555556  0.44444444  0.64426756  1
  Al  Al50  1  0.55555556  0.77777778  0.64426756  1
  Al  Al51  1  0.88888889  0.11111111  0.64426756  1
  Al  Al52  1  0.88888889  0.44444444  0.64426756  1
  Al  Al53  1  0.88888889  0.77777778  0.64426756  1
  Si  Si54  1  0.22222222  0.11111111  0.86105840  1
  Si  Si55  1  0.22222222  0.44444444  0.86105840  1
  Si  Si56  1  0.22222222  0.77777778  0.86105840  1
  Si  Si57  1  0.55555556  0.11111111  0.86105840  1
  Si  Si58  1  0.55555556  0.44444444  0.86105840  1
  Si  Si59  1  0.55555556  0.77777778  0.86105840  1
  Si  Si60  1  0.88888889  0.11111111  0.86105840  1
  Si  Si61  1  0.88888889  0.44444444  0.86105840  1
  Si  Si62  1  0.88888889  0.77777778  0.86105840  1
  Si  Si63  1  0.11111111  0.22222222  0.13894160  1
  Si  Si64  1  0.11111111  0.55555556  0.13894160  1
  Si  Si65  1  0.11111111  0.88888889  0.13894160  1
  Si  Si66  1  0.44444444  0.22222222  0.13894160  1
  Si  Si67  1  0.44444444  0.55555556  0.13894160  1
  Si  Si68  1  0.44444444  0.88888889  0.13894160  1
  Si  Si69  1  0.77777778  0.22222222  0.13894160  1
  Si  Si70  1  0.77777778  0.55555556  0.13894160  1
  Si  Si71  1  0.77777778  0.88888889  0.13894160  1
  Si  Si72  1  0.22222222  0.11111111  0.36105840  1
  Si  Si73  1  0.22222222  0.44444444  0.36105840  1
  Si  Si74  1  0.22222222  0.77777778  0.36105840  1
  Si  Si75  1  0.55555556  0.11111111  0.36105840  1
  Si  Si76  1  0.55555556  0.44444444  0.36105840  1
  Si  Si77  1  0.55555556  0.77777778  0.36105840  1
  Si  Si78  1  0.88888889  0.11111111  0.36105840  1
  Si  Si79  1  0.88888889  0.44444444  0.36105840  1
  Si  Si80  1  0.88888889  0.77777778  0.36105840  1
  Si  Si81  1  0.11111111  0.22222222  0.63894160  1
  Si  Si82  1  0.11111111  0.55555556  0.63894160  1
  Si  Si83  1  0.11111111  0.88888889  0.63894160  1
  Si  Si84  1  0.44444444  0.22222222  0.63894160  1
  Si  Si85  1  0.44444444  0.55555556  0.63894160  1
  Si  Si86  1  0.44444444  0.88888889  0.63894160  1
  Si  Si87  1  0.77777778  0.22222222  0.63894160  1
  Si  Si88  1  0.77777778  0.55555556  0.63894160  1
  Si  Si89  1  0.77777778  0.88888889  0.63894160  1
  O  O90  1  0.11111111  0.22222222  0.74357608  1
  O  O91  1  0.11111111  0.55555556  0.74357608  1
  O  O92  1  0.11111111  0.88888889  0.74357608  1
  O  O93  1  0.44444444  0.22222222  0.74357608  1
  O  O94  1  0.44444444  0.55555556  0.74357608  1
  O  O95  1  0.44444444  0.88888889  0.74357608  1
  O  O96  1  0.77777778  0.22222222  0.74357608  1
  O  O97  1  0.77777778  0.55555556  0.74357608  1
  O  O98  1  0.77777778  0.88888889  0.74357608  1
  O  O99  1  0.22222222  0.11111111  0.75642392  1
  O  O100  1  0.22222222  0.44444444  0.75642392  1
  O  O101  1  0.22222222  0.77777778  0.75642392  1
  O  O102  1  0.55555556  0.11111111  0.75642392  1
  O  O103  1  0.55555556  0.44444444  0.75642392  1
  O  O104  1  0.55555556  0.77777778  0.75642392  1
  O  O105  1  0.88888889  0.11111111  0.75642392  1
  O  O106  1  0.88888889  0.44444444  0.75642392  1
  O  O107  1  0.88888889  0.77777778  0.75642392  1
  O  O108  1  0.22222222  0.11111111  0.25642392  1
  O  O109  1  0.22222222  0.44444444  0.25642392  1
  O  O110  1  0.22222222  0.77777778  0.25642392  1
  O  O111  1  0.55555556  0.11111111  0.25642392  1
  O  O112  1  0.55555556  0.44444444  0.25642392  1
  O  O113  1  0.55555556  0.77777778  0.25642392  1
  O  O114  1  0.88888889  0.11111111  0.25642392  1
  O  O115  1  0.88888889  0.44444444  0.25642392  1
  O  O116  1  0.88888889  0.77777778  0.25642392  1
  O  O117  1  0.11111111  0.22222222  0.24357608  1
  O  O118  1  0.11111111  0.55555556  0.24357608  1
  O  O119  1  0.11111111  0.88888889  0.24357608  1
  O  O120  1  0.44444444  0.22222222  0.24357608  1
  O  O121  1  0.44444444  0.55555556  0.24357608  1
  O  O122  1  0.44444444  0.88888889  0.24357608  1
  O  O123  1  0.77777778  0.22222222  0.24357608  1
  O  O124  1  0.77777778  0.55555556  0.24357608  1
  O  O125  1  0.77777778  0.88888889  0.24357608  1
  O  O126  1  0.32933284  0.19788303  0.90014356  1
  O  O127  1  0.32933284  0.53121636  0.90014356  1
  O  O128  1  0.32933284  0.86454969  0.90014356  1
  O  O129  1  0.66266617  0.19788303  0.90014356  1
  O  O130  1  0.66266617  0.53121636  0.90014356  1
  O  O131  1  0.66266617  0.86454969  0.90014356  1
  O  O132  1  0.99599950  0.19788303  0.90014356  1
  O  O133  1  0.99599950  0.53121636  0.90014356  1
  O  O134  1  0.99599950  0.86454969  0.90014356  1
  O  O135  1  0.13545031  0.13144981  0.90014356  1
  O  O136  1  0.13545031  0.46478314  0.90014356  1
  O  O137  1  0.13545031  0.79811648  0.90014356  1
  O  O138  1  0.46878364  0.13144981  0.90014356  1
  O  O139  1  0.46878364  0.46478314  0.90014356  1
  O  O140  1  0.46878364  0.79811648  0.90014356  1
  O  O141  1  0.80211697  0.13144981  0.90014356  1
  O  O142  1  0.80211697  0.46478314  0.90014356  1
  O  O143  1  0.80211697  0.79811648  0.90014356  1
  O  O144  1  0.20188352  0.00400050  0.90014356  1
  O  O145  1  0.20188352  0.33733383  0.90014356  1
  O  O146  1  0.20188352  0.67066716  0.90014356  1
  O  O147  1  0.53521686  0.00400050  0.90014356  1
  O  O148  1  0.53521686  0.33733383  0.90014356  1
  O  O149  1  0.53521686  0.67066716  0.90014356  1
  O  O150  1  0.86855019  0.00400050  0.90014356  1
  O  O151  1  0.86855019  0.33733383  0.90014356  1
  O  O152  1  0.86855019  0.67066716  0.90014356  1
  O  O153  1  0.00400050  0.13545031  0.09985644  1
  O  O154  1  0.00400050  0.46878364  0.09985644  1
  O  O155  1  0.00400050  0.80211697  0.09985644  1
  O  O156  1  0.33733383  0.13545031  0.09985644  1
  O  O157  1  0.33733383  0.46878364  0.09985644  1
  O  O158  1  0.33733383  0.80211697  0.09985644  1
  O  O159  1  0.67066716  0.13545031  0.09985644  1
  O  O160  1  0.67066716  0.46878364  0.09985644  1
  O  O161  1  0.67066716  0.80211697  0.09985644  1
  O  O162  1  0.19788303  0.20188352  0.09985644  1
  O  O163  1  0.19788303  0.53521686  0.09985644  1
  O  O164  1  0.19788303  0.86855019  0.09985644  1
  O  O165  1  0.53121636  0.20188352  0.09985644  1
  O  O166  1  0.53121636  0.53521686  0.09985644  1
  O  O167  1  0.53121636  0.86855019  0.09985644  1
  O  O168  1  0.86454969  0.20188352  0.09985644  1
  O  O169  1  0.86454969  0.53521686  0.09985644  1
  O  O170  1  0.86454969  0.86855019  0.09985644  1
  O  O171  1  0.13144981  0.32933284  0.09985644  1
  O  O172  1  0.13144981  0.66266617  0.09985644  1
  O  O173  1  0.13144981  0.99599950  0.09985644  1
  O  O174  1  0.46478314  0.32933284  0.09985644  1
  O  O175  1  0.46478314  0.66266617  0.09985644  1
  O  O176  1  0.46478314  0.99599950  0.09985644  1
  O  O177  1  0.79811648  0.32933284  0.09985644  1
  O  O178  1  0.79811648  0.66266617  0.09985644  1
  O  O179  1  0.79811648  0.99599950  0.09985644  1
  O  O180  1  0.32933284  0.13144981  0.40014356  1
  O  O181  1  0.32933284  0.46478314  0.40014356  1
  O  O182  1  0.32933284  0.79811648  0.40014356  1
  O  O183  1  0.66266617  0.13144981  0.40014356  1
  O  O184  1  0.66266617  0.46478314  0.40014356  1
  O  O185  1  0.66266617  0.79811648  0.40014356  1
  O  O186  1  0.99599950  0.13144981  0.40014356  1
  O  O187  1  0.99599950  0.46478314  0.40014356  1
  O  O188  1  0.99599950  0.79811648  0.40014356  1
  O  O189  1  0.20188352  0.19788303  0.40014356  1
  O  O190  1  0.20188352  0.53121636  0.40014356  1
  O  O191  1  0.20188352  0.86454969  0.40014356  1
  O  O192  1  0.53521686  0.19788303  0.40014356  1
  O  O193  1  0.53521686  0.53121636  0.40014356  1
  O  O194  1  0.53521686  0.86454969  0.40014356  1
  O  O195  1  0.86855019  0.19788303  0.40014356  1
  O  O196  1  0.86855019  0.53121636  0.40014356  1
  O  O197  1  0.86855019  0.86454969  0.40014356  1
  O  O198  1  0.13545031  0.00400050  0.40014356  1
  O  O199  1  0.13545031  0.33733383  0.40014356  1
  O  O200  1  0.13545031  0.67066716  0.40014356  1
  O  O201  1  0.46878364  0.00400050  0.40014356  1
  O  O202  1  0.46878364  0.33733383  0.40014356  1
  O  O203  1  0.46878364  0.67066716  0.40014356  1
  O  O204  1  0.80211697  0.00400050  0.40014356  1
  O  O205  1  0.80211697  0.33733383  0.40014356  1
  O  O206  1  0.80211697  0.67066716  0.40014356  1
  O  O207  1  0.00400050  0.20188352  0.59985644  1
  O  O208  1  0.00400050  0.53521686  0.59985644  1
  O  O209  1  0.00400050  0.86855019  0.59985644  1
  O  O210  1  0.33733383  0.20188352  0.59985644  1
  O  O211  1  0.33733383  0.53521686  0.59985644  1
  O  O212  1  0.33733383  0.86855019  0.59985644  1
  O  O213  1  0.67066716  0.20188352  0.59985644  1
  O  O214  1  0.67066716  0.53521686  0.59985644  1
  O  O215  1  0.67066716  0.86855019  0.59985644  1
  O  O216  1  0.13144981  0.13545031  0.59985644  1
  O  O217  1  0.13144981  0.46878364  0.59985644  1
  O  O218  1  0.13144981  0.80211697  0.59985644  1
  O  O219  1  0.46478314  0.13545031  0.59985644  1
  O  O220  1  0.46478314  0.46878364  0.59985644  1
  O  O221  1  0.46478314  0.80211697  0.59985644  1
  O  O222  1  0.79811648  0.13545031  0.59985644  1
  O  O223  1  0.79811648  0.46878364  0.59985644  1
  O  O224  1  0.79811648  0.80211697  0.59985644  1
  O  O225  1  0.19788303  0.32933284  0.59985644  1
  O  O226  1  0.19788303  0.66266617  0.59985644  1
  O  O227  1  0.19788303  0.99599950  0.59985644  1
  O  O228  1  0.53121636  0.32933284  0.59985644  1
  O  O229  1  0.53121636  0.66266617  0.59985644  1
  O  O230  1  0.53121636  0.99599950  0.59985644  1
  O  O231  1  0.86454969  0.32933284  0.59985644  1
  O  O232  1  0.86454969  0.66266617  0.59985644  1
  O  O233  1  0.86454969  0.99599950  0.59985644  1
