# generated using pymatgen
data_LiGeBO4
_symmetry_space_group_name_H-M   'P 1'
_cell_length_a   13.59685025
_cell_length_b   13.59685025
_cell_length_c   13.83514400
_cell_angle_alpha   90.00000000
_cell_angle_beta   90.00000000
_cell_angle_gamma   90.00000000
_symmetry_Int_Tables_number   1
_chemical_formula_structural   LiGeBO4
_chemical_formula_sum   'Li36 Ge36 B36 O144'
_cell_volume   2557.76307086
_cell_formula_units_Z   36
loop_
 _symmetry_equiv_pos_site_id
 _symmetry_equiv_pos_as_xyz
  1  'x, y, z'
loop_
 _atom_site_type_symbol
 _atom_site_label
 _atom_site_symmetry_multiplicity
 _atom_site_fract_x
 _atom_site_fract_y
 _atom_site_fract_z
 _atom_site_occupancy
  Li  Li0  1  0.00000000  0.00000000  0.25000000  1
  Li  Li1  1  0.00000000  0.00000000  0.75000000  1
  Li  Li2  1  0.00000000  0.33333333  0.25000000  1
  Li  Li3  1  0.00000000  0.33333333  0.75000000  1
  Li  Li4  1  0.00000000  0.66666667  0.25000000  1
  Li  Li5  1  0.00000000  0.66666667  0.75000000  1
  Li  Li6  1  0.33333333  0.00000000  0.25000000  1
  Li  Li7  1  0.33333333  0.00000000  0.75000000  1
  Li  Li8  1  0.33333333  0.33333333  0.25000000  1
  Li  Li9  1  0.33333333  0.33333333  0.75000000  1
  Li  Li10  1  0.33333333  0.66666667  0.25000000  1
  Li  Li11  1  0.33333333  0.66666667  0.75000000  1
  Li  Li12  1  0.66666667  0.00000000  0.25000000  1
  Li  Li13  1  0.66666667  0.00000000  0.75000000  1
  Li  Li14  1  0.66666667  0.33333333  0.25000000  1
  Li  Li15  1  0.66666667  0.33333333  0.75000000  1
  Li  Li16  1  0.66666667  0.66666667  0.25000000  1
  Li  Li17  1  0.66666667  0.66666667  0.75000000  1
  Li  Li18  1  0.16666667  0.16666667  0.50000000  1
  Li  Li19  1  0.16666667  0.16666667  1.00000000  1
  Li  Li20  1  0.16666667  0.50000000  0.50000000  1
  Li  Li21  1  0.16666667  0.50000000  1.00000000  1
  Li  Li22  1  0.16666667  0.83333333  0.50000000  1
  Li  Li23  1  0.16666667  0.83333333  1.00000000  1
  Li  Li24  1  0.50000000  0.16666667  0.50000000  1
  Li  Li25  1  0.50000000  0.16666667  1.00000000  1
  Li  Li26  1  0.50000000  0.50000000  0.50000000  1
  Li  Li27  1  0.50000000  0.50000000  1.00000000  1
  Li  Li28  1  0.50000000  0.83333333  0.50000000  1
  Li  Li29  1  0.50000000  0.83333333  1.00000000  1
  Li  Li30  1  0.83333333  0.16666667  0.50000000  1
  Li  Li31  1  0.83333333  0.16666667  1.00000000  1
  Li  Li32  1  0.83333333  0.50000000  0.50000000  1
  Li  Li33  1  0.83333333  0.50000000  1.00000000  1
  Li  Li34  1  0.83333333  0.83333333  0.50000000  1
  Li  Li35  1  0.83333333  0.83333333  1.00000000  1
  Ge  Ge36  1  0.00000000  0.00000000  0.00000000  1
  Ge  Ge37  1  0.00000000  0.00000000  0.50000000  1
  Ge  Ge38  1  0.00000000  0.33333333  0.00000000  1
  Ge  Ge39  1  0.00000000  0.33333333  0.50000000  1
  Ge  Ge40  1  0.00000000  0.66666667  0.00000000  1
  Ge  Ge41  1  0.00000000  0.66666667  0.50000000  1
  Ge  Ge42  1  0.33333333  0.00000000  0.00000000  1
  Ge  Ge43  1  0.33333333  0.00000000  0.50000000  1
  Ge  Ge44  1  0.33333333  0.33333333  0.00000000  1
  Ge  Ge45  1  0.33333333  0.33333333  0.50000000  1
  Ge  Ge46  1  0.33333333  0.66666667  0.00000000  1
  Ge  Ge47  1  0.33333333  0.66666667  0.50000000  1
  Ge  Ge48  1  0.66666667  0.00000000  0.00000000  1
  Ge  Ge49  1  0.66666667  0.00000000  0.50000000  1
  Ge  Ge50  1  0.66666667  0.33333333  0.00000000  1
  Ge  Ge51  1  0.66666667  0.33333333  0.50000000  1
  Ge  Ge52  1  0.66666667  0.66666667  0.00000000  1
  Ge  Ge53  1  0.66666667  0.66666667  0.50000000  1
  Ge  Ge54  1  0.16666667  0.16666667  0.25000000  1
  Ge  Ge55  1  0.16666667  0.16666667  0.75000000  1
  Ge  Ge56  1  0.16666667  0.50000000  0.25000000  1
  Ge  Ge57  1  0.16666667  0.50000000  0.75000000  1
  Ge  Ge58  1  0.16666667  0.83333333  0.25000000  1
  Ge  Ge59  1  0.16666667  0.83333333  0.75000000  1
  Ge  Ge60  1  0.50000000  0.16666667  0.25000000  1
  Ge  Ge61  1  0.50000000  0.16666667  0.75000000  1
  Ge  Ge62  1  0.50000000  0.50000000  0.25000000  1
  Ge  Ge63  1  0.50000000  0.50000000  0.75000000  1
  Ge  Ge64  1  0.50000000  0.83333333  0.25000000  1
  Ge  Ge65  1  0.50000000  0.83333333  0.75000000  1
  Ge  Ge66  1  0.83333333  0.16666667  0.25000000  1
  Ge  Ge67  1  0.83333333  0.16666667  0.75000000  1
  Ge  Ge68  1  0.83333333  0.50000000  0.25000000  1
  Ge  Ge69  1  0.83333333  0.50000000  0.75000000  1
  Ge  Ge70  1  0.83333333  0.83333333  0.25000000  1
  Ge  Ge71  1  0.83333333  0.83333333  0.75000000  1
  B  B72  1  0.16666667  0.00000000  0.12500000  1
  B  B73  1  0.16666667  0.00000000  0.62500000  1
  B  B74  1  0.16666667  0.33333333  0.12500000  1
  B  B75  1  0.16666667  0.33333333  0.62500000  1
  B  B76  1  0.16666667  0.66666667  0.12500000  1
  B  B77  1  0.16666667  0.66666667  0.62500000  1
  B  B78  1  0.50000000  0.00000000  0.12500000  1
  B  B79  1  0.50000000  0.00000000  0.62500000  1
  B  B80  1  0.50000000  0.33333333  0.12500000  1
  B  B81  1  0.50000000  0.33333333  0.62500000  1
  B  B82  1  0.50000000  0.66666667  0.12500000  1
  B  B83  1  0.50000000  0.66666667  0.62500000  1
  B  B84  1  0.83333333  0.00000000  0.12500000  1
  B  B85  1  0.83333333  0.00000000  0.62500000  1
  B  B86  1  0.83333333  0.33333333  0.12500000  1
  B  B87  1  0.83333333  0.33333333  0.62500000  1
  B  B88  1  0.83333333  0.66666667  0.12500000  1
  B  B89  1  0.83333333  0.66666667  0.62500000  1
  B  B90  1  0.33333333  0.16666667  0.37500000  1
  B  B91  1  0.33333333  0.16666667  0.87500000  1
  B  B92  1  0.33333333  0.50000000  0.37500000  1
  B  B93  1  0.33333333  0.50000000  0.87500000  1
  B  B94  1  0.33333333  0.83333333  0.37500000  1
  B  B95  1  0.33333333  0.83333333  0.87500000  1
  B  B96  1  0.66666667  0.16666667  0.37500000  1
  B  B97  1  0.66666667  0.16666667  0.87500000  1
  B  B98  1  0.66666667  0.50000000  0.37500000  1
  B  B99  1  0.66666667  0.50000000  0.87500000  1
  B  B100  1  0.66666667  0.83333333  0.37500000  1
  B  B101  1  0.66666667  0.83333333  0.87500000  1
  B  B102  1  1.00000000  0.16666667  0.37500000  1
  B  B103  1  1.00000000  0.16666667  0.87500000  1
  B  B104  1  1.00000000  0.50000000  0.37500000  1
  B  B105  1  1.00000000  0.50000000  0.87500000  1
  B  B106  1  1.00000000  0.83333333  0.37500000  1
  B  B107  1  1.00000000  0.83333333  0.87500000  1
  O  O108  1  0.09665355  0.05800713  0.06658718  1
  O  O109  1  0.09665355  0.05800713  0.56658718  1
  O  O110  1  0.09665355  0.39134046  0.06658718  1
  O  O111  1  0.09665355  0.39134046  0.56658718  1
  O  O112  1  0.09665355  0.72467379  0.06658718  1
  O  O113  1  0.09665355  0.72467379  0.56658718  1
  O  O114  1  0.42998688  0.05800713  0.06658718  1
  O  O115  1  0.42998688  0.05800713  0.56658718  1
  O  O116  1  0.42998688  0.39134046  0.06658718  1
  O  O117  1  0.42998688  0.39134046  0.56658718  1
  O  O118  1  0.42998688  0.72467379  0.06658718  1
  O  O119  1  0.42998688  0.72467379  0.56658718  1
  O  O120  1  0.76332021  0.05800713  0.06658718  1
  O  O121  1  0.76332021  0.05800713  0.56658718  1
  O  O122  1  0.76332021  0.39134046  0.06658718  1
  O  O123  1  0.76332021  0.39134046  0.56658718  1
  O  O124  1  0.76332021  0.72467379  0.06658718  1
  O  O125  1  0.76332021  0.72467379  0.56658718  1
  O  O126  1  0.26332021  0.22467379  0.31658718  1
  O  O127  1  0.26332021  0.22467379  0.81658718  1
  O  O128  1  0.26332021  0.55800713  0.31658718  1
  O  O129  1  0.26332021  0.55800713  0.81658718  1
  O  O130  1  0.26332021  0.89134046  0.31658718  1
  O  O131  1  0.26332021  0.89134046  0.81658718  1
  O  O132  1  0.59665355  0.22467379  0.31658718  1
  O  O133  1  0.59665355  0.22467379  0.81658718  1
  O  O134  1  0.59665355  0.55800713  0.31658718  1
  O  O135  1  0.59665355  0.55800713  0.81658718  1
  O  O136  1  0.59665355  0.89134046  0.31658718  1
  O  O137  1  0.59665355  0.89134046  0.81658718  1
  O  O138  1  0.92998688  0.22467379  0.31658718  1
  O  O139  1  0.92998688  0.22467379  0.81658718  1
  O  O140  1  0.92998688  0.55800713  0.31658718  1
  O  O141  1  0.92998688  0.55800713  0.81658718  1
  O  O142  1  0.92998688  0.89134046  0.31658718  1
  O  O143  1  0.92998688  0.89134046  0.81658718  1
  O  O144  1  0.07001312  0.10865954  0.31658718  1
  O  O145  1  0.07001312  0.10865954  0.81658718  1
  O  O146  1  0.07001312  0.44199287  0.31658718  1
  O  O147  1  0.07001312  0.44199287  0.81658718  1
  O  O148  1  0.07001312  0.77532621  0.31658718  1
  O  O149  1  0.07001312  0.77532621  0.81658718  1
  O  O150  1  0.40334645  0.10865954  0.31658718  1
  O  O151  1  0.40334645  0.10865954  0.81658718  1
  O  O152  1  0.40334645  0.44199287  0.31658718  1
  O  O153  1  0.40334645  0.44199287  0.81658718  1
  O  O154  1  0.40334645  0.77532621  0.31658718  1
  O  O155  1  0.40334645  0.77532621  0.81658718  1
  O  O156  1  0.73667979  0.10865954  0.31658718  1
  O  O157  1  0.73667979  0.10865954  0.81658718  1
  O  O158  1  0.73667979  0.44199287  0.31658718  1
  O  O159  1  0.73667979  0.44199287  0.81658718  1
  O  O160  1  0.73667979  0.77532621  0.31658718  1
  O  O161  1  0.73667979  0.77532621  0.81658718  1
  O  O162  1  0.23667979  0.27532621  0.56658718  1
  O  O163  1  0.23667979  0.27532621  1.06658718  1
  O  O164  1  0.23667979  0.60865954  0.56658718  1
  O  O165  1  0.23667979  0.60865954  1.06658718  1
  O  O166  1  0.23667979  0.94199287  0.56658718  1
  O  O167  1  0.23667979  0.94199287  1.06658718  1
  O  O168  1  0.57001312  0.27532621  0.56658718  1
  O  O169  1  0.57001312  0.27532621  1.06658718  1
  O  O170  1  0.57001312  0.60865954  0.56658718  1
  O  O171  1  0.57001312  0.60865954  1.06658718  1
  O  O172  1  0.57001312  0.94199287  0.56658718  1
  O  O173  1  0.57001312  0.94199287  1.06658718  1
  O  O174  1  0.90334645  0.27532621  0.56658718  1
  O  O175  1  0.90334645  0.27532621  1.06658718  1
  O  O176  1  0.90334645  0.60865954  0.56658718  1
  O  O177  1  0.90334645  0.60865954  1.06658718  1
  O  O178  1  0.90334645  0.94199287  0.56658718  1
  O  O179  1  0.90334645  0.94199287  1.06658718  1
  O  O180  1  0.10865954  -0.07001312  0.18341282  1
  O  O181  1  0.10865954  -0.07001312  0.68341282  1
  O  O182  1  0.10865954  0.26332021  0.18341282  1
  O  O183  1  0.10865954  0.26332021  0.68341282  1
  O  O184  1  0.10865954  0.59665355  0.18341282  1
  O  O185  1  0.10865954  0.59665355  0.68341282  1
  O  O186  1  0.44199287  -0.07001312  0.18341282  1
  O  O187  1  0.44199287  -0.07001312  0.68341282  1
  O  O188  1  0.44199287  0.26332021  0.18341282  1
  O  O189  1  0.44199287  0.26332021  0.68341282  1
  O  O190  1  0.44199287  0.59665355  0.18341282  1
  O  O191  1  0.44199287  0.59665355  0.68341282  1
  O  O192  1  0.77532621  -0.07001312  0.18341282  1
  O  O193  1  0.77532621  -0.07001312  0.68341282  1
  O  O194  1  0.77532621  0.26332021  0.18341282  1
  O  O195  1  0.77532621  0.26332021  0.68341282  1
  O  O196  1  0.77532621  0.59665355  0.18341282  1
  O  O197  1  0.77532621  0.59665355  0.68341282  1
  O  O198  1  0.27532621  0.09665355  0.43341282  1
  O  O199  1  0.27532621  0.09665355  0.93341282  1
  O  O200  1  0.27532621  0.42998688  0.43341282  1
  O  O201  1  0.27532621  0.42998688  0.93341282  1
  O  O202  1  0.27532621  0.76332021  0.43341282  1
  O  O203  1  0.27532621  0.76332021  0.93341282  1
  O  O204  1  0.60865954  0.09665355  0.43341282  1
  O  O205  1  0.60865954  0.09665355  0.93341282  1
  O  O206  1  0.60865954  0.42998688  0.43341282  1
  O  O207  1  0.60865954  0.42998688  0.93341282  1
  O  O208  1  0.60865954  0.76332021  0.43341282  1
  O  O209  1  0.60865954  0.76332021  0.93341282  1
  O  O210  1  0.94199287  0.09665355  0.43341282  1
  O  O211  1  0.94199287  0.09665355  0.93341282  1
  O  O212  1  0.94199287  0.42998688  0.43341282  1
  O  O213  1  0.94199287  0.42998688  0.93341282  1
  O  O214  1  0.94199287  0.76332021  0.43341282  1
  O  O215  1  0.94199287  0.76332021  0.93341282  1
  O  O216  1  0.05800713  0.23667979  -0.06658718  1
  O  O217  1  0.05800713  0.23667979  0.43341282  1
  O  O218  1  0.05800713  0.57001312  -0.06658718  1
  O  O219  1  0.05800713  0.57001312  0.43341282  1
  O  O220  1  0.05800713  0.90334645  -0.06658718  1
  O  O221  1  0.05800713  0.90334645  0.43341282  1
  O  O222  1  0.39134046  0.23667979  -0.06658718  1
  O  O223  1  0.39134046  0.23667979  0.43341282  1
  O  O224  1  0.39134046  0.57001312  -0.06658718  1
  O  O225  1  0.39134046  0.57001312  0.43341282  1
  O  O226  1  0.39134046  0.90334645  -0.06658718  1
  O  O227  1  0.39134046  0.90334645  0.43341282  1
  O  O228  1  0.72467379  0.23667979  -0.06658718  1
  O  O229  1  0.72467379  0.23667979  0.43341282  1
  O  O230  1  0.72467379  0.57001312  -0.06658718  1
  O  O231  1  0.72467379  0.57001312  0.43341282  1
  O  O232  1  0.72467379  0.90334645  -0.06658718  1
  O  O233  1  0.72467379  0.90334645  0.43341282  1
  O  O234  1  0.22467379  0.40334645  0.18341282  1
  O  O235  1  0.22467379  0.40334645  0.68341282  1
  O  O236  1  0.22467379  0.73667979  0.18341282  1
  O  O237  1  0.22467379  0.73667979  0.68341282  1
  O  O238  1  0.22467379  1.07001312  0.18341282  1
  O  O239  1  0.22467379  1.07001312  0.68341282  1
  O  O240  1  0.55800713  0.40334645  0.18341282  1
  O  O241  1  0.55800713  0.40334645  0.68341282  1
  O  O242  1  0.55800713  0.73667979  0.18341282  1
  O  O243  1  0.55800713  0.73667979  0.68341282  1
  O  O244  1  0.55800713  1.07001312  0.18341282  1
  O  O245  1  0.55800713  1.07001312  0.68341282  1
  O  O246  1  0.89134046  0.40334645  0.18341282  1
  O  O247  1  0.89134046  0.40334645  0.68341282  1
  O  O248  1  0.89134046  0.73667979  0.18341282  1
  O  O249  1  0.89134046  0.73667979  0.68341282  1
  O  O250  1  0.89134046  1.07001312  0.18341282  1
  O  O251  1  0.89134046  1.07001312  0.68341282  1
