# generated using pymatgen
data_MoPbO4
_symmetry_space_group_name_H-M   'P 1'
_cell_length_a   10.83128984
_cell_length_b   10.83128984
_cell_length_c   11.92632046
_cell_angle_alpha   90.00000000
_cell_angle_beta   90.00000000
_cell_angle_gamma   90.00000000
_symmetry_Int_Tables_number   1
_chemical_formula_structural   MoPbO4
_chemical_formula_sum   'Mo16 Pb16 O64'
_cell_volume   1399.15822407
_cell_formula_units_Z   16
loop_
 _symmetry_equiv_pos_site_id
 _symmetry_equiv_pos_as_xyz
  1  'x, y, z'
loop_
 _atom_site_type_symbol
 _atom_site_label
 _atom_site_symmetry_multiplicity
 _atom_site_fract_x
 _atom_site_fract_y
 _atom_site_fract_z
 _atom_site_occupancy
  Mo  Mo0  1  0.00000000  0.25000000  0.25000000  1
  Mo  Mo1  1  0.50000000  0.25000000  0.25000000  1
  Mo  Mo2  1  0.00000000  -0.25000000  0.25000000  1
  Mo  Mo3  1  0.50000000  -0.25000000  0.25000000  1
  Mo  Mo4  1  0.25000000  0.00000000  0.75000000  1
  Mo  Mo5  1  0.75000000  0.00000000  0.75000000  1
  Mo  Mo6  1  0.25000000  -0.50000000  0.75000000  1
  Mo  Mo7  1  0.75000000  -0.50000000  0.75000000  1
  Mo  Mo8  1  0.00000000  0.50000000  0.50000000  1
  Mo  Mo9  1  0.50000000  0.50000000  0.50000000  1
  Mo  Mo10  1  0.00000000  0.00000000  0.50000000  1
  Mo  Mo11  1  0.50000000  0.00000000  0.50000000  1
  Mo  Mo12  1  0.25000000  0.25000000  1.00000000  1
  Mo  Mo13  1  0.75000000  0.25000000  1.00000000  1
  Mo  Mo14  1  0.25000000  -0.25000000  1.00000000  1
  Mo  Mo15  1  0.75000000  -0.25000000  1.00000000  1
  Pb  Pb16  1  0.25000000  0.50000000  0.25000000  1
  Pb  Pb17  1  0.75000000  0.50000000  0.25000000  1
  Pb  Pb18  1  0.25000000  0.00000000  0.25000000  1
  Pb  Pb19  1  0.75000000  0.00000000  0.25000000  1
  Pb  Pb20  1  0.50000000  0.25000000  0.75000000  1
  Pb  Pb21  1  1.00000000  0.25000000  0.75000000  1
  Pb  Pb22  1  0.50000000  -0.25000000  0.75000000  1
  Pb  Pb23  1  1.00000000  -0.25000000  0.75000000  1
  Pb  Pb24  1  0.00000000  0.50000000  0.00000000  1
  Pb  Pb25  1  0.50000000  0.50000000  0.00000000  1
  Pb  Pb26  1  0.00000000  0.00000000  0.00000000  1
  Pb  Pb27  1  0.50000000  0.00000000  0.00000000  1
  Pb  Pb28  1  0.25000000  0.25000000  0.50000000  1
  Pb  Pb29  1  0.75000000  0.25000000  0.50000000  1
  Pb  Pb30  1  0.25000000  -0.25000000  0.50000000  1
  Pb  Pb31  1  0.75000000  -0.25000000  0.50000000  1
  O  O32  1  0.11817932  0.17763384  0.33305458  1
  O  O33  1  0.61817932  0.17763384  0.33305458  1
  O  O34  1  0.11817932  -0.32236616  0.33305458  1
  O  O35  1  0.61817932  -0.32236616  0.33305458  1
  O  O36  1  0.36817932  -0.07236616  0.83305458  1
  O  O37  1  0.86817932  -0.07236616  0.83305458  1
  O  O38  1  0.36817932  -0.57236616  0.83305458  1
  O  O39  1  0.86817932  -0.57236616  0.83305458  1
  O  O40  1  -0.11817932  0.32236616  0.33305458  1
  O  O41  1  0.38182068  0.32236616  0.33305458  1
  O  O42  1  -0.11817932  -0.17763384  0.33305458  1
  O  O43  1  0.38182068  -0.17763384  0.33305458  1
  O  O44  1  0.13182068  0.07236616  0.83305458  1
  O  O45  1  0.63182068  0.07236616  0.83305458  1
  O  O46  1  0.13182068  -0.42763384  0.83305458  1
  O  O47  1  0.63182068  -0.42763384  0.83305458  1
  O  O48  1  -0.07236616  0.38182068  0.58305458  1
  O  O49  1  0.42763384  0.38182068  0.58305458  1
  O  O50  1  -0.07236616  -0.11817932  0.58305458  1
  O  O51  1  0.42763384  -0.11817932  0.58305458  1
  O  O52  1  0.17763384  0.13182068  1.08305458  1
  O  O53  1  0.67763384  0.13182068  1.08305458  1
  O  O54  1  0.17763384  -0.36817932  1.08305458  1
  O  O55  1  0.67763384  -0.36817932  1.08305458  1
  O  O56  1  0.32236616  0.36817932  0.08305458  1
  O  O57  1  0.82236616  0.36817932  0.08305458  1
  O  O58  1  0.32236616  -0.13182068  0.08305458  1
  O  O59  1  0.82236616  -0.13182068  0.08305458  1
  O  O60  1  0.57236616  0.11817932  0.58305458  1
  O  O61  1  1.07236616  0.11817932  0.58305458  1
  O  O62  1  0.57236616  -0.38182068  0.58305458  1
  O  O63  1  1.07236616  -0.38182068  0.58305458  1
  O  O64  1  0.13182068  0.32236616  -0.08305458  1
  O  O65  1  0.63182068  0.32236616  -0.08305458  1
  O  O66  1  0.13182068  -0.17763384  -0.08305458  1
  O  O67  1  0.63182068  -0.17763384  -0.08305458  1
  O  O68  1  0.38182068  0.07236616  0.41694542  1
  O  O69  1  0.88182068  0.07236616  0.41694542  1
  O  O70  1  0.38182068  -0.42763384  0.41694542  1
  O  O71  1  0.88182068  -0.42763384  0.41694542  1
  O  O72  1  0.11817932  0.42763384  0.41694542  1
  O  O73  1  0.61817932  0.42763384  0.41694542  1
  O  O74  1  0.11817932  -0.07236616  0.41694542  1
  O  O75  1  0.61817932  -0.07236616  0.41694542  1
  O  O76  1  0.36817932  0.17763384  0.91694542  1
  O  O77  1  0.86817932  0.17763384  0.91694542  1
  O  O78  1  0.36817932  -0.32236616  0.91694542  1
  O  O79  1  0.86817932  -0.32236616  0.91694542  1
  O  O80  1  0.07236616  0.36817932  0.16694542  1
  O  O81  1  0.57236616  0.36817932  0.16694542  1
  O  O82  1  0.07236616  -0.13182068  0.16694542  1
  O  O83  1  0.57236616  -0.13182068  0.16694542  1
  O  O84  1  0.32236616  0.11817932  0.66694542  1
  O  O85  1  0.82236616  0.11817932  0.66694542  1
  O  O86  1  0.32236616  -0.38182068  0.66694542  1
  O  O87  1  0.82236616  -0.38182068  0.66694542  1
  O  O88  1  -0.07236616  0.13182068  0.16694542  1
  O  O89  1  0.42763384  0.13182068  0.16694542  1
  O  O90  1  -0.07236616  -0.36817932  0.16694542  1
  O  O91  1  0.42763384  -0.36817932  0.16694542  1
  O  O92  1  0.17763384  -0.11817932  0.66694542  1
  O  O93  1  0.67763384  -0.11817932  0.66694542  1
  O  O94  1  0.17763384  -0.61817932  0.66694542  1
  O  O95  1  0.67763384  -0.61817932  0.66694542  1
