# generated using pymatgen
data_Cs3YO3
_symmetry_space_group_name_H-M   'P 1'
_cell_length_a   16.04745179
_cell_length_b   15.00644261
_cell_length_c   12.12997982
_cell_angle_alpha   90.00000000
_cell_angle_beta   94.82653898
_cell_angle_gamma   90.00000000
_symmetry_Int_Tables_number   1
_chemical_formula_structural   Cs3YO3
_chemical_formula_sum   'Cs48 Y16 O48'
_cell_volume   2910.72490343
_cell_formula_units_Z   16
loop_
 _symmetry_equiv_pos_site_id
 _symmetry_equiv_pos_as_xyz
  1  'x, y, z'
loop_
 _atom_site_type_symbol
 _atom_site_label
 _atom_site_symmetry_multiplicity
 _atom_site_fract_x
 _atom_site_fract_y
 _atom_site_fract_z
 _atom_site_occupancy
  Cs  Cs0  1  0.32525840  0.42266407  0.57571029  1
  Cs  Cs1  1  0.32525840  0.92266407  0.57571029  1
  Cs  Cs2  1  0.82525840  0.42266407  0.57571029  1
  Cs  Cs3  1  0.82525840  0.92266407  0.57571029  1
  Cs  Cs4  1  0.02987662  0.06331759  0.65966329  1
  Cs  Cs5  1  0.02987662  0.56331759  0.65966329  1
  Cs  Cs6  1  0.52987662  0.06331759  0.65966329  1
  Cs  Cs7  1  0.52987662  0.56331759  0.65966329  1
  Cs  Cs8  1  0.30815627  0.16136835  0.69040629  1
  Cs  Cs9  1  0.30815627  0.66136835  0.69040629  1
  Cs  Cs10  1  0.80815627  0.16136835  0.69040629  1
  Cs  Cs11  1  0.80815627  0.66136835  0.69040629  1
  Cs  Cs12  1  0.19184373  0.41136835  0.80959371  1
  Cs  Cs13  1  0.19184373  0.91136835  0.80959371  1
  Cs  Cs14  1  0.69184373  0.41136835  0.80959371  1
  Cs  Cs15  1  0.69184373  0.91136835  0.80959371  1
  Cs  Cs16  1  0.47012338  0.31331759  0.84033671  1
  Cs  Cs17  1  0.47012338  0.81331759  0.84033671  1
  Cs  Cs18  1  0.97012338  0.31331759  0.84033671  1
  Cs  Cs19  1  0.97012338  0.81331759  0.84033671  1
  Cs  Cs20  1  0.17474160  0.17266407  0.92428971  1
  Cs  Cs21  1  0.17474160  0.67266407  0.92428971  1
  Cs  Cs22  1  0.67474160  0.17266407  0.92428971  1
  Cs  Cs23  1  0.67474160  0.67266407  0.92428971  1
  Cs  Cs24  1  0.32525840  0.32733593  0.07571029  1
  Cs  Cs25  1  0.32525840  0.82733593  0.07571029  1
  Cs  Cs26  1  0.82525840  0.32733593  0.07571029  1
  Cs  Cs27  1  0.82525840  0.82733593  0.07571029  1
  Cs  Cs28  1  0.02987662  0.18668241  0.15966329  1
  Cs  Cs29  1  0.02987662  0.68668241  0.15966329  1
  Cs  Cs30  1  0.52987662  0.18668241  0.15966329  1
  Cs  Cs31  1  0.52987662  0.68668241  0.15966329  1
  Cs  Cs32  1  0.30815627  0.08863165  0.19040629  1
  Cs  Cs33  1  0.30815627  0.58863165  0.19040629  1
  Cs  Cs34  1  0.80815627  0.08863165  0.19040629  1
  Cs  Cs35  1  0.80815627  0.58863165  0.19040629  1
  Cs  Cs36  1  0.19184373  0.33863165  0.30959371  1
  Cs  Cs37  1  0.19184373  0.83863165  0.30959371  1
  Cs  Cs38  1  0.69184373  0.33863165  0.30959371  1
  Cs  Cs39  1  0.69184373  0.83863165  0.30959371  1
  Cs  Cs40  1  0.47012338  0.43668241  0.34033671  1
  Cs  Cs41  1  0.47012338  0.93668241  0.34033671  1
  Cs  Cs42  1  0.97012338  0.43668241  0.34033671  1
  Cs  Cs43  1  0.97012338  0.93668241  0.34033671  1
  Cs  Cs44  1  0.17474160  0.07733593  0.42428971  1
  Cs  Cs45  1  0.17474160  0.57733593  0.42428971  1
  Cs  Cs46  1  0.67474160  0.07733593  0.42428971  1
  Cs  Cs47  1  0.67474160  0.57733593  0.42428971  1
  Y  Y48  1  0.07732922  0.29633848  0.57195793  1
  Y  Y49  1  0.07732922  0.79633848  0.57195793  1
  Y  Y50  1  0.57732922  0.29633848  0.57195793  1
  Y  Y51  1  0.57732922  0.79633848  0.57195793  1
  Y  Y52  1  0.42267078  0.04633848  0.92804207  1
  Y  Y53  1  0.42267078  0.54633848  0.92804207  1
  Y  Y54  1  0.92267078  0.04633848  0.92804207  1
  Y  Y55  1  0.92267078  0.54633848  0.92804207  1
  Y  Y56  1  0.07732922  0.45366152  0.07195793  1
  Y  Y57  1  0.07732922  0.95366152  0.07195793  1
  Y  Y58  1  0.57732922  0.45366152  0.07195793  1
  Y  Y59  1  0.57732922  0.95366152  0.07195793  1
  Y  Y60  1  0.42267078  0.20366152  0.42804207  1
  Y  Y61  1  0.42267078  0.70366152  0.42804207  1
  Y  Y62  1  0.92267078  0.20366152  0.42804207  1
  Y  Y63  1  0.92267078  0.70366152  0.42804207  1
  O  O64  1  0.12293393  0.42718202  0.55586425  1
  O  O65  1  0.12293393  0.92718202  0.55586425  1
  O  O66  1  0.62293393  0.42718202  0.55586425  1
  O  O67  1  0.62293393  0.92718202  0.55586425  1
  O  O68  1  0.44313121  0.27543057  0.58456798  1
  O  O69  1  0.44313121  0.77543057  0.58456798  1
  O  O70  1  0.94313121  0.27543057  0.58456798  1
  O  O71  1  0.94313121  0.77543057  0.58456798  1
  O  O72  1  0.14502899  0.22829713  0.70114729  1
  O  O73  1  0.14502899  0.72829713  0.70114729  1
  O  O74  1  0.64502899  0.22829713  0.70114729  1
  O  O75  1  0.64502899  0.72829713  0.70114729  1
  O  O76  1  0.35497101  0.47829713  0.79885271  1
  O  O77  1  0.35497101  0.97829713  0.79885271  1
  O  O78  1  0.85497101  0.47829713  0.79885271  1
  O  O79  1  0.85497101  0.97829713  0.79885271  1
  O  O80  1  0.05686879  0.02543057  0.91543202  1
  O  O81  1  0.05686879  0.52543057  0.91543202  1
  O  O82  1  0.55686879  0.02543057  0.91543202  1
  O  O83  1  0.55686879  0.52543057  0.91543202  1
  O  O84  1  0.37706607  0.17718202  0.94413575  1
  O  O85  1  0.37706607  0.67718202  0.94413575  1
  O  O86  1  0.87706607  0.17718202  0.94413575  1
  O  O87  1  0.87706607  0.67718202  0.94413575  1
  O  O88  1  0.12293393  0.32281798  0.05586425  1
  O  O89  1  0.12293393  0.82281798  0.05586425  1
  O  O90  1  0.62293393  0.32281798  0.05586425  1
  O  O91  1  0.62293393  0.82281798  0.05586425  1
  O  O92  1  0.44313121  0.47456943  0.08456798  1
  O  O93  1  0.44313121  0.97456943  0.08456798  1
  O  O94  1  0.94313121  0.47456943  0.08456798  1
  O  O95  1  0.94313121  0.97456943  0.08456798  1
  O  O96  1  0.14502899  0.02170287  0.20114729  1
  O  O97  1  0.14502899  0.52170287  0.20114729  1
  O  O98  1  0.64502899  0.02170287  0.20114729  1
  O  O99  1  0.64502899  0.52170287  0.20114729  1
  O  O100  1  0.35497101  0.27170287  0.29885271  1
  O  O101  1  0.35497101  0.77170287  0.29885271  1
  O  O102  1  0.85497101  0.27170287  0.29885271  1
  O  O103  1  0.85497101  0.77170287  0.29885271  1
  O  O104  1  0.05686879  0.22456943  0.41543202  1
  O  O105  1  0.05686879  0.72456943  0.41543202  1
  O  O106  1  0.55686879  0.22456943  0.41543202  1
  O  O107  1  0.55686879  0.72456943  0.41543202  1
  O  O108  1  0.37706607  0.07281798  0.44413575  1
  O  O109  1  0.37706607  0.57281798  0.44413575  1
  O  O110  1  0.87706607  0.07281798  0.44413575  1
  O  O111  1  0.87706607  0.57281798  0.44413575  1
