# generated using pymatgen
data_La3HfGa5O14
_symmetry_space_group_name_H-M   'P 1'
_cell_length_a   16.50046106
_cell_length_b   16.50046106
_cell_length_c   15.44027941
_cell_angle_alpha   90.00000000
_cell_angle_beta   90.00000000
_cell_angle_gamma   120.00000000
_symmetry_Int_Tables_number   1
_chemical_formula_structural   La3HfGa5O14
_chemical_formula_sum   'La36 Hf12 Ga60 O168'
_cell_volume   3640.64175749
_cell_formula_units_Z   12
loop_
 _symmetry_equiv_pos_site_id
 _symmetry_equiv_pos_as_xyz
  1  'x, y, z'
loop_
 _atom_site_type_symbol
 _atom_site_label
 _atom_site_symmetry_multiplicity
 _atom_site_fract_x
 _atom_site_fract_y
 _atom_site_fract_z
 _atom_site_occupancy
  La  La0  1  0.28673265  0.00000000  0.00000000  1
  La  La1  1  0.28673265  0.00000000  0.33333333  1
  La  La2  1  0.28673265  0.00000000  0.66666667  1
  La  La3  1  0.28673265  0.50000000  0.00000000  1
  La  La4  1  0.28673265  0.50000000  0.33333333  1
  La  La5  1  0.28673265  0.50000000  0.66666667  1
  La  La6  1  0.78673265  0.00000000  0.00000000  1
  La  La7  1  0.78673265  0.00000000  0.33333333  1
  La  La8  1  0.78673265  0.00000000  0.66666667  1
  La  La9  1  0.78673265  0.50000000  0.00000000  1
  La  La10  1  0.78673265  0.50000000  0.33333333  1
  La  La11  1  0.78673265  0.50000000  0.66666667  1
  La  La12  1  -0.00000000  0.28673265  0.00000000  1
  La  La13  1  -0.00000000  0.28673265  0.33333333  1
  La  La14  1  -0.00000000  0.28673265  0.66666667  1
  La  La15  1  -0.00000000  0.78673265  0.00000000  1
  La  La16  1  -0.00000000  0.78673265  0.33333333  1
  La  La17  1  -0.00000000  0.78673265  0.66666667  1
  La  La18  1  0.50000000  0.28673265  0.00000000  1
  La  La19  1  0.50000000  0.28673265  0.33333333  1
  La  La20  1  0.50000000  0.28673265  0.66666667  1
  La  La21  1  0.50000000  0.78673265  0.00000000  1
  La  La22  1  0.50000000  0.78673265  0.33333333  1
  La  La23  1  0.50000000  0.78673265  0.66666667  1
  La  La24  1  0.21326735  0.21326735  0.00000000  1
  La  La25  1  0.21326735  0.21326735  0.33333333  1
  La  La26  1  0.21326735  0.21326735  0.66666667  1
  La  La27  1  0.21326735  0.71326735  0.00000000  1
  La  La28  1  0.21326735  0.71326735  0.33333333  1
  La  La29  1  0.21326735  0.71326735  0.66666667  1
  La  La30  1  0.71326735  0.21326735  0.00000000  1
  La  La31  1  0.71326735  0.21326735  0.33333333  1
  La  La32  1  0.71326735  0.21326735  0.66666667  1
  La  La33  1  0.71326735  0.71326735  0.00000000  1
  La  La34  1  0.71326735  0.71326735  0.33333333  1
  La  La35  1  0.71326735  0.71326735  0.66666667  1
  Hf  Hf36  1  0.00000000  0.00000000  0.00000000  1
  Hf  Hf37  1  0.00000000  0.00000000  0.33333333  1
  Hf  Hf38  1  0.00000000  0.00000000  0.66666667  1
  Hf  Hf39  1  -0.00000000  0.50000000  0.00000000  1
  Hf  Hf40  1  -0.00000000  0.50000000  0.33333333  1
  Hf  Hf41  1  -0.00000000  0.50000000  0.66666667  1
  Hf  Hf42  1  0.50000000  0.00000000  0.00000000  1
  Hf  Hf43  1  0.50000000  0.00000000  0.33333333  1
  Hf  Hf44  1  0.50000000  0.00000000  0.66666667  1
  Hf  Hf45  1  0.50000000  0.50000000  0.00000000  1
  Hf  Hf46  1  0.50000000  0.50000000  0.33333333  1
  Hf  Hf47  1  0.50000000  0.50000000  0.66666667  1
  Ga  Ga48  1  0.16666667  0.33333333  0.17696772  1
  Ga  Ga49  1  0.16666667  0.33333333  0.51030106  1
  Ga  Ga50  1  0.16666667  0.33333333  0.84363439  1
  Ga  Ga51  1  0.16666667  0.83333333  0.17696772  1
  Ga  Ga52  1  0.16666667  0.83333333  0.51030106  1
  Ga  Ga53  1  0.16666667  0.83333333  0.84363439  1
  Ga  Ga54  1  0.66666667  0.33333333  0.17696772  1
  Ga  Ga55  1  0.66666667  0.33333333  0.51030106  1
  Ga  Ga56  1  0.66666667  0.33333333  0.84363439  1
  Ga  Ga57  1  0.66666667  0.83333333  0.17696772  1
  Ga  Ga58  1  0.66666667  0.83333333  0.51030106  1
  Ga  Ga59  1  0.66666667  0.83333333  0.84363439  1
  Ga  Ga60  1  0.33333333  0.16666667  0.15636561  1
  Ga  Ga61  1  0.33333333  0.16666667  0.48969894  1
  Ga  Ga62  1  0.33333333  0.16666667  0.82303228  1
  Ga  Ga63  1  0.33333333  0.66666667  0.15636561  1
  Ga  Ga64  1  0.33333333  0.66666667  0.48969894  1
  Ga  Ga65  1  0.33333333  0.66666667  0.82303228  1
  Ga  Ga66  1  0.83333333  0.16666667  0.15636561  1
  Ga  Ga67  1  0.83333333  0.16666667  0.48969894  1
  Ga  Ga68  1  0.83333333  0.16666667  0.82303228  1
  Ga  Ga69  1  0.83333333  0.66666667  0.15636561  1
  Ga  Ga70  1  0.83333333  0.66666667  0.48969894  1
  Ga  Ga71  1  0.83333333  0.66666667  0.82303228  1
  Ga  Ga72  1  0.12229732  0.00000000  0.16666667  1
  Ga  Ga73  1  0.12229732  0.00000000  0.50000000  1
  Ga  Ga74  1  0.12229732  0.00000000  0.83333333  1
  Ga  Ga75  1  0.12229732  0.50000000  0.16666667  1
  Ga  Ga76  1  0.12229732  0.50000000  0.50000000  1
  Ga  Ga77  1  0.12229732  0.50000000  0.83333333  1
  Ga  Ga78  1  0.62229732  0.00000000  0.16666667  1
  Ga  Ga79  1  0.62229732  0.00000000  0.50000000  1
  Ga  Ga80  1  0.62229732  0.00000000  0.83333333  1
  Ga  Ga81  1  0.62229732  0.50000000  0.16666667  1
  Ga  Ga82  1  0.62229732  0.50000000  0.50000000  1
  Ga  Ga83  1  0.62229732  0.50000000  0.83333333  1
  Ga  Ga84  1  -0.00000000  0.12229732  0.16666667  1
  Ga  Ga85  1  -0.00000000  0.12229732  0.50000000  1
  Ga  Ga86  1  -0.00000000  0.12229732  0.83333333  1
  Ga  Ga87  1  -0.00000000  0.62229732  0.16666667  1
  Ga  Ga88  1  -0.00000000  0.62229732  0.50000000  1
  Ga  Ga89  1  -0.00000000  0.62229732  0.83333333  1
  Ga  Ga90  1  0.50000000  0.12229732  0.16666667  1
  Ga  Ga91  1  0.50000000  0.12229732  0.50000000  1
  Ga  Ga92  1  0.50000000  0.12229732  0.83333333  1
  Ga  Ga93  1  0.50000000  0.62229732  0.16666667  1
  Ga  Ga94  1  0.50000000  0.62229732  0.50000000  1
  Ga  Ga95  1  0.50000000  0.62229732  0.83333333  1
  Ga  Ga96  1  0.37770268  0.37770268  0.16666667  1
  Ga  Ga97  1  0.37770268  0.37770268  0.50000000  1
  Ga  Ga98  1  0.37770268  0.37770268  0.83333333  1
  Ga  Ga99  1  0.37770268  0.87770268  0.16666667  1
  Ga  Ga100  1  0.37770268  0.87770268  0.50000000  1
  Ga  Ga101  1  0.37770268  0.87770268  0.83333333  1
  Ga  Ga102  1  0.87770268  0.37770268  0.16666667  1
  Ga  Ga103  1  0.87770268  0.37770268  0.50000000  1
  Ga  Ga104  1  0.87770268  0.37770268  0.83333333  1
  Ga  Ga105  1  0.87770268  0.87770268  0.16666667  1
  Ga  Ga106  1  0.87770268  0.87770268  0.50000000  1
  Ga  Ga107  1  0.87770268  0.87770268  0.83333333  1
  O  O108  1  0.07426452  0.11392525  0.08111240  1
  O  O109  1  0.07426452  0.11392525  0.41444573  1
  O  O110  1  0.07426452  0.11392525  0.74777906  1
  O  O111  1  0.07426452  0.61392525  0.08111240  1
  O  O112  1  0.07426452  0.61392525  0.41444573  1
  O  O113  1  0.07426452  0.61392525  0.74777906  1
  O  O114  1  0.57426452  0.11392525  0.08111240  1
  O  O115  1  0.57426452  0.11392525  0.41444573  1
  O  O116  1  0.57426452  0.11392525  0.74777906  1
  O  O117  1  0.57426452  0.61392525  0.08111240  1
  O  O118  1  0.57426452  0.61392525  0.41444573  1
  O  O119  1  0.57426452  0.61392525  0.74777906  1
  O  O120  1  0.38607475  0.46033927  0.08111240  1
  O  O121  1  0.38607475  0.46033927  0.41444573  1
  O  O122  1  0.38607475  0.46033927  0.74777906  1
  O  O123  1  0.38607475  0.96033927  0.08111240  1
  O  O124  1  0.38607475  0.96033927  0.41444573  1
  O  O125  1  0.38607475  0.96033927  0.74777906  1
  O  O126  1  0.88607475  0.46033927  0.08111240  1
  O  O127  1  0.88607475  0.46033927  0.41444573  1
  O  O128  1  0.88607475  0.46033927  0.74777906  1
  O  O129  1  0.88607475  0.96033927  0.08111240  1
  O  O130  1  0.88607475  0.96033927  0.41444573  1
  O  O131  1  0.88607475  0.96033927  0.74777906  1
  O  O132  1  0.11392525  0.07426452  0.25222094  1
  O  O133  1  0.11392525  0.07426452  0.58555427  1
  O  O134  1  0.11392525  0.07426452  0.91888760  1
  O  O135  1  0.11392525  0.57426452  0.25222094  1
  O  O136  1  0.11392525  0.57426452  0.58555427  1
  O  O137  1  0.11392525  0.57426452  0.91888760  1
  O  O138  1  0.61392525  0.07426452  0.25222094  1
  O  O139  1  0.61392525  0.07426452  0.58555427  1
  O  O140  1  0.61392525  0.07426452  0.91888760  1
  O  O141  1  0.61392525  0.57426452  0.25222094  1
  O  O142  1  0.61392525  0.57426452  0.58555427  1
  O  O143  1  0.61392525  0.57426452  0.91888760  1
  O  O144  1  0.03966073  0.42573548  0.08111240  1
  O  O145  1  0.03966073  0.42573548  0.41444573  1
  O  O146  1  0.03966073  0.42573548  0.74777906  1
  O  O147  1  0.03966073  0.92573548  0.08111240  1
  O  O148  1  0.03966073  0.92573548  0.41444573  1
  O  O149  1  0.03966073  0.92573548  0.74777906  1
  O  O150  1  0.53966073  0.42573548  0.08111240  1
  O  O151  1  0.53966073  0.42573548  0.41444573  1
  O  O152  1  0.53966073  0.42573548  0.74777906  1
  O  O153  1  0.53966073  0.92573548  0.08111240  1
  O  O154  1  0.53966073  0.92573548  0.41444573  1
  O  O155  1  0.53966073  0.92573548  0.74777906  1
  O  O156  1  0.46033927  0.38607475  0.25222094  1
  O  O157  1  0.46033927  0.38607475  0.58555427  1
  O  O158  1  0.46033927  0.38607475  0.91888760  1
  O  O159  1  0.46033927  0.88607475  0.25222094  1
  O  O160  1  0.46033927  0.88607475  0.58555427  1
  O  O161  1  0.46033927  0.88607475  0.91888760  1
  O  O162  1  0.96033927  0.38607475  0.25222094  1
  O  O163  1  0.96033927  0.38607475  0.58555427  1
  O  O164  1  0.96033927  0.38607475  0.91888760  1
  O  O165  1  0.96033927  0.88607475  0.25222094  1
  O  O166  1  0.96033927  0.88607475  0.58555427  1
  O  O167  1  0.96033927  0.88607475  0.91888760  1
  O  O168  1  0.42573548  0.03966073  0.25222094  1
  O  O169  1  0.42573548  0.03966073  0.58555427  1
  O  O170  1  0.42573548  0.03966073  0.91888760  1
  O  O171  1  0.42573548  0.53966073  0.25222094  1
  O  O172  1  0.42573548  0.53966073  0.58555427  1
  O  O173  1  0.42573548  0.53966073  0.91888760  1
  O  O174  1  0.92573548  0.03966073  0.25222094  1
  O  O175  1  0.92573548  0.03966073  0.58555427  1
  O  O176  1  0.92573548  0.03966073  0.91888760  1
  O  O177  1  0.92573548  0.53966073  0.25222094  1
  O  O178  1  0.92573548  0.53966073  0.58555427  1
  O  O179  1  0.92573548  0.53966073  0.91888760  1
  O  O180  1  0.16666667  0.33333333  0.05979491  1
  O  O181  1  0.16666667  0.33333333  0.39312824  1
  O  O182  1  0.16666667  0.33333333  0.72646158  1
  O  O183  1  0.16666667  0.83333333  0.05979491  1
  O  O184  1  0.16666667  0.83333333  0.39312824  1
  O  O185  1  0.16666667  0.83333333  0.72646158  1
  O  O186  1  0.66666667  0.33333333  0.05979491  1
  O  O187  1  0.66666667  0.33333333  0.39312824  1
  O  O188  1  0.66666667  0.33333333  0.72646158  1
  O  O189  1  0.66666667  0.83333333  0.05979491  1
  O  O190  1  0.66666667  0.83333333  0.39312824  1
  O  O191  1  0.66666667  0.83333333  0.72646158  1
  O  O192  1  0.33333333  0.16666667  0.27353842  1
  O  O193  1  0.33333333  0.16666667  0.60687176  1
  O  O194  1  0.33333333  0.16666667  0.94020509  1
  O  O195  1  0.33333333  0.66666667  0.27353842  1
  O  O196  1  0.33333333  0.66666667  0.60687176  1
  O  O197  1  0.33333333  0.66666667  0.94020509  1
  O  O198  1  0.83333333  0.16666667  0.27353842  1
  O  O199  1  0.83333333  0.16666667  0.60687176  1
  O  O200  1  0.83333333  0.16666667  0.94020509  1
  O  O201  1  0.83333333  0.66666667  0.27353842  1
  O  O202  1  0.83333333  0.66666667  0.60687176  1
  O  O203  1  0.83333333  0.66666667  0.94020509  1
  O  O204  1  0.22907535  0.07290545  0.09980226  1
  O  O205  1  0.22907535  0.07290545  0.43313559  1
  O  O206  1  0.22907535  0.07290545  0.76646892  1
  O  O207  1  0.22907535  0.57290545  0.09980226  1
  O  O208  1  0.22907535  0.57290545  0.43313559  1
  O  O209  1  0.22907535  0.57290545  0.76646892  1
  O  O210  1  0.72907535  0.07290545  0.09980226  1
  O  O211  1  0.72907535  0.07290545  0.43313559  1
  O  O212  1  0.72907535  0.07290545  0.76646892  1
  O  O213  1  0.72907535  0.57290545  0.09980226  1
  O  O214  1  0.72907535  0.57290545  0.43313559  1
  O  O215  1  0.72907535  0.57290545  0.76646892  1
  O  O216  1  0.42709455  0.15616990  0.09980226  1
  O  O217  1  0.42709455  0.15616990  0.43313559  1
  O  O218  1  0.42709455  0.15616990  0.76646892  1
  O  O219  1  0.42709455  0.65616990  0.09980226  1
  O  O220  1  0.42709455  0.65616990  0.43313559  1
  O  O221  1  0.42709455  0.65616990  0.76646892  1
  O  O222  1  0.92709455  0.15616990  0.09980226  1
  O  O223  1  0.92709455  0.15616990  0.43313559  1
  O  O224  1  0.92709455  0.15616990  0.76646892  1
  O  O225  1  0.92709455  0.65616990  0.09980226  1
  O  O226  1  0.92709455  0.65616990  0.43313559  1
  O  O227  1  0.92709455  0.65616990  0.76646892  1
  O  O228  1  0.07290545  0.22907535  0.23353108  1
  O  O229  1  0.07290545  0.22907535  0.56686441  1
  O  O230  1  0.07290545  0.22907535  0.90019774  1
  O  O231  1  0.07290545  0.72907535  0.23353108  1
  O  O232  1  0.07290545  0.72907535  0.56686441  1
  O  O233  1  0.07290545  0.72907535  0.90019774  1
  O  O234  1  0.57290545  0.22907535  0.23353108  1
  O  O235  1  0.57290545  0.22907535  0.56686441  1
  O  O236  1  0.57290545  0.22907535  0.90019774  1
  O  O237  1  0.57290545  0.72907535  0.23353108  1
  O  O238  1  0.57290545  0.72907535  0.56686441  1
  O  O239  1  0.57290545  0.72907535  0.90019774  1
  O  O240  1  0.34383010  0.27092465  0.09980226  1
  O  O241  1  0.34383010  0.27092465  0.43313559  1
  O  O242  1  0.34383010  0.27092465  0.76646892  1
  O  O243  1  0.34383010  0.77092465  0.09980226  1
  O  O244  1  0.34383010  0.77092465  0.43313559  1
  O  O245  1  0.34383010  0.77092465  0.76646892  1
  O  O246  1  0.84383010  0.27092465  0.09980226  1
  O  O247  1  0.84383010  0.27092465  0.43313559  1
  O  O248  1  0.84383010  0.27092465  0.76646892  1
  O  O249  1  0.84383010  0.77092465  0.09980226  1
  O  O250  1  0.84383010  0.77092465  0.43313559  1
  O  O251  1  0.84383010  0.77092465  0.76646892  1
  O  O252  1  0.15616990  0.42709455  0.23353108  1
  O  O253  1  0.15616990  0.42709455  0.56686441  1
  O  O254  1  0.15616990  0.42709455  0.90019774  1
  O  O255  1  0.15616990  0.92709455  0.23353108  1
  O  O256  1  0.15616990  0.92709455  0.56686441  1
  O  O257  1  0.15616990  0.92709455  0.90019774  1
  O  O258  1  0.65616990  0.42709455  0.23353108  1
  O  O259  1  0.65616990  0.42709455  0.56686441  1
  O  O260  1  0.65616990  0.42709455  0.90019774  1
  O  O261  1  0.65616990  0.92709455  0.23353108  1
  O  O262  1  0.65616990  0.92709455  0.56686441  1
  O  O263  1  0.65616990  0.92709455  0.90019774  1
  O  O264  1  0.27092465  0.34383010  0.23353108  1
  O  O265  1  0.27092465  0.34383010  0.56686441  1
  O  O266  1  0.27092465  0.34383010  0.90019774  1
  O  O267  1  0.27092465  0.84383010  0.23353108  1
  O  O268  1  0.27092465  0.84383010  0.56686441  1
  O  O269  1  0.27092465  0.84383010  0.90019774  1
  O  O270  1  0.77092465  0.34383010  0.23353108  1
  O  O271  1  0.77092465  0.34383010  0.56686441  1
  O  O272  1  0.77092465  0.34383010  0.90019774  1
  O  O273  1  0.77092465  0.84383010  0.23353108  1
  O  O274  1  0.77092465  0.84383010  0.56686441  1
  O  O275  1  0.77092465  0.84383010  0.90019774  1
