# generated using pymatgen
data_K2Pb2O3
_symmetry_space_group_name_H-M   'P 1'
_cell_length_a   16.94005800
_cell_length_b   16.94005800
_cell_length_c   16.94005800
_cell_angle_alpha   90.00000000
_cell_angle_beta   90.00000000
_cell_angle_gamma   90.00000000
_symmetry_Int_Tables_number   1
_chemical_formula_structural   K2Pb2O3
_chemical_formula_sum   'K64 Pb64 O96'
_cell_volume   4861.21331460
_cell_formula_units_Z   32
loop_
 _symmetry_equiv_pos_site_id
 _symmetry_equiv_pos_as_xyz
  1  'x, y, z'
loop_
 _atom_site_type_symbol
 _atom_site_label
 _atom_site_symmetry_multiplicity
 _atom_site_fract_x
 _atom_site_fract_y
 _atom_site_fract_z
 _atom_site_occupancy
  K  K0  1  -0.01246353  0.23753647  0.01246353  1
  K  K1  1  -0.01246353  0.23753647  0.51246353  1
  K  K2  1  -0.01246353  0.73753647  0.01246353  1
  K  K3  1  -0.01246353  0.73753647  0.51246353  1
  K  K4  1  0.48753647  0.23753647  0.01246353  1
  K  K5  1  0.48753647  0.23753647  0.51246353  1
  K  K6  1  0.48753647  0.73753647  0.01246353  1
  K  K7  1  0.48753647  0.73753647  0.51246353  1
  K  K8  1  0.23753647  0.48753647  0.26246353  1
  K  K9  1  0.23753647  0.48753647  0.76246353  1
  K  K10  1  0.23753647  0.98753647  0.26246353  1
  K  K11  1  0.23753647  0.98753647  0.76246353  1
  K  K12  1  0.73753647  0.48753647  0.26246353  1
  K  K13  1  0.73753647  0.48753647  0.76246353  1
  K  K14  1  0.73753647  0.98753647  0.26246353  1
  K  K15  1  0.73753647  0.98753647  0.76246353  1
  K  K16  1  0.01246353  0.01246353  0.01246353  1
  K  K17  1  0.01246353  0.01246353  0.51246353  1
  K  K18  1  0.01246353  0.51246353  0.01246353  1
  K  K19  1  0.01246353  0.51246353  0.51246353  1
  K  K20  1  0.51246353  0.01246353  0.01246353  1
  K  K21  1  0.51246353  0.01246353  0.51246353  1
  K  K22  1  0.51246353  0.51246353  0.01246353  1
  K  K23  1  0.51246353  0.51246353  0.51246353  1
  K  K24  1  0.26246353  0.26246353  0.26246353  1
  K  K25  1  0.26246353  0.26246353  0.76246353  1
  K  K26  1  0.26246353  0.76246353  0.26246353  1
  K  K27  1  0.26246353  0.76246353  0.76246353  1
  K  K28  1  0.76246353  0.26246353  0.26246353  1
  K  K29  1  0.76246353  0.26246353  0.76246353  1
  K  K30  1  0.76246353  0.76246353  0.26246353  1
  K  K31  1  0.76246353  0.76246353  0.76246353  1
  K  K32  1  0.01246353  -0.01246353  0.23753647  1
  K  K33  1  0.01246353  -0.01246353  0.73753647  1
  K  K34  1  0.01246353  0.48753647  0.23753647  1
  K  K35  1  0.01246353  0.48753647  0.73753647  1
  K  K36  1  0.51246353  -0.01246353  0.23753647  1
  K  K37  1  0.51246353  -0.01246353  0.73753647  1
  K  K38  1  0.51246353  0.48753647  0.23753647  1
  K  K39  1  0.51246353  0.48753647  0.73753647  1
  K  K40  1  0.26246353  0.23753647  0.48753647  1
  K  K41  1  0.26246353  0.23753647  0.98753647  1
  K  K42  1  0.26246353  0.73753647  0.48753647  1
  K  K43  1  0.26246353  0.73753647  0.98753647  1
  K  K44  1  0.76246353  0.23753647  0.48753647  1
  K  K45  1  0.76246353  0.23753647  0.98753647  1
  K  K46  1  0.76246353  0.73753647  0.48753647  1
  K  K47  1  0.76246353  0.73753647  0.98753647  1
  K  K48  1  0.23753647  0.01246353  -0.01246353  1
  K  K49  1  0.23753647  0.01246353  0.48753647  1
  K  K50  1  0.23753647  0.51246353  -0.01246353  1
  K  K51  1  0.23753647  0.51246353  0.48753647  1
  K  K52  1  0.73753647  0.01246353  -0.01246353  1
  K  K53  1  0.73753647  0.01246353  0.48753647  1
  K  K54  1  0.73753647  0.51246353  -0.01246353  1
  K  K55  1  0.73753647  0.51246353  0.48753647  1
  K  K56  1  0.48753647  0.26246353  0.23753647  1
  K  K57  1  0.48753647  0.26246353  0.73753647  1
  K  K58  1  0.48753647  0.76246353  0.23753647  1
  K  K59  1  0.48753647  0.76246353  0.73753647  1
  K  K60  1  0.98753647  0.26246353  0.23753647  1
  K  K61  1  0.98753647  0.26246353  0.73753647  1
  K  K62  1  0.98753647  0.76246353  0.23753647  1
  K  K63  1  0.98753647  0.76246353  0.73753647  1
  Pb  Pb64  1  0.37118587  -0.12118587  0.12118587  1
  Pb  Pb65  1  0.37118587  -0.12118587  0.62118587  1
  Pb  Pb66  1  0.37118587  0.37881413  0.12118587  1
  Pb  Pb67  1  0.37118587  0.37881413  0.62118587  1
  Pb  Pb68  1  0.87118587  -0.12118587  0.12118587  1
  Pb  Pb69  1  0.87118587  -0.12118587  0.62118587  1
  Pb  Pb70  1  0.87118587  0.37881413  0.12118587  1
  Pb  Pb71  1  0.87118587  0.37881413  0.62118587  1
  Pb  Pb72  1  0.62118587  0.12881413  0.37118587  1
  Pb  Pb73  1  0.62118587  0.12881413  0.87118587  1
  Pb  Pb74  1  0.62118587  0.62881413  0.37118587  1
  Pb  Pb75  1  0.62118587  0.62881413  0.87118587  1
  Pb  Pb76  1  1.12118587  0.12881413  0.37118587  1
  Pb  Pb77  1  1.12118587  0.12881413  0.87118587  1
  Pb  Pb78  1  1.12118587  0.62881413  0.37118587  1
  Pb  Pb79  1  1.12118587  0.62881413  0.87118587  1
  Pb  Pb80  1  -0.12118587  0.12118587  0.37118587  1
  Pb  Pb81  1  -0.12118587  0.12118587  0.87118587  1
  Pb  Pb82  1  -0.12118587  0.62118587  0.37118587  1
  Pb  Pb83  1  -0.12118587  0.62118587  0.87118587  1
  Pb  Pb84  1  0.37881413  0.12118587  0.37118587  1
  Pb  Pb85  1  0.37881413  0.12118587  0.87118587  1
  Pb  Pb86  1  0.37881413  0.62118587  0.37118587  1
  Pb  Pb87  1  0.37881413  0.62118587  0.87118587  1
  Pb  Pb88  1  0.12881413  0.37118587  0.62118587  1
  Pb  Pb89  1  0.12881413  0.37118587  1.12118587  1
  Pb  Pb90  1  0.12881413  0.87118587  0.62118587  1
  Pb  Pb91  1  0.12881413  0.87118587  1.12118587  1
  Pb  Pb92  1  0.62881413  0.37118587  0.62118587  1
  Pb  Pb93  1  0.62881413  0.37118587  1.12118587  1
  Pb  Pb94  1  0.62881413  0.87118587  0.62118587  1
  Pb  Pb95  1  0.62881413  0.87118587  1.12118587  1
  Pb  Pb96  1  0.12881413  0.12881413  0.12881413  1
  Pb  Pb97  1  0.12881413  0.12881413  0.62881413  1
  Pb  Pb98  1  0.12881413  0.62881413  0.12881413  1
  Pb  Pb99  1  0.12881413  0.62881413  0.62881413  1
  Pb  Pb100  1  0.62881413  0.12881413  0.12881413  1
  Pb  Pb101  1  0.62881413  0.12881413  0.62881413  1
  Pb  Pb102  1  0.62881413  0.62881413  0.12881413  1
  Pb  Pb103  1  0.62881413  0.62881413  0.62881413  1
  Pb  Pb104  1  0.37881413  0.37881413  0.37881413  1
  Pb  Pb105  1  0.37881413  0.37881413  0.87881413  1
  Pb  Pb106  1  0.37881413  0.87881413  0.37881413  1
  Pb  Pb107  1  0.37881413  0.87881413  0.87881413  1
  Pb  Pb108  1  0.87881413  0.37881413  0.37881413  1
  Pb  Pb109  1  0.87881413  0.37881413  0.87881413  1
  Pb  Pb110  1  0.87881413  0.87881413  0.37881413  1
  Pb  Pb111  1  0.87881413  0.87881413  0.87881413  1
  Pb  Pb112  1  0.12118587  0.37118587  -0.12118587  1
  Pb  Pb113  1  0.12118587  0.37118587  0.37881413  1
  Pb  Pb114  1  0.12118587  0.87118587  -0.12118587  1
  Pb  Pb115  1  0.12118587  0.87118587  0.37881413  1
  Pb  Pb116  1  0.62118587  0.37118587  -0.12118587  1
  Pb  Pb117  1  0.62118587  0.37118587  0.37881413  1
  Pb  Pb118  1  0.62118587  0.87118587  -0.12118587  1
  Pb  Pb119  1  0.62118587  0.87118587  0.37881413  1
  Pb  Pb120  1  0.37118587  0.62118587  0.12881413  1
  Pb  Pb121  1  0.37118587  0.62118587  0.62881413  1
  Pb  Pb122  1  0.37118587  1.12118587  0.12881413  1
  Pb  Pb123  1  0.37118587  1.12118587  0.62881413  1
  Pb  Pb124  1  0.87118587  0.62118587  0.12881413  1
  Pb  Pb125  1  0.87118587  0.62118587  0.62881413  1
  Pb  Pb126  1  0.87118587  1.12118587  0.12881413  1
  Pb  Pb127  1  0.87118587  1.12118587  0.62881413  1
  O  O128  1  0.00000000  0.37500000  0.10456998  1
  O  O129  1  0.00000000  0.37500000  0.60456998  1
  O  O130  1  0.00000000  0.87500000  0.10456998  1
  O  O131  1  0.00000000  0.87500000  0.60456998  1
  O  O132  1  0.50000000  0.37500000  0.10456998  1
  O  O133  1  0.50000000  0.37500000  0.60456998  1
  O  O134  1  0.50000000  0.87500000  0.10456998  1
  O  O135  1  0.50000000  0.87500000  0.60456998  1
  O  O136  1  0.25000000  0.62500000  0.35456998  1
  O  O137  1  0.25000000  0.62500000  0.85456998  1
  O  O138  1  0.25000000  1.12500000  0.35456998  1
  O  O139  1  0.25000000  1.12500000  0.85456998  1
  O  O140  1  0.75000000  0.62500000  0.35456998  1
  O  O141  1  0.75000000  0.62500000  0.85456998  1
  O  O142  1  0.75000000  1.12500000  0.35456998  1
  O  O143  1  0.75000000  1.12500000  0.85456998  1
  O  O144  1  0.00000000  0.12500000  0.14543002  1
  O  O145  1  0.00000000  0.12500000  0.64543002  1
  O  O146  1  0.00000000  0.62500000  0.14543002  1
  O  O147  1  0.00000000  0.62500000  0.64543002  1
  O  O148  1  0.50000000  0.12500000  0.14543002  1
  O  O149  1  0.50000000  0.12500000  0.64543002  1
  O  O150  1  0.50000000  0.62500000  0.14543002  1
  O  O151  1  0.50000000  0.62500000  0.64543002  1
  O  O152  1  0.25000000  0.37500000  0.39543002  1
  O  O153  1  0.25000000  0.37500000  0.89543002  1
  O  O154  1  0.25000000  0.87500000  0.39543002  1
  O  O155  1  0.25000000  0.87500000  0.89543002  1
  O  O156  1  0.75000000  0.37500000  0.39543002  1
  O  O157  1  0.75000000  0.37500000  0.89543002  1
  O  O158  1  0.75000000  0.87500000  0.39543002  1
  O  O159  1  0.75000000  0.87500000  0.89543002  1
  O  O160  1  0.37500000  0.10456998  -0.00000000  1
  O  O161  1  0.37500000  0.10456998  0.50000000  1
  O  O162  1  0.37500000  0.60456998  -0.00000000  1
  O  O163  1  0.37500000  0.60456998  0.50000000  1
  O  O164  1  0.87500000  0.10456998  -0.00000000  1
  O  O165  1  0.87500000  0.10456998  0.50000000  1
  O  O166  1  0.87500000  0.60456998  -0.00000000  1
  O  O167  1  0.87500000  0.60456998  0.50000000  1
  O  O168  1  0.62500000  0.35456998  0.25000000  1
  O  O169  1  0.62500000  0.35456998  0.75000000  1
  O  O170  1  0.62500000  0.85456998  0.25000000  1
  O  O171  1  0.62500000  0.85456998  0.75000000  1
  O  O172  1  1.12500000  0.35456998  0.25000000  1
  O  O173  1  1.12500000  0.35456998  0.75000000  1
  O  O174  1  1.12500000  0.85456998  0.25000000  1
  O  O175  1  1.12500000  0.85456998  0.75000000  1
  O  O176  1  0.10456998  0.00000000  0.37500000  1
  O  O177  1  0.10456998  0.00000000  0.87500000  1
  O  O178  1  0.10456998  0.50000000  0.37500000  1
  O  O179  1  0.10456998  0.50000000  0.87500000  1
  O  O180  1  0.60456998  0.00000000  0.37500000  1
  O  O181  1  0.60456998  0.00000000  0.87500000  1
  O  O182  1  0.60456998  0.50000000  0.37500000  1
  O  O183  1  0.60456998  0.50000000  0.87500000  1
  O  O184  1  0.35456998  0.25000000  0.62500000  1
  O  O185  1  0.35456998  0.25000000  1.12500000  1
  O  O186  1  0.35456998  0.75000000  0.62500000  1
  O  O187  1  0.35456998  0.75000000  1.12500000  1
  O  O188  1  0.85456998  0.25000000  0.62500000  1
  O  O189  1  0.85456998  0.25000000  1.12500000  1
  O  O190  1  0.85456998  0.75000000  0.62500000  1
  O  O191  1  0.85456998  0.75000000  1.12500000  1
  O  O192  1  0.14543002  0.00000000  0.12500000  1
  O  O193  1  0.14543002  0.00000000  0.62500000  1
  O  O194  1  0.14543002  0.50000000  0.12500000  1
  O  O195  1  0.14543002  0.50000000  0.62500000  1
  O  O196  1  0.64543002  0.00000000  0.12500000  1
  O  O197  1  0.64543002  0.00000000  0.62500000  1
  O  O198  1  0.64543002  0.50000000  0.12500000  1
  O  O199  1  0.64543002  0.50000000  0.62500000  1
  O  O200  1  0.39543002  0.25000000  0.37500000  1
  O  O201  1  0.39543002  0.25000000  0.87500000  1
  O  O202  1  0.39543002  0.75000000  0.37500000  1
  O  O203  1  0.39543002  0.75000000  0.87500000  1
  O  O204  1  0.89543002  0.25000000  0.37500000  1
  O  O205  1  0.89543002  0.25000000  0.87500000  1
  O  O206  1  0.89543002  0.75000000  0.37500000  1
  O  O207  1  0.89543002  0.75000000  0.87500000  1
  O  O208  1  0.12500000  0.14543002  0.00000000  1
  O  O209  1  0.12500000  0.14543002  0.50000000  1
  O  O210  1  0.12500000  0.64543002  0.00000000  1
  O  O211  1  0.12500000  0.64543002  0.50000000  1
  O  O212  1  0.62500000  0.14543002  0.00000000  1
  O  O213  1  0.62500000  0.14543002  0.50000000  1
  O  O214  1  0.62500000  0.64543002  0.00000000  1
  O  O215  1  0.62500000  0.64543002  0.50000000  1
  O  O216  1  0.37500000  0.39543002  0.25000000  1
  O  O217  1  0.37500000  0.39543002  0.75000000  1
  O  O218  1  0.37500000  0.89543002  0.25000000  1
  O  O219  1  0.37500000  0.89543002  0.75000000  1
  O  O220  1  0.87500000  0.39543002  0.25000000  1
  O  O221  1  0.87500000  0.39543002  0.75000000  1
  O  O222  1  0.87500000  0.89543002  0.25000000  1
  O  O223  1  0.87500000  0.89543002  0.75000000  1
