# generated using pymatgen
data_NaSc(GeO3)2
_symmetry_space_group_name_H-M   'P 1'
_cell_length_a   10.30482653
_cell_length_b   9.09288071
_cell_length_c   11.25369605
_cell_angle_alpha   90.00000000
_cell_angle_beta   107.96092543
_cell_angle_gamma   90.00000000
_symmetry_Int_Tables_number   1
_chemical_formula_structural   NaSc(GeO3)2
_chemical_formula_sum   'Na8 Sc8 Ge16 O48'
_cell_volume   1003.08978686
_cell_formula_units_Z   8
loop_
 _symmetry_equiv_pos_site_id
 _symmetry_equiv_pos_as_xyz
  1  'x, y, z'
loop_
 _atom_site_type_symbol
 _atom_site_label
 _atom_site_symmetry_multiplicity
 _atom_site_fract_x
 _atom_site_fract_y
 _atom_site_fract_z
 _atom_site_occupancy
  Na  Na0  1  0.50000000  -0.20062735  0.12500000  1
  Na  Na1  1  0.50000000  -0.20062735  0.62500000  1
  Na  Na2  1  1.00000000  0.29937265  0.12500000  1
  Na  Na3  1  1.00000000  0.29937265  0.62500000  1
  Na  Na4  1  0.50000000  0.20062735  0.37500000  1
  Na  Na5  1  0.50000000  0.20062735  0.87500000  1
  Na  Na6  1  1.00000000  0.70062735  0.37500000  1
  Na  Na7  1  1.00000000  0.70062735  0.87500000  1
  Sc  Sc8  1  0.50000000  0.40337634  0.12500000  1
  Sc  Sc9  1  0.50000000  0.40337634  0.62500000  1
  Sc  Sc10  1  1.00000000  0.90337634  0.12500000  1
  Sc  Sc11  1  1.00000000  0.90337634  0.62500000  1
  Sc  Sc12  1  0.50000000  -0.40337634  0.37500000  1
  Sc  Sc13  1  0.50000000  -0.40337634  0.87500000  1
  Sc  Sc14  1  1.00000000  0.09662366  0.37500000  1
  Sc  Sc15  1  1.00000000  0.09662366  0.87500000  1
  Ge  Ge16  1  0.71257789  0.09265776  0.13072048  1
  Ge  Ge17  1  0.71257789  0.09265776  0.63072048  1
  Ge  Ge18  1  1.21257789  0.59265776  0.13072048  1
  Ge  Ge19  1  1.21257789  0.59265776  0.63072048  1
  Ge  Ge20  1  0.28742211  0.09265776  0.11927952  1
  Ge  Ge21  1  0.28742211  0.09265776  0.61927952  1
  Ge  Ge22  1  0.78742211  0.59265776  0.11927952  1
  Ge  Ge23  1  0.78742211  0.59265776  0.61927952  1
  Ge  Ge24  1  0.28742211  -0.09265776  0.36927952  1
  Ge  Ge25  1  0.28742211  -0.09265776  0.86927952  1
  Ge  Ge26  1  0.78742211  0.40734224  0.36927952  1
  Ge  Ge27  1  0.78742211  0.40734224  0.86927952  1
  Ge  Ge28  1  0.71257789  -0.09265776  0.38072048  1
  Ge  Ge29  1  0.71257789  -0.09265776  0.88072048  1
  Ge  Ge30  1  1.21257789  0.40734224  0.38072048  1
  Ge  Ge31  1  1.21257789  0.40734224  0.88072048  1
  O  O32  1  0.63699009  -0.00128411  0.48436845  1
  O  O33  1  0.63699009  -0.00128411  0.98436845  1
  O  O34  1  1.13699009  0.49871589  0.48436845  1
  O  O35  1  1.13699009  0.49871589  0.98436845  1
  O  O36  1  0.36300991  -0.00128411  0.26563155  1
  O  O37  1  0.36300991  -0.00128411  0.76563155  1
  O  O38  1  0.86300991  0.49871589  0.26563155  1
  O  O39  1  0.86300991  0.49871589  0.76563155  1
  O  O40  1  0.36300991  0.00128411  0.01563155  1
  O  O41  1  0.36300991  0.00128411  0.51563155  1
  O  O42  1  0.86300991  0.50128411  0.01563155  1
  O  O43  1  0.86300991  0.50128411  0.51563155  1
  O  O44  1  0.63699009  0.00128411  0.23436845  1
  O  O45  1  0.63699009  0.00128411  0.73436845  1
  O  O46  1  1.13699009  0.50128411  0.23436845  1
  O  O47  1  1.13699009  0.50128411  0.73436845  1
  O  O48  1  0.64323979  -0.26961577  0.34857652  1
  O  O49  1  0.64323979  -0.26961577  0.84857652  1
  O  O50  1  1.14323979  0.23038423  0.34857652  1
  O  O51  1  1.14323979  0.23038423  0.84857652  1
  O  O52  1  0.35676021  -0.26961577  0.40142348  1
  O  O53  1  0.35676021  -0.26961577  0.90142348  1
  O  O54  1  0.85676021  0.23038423  0.40142348  1
  O  O55  1  0.85676021  0.23038423  0.90142348  1
  O  O56  1  0.35676021  0.26961577  0.15142348  1
  O  O57  1  0.35676021  0.26961577  0.65142348  1
  O  O58  1  0.85676021  0.76961577  0.15142348  1
  O  O59  1  0.85676021  0.76961577  0.65142348  1
  O  O60  1  0.64323979  0.26961577  0.09857652  1
  O  O61  1  0.64323979  0.26961577  0.59857652  1
  O  O62  1  1.14323979  0.76961577  0.09857652  1
  O  O63  1  1.14323979  0.76961577  0.59857652  1
  O  O64  1  0.89370836  0.08308222  0.18156821  1
  O  O65  1  0.89370836  0.08308222  0.68156821  1
  O  O66  1  1.39370836  0.58308222  0.18156821  1
  O  O67  1  1.39370836  0.58308222  0.68156821  1
  O  O68  1  0.10629164  0.08308222  0.06843179  1
  O  O69  1  0.10629164  0.08308222  0.56843179  1
  O  O70  1  0.60629164  0.58308222  0.06843179  1
  O  O71  1  0.60629164  0.58308222  0.56843179  1
  O  O72  1  0.10629164  -0.08308222  0.31843179  1
  O  O73  1  0.10629164  -0.08308222  0.81843179  1
  O  O74  1  0.60629164  0.41691778  0.31843179  1
  O  O75  1  0.60629164  0.41691778  0.81843179  1
  O  O76  1  0.89370836  -0.08308222  0.43156821  1
  O  O77  1  0.89370836  -0.08308222  0.93156821  1
  O  O78  1  1.39370836  0.41691778  0.43156821  1
  O  O79  1  1.39370836  0.41691778  0.93156821  1
