# generated using pymatgen
data_Rb6Ti2O7
_symmetry_space_group_name_H-M   'P 1'
_cell_length_a   20.43180452
_cell_length_b   19.17216736
_cell_length_c   23.26156755
_cell_angle_alpha   90.00000000
_cell_angle_beta   123.62064056
_cell_angle_gamma   90.00000000
_symmetry_Int_Tables_number   1
_chemical_formula_structural   Rb6Ti2O7
_chemical_formula_sum   'Rb144 Ti48 O168'
_cell_volume   7587.81727209
_cell_formula_units_Z   24
loop_
 _symmetry_equiv_pos_site_id
 _symmetry_equiv_pos_as_xyz
  1  'x, y, z'
loop_
 _atom_site_type_symbol
 _atom_site_label
 _atom_site_symmetry_multiplicity
 _atom_site_fract_x
 _atom_site_fract_y
 _atom_site_fract_z
 _atom_site_occupancy
  Rb  Rb0  1  0.19765899  0.39598419  0.35931650  1
  Rb  Rb1  1  0.19765899  0.39598419  0.85931650  1
  Rb  Rb2  1  0.19765899  0.89598419  0.35931650  1
  Rb  Rb3  1  0.19765899  0.89598419  0.85931650  1
  Rb  Rb4  1  0.53099233  0.39598419  0.35931650  1
  Rb  Rb5  1  0.53099233  0.39598419  0.85931650  1
  Rb  Rb6  1  0.53099233  0.89598419  0.35931650  1
  Rb  Rb7  1  0.53099233  0.89598419  0.85931650  1
  Rb  Rb8  1  0.86432566  0.39598419  0.35931650  1
  Rb  Rb9  1  0.86432566  0.39598419  0.85931650  1
  Rb  Rb10  1  0.86432566  0.89598419  0.35931650  1
  Rb  Rb11  1  0.86432566  0.89598419  0.85931650  1
  Rb  Rb12  1  0.31677156  0.32630057  0.03626269  1
  Rb  Rb13  1  0.31677156  0.32630057  0.53626269  1
  Rb  Rb14  1  0.31677156  0.82630057  0.03626269  1
  Rb  Rb15  1  0.31677156  0.82630057  0.53626269  1
  Rb  Rb16  1  0.65010490  0.32630057  0.03626269  1
  Rb  Rb17  1  0.65010490  0.32630057  0.53626269  1
  Rb  Rb18  1  0.65010490  0.82630057  0.03626269  1
  Rb  Rb19  1  0.65010490  0.82630057  0.53626269  1
  Rb  Rb20  1  0.98343823  0.32630057  0.03626269  1
  Rb  Rb21  1  0.98343823  0.32630057  0.53626269  1
  Rb  Rb22  1  0.98343823  0.82630057  0.03626269  1
  Rb  Rb23  1  0.98343823  0.82630057  0.53626269  1
  Rb  Rb24  1  0.06793074  0.26308336  0.22589297  1
  Rb  Rb25  1  0.06793074  0.26308336  0.72589297  1
  Rb  Rb26  1  0.06793074  0.76308336  0.22589297  1
  Rb  Rb27  1  0.06793074  0.76308336  0.72589297  1
  Rb  Rb28  1  0.40126407  0.26308336  0.22589297  1
  Rb  Rb29  1  0.40126407  0.26308336  0.72589297  1
  Rb  Rb30  1  0.40126407  0.76308336  0.22589297  1
  Rb  Rb31  1  0.40126407  0.76308336  0.72589297  1
  Rb  Rb32  1  0.73459740  0.26308336  0.22589297  1
  Rb  Rb33  1  0.73459740  0.26308336  0.72589297  1
  Rb  Rb34  1  0.73459740  0.76308336  0.22589297  1
  Rb  Rb35  1  0.73459740  0.76308336  0.72589297  1
  Rb  Rb36  1  0.26540260  0.01308336  0.02410703  1
  Rb  Rb37  1  0.26540260  0.01308336  0.52410703  1
  Rb  Rb38  1  0.26540260  0.51308336  0.02410703  1
  Rb  Rb39  1  0.26540260  0.51308336  0.52410703  1
  Rb  Rb40  1  0.59873593  0.01308336  0.02410703  1
  Rb  Rb41  1  0.59873593  0.01308336  0.52410703  1
  Rb  Rb42  1  0.59873593  0.51308336  0.02410703  1
  Rb  Rb43  1  0.59873593  0.51308336  0.52410703  1
  Rb  Rb44  1  0.93206926  0.01308336  0.02410703  1
  Rb  Rb45  1  0.93206926  0.01308336  0.52410703  1
  Rb  Rb46  1  0.93206926  0.51308336  0.02410703  1
  Rb  Rb47  1  0.93206926  0.51308336  0.52410703  1
  Rb  Rb48  1  0.13567434  0.14598419  0.39068350  1
  Rb  Rb49  1  0.13567434  0.14598419  0.89068350  1
  Rb  Rb50  1  0.13567434  0.64598419  0.39068350  1
  Rb  Rb51  1  0.13567434  0.64598419  0.89068350  1
  Rb  Rb52  1  0.46900767  0.14598419  0.39068350  1
  Rb  Rb53  1  0.46900767  0.14598419  0.89068350  1
  Rb  Rb54  1  0.46900767  0.64598419  0.39068350  1
  Rb  Rb55  1  0.46900767  0.64598419  0.89068350  1
  Rb  Rb56  1  0.80234101  0.14598419  0.39068350  1
  Rb  Rb57  1  0.80234101  0.14598419  0.89068350  1
  Rb  Rb58  1  0.80234101  0.64598419  0.39068350  1
  Rb  Rb59  1  0.80234101  0.64598419  0.89068350  1
  Rb  Rb60  1  0.01656177  0.07630057  0.21373731  1
  Rb  Rb61  1  0.01656177  0.07630057  0.71373731  1
  Rb  Rb62  1  0.01656177  0.57630057  0.21373731  1
  Rb  Rb63  1  0.01656177  0.57630057  0.71373731  1
  Rb  Rb64  1  0.34989510  0.07630057  0.21373731  1
  Rb  Rb65  1  0.34989510  0.07630057  0.71373731  1
  Rb  Rb66  1  0.34989510  0.57630057  0.21373731  1
  Rb  Rb67  1  0.34989510  0.57630057  0.71373731  1
  Rb  Rb68  1  0.68322844  0.07630057  0.21373731  1
  Rb  Rb69  1  0.68322844  0.07630057  0.71373731  1
  Rb  Rb70  1  0.68322844  0.57630057  0.21373731  1
  Rb  Rb71  1  0.68322844  0.57630057  0.71373731  1
  Rb  Rb72  1  0.31677156  0.42369943  0.28626269  1
  Rb  Rb73  1  0.31677156  0.42369943  0.78626269  1
  Rb  Rb74  1  0.31677156  0.92369943  0.28626269  1
  Rb  Rb75  1  0.31677156  0.92369943  0.78626269  1
  Rb  Rb76  1  0.65010490  0.42369943  0.28626269  1
  Rb  Rb77  1  0.65010490  0.42369943  0.78626269  1
  Rb  Rb78  1  0.65010490  0.92369943  0.28626269  1
  Rb  Rb79  1  0.65010490  0.92369943  0.78626269  1
  Rb  Rb80  1  0.98343823  0.42369943  0.28626269  1
  Rb  Rb81  1  0.98343823  0.42369943  0.78626269  1
  Rb  Rb82  1  0.98343823  0.92369943  0.28626269  1
  Rb  Rb83  1  0.98343823  0.92369943  0.78626269  1
  Rb  Rb84  1  0.19765899  0.35401581  0.10931650  1
  Rb  Rb85  1  0.19765899  0.35401581  0.60931650  1
  Rb  Rb86  1  0.19765899  0.85401581  0.10931650  1
  Rb  Rb87  1  0.19765899  0.85401581  0.60931650  1
  Rb  Rb88  1  0.53099233  0.35401581  0.10931650  1
  Rb  Rb89  1  0.53099233  0.35401581  0.60931650  1
  Rb  Rb90  1  0.53099233  0.85401581  0.10931650  1
  Rb  Rb91  1  0.53099233  0.85401581  0.60931650  1
  Rb  Rb92  1  0.86432566  0.35401581  0.10931650  1
  Rb  Rb93  1  0.86432566  0.35401581  0.60931650  1
  Rb  Rb94  1  0.86432566  0.85401581  0.10931650  1
  Rb  Rb95  1  0.86432566  0.85401581  0.60931650  1
  Rb  Rb96  1  0.06793074  0.48691664  0.47589297  1
  Rb  Rb97  1  0.06793074  0.48691664  0.97589297  1
  Rb  Rb98  1  0.06793074  0.98691664  0.47589297  1
  Rb  Rb99  1  0.06793074  0.98691664  0.97589297  1
  Rb  Rb100  1  0.40126407  0.48691664  0.47589297  1
  Rb  Rb101  1  0.40126407  0.48691664  0.97589297  1
  Rb  Rb102  1  0.40126407  0.98691664  0.47589297  1
  Rb  Rb103  1  0.40126407  0.98691664  0.97589297  1
  Rb  Rb104  1  0.73459740  0.48691664  0.47589297  1
  Rb  Rb105  1  0.73459740  0.48691664  0.97589297  1
  Rb  Rb106  1  0.73459740  0.98691664  0.47589297  1
  Rb  Rb107  1  0.73459740  0.98691664  0.97589297  1
  Rb  Rb108  1  0.26540260  0.23691664  0.27410703  1
  Rb  Rb109  1  0.26540260  0.23691664  0.77410703  1
  Rb  Rb110  1  0.26540260  0.73691664  0.27410703  1
  Rb  Rb111  1  0.26540260  0.73691664  0.77410703  1
  Rb  Rb112  1  0.59873593  0.23691664  0.27410703  1
  Rb  Rb113  1  0.59873593  0.23691664  0.77410703  1
  Rb  Rb114  1  0.59873593  0.73691664  0.27410703  1
  Rb  Rb115  1  0.59873593  0.73691664  0.77410703  1
  Rb  Rb116  1  0.93206926  0.23691664  0.27410703  1
  Rb  Rb117  1  0.93206926  0.23691664  0.77410703  1
  Rb  Rb118  1  0.93206926  0.73691664  0.27410703  1
  Rb  Rb119  1  0.93206926  0.73691664  0.77410703  1
  Rb  Rb120  1  0.01656177  0.17369943  0.46373731  1
  Rb  Rb121  1  0.01656177  0.17369943  0.96373731  1
  Rb  Rb122  1  0.01656177  0.67369943  0.46373731  1
  Rb  Rb123  1  0.01656177  0.67369943  0.96373731  1
  Rb  Rb124  1  0.34989510  0.17369943  0.46373731  1
  Rb  Rb125  1  0.34989510  0.17369943  0.96373731  1
  Rb  Rb126  1  0.34989510  0.67369943  0.46373731  1
  Rb  Rb127  1  0.34989510  0.67369943  0.96373731  1
  Rb  Rb128  1  0.68322844  0.17369943  0.46373731  1
  Rb  Rb129  1  0.68322844  0.17369943  0.96373731  1
  Rb  Rb130  1  0.68322844  0.67369943  0.46373731  1
  Rb  Rb131  1  0.68322844  0.67369943  0.96373731  1
  Rb  Rb132  1  0.13567434  0.10401581  0.14068350  1
  Rb  Rb133  1  0.13567434  0.10401581  0.64068350  1
  Rb  Rb134  1  0.13567434  0.60401581  0.14068350  1
  Rb  Rb135  1  0.13567434  0.60401581  0.64068350  1
  Rb  Rb136  1  0.46900767  0.10401581  0.14068350  1
  Rb  Rb137  1  0.46900767  0.10401581  0.64068350  1
  Rb  Rb138  1  0.46900767  0.60401581  0.14068350  1
  Rb  Rb139  1  0.46900767  0.60401581  0.64068350  1
  Rb  Rb140  1  0.80234101  0.10401581  0.14068350  1
  Rb  Rb141  1  0.80234101  0.10401581  0.64068350  1
  Rb  Rb142  1  0.80234101  0.60401581  0.14068350  1
  Rb  Rb143  1  0.80234101  0.60401581  0.64068350  1
  Ti  Ti144  1  0.10490531  0.42940088  0.18447583  1
  Ti  Ti145  1  0.10490531  0.42940088  0.68447583  1
  Ti  Ti146  1  0.10490531  0.92940088  0.18447583  1
  Ti  Ti147  1  0.10490531  0.92940088  0.68447583  1
  Ti  Ti148  1  0.43823865  0.42940088  0.18447583  1
  Ti  Ti149  1  0.43823865  0.42940088  0.68447583  1
  Ti  Ti150  1  0.43823865  0.92940088  0.18447583  1
  Ti  Ti151  1  0.43823865  0.92940088  0.68447583  1
  Ti  Ti152  1  0.77157198  0.42940088  0.18447583  1
  Ti  Ti153  1  0.77157198  0.42940088  0.68447583  1
  Ti  Ti154  1  0.77157198  0.92940088  0.18447583  1
  Ti  Ti155  1  0.77157198  0.92940088  0.68447583  1
  Ti  Ti156  1  0.22842802  0.17940088  0.06552417  1
  Ti  Ti157  1  0.22842802  0.17940088  0.56552417  1
  Ti  Ti158  1  0.22842802  0.67940088  0.06552417  1
  Ti  Ti159  1  0.22842802  0.67940088  0.56552417  1
  Ti  Ti160  1  0.56176135  0.17940088  0.06552417  1
  Ti  Ti161  1  0.56176135  0.17940088  0.56552417  1
  Ti  Ti162  1  0.56176135  0.67940088  0.06552417  1
  Ti  Ti163  1  0.56176135  0.67940088  0.56552417  1
  Ti  Ti164  1  0.89509469  0.17940088  0.06552417  1
  Ti  Ti165  1  0.89509469  0.17940088  0.56552417  1
  Ti  Ti166  1  0.89509469  0.67940088  0.06552417  1
  Ti  Ti167  1  0.89509469  0.67940088  0.56552417  1
  Ti  Ti168  1  0.10490531  0.32059912  0.43447583  1
  Ti  Ti169  1  0.10490531  0.32059912  0.93447583  1
  Ti  Ti170  1  0.10490531  0.82059912  0.43447583  1
  Ti  Ti171  1  0.10490531  0.82059912  0.93447583  1
  Ti  Ti172  1  0.43823865  0.32059912  0.43447583  1
  Ti  Ti173  1  0.43823865  0.32059912  0.93447583  1
  Ti  Ti174  1  0.43823865  0.82059912  0.43447583  1
  Ti  Ti175  1  0.43823865  0.82059912  0.93447583  1
  Ti  Ti176  1  0.77157198  0.32059912  0.43447583  1
  Ti  Ti177  1  0.77157198  0.32059912  0.93447583  1
  Ti  Ti178  1  0.77157198  0.82059912  0.43447583  1
  Ti  Ti179  1  0.77157198  0.82059912  0.93447583  1
  Ti  Ti180  1  0.22842802  0.07059912  0.31552417  1
  Ti  Ti181  1  0.22842802  0.07059912  0.81552417  1
  Ti  Ti182  1  0.22842802  0.57059912  0.31552417  1
  Ti  Ti183  1  0.22842802  0.57059912  0.81552417  1
  Ti  Ti184  1  0.56176135  0.07059912  0.31552417  1
  Ti  Ti185  1  0.56176135  0.07059912  0.81552417  1
  Ti  Ti186  1  0.56176135  0.57059912  0.31552417  1
  Ti  Ti187  1  0.56176135  0.57059912  0.81552417  1
  Ti  Ti188  1  0.89509469  0.07059912  0.31552417  1
  Ti  Ti189  1  0.89509469  0.07059912  0.81552417  1
  Ti  Ti190  1  0.89509469  0.57059912  0.31552417  1
  Ti  Ti191  1  0.89509469  0.57059912  0.81552417  1
  O  O192  1  0.16666667  0.00000000  0.25000000  1
  O  O193  1  0.16666667  0.00000000  0.75000000  1
  O  O194  1  0.16666667  0.50000000  0.25000000  1
  O  O195  1  0.16666667  0.50000000  0.75000000  1
  O  O196  1  0.50000000  0.00000000  0.25000000  1
  O  O197  1  0.50000000  0.00000000  0.75000000  1
  O  O198  1  0.50000000  0.50000000  0.25000000  1
  O  O199  1  0.50000000  0.50000000  0.75000000  1
  O  O200  1  0.83333333  0.00000000  0.25000000  1
  O  O201  1  0.83333333  0.00000000  0.75000000  1
  O  O202  1  0.83333333  0.50000000  0.25000000  1
  O  O203  1  0.83333333  0.50000000  0.75000000  1
  O  O204  1  0.25141685  0.04691406  0.40060317  1
  O  O205  1  0.25141685  0.04691406  0.90060317  1
  O  O206  1  0.25141685  0.54691406  0.40060317  1
  O  O207  1  0.25141685  0.54691406  0.90060317  1
  O  O208  1  0.58475019  0.04691406  0.40060317  1
  O  O209  1  0.58475019  0.04691406  0.90060317  1
  O  O210  1  0.58475019  0.54691406  0.40060317  1
  O  O211  1  0.58475019  0.54691406  0.90060317  1
  O  O212  1  0.91808352  0.04691406  0.40060317  1
  O  O213  1  0.91808352  0.04691406  0.90060317  1
  O  O214  1  0.91808352  0.54691406  0.40060317  1
  O  O215  1  0.91808352  0.54691406  0.90060317  1
  O  O216  1  0.16625507  0.14790361  0.28582831  1
  O  O217  1  0.16625507  0.14790361  0.78582831  1
  O  O218  1  0.16625507  0.64790361  0.28582831  1
  O  O219  1  0.16625507  0.64790361  0.78582831  1
  O  O220  1  0.49958840  0.14790361  0.28582831  1
  O  O221  1  0.49958840  0.14790361  0.78582831  1
  O  O222  1  0.49958840  0.64790361  0.28582831  1
  O  O223  1  0.49958840  0.64790361  0.78582831  1
  O  O224  1  0.83292173  0.14790361  0.28582831  1
  O  O225  1  0.83292173  0.14790361  0.78582831  1
  O  O226  1  0.83292173  0.64790361  0.28582831  1
  O  O227  1  0.83292173  0.64790361  0.78582831  1
  O  O228  1  0.31786613  0.16458625  0.06712843  1
  O  O229  1  0.31786613  0.16458625  0.56712843  1
  O  O230  1  0.31786613  0.66458625  0.06712843  1
  O  O231  1  0.31786613  0.66458625  0.56712843  1
  O  O232  1  0.65119946  0.16458625  0.06712843  1
  O  O233  1  0.65119946  0.16458625  0.56712843  1
  O  O234  1  0.65119946  0.66458625  0.06712843  1
  O  O235  1  0.65119946  0.66458625  0.56712843  1
  O  O236  1  0.98453280  0.16458625  0.06712843  1
  O  O237  1  0.98453280  0.16458625  0.56712843  1
  O  O238  1  0.98453280  0.66458625  0.06712843  1
  O  O239  1  0.98453280  0.66458625  0.56712843  1
  O  O240  1  0.01546720  0.41458625  0.18287157  1
  O  O241  1  0.01546720  0.41458625  0.68287157  1
  O  O242  1  0.01546720  0.91458625  0.18287157  1
  O  O243  1  0.01546720  0.91458625  0.68287157  1
  O  O244  1  0.34880054  0.41458625  0.18287157  1
  O  O245  1  0.34880054  0.41458625  0.68287157  1
  O  O246  1  0.34880054  0.91458625  0.18287157  1
  O  O247  1  0.34880054  0.91458625  0.68287157  1
  O  O248  1  0.68213387  0.41458625  0.18287157  1
  O  O249  1  0.68213387  0.41458625  0.68287157  1
  O  O250  1  0.68213387  0.91458625  0.18287157  1
  O  O251  1  0.68213387  0.91458625  0.68287157  1
  O  O252  1  0.16707827  0.39790361  0.46417169  1
  O  O253  1  0.16707827  0.39790361  0.96417169  1
  O  O254  1  0.16707827  0.89790361  0.46417169  1
  O  O255  1  0.16707827  0.89790361  0.96417169  1
  O  O256  1  0.50041160  0.39790361  0.46417169  1
  O  O257  1  0.50041160  0.39790361  0.96417169  1
  O  O258  1  0.50041160  0.89790361  0.46417169  1
  O  O259  1  0.50041160  0.89790361  0.96417169  1
  O  O260  1  0.83374493  0.39790361  0.46417169  1
  O  O261  1  0.83374493  0.39790361  0.96417169  1
  O  O262  1  0.83374493  0.89790361  0.46417169  1
  O  O263  1  0.83374493  0.89790361  0.96417169  1
  O  O264  1  0.08191648  0.29691406  0.34939683  1
  O  O265  1  0.08191648  0.29691406  0.84939683  1
  O  O266  1  0.08191648  0.79691406  0.34939683  1
  O  O267  1  0.08191648  0.79691406  0.84939683  1
  O  O268  1  0.41524981  0.29691406  0.34939683  1
  O  O269  1  0.41524981  0.29691406  0.84939683  1
  O  O270  1  0.41524981  0.79691406  0.34939683  1
  O  O271  1  0.41524981  0.79691406  0.84939683  1
  O  O272  1  0.74858315  0.29691406  0.34939683  1
  O  O273  1  0.74858315  0.29691406  0.84939683  1
  O  O274  1  0.74858315  0.79691406  0.34939683  1
  O  O275  1  0.74858315  0.79691406  0.84939683  1
  O  O276  1  0.16666667  0.25000000  0.00000000  1
  O  O277  1  0.16666667  0.25000000  0.50000000  1
  O  O278  1  0.16666667  0.75000000  0.00000000  1
  O  O279  1  0.16666667  0.75000000  0.50000000  1
  O  O280  1  0.50000000  0.25000000  0.00000000  1
  O  O281  1  0.50000000  0.25000000  0.50000000  1
  O  O282  1  0.50000000  0.75000000  0.00000000  1
  O  O283  1  0.50000000  0.75000000  0.50000000  1
  O  O284  1  0.83333333  0.25000000  0.00000000  1
  O  O285  1  0.83333333  0.25000000  0.50000000  1
  O  O286  1  0.83333333  0.75000000  0.00000000  1
  O  O287  1  0.83333333  0.75000000  0.50000000  1
  O  O288  1  0.25141685  0.20308594  0.15060317  1
  O  O289  1  0.25141685  0.20308594  0.65060317  1
  O  O290  1  0.25141685  0.70308594  0.15060317  1
  O  O291  1  0.25141685  0.70308594  0.65060317  1
  O  O292  1  0.58475019  0.20308594  0.15060317  1
  O  O293  1  0.58475019  0.20308594  0.65060317  1
  O  O294  1  0.58475019  0.70308594  0.15060317  1
  O  O295  1  0.58475019  0.70308594  0.65060317  1
  O  O296  1  0.91808352  0.20308594  0.15060317  1
  O  O297  1  0.91808352  0.20308594  0.65060317  1
  O  O298  1  0.91808352  0.70308594  0.15060317  1
  O  O299  1  0.91808352  0.70308594  0.65060317  1
  O  O300  1  0.16625507  0.10209639  0.03582831  1
  O  O301  1  0.16625507  0.10209639  0.53582831  1
  O  O302  1  0.16625507  0.60209639  0.03582831  1
  O  O303  1  0.16625507  0.60209639  0.53582831  1
  O  O304  1  0.49958840  0.10209639  0.03582831  1
  O  O305  1  0.49958840  0.10209639  0.53582831  1
  O  O306  1  0.49958840  0.60209639  0.03582831  1
  O  O307  1  0.49958840  0.60209639  0.53582831  1
  O  O308  1  0.83292173  0.10209639  0.03582831  1
  O  O309  1  0.83292173  0.10209639  0.53582831  1
  O  O310  1  0.83292173  0.60209639  0.03582831  1
  O  O311  1  0.83292173  0.60209639  0.53582831  1
  O  O312  1  0.31786613  0.08541375  0.31712843  1
  O  O313  1  0.31786613  0.08541375  0.81712843  1
  O  O314  1  0.31786613  0.58541375  0.31712843  1
  O  O315  1  0.31786613  0.58541375  0.81712843  1
  O  O316  1  0.65119946  0.08541375  0.31712843  1
  O  O317  1  0.65119946  0.08541375  0.81712843  1
  O  O318  1  0.65119946  0.58541375  0.31712843  1
  O  O319  1  0.65119946  0.58541375  0.81712843  1
  O  O320  1  0.98453280  0.08541375  0.31712843  1
  O  O321  1  0.98453280  0.08541375  0.81712843  1
  O  O322  1  0.98453280  0.58541375  0.31712843  1
  O  O323  1  0.98453280  0.58541375  0.81712843  1
  O  O324  1  0.01546720  0.33541375  0.43287157  1
  O  O325  1  0.01546720  0.33541375  0.93287157  1
  O  O326  1  0.01546720  0.83541375  0.43287157  1
  O  O327  1  0.01546720  0.83541375  0.93287157  1
  O  O328  1  0.34880054  0.33541375  0.43287157  1
  O  O329  1  0.34880054  0.33541375  0.93287157  1
  O  O330  1  0.34880054  0.83541375  0.43287157  1
  O  O331  1  0.34880054  0.83541375  0.93287157  1
  O  O332  1  0.68213387  0.33541375  0.43287157  1
  O  O333  1  0.68213387  0.33541375  0.93287157  1
  O  O334  1  0.68213387  0.83541375  0.43287157  1
  O  O335  1  0.68213387  0.83541375  0.93287157  1
  O  O336  1  0.16707827  0.35209639  0.21417169  1
  O  O337  1  0.16707827  0.35209639  0.71417169  1
  O  O338  1  0.16707827  0.85209639  0.21417169  1
  O  O339  1  0.16707827  0.85209639  0.71417169  1
  O  O340  1  0.50041160  0.35209639  0.21417169  1
  O  O341  1  0.50041160  0.35209639  0.71417169  1
  O  O342  1  0.50041160  0.85209639  0.21417169  1
  O  O343  1  0.50041160  0.85209639  0.71417169  1
  O  O344  1  0.83374493  0.35209639  0.21417169  1
  O  O345  1  0.83374493  0.35209639  0.71417169  1
  O  O346  1  0.83374493  0.85209639  0.21417169  1
  O  O347  1  0.83374493  0.85209639  0.71417169  1
  O  O348  1  0.08191648  0.45308594  0.09939683  1
  O  O349  1  0.08191648  0.45308594  0.59939683  1
  O  O350  1  0.08191648  0.95308594  0.09939683  1
  O  O351  1  0.08191648  0.95308594  0.59939683  1
  O  O352  1  0.41524981  0.45308594  0.09939683  1
  O  O353  1  0.41524981  0.45308594  0.59939683  1
  O  O354  1  0.41524981  0.95308594  0.09939683  1
  O  O355  1  0.41524981  0.95308594  0.59939683  1
  O  O356  1  0.74858315  0.45308594  0.09939683  1
  O  O357  1  0.74858315  0.45308594  0.59939683  1
  O  O358  1  0.74858315  0.95308594  0.09939683  1
  O  O359  1  0.74858315  0.95308594  0.59939683  1
