# generated using pymatgen
data_K2MgO2
_symmetry_space_group_name_H-M   'P 1'
_cell_length_a   10.43825830
_cell_length_b   12.03292525
_cell_length_c   10.93545315
_cell_angle_alpha   90.00000000
_cell_angle_beta   90.00000000
_cell_angle_gamma   90.00000000
_symmetry_Int_Tables_number   1
_chemical_formula_structural   K2MgO2
_chemical_formula_sum   'K32 Mg16 O32'
_cell_volume   1373.52333664
_cell_formula_units_Z   16
loop_
 _symmetry_equiv_pos_site_id
 _symmetry_equiv_pos_as_xyz
  1  'x, y, z'
loop_
 _atom_site_type_symbol
 _atom_site_label
 _atom_site_symmetry_multiplicity
 _atom_site_fract_x
 _atom_site_fract_y
 _atom_site_fract_z
 _atom_site_occupancy
  K  K0  1  0.84550061  0.18669109  0.48525416  1
  K  K1  1  0.84550061  0.18669109  0.98525416  1
  K  K2  1  0.84550061  0.68669109  0.48525416  1
  K  K3  1  0.84550061  0.68669109  0.98525416  1
  K  K4  1  0.84550061  0.31330891  0.23525416  1
  K  K5  1  0.84550061  0.31330891  0.73525416  1
  K  K6  1  0.84550061  0.81330891  0.23525416  1
  K  K7  1  0.84550061  0.81330891  0.73525416  1
  K  K8  1  0.65449939  0.06330891  0.23525416  1
  K  K9  1  0.65449939  0.06330891  0.73525416  1
  K  K10  1  0.65449939  0.56330891  0.23525416  1
  K  K11  1  0.65449939  0.56330891  0.73525416  1
  K  K12  1  0.65449939  0.43669109  0.48525416  1
  K  K13  1  0.65449939  0.43669109  0.98525416  1
  K  K14  1  0.65449939  0.93669109  0.48525416  1
  K  K15  1  0.65449939  0.93669109  0.98525416  1
  K  K16  1  0.34550061  0.06330891  0.01474584  1
  K  K17  1  0.34550061  0.06330891  0.51474584  1
  K  K18  1  0.34550061  0.56330891  0.01474584  1
  K  K19  1  0.34550061  0.56330891  0.51474584  1
  K  K20  1  0.34550061  0.43669109  0.26474584  1
  K  K21  1  0.34550061  0.43669109  0.76474584  1
  K  K22  1  0.34550061  0.93669109  0.26474584  1
  K  K23  1  0.34550061  0.93669109  0.76474584  1
  K  K24  1  0.15449939  0.18669109  0.26474584  1
  K  K25  1  0.15449939  0.18669109  0.76474584  1
  K  K26  1  0.15449939  0.68669109  0.26474584  1
  K  K27  1  0.15449939  0.68669109  0.76474584  1
  K  K28  1  0.15449939  0.31330891  0.01474584  1
  K  K29  1  0.15449939  0.31330891  0.51474584  1
  K  K30  1  0.15449939  0.81330891  0.01474584  1
  K  K31  1  0.15449939  0.81330891  0.51474584  1
  Mg  Mg32  1  0.00000000  0.00342177  0.12500000  1
  Mg  Mg33  1  0.00000000  0.00342177  0.62500000  1
  Mg  Mg34  1  0.00000000  0.50342177  0.12500000  1
  Mg  Mg35  1  0.00000000  0.50342177  0.62500000  1
  Mg  Mg36  1  0.00000000  0.49657823  0.37500000  1
  Mg  Mg37  1  0.00000000  0.49657823  0.87500000  1
  Mg  Mg38  1  0.00000000  0.99657823  0.37500000  1
  Mg  Mg39  1  0.00000000  0.99657823  0.87500000  1
  Mg  Mg40  1  0.50000000  0.24657823  0.37500000  1
  Mg  Mg41  1  0.50000000  0.24657823  0.87500000  1
  Mg  Mg42  1  0.50000000  0.74657823  0.37500000  1
  Mg  Mg43  1  0.50000000  0.74657823  0.87500000  1
  Mg  Mg44  1  0.50000000  0.25342177  0.12500000  1
  Mg  Mg45  1  0.50000000  0.25342177  0.62500000  1
  Mg  Mg46  1  0.50000000  0.75342177  0.12500000  1
  Mg  Mg47  1  0.50000000  0.75342177  0.62500000  1
  O  O48  1  0.90602752  0.40994668  0.00191841  1
  O  O49  1  0.90602752  0.40994668  0.50191841  1
  O  O50  1  0.90602752  0.90994668  0.00191841  1
  O  O51  1  0.90602752  0.90994668  0.50191841  1
  O  O52  1  0.90602752  0.09005332  0.25191841  1
  O  O53  1  0.90602752  0.09005332  0.75191841  1
  O  O54  1  0.90602752  0.59005332  0.25191841  1
  O  O55  1  0.90602752  0.59005332  0.75191841  1
  O  O56  1  0.59397248  0.15994668  0.00191841  1
  O  O57  1  0.59397248  0.15994668  0.50191841  1
  O  O58  1  0.59397248  0.65994668  0.00191841  1
  O  O59  1  0.59397248  0.65994668  0.50191841  1
  O  O60  1  0.59397248  0.34005332  0.25191841  1
  O  O61  1  0.59397248  0.34005332  0.75191841  1
  O  O62  1  0.59397248  0.84005332  0.25191841  1
  O  O63  1  0.59397248  0.84005332  0.75191841  1
  O  O64  1  0.40602752  0.15994668  0.24808159  1
  O  O65  1  0.40602752  0.15994668  0.74808159  1
  O  O66  1  0.40602752  0.65994668  0.24808159  1
  O  O67  1  0.40602752  0.65994668  0.74808159  1
  O  O68  1  0.40602752  0.34005332  0.49808159  1
  O  O69  1  0.40602752  0.34005332  0.99808159  1
  O  O70  1  0.40602752  0.84005332  0.49808159  1
  O  O71  1  0.40602752  0.84005332  0.99808159  1
  O  O72  1  0.09397248  0.09005332  0.49808159  1
  O  O73  1  0.09397248  0.09005332  0.99808159  1
  O  O74  1  0.09397248  0.59005332  0.49808159  1
  O  O75  1  0.09397248  0.59005332  0.99808159  1
  O  O76  1  0.09397248  0.40994668  0.24808159  1
  O  O77  1  0.09397248  0.40994668  0.74808159  1
  O  O78  1  0.09397248  0.90994668  0.24808159  1
  O  O79  1  0.09397248  0.90994668  0.74808159  1
