# generated using pymatgen
data_Sr2InSbO6
_symmetry_space_group_name_H-M   'P 1'
_cell_length_a   11.47698863
_cell_length_b   11.59393792
_cell_length_c   9.96103811
_cell_angle_alpha   90.00000000
_cell_angle_beta   125.27107837
_cell_angle_gamma   90.00000000
_symmetry_Int_Tables_number   1
_chemical_formula_structural   Sr2InSbO6
_chemical_formula_sum   'Sr16 In8 Sb8 O48'
_cell_volume   1082.13648428
_cell_formula_units_Z   8
loop_
 _symmetry_equiv_pos_site_id
 _symmetry_equiv_pos_as_xyz
  1  'x, y, z'
loop_
 _atom_site_type_symbol
 _atom_site_label
 _atom_site_symmetry_multiplicity
 _atom_site_fract_x
 _atom_site_fract_y
 _atom_site_fract_z
 _atom_site_occupancy
  Sr  Sr0  1  0.37049418  0.01911938  0.74978701  1
  Sr  Sr1  1  0.37049418  0.51911938  0.74978701  1
  Sr  Sr2  1  0.87049418  0.01911938  0.74978701  1
  Sr  Sr3  1  0.87049418  0.51911938  0.74978701  1
  Sr  Sr4  1  0.12950582  0.26911938  0.75021299  1
  Sr  Sr5  1  0.12950582  0.76911938  0.75021299  1
  Sr  Sr6  1  0.62950582  0.26911938  0.75021299  1
  Sr  Sr7  1  0.62950582  0.76911938  0.75021299  1
  Sr  Sr8  1  0.12950582  0.48088062  0.25021299  1
  Sr  Sr9  1  0.12950582  0.98088062  0.25021299  1
  Sr  Sr10  1  0.62950582  0.48088062  0.25021299  1
  Sr  Sr11  1  0.62950582  0.98088062  0.25021299  1
  Sr  Sr12  1  0.37049418  0.23088062  0.24978701  1
  Sr  Sr13  1  0.37049418  0.73088062  0.24978701  1
  Sr  Sr14  1  0.87049418  0.23088062  0.24978701  1
  Sr  Sr15  1  0.87049418  0.73088062  0.24978701  1
  In  In16  1  0.25000000  0.25000000  0.50000000  1
  In  In17  1  0.25000000  0.75000000  0.50000000  1
  In  In18  1  0.75000000  0.25000000  0.50000000  1
  In  In19  1  0.75000000  0.75000000  0.50000000  1
  In  In20  1  0.25000000  0.00000000  -0.00000000  1
  In  In21  1  0.25000000  0.50000000  -0.00000000  1
  In  In22  1  0.75000000  0.00000000  -0.00000000  1
  In  In23  1  0.75000000  0.50000000  -0.00000000  1
  Sb  Sb24  1  0.00000000  0.00000000  0.50000000  1
  Sb  Sb25  1  0.00000000  0.50000000  0.50000000  1
  Sb  Sb26  1  0.50000000  0.00000000  0.50000000  1
  Sb  Sb27  1  0.50000000  0.50000000  0.50000000  1
  Sb  Sb28  1  0.00000000  0.25000000  0.00000000  1
  Sb  Sb29  1  0.00000000  0.75000000  0.00000000  1
  Sb  Sb30  1  0.50000000  0.25000000  0.00000000  1
  Sb  Sb31  1  0.50000000  0.75000000  0.00000000  1
  O  O32  1  0.37901049  0.36112790  0.45597878  1
  O  O33  1  0.37901049  0.86112790  0.45597878  1
  O  O34  1  0.87901049  0.36112790  0.45597878  1
  O  O35  1  0.87901049  0.86112790  0.45597878  1
  O  O36  1  0.15930315  0.35025742  0.04061416  1
  O  O37  1  0.15930315  0.85025742  0.04061416  1
  O  O38  1  0.65930315  0.35025742  0.04061416  1
  O  O39  1  0.65930315  0.85025742  0.04061416  1
  O  O40  1  0.42065654  0.23855388  0.76142888  1
  O  O41  1  0.42065654  0.73855388  0.76142888  1
  O  O42  1  0.92065654  0.23855388  0.76142888  1
  O  O43  1  0.92065654  0.73855388  0.76142888  1
  O  O44  1  0.12098951  0.13887210  0.54402122  1
  O  O45  1  0.12098951  0.63887210  0.54402122  1
  O  O46  1  0.62098951  0.13887210  0.54402122  1
  O  O47  1  0.62098951  0.63887210  0.54402122  1
  O  O48  1  0.34069685  0.14974258  0.95938584  1
  O  O49  1  0.34069685  0.64974258  0.95938584  1
  O  O50  1  0.84069685  0.14974258  0.95938584  1
  O  O51  1  0.84069685  0.64974258  0.95938584  1
  O  O52  1  0.07934346  0.48855388  0.73857112  1
  O  O53  1  0.07934346  0.98855388  0.73857112  1
  O  O54  1  0.57934346  0.48855388  0.73857112  1
  O  O55  1  0.57934346  0.98855388  0.73857112  1
  O  O56  1  0.07934346  0.26144612  0.23857112  1
  O  O57  1  0.07934346  0.76144612  0.23857112  1
  O  O58  1  0.57934346  0.26144612  0.23857112  1
  O  O59  1  0.57934346  0.76144612  0.23857112  1
  O  O60  1  0.42065654  0.01144612  0.26142888  1
  O  O61  1  0.42065654  0.51144612  0.26142888  1
  O  O62  1  0.92065654  0.01144612  0.26142888  1
  O  O63  1  0.92065654  0.51144612  0.26142888  1
  O  O64  1  0.37901049  0.38887210  0.95597878  1
  O  O65  1  0.37901049  0.88887210  0.95597878  1
  O  O66  1  0.87901049  0.38887210  0.95597878  1
  O  O67  1  0.87901049  0.88887210  0.95597878  1
  O  O68  1  0.15930315  0.39974258  0.54061416  1
  O  O69  1  0.15930315  0.89974258  0.54061416  1
  O  O70  1  0.65930315  0.39974258  0.54061416  1
  O  O71  1  0.65930315  0.89974258  0.54061416  1
  O  O72  1  0.12098951  0.11112790  0.04402122  1
  O  O73  1  0.12098951  0.61112790  0.04402122  1
  O  O74  1  0.62098951  0.11112790  0.04402122  1
  O  O75  1  0.62098951  0.61112790  0.04402122  1
  O  O76  1  0.34069685  0.10025742  0.45938584  1
  O  O77  1  0.34069685  0.60025742  0.45938584  1
  O  O78  1  0.84069685  0.10025742  0.45938584  1
  O  O79  1  0.84069685  0.60025742  0.45938584  1
