# generated using pymatgen
data_Si2Hg6O7
_symmetry_space_group_name_H-M   'P 1'
_cell_length_a   11.84059080
_cell_length_b   15.19400506
_cell_length_c   12.05560259
_cell_angle_alpha   90.00000000
_cell_angle_beta   111.18823388
_cell_angle_gamma   90.00000000
_symmetry_Int_Tables_number   1
_chemical_formula_structural   Si2Hg6O7
_chemical_formula_sum   'Si16 Hg48 O56'
_cell_volume   2022.25499172
_cell_formula_units_Z   8
loop_
 _symmetry_equiv_pos_site_id
 _symmetry_equiv_pos_as_xyz
  1  'x, y, z'
loop_
 _atom_site_type_symbol
 _atom_site_label
 _atom_site_symmetry_multiplicity
 _atom_site_fract_x
 _atom_site_fract_y
 _atom_site_fract_z
 _atom_site_occupancy
  Si  Si0  1  0.35284205  -0.00000000  0.44948299  1
  Si  Si1  1  0.35284205  -0.00000000  0.94948299  1
  Si  Si2  1  0.35284205  0.50000000  0.44948299  1
  Si  Si3  1  0.35284205  0.50000000  0.94948299  1
  Si  Si4  1  0.85284205  0.25000000  0.44948299  1
  Si  Si5  1  0.85284205  0.25000000  0.94948299  1
  Si  Si6  1  0.85284205  0.75000000  0.44948299  1
  Si  Si7  1  0.85284205  0.75000000  0.94948299  1
  Si  Si8  1  0.64715795  -0.00000000  0.05051701  1
  Si  Si9  1  0.64715795  -0.00000000  0.55051701  1
  Si  Si10  1  0.64715795  0.50000000  0.05051701  1
  Si  Si11  1  0.64715795  0.50000000  0.55051701  1
  Si  Si12  1  1.14715795  0.25000000  0.05051701  1
  Si  Si13  1  1.14715795  0.25000000  0.55051701  1
  Si  Si14  1  1.14715795  0.75000000  0.05051701  1
  Si  Si15  1  1.14715795  0.75000000  0.55051701  1
  Hg  Hg16  1  0.61589592  -0.13119913  0.29173690  1
  Hg  Hg17  1  0.61589592  -0.13119913  0.79173690  1
  Hg  Hg18  1  0.61589592  0.36880087  0.29173690  1
  Hg  Hg19  1  0.61589592  0.36880087  0.79173690  1
  Hg  Hg20  1  1.11589592  0.11880087  0.29173690  1
  Hg  Hg21  1  1.11589592  0.11880087  0.79173690  1
  Hg  Hg22  1  1.11589592  0.61880087  0.29173690  1
  Hg  Hg23  1  1.11589592  0.61880087  0.79173690  1
  Hg  Hg24  1  0.38410408  -0.13119913  0.20826310  1
  Hg  Hg25  1  0.38410408  -0.13119913  0.70826310  1
  Hg  Hg26  1  0.38410408  0.36880087  0.20826310  1
  Hg  Hg27  1  0.38410408  0.36880087  0.70826310  1
  Hg  Hg28  1  0.88410408  0.11880087  0.20826310  1
  Hg  Hg29  1  0.88410408  0.11880087  0.70826310  1
  Hg  Hg30  1  0.88410408  0.61880087  0.20826310  1
  Hg  Hg31  1  0.88410408  0.61880087  0.70826310  1
  Hg  Hg32  1  0.38410408  0.13119913  0.20826310  1
  Hg  Hg33  1  0.38410408  0.13119913  0.70826310  1
  Hg  Hg34  1  0.38410408  0.63119913  0.20826310  1
  Hg  Hg35  1  0.38410408  0.63119913  0.70826310  1
  Hg  Hg36  1  0.88410408  0.38119913  0.20826310  1
  Hg  Hg37  1  0.88410408  0.38119913  0.70826310  1
  Hg  Hg38  1  0.88410408  0.88119913  0.20826310  1
  Hg  Hg39  1  0.88410408  0.88119913  0.70826310  1
  Hg  Hg40  1  0.61589592  0.13119913  0.29173690  1
  Hg  Hg41  1  0.61589592  0.13119913  0.79173690  1
  Hg  Hg42  1  0.61589592  0.63119913  0.29173690  1
  Hg  Hg43  1  0.61589592  0.63119913  0.79173690  1
  Hg  Hg44  1  1.11589592  0.38119913  0.29173690  1
  Hg  Hg45  1  1.11589592  0.38119913  0.79173690  1
  Hg  Hg46  1  1.11589592  0.88119913  0.29173690  1
  Hg  Hg47  1  1.11589592  0.88119913  0.79173690  1
  Hg  Hg48  1  0.88531680  0.00000000  0.47621479  1
  Hg  Hg49  1  0.88531680  0.00000000  0.97621479  1
  Hg  Hg50  1  0.88531680  0.50000000  0.47621479  1
  Hg  Hg51  1  0.88531680  0.50000000  0.97621479  1
  Hg  Hg52  1  1.38531680  0.25000000  0.47621479  1
  Hg  Hg53  1  1.38531680  0.25000000  0.97621479  1
  Hg  Hg54  1  1.38531680  0.75000000  0.47621479  1
  Hg  Hg55  1  1.38531680  0.75000000  0.97621479  1
  Hg  Hg56  1  0.11468320  -0.00000000  0.02378521  1
  Hg  Hg57  1  0.11468320  -0.00000000  0.52378521  1
  Hg  Hg58  1  0.11468320  0.50000000  0.02378521  1
  Hg  Hg59  1  0.11468320  0.50000000  0.52378521  1
  Hg  Hg60  1  0.61468320  0.25000000  0.02378521  1
  Hg  Hg61  1  0.61468320  0.25000000  0.52378521  1
  Hg  Hg62  1  0.61468320  0.75000000  0.02378521  1
  Hg  Hg63  1  0.61468320  0.75000000  0.52378521  1
  O  O64  1  0.50000000  0.00000000  0.00000000  1
  O  O65  1  0.50000000  0.00000000  0.50000000  1
  O  O66  1  0.50000000  0.50000000  0.00000000  1
  O  O67  1  0.50000000  0.50000000  0.50000000  1
  O  O68  1  1.00000000  0.25000000  0.00000000  1
  O  O69  1  1.00000000  0.25000000  0.50000000  1
  O  O70  1  1.00000000  0.75000000  0.00000000  1
  O  O71  1  1.00000000  0.75000000  0.50000000  1
  O  O72  1  0.30685366  0.08957151  0.36920451  1
  O  O73  1  0.30685366  0.08957151  0.86920451  1
  O  O74  1  0.30685366  0.58957151  0.36920451  1
  O  O75  1  0.30685366  0.58957151  0.86920451  1
  O  O76  1  0.80685366  0.33957151  0.36920451  1
  O  O77  1  0.80685366  0.33957151  0.86920451  1
  O  O78  1  0.80685366  0.83957151  0.36920451  1
  O  O79  1  0.80685366  0.83957151  0.86920451  1
  O  O80  1  0.69314634  0.08957151  0.13079549  1
  O  O81  1  0.69314634  0.08957151  0.63079549  1
  O  O82  1  0.69314634  0.58957151  0.13079549  1
  O  O83  1  0.69314634  0.58957151  0.63079549  1
  O  O84  1  1.19314634  0.33957151  0.13079549  1
  O  O85  1  1.19314634  0.33957151  0.63079549  1
  O  O86  1  1.19314634  0.83957151  0.13079549  1
  O  O87  1  1.19314634  0.83957151  0.63079549  1
  O  O88  1  0.69314634  -0.08957151  0.13079549  1
  O  O89  1  0.69314634  -0.08957151  0.63079549  1
  O  O90  1  0.69314634  0.41042849  0.13079549  1
  O  O91  1  0.69314634  0.41042849  0.63079549  1
  O  O92  1  1.19314634  0.16042849  0.13079549  1
  O  O93  1  1.19314634  0.16042849  0.63079549  1
  O  O94  1  1.19314634  0.66042849  0.13079549  1
  O  O95  1  1.19314634  0.66042849  0.63079549  1
  O  O96  1  0.30685366  -0.08957151  0.36920451  1
  O  O97  1  0.30685366  -0.08957151  0.86920451  1
  O  O98  1  0.30685366  0.41042849  0.36920451  1
  O  O99  1  0.30685366  0.41042849  0.86920451  1
  O  O100  1  0.80685366  0.16042849  0.36920451  1
  O  O101  1  0.80685366  0.16042849  0.86920451  1
  O  O102  1  0.80685366  0.66042849  0.36920451  1
  O  O103  1  0.80685366  0.66042849  0.86920451  1
  O  O104  1  0.69308345  -0.00000000  0.43594213  1
  O  O105  1  0.69308345  -0.00000000  0.93594213  1
  O  O106  1  0.69308345  0.50000000  0.43594213  1
  O  O107  1  0.69308345  0.50000000  0.93594213  1
  O  O108  1  1.19308345  0.25000000  0.43594213  1
  O  O109  1  1.19308345  0.25000000  0.93594213  1
  O  O110  1  1.19308345  0.75000000  0.43594213  1
  O  O111  1  1.19308345  0.75000000  0.93594213  1
  O  O112  1  0.30691655  -0.00000000  0.06405787  1
  O  O113  1  0.30691655  -0.00000000  0.56405787  1
  O  O114  1  0.30691655  0.50000000  0.06405787  1
  O  O115  1  0.30691655  0.50000000  0.56405787  1
  O  O116  1  0.80691655  0.25000000  0.06405787  1
  O  O117  1  0.80691655  0.25000000  0.56405787  1
  O  O118  1  0.80691655  0.75000000  0.06405787  1
  O  O119  1  0.80691655  0.75000000  0.56405787  1
