# generated using pymatgen
data_Li2GeO3
_symmetry_space_group_name_H-M   'P 1'
_cell_length_a   9.66392661
_cell_length_b   10.97546239
_cell_length_c   9.76342574
_cell_angle_alpha   90.00000000
_cell_angle_beta   90.00000000
_cell_angle_gamma   90.00000000
_symmetry_Int_Tables_number   1
_chemical_formula_structural   Li2GeO3
_chemical_formula_sum   'Li32 Ge16 O48'
_cell_volume   1035.56813073
_cell_formula_units_Z   16
loop_
 _symmetry_equiv_pos_site_id
 _symmetry_equiv_pos_as_xyz
  1  'x, y, z'
loop_
 _atom_site_type_symbol
 _atom_site_label
 _atom_site_symmetry_multiplicity
 _atom_site_fract_x
 _atom_site_fract_y
 _atom_site_fract_z
 _atom_site_occupancy
  Li  Li0  1  0.67537641  -0.07914189  0.24441835  1
  Li  Li1  1  0.67537641  -0.07914189  0.74441835  1
  Li  Li2  1  0.67537641  0.42085811  0.24441835  1
  Li  Li3  1  0.67537641  0.42085811  0.74441835  1
  Li  Li4  1  1.17537641  0.17085811  0.24441835  1
  Li  Li5  1  1.17537641  0.17085811  0.74441835  1
  Li  Li6  1  1.17537641  0.67085811  0.24441835  1
  Li  Li7  1  1.17537641  0.67085811  0.74441835  1
  Li  Li8  1  0.32462359  0.07914189  0.49441835  1
  Li  Li9  1  0.32462359  0.07914189  0.99441835  1
  Li  Li10  1  0.32462359  0.57914189  0.49441835  1
  Li  Li11  1  0.32462359  0.57914189  0.99441835  1
  Li  Li12  1  0.82462359  0.32914189  0.49441835  1
  Li  Li13  1  0.82462359  0.32914189  0.99441835  1
  Li  Li14  1  0.82462359  0.82914189  0.49441835  1
  Li  Li15  1  0.82462359  0.82914189  0.99441835  1
  Li  Li16  1  0.67537641  0.07914189  0.49441835  1
  Li  Li17  1  0.67537641  0.07914189  0.99441835  1
  Li  Li18  1  0.67537641  0.57914189  0.49441835  1
  Li  Li19  1  0.67537641  0.57914189  0.99441835  1
  Li  Li20  1  1.17537641  0.32914189  0.49441835  1
  Li  Li21  1  1.17537641  0.32914189  0.99441835  1
  Li  Li22  1  1.17537641  0.82914189  0.49441835  1
  Li  Li23  1  1.17537641  0.82914189  0.99441835  1
  Li  Li24  1  0.32462359  -0.07914189  0.24441835  1
  Li  Li25  1  0.32462359  -0.07914189  0.74441835  1
  Li  Li26  1  0.32462359  0.42085811  0.24441835  1
  Li  Li27  1  0.32462359  0.42085811  0.74441835  1
  Li  Li28  1  0.82462359  0.17085811  0.24441835  1
  Li  Li29  1  0.82462359  0.17085811  0.74441835  1
  Li  Li30  1  0.82462359  0.67085811  0.24441835  1
  Li  Li31  1  0.82462359  0.67085811  0.74441835  1
  Ge  Ge32  1  0.50000000  -0.16004417  0.49881927  1
  Ge  Ge33  1  0.50000000  -0.16004417  0.99881927  1
  Ge  Ge34  1  0.50000000  0.33995583  0.49881927  1
  Ge  Ge35  1  0.50000000  0.33995583  0.99881927  1
  Ge  Ge36  1  1.00000000  0.08995583  0.49881927  1
  Ge  Ge37  1  1.00000000  0.08995583  0.99881927  1
  Ge  Ge38  1  1.00000000  0.58995583  0.49881927  1
  Ge  Ge39  1  1.00000000  0.58995583  0.99881927  1
  Ge  Ge40  1  0.50000000  0.16004417  0.24881927  1
  Ge  Ge41  1  0.50000000  0.16004417  0.74881927  1
  Ge  Ge42  1  0.50000000  0.66004417  0.24881927  1
  Ge  Ge43  1  0.50000000  0.66004417  0.74881927  1
  Ge  Ge44  1  1.00000000  0.41004417  0.24881927  1
  Ge  Ge45  1  1.00000000  0.41004417  0.74881927  1
  Ge  Ge46  1  1.00000000  0.91004417  0.24881927  1
  Ge  Ge47  1  1.00000000  0.91004417  0.74881927  1
  O  O48  1  0.50000000  -0.18063810  0.31084165  1
  O  O49  1  0.50000000  -0.18063810  0.81084165  1
  O  O50  1  0.50000000  0.31936190  0.31084165  1
  O  O51  1  0.50000000  0.31936190  0.81084165  1
  O  O52  1  1.00000000  0.06936190  0.31084165  1
  O  O53  1  1.00000000  0.06936190  0.81084165  1
  O  O54  1  1.00000000  0.56936190  0.31084165  1
  O  O55  1  1.00000000  0.56936190  0.81084165  1
  O  O56  1  0.34502563  -0.08995262  0.04622594  1
  O  O57  1  0.34502563  -0.08995262  0.54622594  1
  O  O58  1  0.34502563  0.41004738  0.04622594  1
  O  O59  1  0.34502563  0.41004738  0.54622594  1
  O  O60  1  0.84502563  0.16004738  0.04622594  1
  O  O61  1  0.84502563  0.16004738  0.54622594  1
  O  O62  1  0.84502563  0.66004738  0.04622594  1
  O  O63  1  0.84502563  0.66004738  0.54622594  1
  O  O64  1  0.65497437  -0.08995262  0.04622594  1
  O  O65  1  0.65497437  -0.08995262  0.54622594  1
  O  O66  1  0.65497437  0.41004738  0.04622594  1
  O  O67  1  0.65497437  0.41004738  0.54622594  1
  O  O68  1  1.15497437  0.16004738  0.04622594  1
  O  O69  1  1.15497437  0.16004738  0.54622594  1
  O  O70  1  1.15497437  0.66004738  0.04622594  1
  O  O71  1  1.15497437  0.66004738  0.54622594  1
  O  O72  1  0.50000000  0.18063810  0.06084165  1
  O  O73  1  0.50000000  0.18063810  0.56084165  1
  O  O74  1  0.50000000  0.68063810  0.06084165  1
  O  O75  1  0.50000000  0.68063810  0.56084165  1
  O  O76  1  1.00000000  0.43063810  0.06084165  1
  O  O77  1  1.00000000  0.43063810  0.56084165  1
  O  O78  1  1.00000000  0.93063810  0.06084165  1
  O  O79  1  1.00000000  0.93063810  0.56084165  1
  O  O80  1  0.34502563  0.08995262  0.29622594  1
  O  O81  1  0.34502563  0.08995262  0.79622594  1
  O  O82  1  0.34502563  0.58995262  0.29622594  1
  O  O83  1  0.34502563  0.58995262  0.79622594  1
  O  O84  1  0.84502563  0.33995262  0.29622594  1
  O  O85  1  0.84502563  0.33995262  0.79622594  1
  O  O86  1  0.84502563  0.83995262  0.29622594  1
  O  O87  1  0.84502563  0.83995262  0.79622594  1
  O  O88  1  0.65497437  0.08995262  0.29622594  1
  O  O89  1  0.65497437  0.08995262  0.79622594  1
  O  O90  1  0.65497437  0.58995262  0.29622594  1
  O  O91  1  0.65497437  0.58995262  0.79622594  1
  O  O92  1  1.15497437  0.33995262  0.29622594  1
  O  O93  1  1.15497437  0.33995262  0.79622594  1
  O  O94  1  1.15497437  0.83995262  0.29622594  1
  O  O95  1  1.15497437  0.83995262  0.79622594  1
