# generated using pymatgen
data_K3V5O14
_symmetry_space_group_name_H-M   'P 1'
_cell_length_a   17.30679036
_cell_length_b   17.30679036
_cell_length_c   15.47081646
_cell_angle_alpha   90.00000000
_cell_angle_beta   90.00000000
_cell_angle_gamma   120.00000000
_symmetry_Int_Tables_number   1
_chemical_formula_structural   K3V5O14
_chemical_formula_sum   'K36 V60 O168'
_cell_volume   4013.07181606
_cell_formula_units_Z   12
loop_
 _symmetry_equiv_pos_site_id
 _symmetry_equiv_pos_as_xyz
  1  'x, y, z'
loop_
 _atom_site_type_symbol
 _atom_site_label
 _atom_site_symmetry_multiplicity
 _atom_site_fract_x
 _atom_site_fract_y
 _atom_site_fract_z
 _atom_site_occupancy
  K  K0  1  0.30518608  0.00000000  0.33211353  1
  K  K1  1  0.30518608  0.00000000  0.66544686  1
  K  K2  1  0.30518608  0.00000000  0.99878020  1
  K  K3  1  0.30518608  0.50000000  0.33211353  1
  K  K4  1  0.30518608  0.50000000  0.66544686  1
  K  K5  1  0.30518608  0.50000000  0.99878020  1
  K  K6  1  0.80518608  0.00000000  0.33211353  1
  K  K7  1  0.80518608  0.00000000  0.66544686  1
  K  K8  1  0.80518608  0.00000000  0.99878020  1
  K  K9  1  0.80518608  0.50000000  0.33211353  1
  K  K10  1  0.80518608  0.50000000  0.66544686  1
  K  K11  1  0.80518608  0.50000000  0.99878020  1
  K  K12  1  -0.00000000  0.30518608  0.33211353  1
  K  K13  1  -0.00000000  0.30518608  0.66544686  1
  K  K14  1  -0.00000000  0.30518608  0.99878020  1
  K  K15  1  -0.00000000  0.80518608  0.33211353  1
  K  K16  1  -0.00000000  0.80518608  0.66544686  1
  K  K17  1  -0.00000000  0.80518608  0.99878020  1
  K  K18  1  0.50000000  0.30518608  0.33211353  1
  K  K19  1  0.50000000  0.30518608  0.66544686  1
  K  K20  1  0.50000000  0.30518608  0.99878020  1
  K  K21  1  0.50000000  0.80518608  0.33211353  1
  K  K22  1  0.50000000  0.80518608  0.66544686  1
  K  K23  1  0.50000000  0.80518608  0.99878020  1
  K  K24  1  0.19481392  0.19481392  0.33211353  1
  K  K25  1  0.19481392  0.19481392  0.66544686  1
  K  K26  1  0.19481392  0.19481392  0.99878020  1
  K  K27  1  0.19481392  0.69481392  0.33211353  1
  K  K28  1  0.19481392  0.69481392  0.66544686  1
  K  K29  1  0.19481392  0.69481392  0.99878020  1
  K  K30  1  0.69481392  0.19481392  0.33211353  1
  K  K31  1  0.69481392  0.19481392  0.66544686  1
  K  K32  1  0.69481392  0.19481392  0.99878020  1
  K  K33  1  0.69481392  0.69481392  0.33211353  1
  K  K34  1  0.69481392  0.69481392  0.66544686  1
  K  K35  1  0.69481392  0.69481392  0.99878020  1
  V  V36  1  0.16666667  0.33333333  0.15479871  1
  V  V37  1  0.16666667  0.33333333  0.48813205  1
  V  V38  1  0.16666667  0.33333333  0.82146538  1
  V  V39  1  0.16666667  0.83333333  0.15479871  1
  V  V40  1  0.16666667  0.83333333  0.48813205  1
  V  V41  1  0.16666667  0.83333333  0.82146538  1
  V  V42  1  0.66666667  0.33333333  0.15479871  1
  V  V43  1  0.66666667  0.33333333  0.48813205  1
  V  V44  1  0.66666667  0.33333333  0.82146538  1
  V  V45  1  0.66666667  0.83333333  0.15479871  1
  V  V46  1  0.66666667  0.83333333  0.48813205  1
  V  V47  1  0.66666667  0.83333333  0.82146538  1
  V  V48  1  0.33333333  0.16666667  0.15479871  1
  V  V49  1  0.33333333  0.16666667  0.48813205  1
  V  V50  1  0.33333333  0.16666667  0.82146538  1
  V  V51  1  0.33333333  0.66666667  0.15479871  1
  V  V52  1  0.33333333  0.66666667  0.48813205  1
  V  V53  1  0.33333333  0.66666667  0.82146538  1
  V  V54  1  0.83333333  0.16666667  0.15479871  1
  V  V55  1  0.83333333  0.16666667  0.48813205  1
  V  V56  1  0.83333333  0.16666667  0.82146538  1
  V  V57  1  0.83333333  0.66666667  0.15479871  1
  V  V58  1  0.83333333  0.66666667  0.48813205  1
  V  V59  1  0.83333333  0.66666667  0.82146538  1
  V  V60  1  0.11469895  0.00000000  0.15843849  1
  V  V61  1  0.11469895  0.00000000  0.49177182  1
  V  V62  1  0.11469895  0.00000000  0.82510515  1
  V  V63  1  0.11469895  0.50000000  0.15843849  1
  V  V64  1  0.11469895  0.50000000  0.49177182  1
  V  V65  1  0.11469895  0.50000000  0.82510515  1
  V  V66  1  0.61469895  0.00000000  0.15843849  1
  V  V67  1  0.61469895  0.00000000  0.49177182  1
  V  V68  1  0.61469895  0.00000000  0.82510515  1
  V  V69  1  0.61469895  0.50000000  0.15843849  1
  V  V70  1  0.61469895  0.50000000  0.49177182  1
  V  V71  1  0.61469895  0.50000000  0.82510515  1
  V  V72  1  0.00000000  0.11469895  0.15843849  1
  V  V73  1  0.00000000  0.11469895  0.49177182  1
  V  V74  1  0.00000000  0.11469895  0.82510515  1
  V  V75  1  0.00000000  0.61469895  0.15843849  1
  V  V76  1  0.00000000  0.61469895  0.49177182  1
  V  V77  1  0.00000000  0.61469895  0.82510515  1
  V  V78  1  0.50000000  0.11469895  0.15843849  1
  V  V79  1  0.50000000  0.11469895  0.49177182  1
  V  V80  1  0.50000000  0.11469895  0.82510515  1
  V  V81  1  0.50000000  0.61469895  0.15843849  1
  V  V82  1  0.50000000  0.61469895  0.49177182  1
  V  V83  1  0.50000000  0.61469895  0.82510515  1
  V  V84  1  0.38530105  0.38530105  0.15843849  1
  V  V85  1  0.38530105  0.38530105  0.49177182  1
  V  V86  1  0.38530105  0.38530105  0.82510515  1
  V  V87  1  0.38530105  0.88530105  0.15843849  1
  V  V88  1  0.38530105  0.88530105  0.49177182  1
  V  V89  1  0.38530105  0.88530105  0.82510515  1
  V  V90  1  0.88530105  0.38530105  0.15843849  1
  V  V91  1  0.88530105  0.38530105  0.49177182  1
  V  V92  1  0.88530105  0.38530105  0.82510515  1
  V  V93  1  0.88530105  0.88530105  0.15843849  1
  V  V94  1  0.88530105  0.88530105  0.49177182  1
  V  V95  1  0.88530105  0.88530105  0.82510515  1
  O  O96  1  0.16666667  0.33333333  0.26144524  1
  O  O97  1  0.16666667  0.33333333  0.59477858  1
  O  O98  1  0.16666667  0.33333333  0.92811191  1
  O  O99  1  0.16666667  0.83333333  0.26144524  1
  O  O100  1  0.16666667  0.83333333  0.59477858  1
  O  O101  1  0.16666667  0.83333333  0.92811191  1
  O  O102  1  0.66666667  0.33333333  0.26144524  1
  O  O103  1  0.66666667  0.33333333  0.59477858  1
  O  O104  1  0.66666667  0.33333333  0.92811191  1
  O  O105  1  0.66666667  0.83333333  0.26144524  1
  O  O106  1  0.66666667  0.83333333  0.59477858  1
  O  O107  1  0.66666667  0.83333333  0.92811191  1
  O  O108  1  0.33333333  0.16666667  0.26144524  1
  O  O109  1  0.33333333  0.16666667  0.59477858  1
  O  O110  1  0.33333333  0.16666667  0.92811191  1
  O  O111  1  0.33333333  0.66666667  0.26144524  1
  O  O112  1  0.33333333  0.66666667  0.59477858  1
  O  O113  1  0.33333333  0.66666667  0.92811191  1
  O  O114  1  0.83333333  0.16666667  0.26144524  1
  O  O115  1  0.83333333  0.16666667  0.59477858  1
  O  O116  1  0.83333333  0.16666667  0.92811191  1
  O  O117  1  0.83333333  0.66666667  0.26144524  1
  O  O118  1  0.83333333  0.66666667  0.59477858  1
  O  O119  1  0.83333333  0.66666667  0.92811191  1
  O  O120  1  0.12499469  0.00000000  0.26301594  1
  O  O121  1  0.12499469  0.00000000  0.59634927  1
  O  O122  1  0.12499469  0.00000000  0.92968261  1
  O  O123  1  0.12499469  0.50000000  0.26301594  1
  O  O124  1  0.12499469  0.50000000  0.59634927  1
  O  O125  1  0.12499469  0.50000000  0.92968261  1
  O  O126  1  0.62499469  0.00000000  0.26301594  1
  O  O127  1  0.62499469  0.00000000  0.59634927  1
  O  O128  1  0.62499469  0.00000000  0.92968261  1
  O  O129  1  0.62499469  0.50000000  0.26301594  1
  O  O130  1  0.62499469  0.50000000  0.59634927  1
  O  O131  1  0.62499469  0.50000000  0.92968261  1
  O  O132  1  0.00000000  0.12499469  0.26301594  1
  O  O133  1  0.00000000  0.12499469  0.59634927  1
  O  O134  1  0.00000000  0.12499469  0.92968261  1
  O  O135  1  0.00000000  0.62499469  0.26301594  1
  O  O136  1  0.00000000  0.62499469  0.59634927  1
  O  O137  1  0.00000000  0.62499469  0.92968261  1
  O  O138  1  0.50000000  0.12499469  0.26301594  1
  O  O139  1  0.50000000  0.12499469  0.59634927  1
  O  O140  1  0.50000000  0.12499469  0.92968261  1
  O  O141  1  0.50000000  0.62499469  0.26301594  1
  O  O142  1  0.50000000  0.62499469  0.59634927  1
  O  O143  1  0.50000000  0.62499469  0.92968261  1
  O  O144  1  0.37500531  0.37500531  0.26301594  1
  O  O145  1  0.37500531  0.37500531  0.59634927  1
  O  O146  1  0.37500531  0.37500531  0.92968261  1
  O  O147  1  0.37500531  0.87500531  0.26301594  1
  O  O148  1  0.37500531  0.87500531  0.59634927  1
  O  O149  1  0.37500531  0.87500531  0.92968261  1
  O  O150  1  0.87500531  0.37500531  0.26301594  1
  O  O151  1  0.87500531  0.37500531  0.59634927  1
  O  O152  1  0.87500531  0.37500531  0.92968261  1
  O  O153  1  0.87500531  0.87500531  0.26301594  1
  O  O154  1  0.87500531  0.87500531  0.59634927  1
  O  O155  1  0.87500531  0.87500531  0.92968261  1
  O  O156  1  0.41638902  0.00000000  0.13614867  1
  O  O157  1  0.41638902  0.00000000  0.46948200  1
  O  O158  1  0.41638902  0.00000000  0.80281534  1
  O  O159  1  0.41638902  0.50000000  0.13614867  1
  O  O160  1  0.41638902  0.50000000  0.46948200  1
  O  O161  1  0.41638902  0.50000000  0.80281534  1
  O  O162  1  0.91638902  0.00000000  0.13614867  1
  O  O163  1  0.91638902  0.00000000  0.46948200  1
  O  O164  1  0.91638902  0.00000000  0.80281534  1
  O  O165  1  0.91638902  0.50000000  0.13614867  1
  O  O166  1  0.91638902  0.50000000  0.46948200  1
  O  O167  1  0.91638902  0.50000000  0.80281534  1
  O  O168  1  0.00000000  0.41638902  0.13614867  1
  O  O169  1  0.00000000  0.41638902  0.46948200  1
  O  O170  1  0.00000000  0.41638902  0.80281534  1
  O  O171  1  0.00000000  0.91638902  0.13614867  1
  O  O172  1  0.00000000  0.91638902  0.46948200  1
  O  O173  1  0.00000000  0.91638902  0.80281534  1
  O  O174  1  0.50000000  0.41638902  0.13614867  1
  O  O175  1  0.50000000  0.41638902  0.46948200  1
  O  O176  1  0.50000000  0.41638902  0.80281534  1
  O  O177  1  0.50000000  0.91638902  0.13614867  1
  O  O178  1  0.50000000  0.91638902  0.46948200  1
  O  O179  1  0.50000000  0.91638902  0.80281534  1
  O  O180  1  0.08361098  0.08361098  0.13614867  1
  O  O181  1  0.08361098  0.08361098  0.46948200  1
  O  O182  1  0.08361098  0.08361098  0.80281534  1
  O  O183  1  0.08361098  0.58361098  0.13614867  1
  O  O184  1  0.08361098  0.58361098  0.46948200  1
  O  O185  1  0.08361098  0.58361098  0.80281534  1
  O  O186  1  0.58361098  0.08361098  0.13614867  1
  O  O187  1  0.58361098  0.08361098  0.46948200  1
  O  O188  1  0.58361098  0.08361098  0.80281534  1
  O  O189  1  0.58361098  0.58361098  0.13614867  1
  O  O190  1  0.58361098  0.58361098  0.46948200  1
  O  O191  1  0.58361098  0.58361098  0.80281534  1
  O  O192  1  0.23017450  0.08407354  0.11600526  1
  O  O193  1  0.23017450  0.08407354  0.44933859  1
  O  O194  1  0.23017450  0.08407354  0.78267192  1
  O  O195  1  0.23017450  0.58407354  0.11600526  1
  O  O196  1  0.23017450  0.58407354  0.44933859  1
  O  O197  1  0.23017450  0.58407354  0.78267192  1
  O  O198  1  0.73017450  0.08407354  0.11600526  1
  O  O199  1  0.73017450  0.08407354  0.44933859  1
  O  O200  1  0.73017450  0.08407354  0.78267192  1
  O  O201  1  0.73017450  0.58407354  0.11600526  1
  O  O202  1  0.73017450  0.58407354  0.44933859  1
  O  O203  1  0.73017450  0.58407354  0.78267192  1
  O  O204  1  0.41592646  0.14610097  0.11600526  1
  O  O205  1  0.41592646  0.14610097  0.44933859  1
  O  O206  1  0.41592646  0.14610097  0.78267192  1
  O  O207  1  0.41592646  0.64610097  0.11600526  1
  O  O208  1  0.41592646  0.64610097  0.44933859  1
  O  O209  1  0.41592646  0.64610097  0.78267192  1
  O  O210  1  0.91592646  0.14610097  0.11600526  1
  O  O211  1  0.91592646  0.14610097  0.44933859  1
  O  O212  1  0.91592646  0.14610097  0.78267192  1
  O  O213  1  0.91592646  0.64610097  0.11600526  1
  O  O214  1  0.91592646  0.64610097  0.44933859  1
  O  O215  1  0.91592646  0.64610097  0.78267192  1
  O  O216  1  0.35389903  0.26982550  0.11600526  1
  O  O217  1  0.35389903  0.26982550  0.44933859  1
  O  O218  1  0.35389903  0.26982550  0.78267192  1
  O  O219  1  0.35389903  0.76982550  0.11600526  1
  O  O220  1  0.35389903  0.76982550  0.44933859  1
  O  O221  1  0.35389903  0.76982550  0.78267192  1
  O  O222  1  0.85389903  0.26982550  0.11600526  1
  O  O223  1  0.85389903  0.26982550  0.44933859  1
  O  O224  1  0.85389903  0.26982550  0.78267192  1
  O  O225  1  0.85389903  0.76982550  0.11600526  1
  O  O226  1  0.85389903  0.76982550  0.44933859  1
  O  O227  1  0.85389903  0.76982550  0.78267192  1
  O  O228  1  0.08407354  0.23017450  0.11600526  1
  O  O229  1  0.08407354  0.23017450  0.44933859  1
  O  O230  1  0.08407354  0.23017450  0.78267192  1
  O  O231  1  0.08407354  0.73017450  0.11600526  1
  O  O232  1  0.08407354  0.73017450  0.44933859  1
  O  O233  1  0.08407354  0.73017450  0.78267192  1
  O  O234  1  0.58407354  0.23017450  0.11600526  1
  O  O235  1  0.58407354  0.23017450  0.44933859  1
  O  O236  1  0.58407354  0.23017450  0.78267192  1
  O  O237  1  0.58407354  0.73017450  0.11600526  1
  O  O238  1  0.58407354  0.73017450  0.44933859  1
  O  O239  1  0.58407354  0.73017450  0.78267192  1
  O  O240  1  0.14610097  0.41592646  0.11600526  1
  O  O241  1  0.14610097  0.41592646  0.44933859  1
  O  O242  1  0.14610097  0.41592646  0.78267192  1
  O  O243  1  0.14610097  0.91592646  0.11600526  1
  O  O244  1  0.14610097  0.91592646  0.44933859  1
  O  O245  1  0.14610097  0.91592646  0.78267192  1
  O  O246  1  0.64610097  0.41592646  0.11600526  1
  O  O247  1  0.64610097  0.41592646  0.44933859  1
  O  O248  1  0.64610097  0.41592646  0.78267192  1
  O  O249  1  0.64610097  0.91592646  0.11600526  1
  O  O250  1  0.64610097  0.91592646  0.44933859  1
  O  O251  1  0.64610097  0.91592646  0.78267192  1
  O  O252  1  0.26982550  0.35389903  0.11600526  1
  O  O253  1  0.26982550  0.35389903  0.44933859  1
  O  O254  1  0.26982550  0.35389903  0.78267192  1
  O  O255  1  0.26982550  0.85389903  0.11600526  1
  O  O256  1  0.26982550  0.85389903  0.44933859  1
  O  O257  1  0.26982550  0.85389903  0.78267192  1
  O  O258  1  0.76982550  0.35389903  0.11600526  1
  O  O259  1  0.76982550  0.35389903  0.44933859  1
  O  O260  1  0.76982550  0.35389903  0.78267192  1
  O  O261  1  0.76982550  0.85389903  0.11600526  1
  O  O262  1  0.76982550  0.85389903  0.44933859  1
  O  O263  1  0.76982550  0.85389903  0.78267192  1
