# generated using pymatgen
data_TlBi(WO4)2
_symmetry_space_group_name_H-M   'P 1'
_cell_length_a   21.61404622
_cell_length_b   21.37167676
_cell_length_c   15.07011565
_cell_angle_alpha   90.00000000
_cell_angle_beta   130.69971638
_cell_angle_gamma   90.00000000
_symmetry_Int_Tables_number   1
_chemical_formula_structural   TlBi(WO4)2
_chemical_formula_sum   'Tl32 Bi32 W64 O256'
_cell_volume   5277.63405346
_cell_formula_units_Z   32
loop_
 _symmetry_equiv_pos_site_id
 _symmetry_equiv_pos_as_xyz
  1  'x, y, z'
loop_
 _atom_site_type_symbol
 _atom_site_label
 _atom_site_symmetry_multiplicity
 _atom_site_fract_x
 _atom_site_fract_y
 _atom_site_fract_z
 _atom_site_occupancy
  Tl  Tl0  1  0.25000000  -0.14424249  0.37500000  1
  Tl  Tl1  1  0.25000000  -0.14424249  0.87500000  1
  Tl  Tl2  1  0.25000000  0.35575751  0.37500000  1
  Tl  Tl3  1  0.25000000  0.35575751  0.87500000  1
  Tl  Tl4  1  0.75000000  -0.14424249  0.37500000  1
  Tl  Tl5  1  0.75000000  -0.14424249  0.87500000  1
  Tl  Tl6  1  0.75000000  0.35575751  0.37500000  1
  Tl  Tl7  1  0.75000000  0.35575751  0.87500000  1
  Tl  Tl8  1  0.50000000  0.10575751  0.37500000  1
  Tl  Tl9  1  0.50000000  0.10575751  0.87500000  1
  Tl  Tl10  1  0.50000000  0.60575751  0.37500000  1
  Tl  Tl11  1  0.50000000  0.60575751  0.87500000  1
  Tl  Tl12  1  1.00000000  0.10575751  0.37500000  1
  Tl  Tl13  1  1.00000000  0.10575751  0.87500000  1
  Tl  Tl14  1  1.00000000  0.60575751  0.37500000  1
  Tl  Tl15  1  1.00000000  0.60575751  0.87500000  1
  Tl  Tl16  1  0.25000000  0.14424249  0.12500000  1
  Tl  Tl17  1  0.25000000  0.14424249  0.62500000  1
  Tl  Tl18  1  0.25000000  0.64424249  0.12500000  1
  Tl  Tl19  1  0.25000000  0.64424249  0.62500000  1
  Tl  Tl20  1  0.75000000  0.14424249  0.12500000  1
  Tl  Tl21  1  0.75000000  0.14424249  0.62500000  1
  Tl  Tl22  1  0.75000000  0.64424249  0.12500000  1
  Tl  Tl23  1  0.75000000  0.64424249  0.62500000  1
  Tl  Tl24  1  0.50000000  0.39424249  0.12500000  1
  Tl  Tl25  1  0.50000000  0.39424249  0.62500000  1
  Tl  Tl26  1  0.50000000  0.89424249  0.12500000  1
  Tl  Tl27  1  0.50000000  0.89424249  0.62500000  1
  Tl  Tl28  1  1.00000000  0.39424249  0.12500000  1
  Tl  Tl29  1  1.00000000  0.39424249  0.62500000  1
  Tl  Tl30  1  1.00000000  0.89424249  0.12500000  1
  Tl  Tl31  1  1.00000000  0.89424249  0.62500000  1
  Bi  Bi32  1  0.25000000  0.13756762  0.37500000  1
  Bi  Bi33  1  0.25000000  0.13756762  0.87500000  1
  Bi  Bi34  1  0.25000000  0.63756762  0.37500000  1
  Bi  Bi35  1  0.25000000  0.63756762  0.87500000  1
  Bi  Bi36  1  0.75000000  0.13756762  0.37500000  1
  Bi  Bi37  1  0.75000000  0.13756762  0.87500000  1
  Bi  Bi38  1  0.75000000  0.63756762  0.37500000  1
  Bi  Bi39  1  0.75000000  0.63756762  0.87500000  1
  Bi  Bi40  1  0.50000000  0.38756762  0.37500000  1
  Bi  Bi41  1  0.50000000  0.38756762  0.87500000  1
  Bi  Bi42  1  0.50000000  0.88756762  0.37500000  1
  Bi  Bi43  1  0.50000000  0.88756762  0.87500000  1
  Bi  Bi44  1  1.00000000  0.38756762  0.37500000  1
  Bi  Bi45  1  1.00000000  0.38756762  0.87500000  1
  Bi  Bi46  1  1.00000000  0.88756762  0.37500000  1
  Bi  Bi47  1  1.00000000  0.88756762  0.87500000  1
  Bi  Bi48  1  0.25000000  -0.13756762  0.12500000  1
  Bi  Bi49  1  0.25000000  -0.13756762  0.62500000  1
  Bi  Bi50  1  0.25000000  0.36243238  0.12500000  1
  Bi  Bi51  1  0.25000000  0.36243238  0.62500000  1
  Bi  Bi52  1  0.75000000  -0.13756762  0.12500000  1
  Bi  Bi53  1  0.75000000  -0.13756762  0.62500000  1
  Bi  Bi54  1  0.75000000  0.36243238  0.12500000  1
  Bi  Bi55  1  0.75000000  0.36243238  0.62500000  1
  Bi  Bi56  1  0.50000000  0.11243238  0.12500000  1
  Bi  Bi57  1  0.50000000  0.11243238  0.62500000  1
  Bi  Bi58  1  0.50000000  0.61243238  0.12500000  1
  Bi  Bi59  1  0.50000000  0.61243238  0.62500000  1
  Bi  Bi60  1  1.00000000  0.11243238  0.12500000  1
  Bi  Bi61  1  1.00000000  0.11243238  0.62500000  1
  Bi  Bi62  1  1.00000000  0.61243238  0.12500000  1
  Bi  Bi63  1  1.00000000  0.61243238  0.62500000  1
  W  W64  1  0.15246046  0.00126906  0.38467699  1
  W  W65  1  0.15246046  0.00126906  0.88467699  1
  W  W66  1  0.15246046  0.50126906  0.38467699  1
  W  W67  1  0.15246046  0.50126906  0.88467699  1
  W  W68  1  0.65246046  0.00126906  0.38467699  1
  W  W69  1  0.65246046  0.00126906  0.88467699  1
  W  W70  1  0.65246046  0.50126906  0.38467699  1
  W  W71  1  0.65246046  0.50126906  0.88467699  1
  W  W72  1  0.40246046  0.25126906  0.38467699  1
  W  W73  1  0.40246046  0.25126906  0.88467699  1
  W  W74  1  0.40246046  0.75126906  0.38467699  1
  W  W75  1  0.40246046  0.75126906  0.88467699  1
  W  W76  1  0.90246046  0.25126906  0.38467699  1
  W  W77  1  0.90246046  0.25126906  0.88467699  1
  W  W78  1  0.90246046  0.75126906  0.38467699  1
  W  W79  1  0.90246046  0.75126906  0.88467699  1
  W  W80  1  0.34753954  -0.00126906  0.11532301  1
  W  W81  1  0.34753954  -0.00126906  0.61532301  1
  W  W82  1  0.34753954  0.49873094  0.11532301  1
  W  W83  1  0.34753954  0.49873094  0.61532301  1
  W  W84  1  0.84753954  -0.00126906  0.11532301  1
  W  W85  1  0.84753954  -0.00126906  0.61532301  1
  W  W86  1  0.84753954  0.49873094  0.11532301  1
  W  W87  1  0.84753954  0.49873094  0.61532301  1
  W  W88  1  0.59753954  0.24873094  0.11532301  1
  W  W89  1  0.59753954  0.24873094  0.61532301  1
  W  W90  1  0.59753954  0.74873094  0.11532301  1
  W  W91  1  0.59753954  0.74873094  0.61532301  1
  W  W92  1  1.09753954  0.24873094  0.11532301  1
  W  W93  1  1.09753954  0.24873094  0.61532301  1
  W  W94  1  1.09753954  0.74873094  0.11532301  1
  W  W95  1  1.09753954  0.74873094  0.61532301  1
  W  W96  1  0.34753954  0.00126906  0.36532301  1
  W  W97  1  0.34753954  0.00126906  0.86532301  1
  W  W98  1  0.34753954  0.50126906  0.36532301  1
  W  W99  1  0.34753954  0.50126906  0.86532301  1
  W  W100  1  0.84753954  0.00126906  0.36532301  1
  W  W101  1  0.84753954  0.00126906  0.86532301  1
  W  W102  1  0.84753954  0.50126906  0.36532301  1
  W  W103  1  0.84753954  0.50126906  0.86532301  1
  W  W104  1  0.59753954  0.25126906  0.36532301  1
  W  W105  1  0.59753954  0.25126906  0.86532301  1
  W  W106  1  0.59753954  0.75126906  0.36532301  1
  W  W107  1  0.59753954  0.75126906  0.86532301  1
  W  W108  1  1.09753954  0.25126906  0.36532301  1
  W  W109  1  1.09753954  0.25126906  0.86532301  1
  W  W110  1  1.09753954  0.75126906  0.36532301  1
  W  W111  1  1.09753954  0.75126906  0.86532301  1
  W  W112  1  0.15246046  -0.00126906  0.13467699  1
  W  W113  1  0.15246046  -0.00126906  0.63467699  1
  W  W114  1  0.15246046  0.49873094  0.13467699  1
  W  W115  1  0.15246046  0.49873094  0.63467699  1
  W  W116  1  0.65246046  -0.00126906  0.13467699  1
  W  W117  1  0.65246046  -0.00126906  0.63467699  1
  W  W118  1  0.65246046  0.49873094  0.13467699  1
  W  W119  1  0.65246046  0.49873094  0.63467699  1
  W  W120  1  0.40246046  0.24873094  0.13467699  1
  W  W121  1  0.40246046  0.24873094  0.63467699  1
  W  W122  1  0.40246046  0.74873094  0.13467699  1
  W  W123  1  0.40246046  0.74873094  0.63467699  1
  W  W124  1  0.90246046  0.24873094  0.13467699  1
  W  W125  1  0.90246046  0.24873094  0.63467699  1
  W  W126  1  0.90246046  0.74873094  0.13467699  1
  W  W127  1  0.90246046  0.74873094  0.63467699  1
  O  O128  1  0.15503558  -0.03305487  0.27703813  1
  O  O129  1  0.15503558  -0.03305487  0.77703813  1
  O  O130  1  0.15503558  0.46694513  0.27703813  1
  O  O131  1  0.15503558  0.46694513  0.77703813  1
  O  O132  1  0.65503558  -0.03305487  0.27703813  1
  O  O133  1  0.65503558  -0.03305487  0.77703813  1
  O  O134  1  0.65503558  0.46694513  0.27703813  1
  O  O135  1  0.65503558  0.46694513  0.77703813  1
  O  O136  1  0.40503558  0.21694513  0.27703813  1
  O  O137  1  0.40503558  0.21694513  0.77703813  1
  O  O138  1  0.40503558  0.71694513  0.27703813  1
  O  O139  1  0.40503558  0.71694513  0.77703813  1
  O  O140  1  0.90503558  0.21694513  0.27703813  1
  O  O141  1  0.90503558  0.21694513  0.77703813  1
  O  O142  1  0.90503558  0.71694513  0.27703813  1
  O  O143  1  0.90503558  0.71694513  0.77703813  1
  O  O144  1  0.34496442  0.03305487  0.22296187  1
  O  O145  1  0.34496442  0.03305487  0.72296187  1
  O  O146  1  0.34496442  0.53305487  0.22296187  1
  O  O147  1  0.34496442  0.53305487  0.72296187  1
  O  O148  1  0.84496442  0.03305487  0.22296187  1
  O  O149  1  0.84496442  0.03305487  0.72296187  1
  O  O150  1  0.84496442  0.53305487  0.22296187  1
  O  O151  1  0.84496442  0.53305487  0.72296187  1
  O  O152  1  0.59496442  0.28305487  0.22296187  1
  O  O153  1  0.59496442  0.28305487  0.72296187  1
  O  O154  1  0.59496442  0.78305487  0.22296187  1
  O  O155  1  0.59496442  0.78305487  0.72296187  1
  O  O156  1  1.09496442  0.28305487  0.22296187  1
  O  O157  1  1.09496442  0.28305487  0.72296187  1
  O  O158  1  1.09496442  0.78305487  0.22296187  1
  O  O159  1  1.09496442  0.78305487  0.72296187  1
  O  O160  1  0.34496442  -0.03305487  0.47296187  1
  O  O161  1  0.34496442  -0.03305487  0.97296187  1
  O  O162  1  0.34496442  0.46694513  0.47296187  1
  O  O163  1  0.34496442  0.46694513  0.97296187  1
  O  O164  1  0.84496442  -0.03305487  0.47296187  1
  O  O165  1  0.84496442  -0.03305487  0.97296187  1
  O  O166  1  0.84496442  0.46694513  0.47296187  1
  O  O167  1  0.84496442  0.46694513  0.97296187  1
  O  O168  1  0.59496442  0.21694513  0.47296187  1
  O  O169  1  0.59496442  0.21694513  0.97296187  1
  O  O170  1  0.59496442  0.71694513  0.47296187  1
  O  O171  1  0.59496442  0.71694513  0.97296187  1
  O  O172  1  1.09496442  0.21694513  0.47296187  1
  O  O173  1  1.09496442  0.21694513  0.97296187  1
  O  O174  1  1.09496442  0.71694513  0.47296187  1
  O  O175  1  1.09496442  0.71694513  0.97296187  1
  O  O176  1  0.15503558  0.03305487  0.02703813  1
  O  O177  1  0.15503558  0.03305487  0.52703813  1
  O  O178  1  0.15503558  0.53305487  0.02703813  1
  O  O179  1  0.15503558  0.53305487  0.52703813  1
  O  O180  1  0.65503558  0.03305487  0.02703813  1
  O  O181  1  0.65503558  0.03305487  0.52703813  1
  O  O182  1  0.65503558  0.53305487  0.02703813  1
  O  O183  1  0.65503558  0.53305487  0.52703813  1
  O  O184  1  0.40503558  0.28305487  0.02703813  1
  O  O185  1  0.40503558  0.28305487  0.52703813  1
  O  O186  1  0.40503558  0.78305487  0.02703813  1
  O  O187  1  0.40503558  0.78305487  0.52703813  1
  O  O188  1  0.90503558  0.28305487  0.02703813  1
  O  O189  1  0.90503558  0.28305487  0.52703813  1
  O  O190  1  0.90503558  0.78305487  0.02703813  1
  O  O191  1  0.90503558  0.78305487  0.52703813  1
  O  O192  1  0.38592267  0.07911748  0.43276521  1
  O  O193  1  0.38592267  0.07911748  0.93276521  1
  O  O194  1  0.38592267  0.57911748  0.43276521  1
  O  O195  1  0.38592267  0.57911748  0.93276521  1
  O  O196  1  0.88592267  0.07911748  0.43276521  1
  O  O197  1  0.88592267  0.07911748  0.93276521  1
  O  O198  1  0.88592267  0.57911748  0.43276521  1
  O  O199  1  0.88592267  0.57911748  0.93276521  1
  O  O200  1  0.63592267  0.32911748  0.43276521  1
  O  O201  1  0.63592267  0.32911748  0.93276521  1
  O  O202  1  0.63592267  0.82911748  0.43276521  1
  O  O203  1  0.63592267  0.82911748  0.93276521  1
  O  O204  1  1.13592267  0.32911748  0.43276521  1
  O  O205  1  1.13592267  0.32911748  0.93276521  1
  O  O206  1  1.13592267  0.82911748  0.43276521  1
  O  O207  1  1.13592267  0.82911748  0.93276521  1
  O  O208  1  0.11407733  -0.07911748  0.06723479  1
  O  O209  1  0.11407733  -0.07911748  0.56723479  1
  O  O210  1  0.11407733  0.42088252  0.06723479  1
  O  O211  1  0.11407733  0.42088252  0.56723479  1
  O  O212  1  0.61407733  -0.07911748  0.06723479  1
  O  O213  1  0.61407733  -0.07911748  0.56723479  1
  O  O214  1  0.61407733  0.42088252  0.06723479  1
  O  O215  1  0.61407733  0.42088252  0.56723479  1
  O  O216  1  0.36407733  0.17088252  0.06723479  1
  O  O217  1  0.36407733  0.17088252  0.56723479  1
  O  O218  1  0.36407733  0.67088252  0.06723479  1
  O  O219  1  0.36407733  0.67088252  0.56723479  1
  O  O220  1  0.86407733  0.17088252  0.06723479  1
  O  O221  1  0.86407733  0.17088252  0.56723479  1
  O  O222  1  0.86407733  0.67088252  0.06723479  1
  O  O223  1  0.86407733  0.67088252  0.56723479  1
  O  O224  1  0.11407733  0.07911748  0.31723479  1
  O  O225  1  0.11407733  0.07911748  0.81723479  1
  O  O226  1  0.11407733  0.57911748  0.31723479  1
  O  O227  1  0.11407733  0.57911748  0.81723479  1
  O  O228  1  0.61407733  0.07911748  0.31723479  1
  O  O229  1  0.61407733  0.07911748  0.81723479  1
  O  O230  1  0.61407733  0.57911748  0.31723479  1
  O  O231  1  0.61407733  0.57911748  0.81723479  1
  O  O232  1  0.36407733  0.32911748  0.31723479  1
  O  O233  1  0.36407733  0.32911748  0.81723479  1
  O  O234  1  0.36407733  0.82911748  0.31723479  1
  O  O235  1  0.36407733  0.82911748  0.81723479  1
  O  O236  1  0.86407733  0.32911748  0.31723479  1
  O  O237  1  0.86407733  0.32911748  0.81723479  1
  O  O238  1  0.86407733  0.82911748  0.31723479  1
  O  O239  1  0.86407733  0.82911748  0.81723479  1
  O  O240  1  0.38592267  -0.07911748  0.18276521  1
  O  O241  1  0.38592267  -0.07911748  0.68276521  1
  O  O242  1  0.38592267  0.42088252  0.18276521  1
  O  O243  1  0.38592267  0.42088252  0.68276521  1
  O  O244  1  0.88592267  -0.07911748  0.18276521  1
  O  O245  1  0.88592267  -0.07911748  0.68276521  1
  O  O246  1  0.88592267  0.42088252  0.18276521  1
  O  O247  1  0.88592267  0.42088252  0.68276521  1
  O  O248  1  0.63592267  0.17088252  0.18276521  1
  O  O249  1  0.63592267  0.17088252  0.68276521  1
  O  O250  1  0.63592267  0.67088252  0.18276521  1
  O  O251  1  0.63592267  0.67088252  0.68276521  1
  O  O252  1  1.13592267  0.17088252  0.18276521  1
  O  O253  1  1.13592267  0.17088252  0.68276521  1
  O  O254  1  1.13592267  0.67088252  0.18276521  1
  O  O255  1  1.13592267  0.67088252  0.68276521  1
  O  O256  1  0.26085696  0.05307515  0.48791052  1
  O  O257  1  0.26085696  0.05307515  0.98791052  1
  O  O258  1  0.26085696  0.55307515  0.48791052  1
  O  O259  1  0.26085696  0.55307515  0.98791052  1
  O  O260  1  0.76085696  0.05307515  0.48791052  1
  O  O261  1  0.76085696  0.05307515  0.98791052  1
  O  O262  1  0.76085696  0.55307515  0.48791052  1
  O  O263  1  0.76085696  0.55307515  0.98791052  1
  O  O264  1  0.51085696  0.30307515  0.48791052  1
  O  O265  1  0.51085696  0.30307515  0.98791052  1
  O  O266  1  0.51085696  0.80307515  0.48791052  1
  O  O267  1  0.51085696  0.80307515  0.98791052  1
  O  O268  1  1.01085696  0.30307515  0.48791052  1
  O  O269  1  1.01085696  0.30307515  0.98791052  1
  O  O270  1  1.01085696  0.80307515  0.48791052  1
  O  O271  1  1.01085696  0.80307515  0.98791052  1
  O  O272  1  0.23914304  -0.05307515  0.01208948  1
  O  O273  1  0.23914304  -0.05307515  0.51208948  1
  O  O274  1  0.23914304  0.44692485  0.01208948  1
  O  O275  1  0.23914304  0.44692485  0.51208948  1
  O  O276  1  0.73914304  -0.05307515  0.01208948  1
  O  O277  1  0.73914304  -0.05307515  0.51208948  1
  O  O278  1  0.73914304  0.44692485  0.01208948  1
  O  O279  1  0.73914304  0.44692485  0.51208948  1
  O  O280  1  0.48914304  0.19692485  0.01208948  1
  O  O281  1  0.48914304  0.19692485  0.51208948  1
  O  O282  1  0.48914304  0.69692485  0.01208948  1
  O  O283  1  0.48914304  0.69692485  0.51208948  1
  O  O284  1  0.98914304  0.19692485  0.01208948  1
  O  O285  1  0.98914304  0.19692485  0.51208948  1
  O  O286  1  0.98914304  0.69692485  0.01208948  1
  O  O287  1  0.98914304  0.69692485  0.51208948  1
  O  O288  1  0.23914304  0.05307515  0.26208948  1
  O  O289  1  0.23914304  0.05307515  0.76208948  1
  O  O290  1  0.23914304  0.55307515  0.26208948  1
  O  O291  1  0.23914304  0.55307515  0.76208948  1
  O  O292  1  0.73914304  0.05307515  0.26208948  1
  O  O293  1  0.73914304  0.05307515  0.76208948  1
  O  O294  1  0.73914304  0.55307515  0.26208948  1
  O  O295  1  0.73914304  0.55307515  0.76208948  1
  O  O296  1  0.48914304  0.30307515  0.26208948  1
  O  O297  1  0.48914304  0.30307515  0.76208948  1
  O  O298  1  0.48914304  0.80307515  0.26208948  1
  O  O299  1  0.48914304  0.80307515  0.76208948  1
  O  O300  1  0.98914304  0.30307515  0.26208948  1
  O  O301  1  0.98914304  0.30307515  0.76208948  1
  O  O302  1  0.98914304  0.80307515  0.26208948  1
  O  O303  1  0.98914304  0.80307515  0.76208948  1
  O  O304  1  0.26085696  -0.05307515  0.23791052  1
  O  O305  1  0.26085696  -0.05307515  0.73791052  1
  O  O306  1  0.26085696  0.44692485  0.23791052  1
  O  O307  1  0.26085696  0.44692485  0.73791052  1
  O  O308  1  0.76085696  -0.05307515  0.23791052  1
  O  O309  1  0.76085696  -0.05307515  0.73791052  1
  O  O310  1  0.76085696  0.44692485  0.23791052  1
  O  O311  1  0.76085696  0.44692485  0.73791052  1
  O  O312  1  0.51085696  0.19692485  0.23791052  1
  O  O313  1  0.51085696  0.19692485  0.73791052  1
  O  O314  1  0.51085696  0.69692485  0.23791052  1
  O  O315  1  0.51085696  0.69692485  0.73791052  1
  O  O316  1  1.01085696  0.19692485  0.23791052  1
  O  O317  1  1.01085696  0.19692485  0.73791052  1
  O  O318  1  1.01085696  0.69692485  0.23791052  1
  O  O319  1  1.01085696  0.69692485  0.73791052  1
  O  O320  1  0.06399968  -0.04015808  0.34191377  1
  O  O321  1  0.06399968  -0.04015808  0.84191377  1
  O  O322  1  0.06399968  0.45984192  0.34191377  1
  O  O323  1  0.06399968  0.45984192  0.84191377  1
  O  O324  1  0.56399968  -0.04015808  0.34191377  1
  O  O325  1  0.56399968  -0.04015808  0.84191377  1
  O  O326  1  0.56399968  0.45984192  0.34191377  1
  O  O327  1  0.56399968  0.45984192  0.84191377  1
  O  O328  1  0.31399968  0.20984192  0.34191377  1
  O  O329  1  0.31399968  0.20984192  0.84191377  1
  O  O330  1  0.31399968  0.70984192  0.34191377  1
  O  O331  1  0.31399968  0.70984192  0.84191377  1
  O  O332  1  0.81399968  0.20984192  0.34191377  1
  O  O333  1  0.81399968  0.20984192  0.84191377  1
  O  O334  1  0.81399968  0.70984192  0.34191377  1
  O  O335  1  0.81399968  0.70984192  0.84191377  1
  O  O336  1  0.43600032  0.04015808  0.15808623  1
  O  O337  1  0.43600032  0.04015808  0.65808623  1
  O  O338  1  0.43600032  0.54015808  0.15808623  1
  O  O339  1  0.43600032  0.54015808  0.65808623  1
  O  O340  1  0.93600032  0.04015808  0.15808623  1
  O  O341  1  0.93600032  0.04015808  0.65808623  1
  O  O342  1  0.93600032  0.54015808  0.15808623  1
  O  O343  1  0.93600032  0.54015808  0.65808623  1
  O  O344  1  0.68600032  0.29015808  0.15808623  1
  O  O345  1  0.68600032  0.29015808  0.65808623  1
  O  O346  1  0.68600032  0.79015808  0.15808623  1
  O  O347  1  0.68600032  0.79015808  0.65808623  1
  O  O348  1  1.18600032  0.29015808  0.15808623  1
  O  O349  1  1.18600032  0.29015808  0.65808623  1
  O  O350  1  1.18600032  0.79015808  0.15808623  1
  O  O351  1  1.18600032  0.79015808  0.65808623  1
  O  O352  1  0.43600032  -0.04015808  0.40808623  1
  O  O353  1  0.43600032  -0.04015808  0.90808623  1
  O  O354  1  0.43600032  0.45984192  0.40808623  1
  O  O355  1  0.43600032  0.45984192  0.90808623  1
  O  O356  1  0.93600032  -0.04015808  0.40808623  1
  O  O357  1  0.93600032  -0.04015808  0.90808623  1
  O  O358  1  0.93600032  0.45984192  0.40808623  1
  O  O359  1  0.93600032  0.45984192  0.90808623  1
  O  O360  1  0.68600032  0.20984192  0.40808623  1
  O  O361  1  0.68600032  0.20984192  0.90808623  1
  O  O362  1  0.68600032  0.70984192  0.40808623  1
  O  O363  1  0.68600032  0.70984192  0.90808623  1
  O  O364  1  1.18600032  0.20984192  0.40808623  1
  O  O365  1  1.18600032  0.20984192  0.90808623  1
  O  O366  1  1.18600032  0.70984192  0.40808623  1
  O  O367  1  1.18600032  0.70984192  0.90808623  1
  O  O368  1  0.06399968  0.04015808  0.09191377  1
  O  O369  1  0.06399968  0.04015808  0.59191377  1
  O  O370  1  0.06399968  0.54015808  0.09191377  1
  O  O371  1  0.06399968  0.54015808  0.59191377  1
  O  O372  1  0.56399968  0.04015808  0.09191377  1
  O  O373  1  0.56399968  0.04015808  0.59191377  1
  O  O374  1  0.56399968  0.54015808  0.09191377  1
  O  O375  1  0.56399968  0.54015808  0.59191377  1
  O  O376  1  0.31399968  0.29015808  0.09191377  1
  O  O377  1  0.31399968  0.29015808  0.59191377  1
  O  O378  1  0.31399968  0.79015808  0.09191377  1
  O  O379  1  0.31399968  0.79015808  0.59191377  1
  O  O380  1  0.81399968  0.29015808  0.09191377  1
  O  O381  1  0.81399968  0.29015808  0.59191377  1
  O  O382  1  0.81399968  0.79015808  0.09191377  1
  O  O383  1  0.81399968  0.79015808  0.59191377  1
