# generated using pymatgen
data_SiO2
_symmetry_space_group_name_H-M   'P 1'
_cell_length_a   15.00756580
_cell_length_b   15.00756580
_cell_length_c   14.70070424
_cell_angle_alpha   90.00000000
_cell_angle_beta   90.00000000
_cell_angle_gamma   90.00000000
_symmetry_Int_Tables_number   1
_chemical_formula_structural   SiO2
_chemical_formula_sum   'Si72 O144'
_cell_volume   3310.99597273
_cell_formula_units_Z   72
loop_
 _symmetry_equiv_pos_site_id
 _symmetry_equiv_pos_as_xyz
  1  'x, y, z'
loop_
 _atom_site_type_symbol
 _atom_site_label
 _atom_site_symmetry_multiplicity
 _atom_site_fract_x
 _atom_site_fract_y
 _atom_site_fract_z
 _atom_site_occupancy
  Si  Si0  1  0.00000000  0.16666667  0.12500000  1
  Si  Si1  1  0.00000000  0.16666667  0.62500000  1
  Si  Si2  1  0.00000000  0.50000000  0.12500000  1
  Si  Si3  1  0.00000000  0.50000000  0.62500000  1
  Si  Si4  1  0.00000000  0.83333333  0.12500000  1
  Si  Si5  1  0.00000000  0.83333333  0.62500000  1
  Si  Si6  1  0.33333333  0.16666667  0.12500000  1
  Si  Si7  1  0.33333333  0.16666667  0.62500000  1
  Si  Si8  1  0.33333333  0.50000000  0.12500000  1
  Si  Si9  1  0.33333333  0.50000000  0.62500000  1
  Si  Si10  1  0.33333333  0.83333333  0.12500000  1
  Si  Si11  1  0.33333333  0.83333333  0.62500000  1
  Si  Si12  1  0.66666667  0.16666667  0.12500000  1
  Si  Si13  1  0.66666667  0.16666667  0.62500000  1
  Si  Si14  1  0.66666667  0.50000000  0.12500000  1
  Si  Si15  1  0.66666667  0.50000000  0.62500000  1
  Si  Si16  1  0.66666667  0.83333333  0.12500000  1
  Si  Si17  1  0.66666667  0.83333333  0.62500000  1
  Si  Si18  1  0.16666667  0.33333333  0.37500000  1
  Si  Si19  1  0.16666667  0.33333333  0.87500000  1
  Si  Si20  1  0.16666667  0.66666667  0.37500000  1
  Si  Si21  1  0.16666667  0.66666667  0.87500000  1
  Si  Si22  1  0.16666667  1.00000000  0.37500000  1
  Si  Si23  1  0.16666667  1.00000000  0.87500000  1
  Si  Si24  1  0.50000000  0.33333333  0.37500000  1
  Si  Si25  1  0.50000000  0.33333333  0.87500000  1
  Si  Si26  1  0.50000000  0.66666667  0.37500000  1
  Si  Si27  1  0.50000000  0.66666667  0.87500000  1
  Si  Si28  1  0.50000000  1.00000000  0.37500000  1
  Si  Si29  1  0.50000000  1.00000000  0.87500000  1
  Si  Si30  1  0.83333333  0.33333333  0.37500000  1
  Si  Si31  1  0.83333333  0.33333333  0.87500000  1
  Si  Si32  1  0.83333333  0.66666667  0.37500000  1
  Si  Si33  1  0.83333333  0.66666667  0.87500000  1
  Si  Si34  1  0.83333333  1.00000000  0.37500000  1
  Si  Si35  1  0.83333333  1.00000000  0.87500000  1
  Si  Si36  1  0.00000000  0.00000000  0.00000000  1
  Si  Si37  1  0.00000000  0.00000000  0.50000000  1
  Si  Si38  1  0.00000000  0.33333333  0.00000000  1
  Si  Si39  1  0.00000000  0.33333333  0.50000000  1
  Si  Si40  1  0.00000000  0.66666667  0.00000000  1
  Si  Si41  1  0.00000000  0.66666667  0.50000000  1
  Si  Si42  1  0.33333333  0.00000000  0.00000000  1
  Si  Si43  1  0.33333333  0.00000000  0.50000000  1
  Si  Si44  1  0.33333333  0.33333333  0.00000000  1
  Si  Si45  1  0.33333333  0.33333333  0.50000000  1
  Si  Si46  1  0.33333333  0.66666667  0.00000000  1
  Si  Si47  1  0.33333333  0.66666667  0.50000000  1
  Si  Si48  1  0.66666667  0.00000000  0.00000000  1
  Si  Si49  1  0.66666667  0.00000000  0.50000000  1
  Si  Si50  1  0.66666667  0.33333333  0.00000000  1
  Si  Si51  1  0.66666667  0.33333333  0.50000000  1
  Si  Si52  1  0.66666667  0.66666667  0.00000000  1
  Si  Si53  1  0.66666667  0.66666667  0.50000000  1
  Si  Si54  1  0.16666667  0.16666667  0.25000000  1
  Si  Si55  1  0.16666667  0.16666667  0.75000000  1
  Si  Si56  1  0.16666667  0.50000000  0.25000000  1
  Si  Si57  1  0.16666667  0.50000000  0.75000000  1
  Si  Si58  1  0.16666667  0.83333333  0.25000000  1
  Si  Si59  1  0.16666667  0.83333333  0.75000000  1
  Si  Si60  1  0.50000000  0.16666667  0.25000000  1
  Si  Si61  1  0.50000000  0.16666667  0.75000000  1
  Si  Si62  1  0.50000000  0.50000000  0.25000000  1
  Si  Si63  1  0.50000000  0.50000000  0.75000000  1
  Si  Si64  1  0.50000000  0.83333333  0.25000000  1
  Si  Si65  1  0.50000000  0.83333333  0.75000000  1
  Si  Si66  1  0.83333333  0.16666667  0.25000000  1
  Si  Si67  1  0.83333333  0.16666667  0.75000000  1
  Si  Si68  1  0.83333333  0.50000000  0.25000000  1
  Si  Si69  1  0.83333333  0.50000000  0.75000000  1
  Si  Si70  1  0.83333333  0.83333333  0.25000000  1
  Si  Si71  1  0.83333333  0.83333333  0.75000000  1
  O  O72  1  0.08333333  0.13555463  0.18750000  1
  O  O73  1  0.08333333  0.13555463  0.68750000  1
  O  O74  1  0.08333333  0.46888797  0.18750000  1
  O  O75  1  0.08333333  0.46888797  0.68750000  1
  O  O76  1  0.08333333  0.80222130  0.18750000  1
  O  O77  1  0.08333333  0.80222130  0.68750000  1
  O  O78  1  0.41666667  0.13555463  0.18750000  1
  O  O79  1  0.41666667  0.13555463  0.68750000  1
  O  O80  1  0.41666667  0.46888797  0.18750000  1
  O  O81  1  0.41666667  0.46888797  0.68750000  1
  O  O82  1  0.41666667  0.80222130  0.18750000  1
  O  O83  1  0.41666667  0.80222130  0.68750000  1
  O  O84  1  0.75000000  0.13555463  0.18750000  1
  O  O85  1  0.75000000  0.13555463  0.68750000  1
  O  O86  1  0.75000000  0.46888797  0.18750000  1
  O  O87  1  0.75000000  0.46888797  0.68750000  1
  O  O88  1  0.75000000  0.80222130  0.18750000  1
  O  O89  1  0.75000000  0.80222130  0.68750000  1
  O  O90  1  0.25000000  0.30222130  0.43750000  1
  O  O91  1  0.25000000  0.30222130  0.93750000  1
  O  O92  1  0.25000000  0.63555463  0.43750000  1
  O  O93  1  0.25000000  0.63555463  0.93750000  1
  O  O94  1  0.25000000  0.96888797  0.43750000  1
  O  O95  1  0.25000000  0.96888797  0.93750000  1
  O  O96  1  0.58333333  0.30222130  0.43750000  1
  O  O97  1  0.58333333  0.30222130  0.93750000  1
  O  O98  1  0.58333333  0.63555463  0.43750000  1
  O  O99  1  0.58333333  0.63555463  0.93750000  1
  O  O100  1  0.58333333  0.96888797  0.43750000  1
  O  O101  1  0.58333333  0.96888797  0.93750000  1
  O  O102  1  0.91666667  0.30222130  0.43750000  1
  O  O103  1  0.91666667  0.30222130  0.93750000  1
  O  O104  1  0.91666667  0.63555463  0.43750000  1
  O  O105  1  0.91666667  0.63555463  0.93750000  1
  O  O106  1  0.91666667  0.96888797  0.43750000  1
  O  O107  1  0.91666667  0.96888797  0.93750000  1
  O  O108  1  0.03111203  0.25000000  0.06250000  1
  O  O109  1  0.03111203  0.25000000  0.56250000  1
  O  O110  1  0.03111203  0.58333333  0.06250000  1
  O  O111  1  0.03111203  0.58333333  0.56250000  1
  O  O112  1  0.03111203  0.91666667  0.06250000  1
  O  O113  1  0.03111203  0.91666667  0.56250000  1
  O  O114  1  0.36444537  0.25000000  0.06250000  1
  O  O115  1  0.36444537  0.25000000  0.56250000  1
  O  O116  1  0.36444537  0.58333333  0.06250000  1
  O  O117  1  0.36444537  0.58333333  0.56250000  1
  O  O118  1  0.36444537  0.91666667  0.06250000  1
  O  O119  1  0.36444537  0.91666667  0.56250000  1
  O  O120  1  0.69777870  0.25000000  0.06250000  1
  O  O121  1  0.69777870  0.25000000  0.56250000  1
  O  O122  1  0.69777870  0.58333333  0.06250000  1
  O  O123  1  0.69777870  0.58333333  0.56250000  1
  O  O124  1  0.69777870  0.91666667  0.06250000  1
  O  O125  1  0.69777870  0.91666667  0.56250000  1
  O  O126  1  0.19777870  0.41666667  0.31250000  1
  O  O127  1  0.19777870  0.41666667  0.81250000  1
  O  O128  1  0.19777870  0.75000000  0.31250000  1
  O  O129  1  0.19777870  0.75000000  0.81250000  1
  O  O130  1  0.19777870  1.08333333  0.31250000  1
  O  O131  1  0.19777870  1.08333333  0.81250000  1
  O  O132  1  0.53111203  0.41666667  0.31250000  1
  O  O133  1  0.53111203  0.41666667  0.81250000  1
  O  O134  1  0.53111203  0.75000000  0.31250000  1
  O  O135  1  0.53111203  0.75000000  0.81250000  1
  O  O136  1  0.53111203  1.08333333  0.31250000  1
  O  O137  1  0.53111203  1.08333333  0.81250000  1
  O  O138  1  0.86444537  0.41666667  0.31250000  1
  O  O139  1  0.86444537  0.41666667  0.81250000  1
  O  O140  1  0.86444537  0.75000000  0.31250000  1
  O  O141  1  0.86444537  0.75000000  0.81250000  1
  O  O142  1  0.86444537  1.08333333  0.31250000  1
  O  O143  1  0.86444537  1.08333333  0.81250000  1
  O  O144  1  -0.08333333  0.19777870  0.18750000  1
  O  O145  1  -0.08333333  0.19777870  0.68750000  1
  O  O146  1  -0.08333333  0.53111203  0.18750000  1
  O  O147  1  -0.08333333  0.53111203  0.68750000  1
  O  O148  1  -0.08333333  0.86444537  0.18750000  1
  O  O149  1  -0.08333333  0.86444537  0.68750000  1
  O  O150  1  0.25000000  0.19777870  0.18750000  1
  O  O151  1  0.25000000  0.19777870  0.68750000  1
  O  O152  1  0.25000000  0.53111203  0.18750000  1
  O  O153  1  0.25000000  0.53111203  0.68750000  1
  O  O154  1  0.25000000  0.86444537  0.18750000  1
  O  O155  1  0.25000000  0.86444537  0.68750000  1
  O  O156  1  0.58333333  0.19777870  0.18750000  1
  O  O157  1  0.58333333  0.19777870  0.68750000  1
  O  O158  1  0.58333333  0.53111203  0.18750000  1
  O  O159  1  0.58333333  0.53111203  0.68750000  1
  O  O160  1  0.58333333  0.86444537  0.18750000  1
  O  O161  1  0.58333333  0.86444537  0.68750000  1
  O  O162  1  0.08333333  0.36444537  0.43750000  1
  O  O163  1  0.08333333  0.36444537  0.93750000  1
  O  O164  1  0.08333333  0.69777870  0.43750000  1
  O  O165  1  0.08333333  0.69777870  0.93750000  1
  O  O166  1  0.08333333  1.03111203  0.43750000  1
  O  O167  1  0.08333333  1.03111203  0.93750000  1
  O  O168  1  0.41666667  0.36444537  0.43750000  1
  O  O169  1  0.41666667  0.36444537  0.93750000  1
  O  O170  1  0.41666667  0.69777870  0.43750000  1
  O  O171  1  0.41666667  0.69777870  0.93750000  1
  O  O172  1  0.41666667  1.03111203  0.43750000  1
  O  O173  1  0.41666667  1.03111203  0.93750000  1
  O  O174  1  0.75000000  0.36444537  0.43750000  1
  O  O175  1  0.75000000  0.36444537  0.93750000  1
  O  O176  1  0.75000000  0.69777870  0.43750000  1
  O  O177  1  0.75000000  0.69777870  0.93750000  1
  O  O178  1  0.75000000  1.03111203  0.43750000  1
  O  O179  1  0.75000000  1.03111203  0.93750000  1
  O  O180  1  -0.03111203  0.08333333  0.06250000  1
  O  O181  1  -0.03111203  0.08333333  0.56250000  1
  O  O182  1  -0.03111203  0.41666667  0.06250000  1
  O  O183  1  -0.03111203  0.41666667  0.56250000  1
  O  O184  1  -0.03111203  0.75000000  0.06250000  1
  O  O185  1  -0.03111203  0.75000000  0.56250000  1
  O  O186  1  0.30222130  0.08333333  0.06250000  1
  O  O187  1  0.30222130  0.08333333  0.56250000  1
  O  O188  1  0.30222130  0.41666667  0.06250000  1
  O  O189  1  0.30222130  0.41666667  0.56250000  1
  O  O190  1  0.30222130  0.75000000  0.06250000  1
  O  O191  1  0.30222130  0.75000000  0.56250000  1
  O  O192  1  0.63555463  0.08333333  0.06250000  1
  O  O193  1  0.63555463  0.08333333  0.56250000  1
  O  O194  1  0.63555463  0.41666667  0.06250000  1
  O  O195  1  0.63555463  0.41666667  0.56250000  1
  O  O196  1  0.63555463  0.75000000  0.06250000  1
  O  O197  1  0.63555463  0.75000000  0.56250000  1
  O  O198  1  0.13555463  0.25000000  0.31250000  1
  O  O199  1  0.13555463  0.25000000  0.81250000  1
  O  O200  1  0.13555463  0.58333333  0.31250000  1
  O  O201  1  0.13555463  0.58333333  0.81250000  1
  O  O202  1  0.13555463  0.91666667  0.31250000  1
  O  O203  1  0.13555463  0.91666667  0.81250000  1
  O  O204  1  0.46888797  0.25000000  0.31250000  1
  O  O205  1  0.46888797  0.25000000  0.81250000  1
  O  O206  1  0.46888797  0.58333333  0.31250000  1
  O  O207  1  0.46888797  0.58333333  0.81250000  1
  O  O208  1  0.46888797  0.91666667  0.31250000  1
  O  O209  1  0.46888797  0.91666667  0.81250000  1
  O  O210  1  0.80222130  0.25000000  0.31250000  1
  O  O211  1  0.80222130  0.25000000  0.81250000  1
  O  O212  1  0.80222130  0.58333333  0.31250000  1
  O  O213  1  0.80222130  0.58333333  0.81250000  1
  O  O214  1  0.80222130  0.91666667  0.31250000  1
  O  O215  1  0.80222130  0.91666667  0.81250000  1
