# generated using pymatgen
data_CsVO3
_symmetry_space_group_name_H-M   'P 1'
_cell_length_a   10.82282183
_cell_length_b   12.14362519
_cell_length_c   11.57123896
_cell_angle_alpha   90.00000000
_cell_angle_beta   90.00000000
_cell_angle_gamma   90.00000000
_symmetry_Int_Tables_number   1
_chemical_formula_structural   CsVO3
_chemical_formula_sum   'Cs16 V16 O48'
_cell_volume   1520.78817085
_cell_formula_units_Z   16
loop_
 _symmetry_equiv_pos_site_id
 _symmetry_equiv_pos_as_xyz
  1  'x, y, z'
loop_
 _atom_site_type_symbol
 _atom_site_label
 _atom_site_symmetry_multiplicity
 _atom_site_fract_x
 _atom_site_fract_y
 _atom_site_fract_z
 _atom_site_occupancy
  Cs  Cs0  1  0.04330863  0.59720599  0.37500000  1
  Cs  Cs1  1  0.04330863  0.59720599  0.87500000  1
  Cs  Cs2  1  0.54330863  0.59720599  0.37500000  1
  Cs  Cs3  1  0.54330863  0.59720599  0.87500000  1
  Cs  Cs4  1  0.04330863  0.90279401  0.12500000  1
  Cs  Cs5  1  0.04330863  0.90279401  0.62500000  1
  Cs  Cs6  1  0.54330863  0.90279401  0.12500000  1
  Cs  Cs7  1  0.54330863  0.90279401  0.62500000  1
  Cs  Cs8  1  0.45669137  0.40279401  0.12500000  1
  Cs  Cs9  1  0.45669137  0.40279401  0.62500000  1
  Cs  Cs10  1  0.95669137  0.40279401  0.12500000  1
  Cs  Cs11  1  0.95669137  0.40279401  0.62500000  1
  Cs  Cs12  1  0.45669137  0.09720599  0.37500000  1
  Cs  Cs13  1  0.45669137  0.09720599  0.87500000  1
  Cs  Cs14  1  0.95669137  0.09720599  0.37500000  1
  Cs  Cs15  1  0.95669137  0.09720599  0.87500000  1
  V  V16  1  0.27426972  0.82844200  0.37500000  1
  V  V17  1  0.27426972  0.82844200  0.87500000  1
  V  V18  1  0.77426972  0.82844200  0.37500000  1
  V  V19  1  0.77426972  0.82844200  0.87500000  1
  V  V20  1  0.27426972  0.67155800  0.12500000  1
  V  V21  1  0.27426972  0.67155800  0.62500000  1
  V  V22  1  0.77426972  0.67155800  0.12500000  1
  V  V23  1  0.77426972  0.67155800  0.62500000  1
  V  V24  1  0.22573028  0.17155800  0.12500000  1
  V  V25  1  0.22573028  0.17155800  0.62500000  1
  V  V26  1  0.72573028  0.17155800  0.12500000  1
  V  V27  1  0.72573028  0.17155800  0.62500000  1
  V  V28  1  0.22573028  0.32844200  0.37500000  1
  V  V29  1  0.22573028  0.32844200  0.87500000  1
  V  V30  1  0.72573028  0.32844200  0.37500000  1
  V  V31  1  0.72573028  0.32844200  0.87500000  1
  O  O32  1  0.42648192  0.84721363  0.37500000  1
  O  O33  1  0.42648192  0.84721363  0.87500000  1
  O  O34  1  0.92648192  0.84721363  0.37500000  1
  O  O35  1  0.92648192  0.84721363  0.87500000  1
  O  O36  1  0.42648192  0.65278637  0.12500000  1
  O  O37  1  0.42648192  0.65278637  0.62500000  1
  O  O38  1  0.92648192  0.65278637  0.12500000  1
  O  O39  1  0.92648192  0.65278637  0.62500000  1
  O  O40  1  0.07351808  0.15278637  0.12500000  1
  O  O41  1  0.07351808  0.15278637  0.62500000  1
  O  O42  1  0.57351808  0.15278637  0.12500000  1
  O  O43  1  0.57351808  0.15278637  0.62500000  1
  O  O44  1  0.07351808  0.34721363  0.37500000  1
  O  O45  1  0.07351808  0.34721363  0.87500000  1
  O  O46  1  0.57351808  0.34721363  0.37500000  1
  O  O47  1  0.57351808  0.34721363  0.87500000  1
  O  O48  1  0.20385231  0.94948138  0.37500000  1
  O  O49  1  0.20385231  0.94948138  0.87500000  1
  O  O50  1  0.70385231  0.94948138  0.37500000  1
  O  O51  1  0.70385231  0.94948138  0.87500000  1
  O  O52  1  0.20385231  0.55051862  0.12500000  1
  O  O53  1  0.20385231  0.55051862  0.62500000  1
  O  O54  1  0.70385231  0.55051862  0.12500000  1
  O  O55  1  0.70385231  0.55051862  0.62500000  1
  O  O56  1  0.29614769  0.05051862  0.12500000  1
  O  O57  1  0.29614769  0.05051862  0.62500000  1
  O  O58  1  0.79614769  0.05051862  0.12500000  1
  O  O59  1  0.79614769  0.05051862  0.62500000  1
  O  O60  1  0.29614769  0.44948138  0.37500000  1
  O  O61  1  0.29614769  0.44948138  0.87500000  1
  O  O62  1  0.79614769  0.44948138  0.37500000  1
  O  O63  1  0.79614769  0.44948138  0.87500000  1
  O  O64  1  0.22705979  0.75000000  0.00000000  1
  O  O65  1  0.22705979  0.75000000  0.50000000  1
  O  O66  1  0.72705979  0.75000000  0.00000000  1
  O  O67  1  0.72705979  0.75000000  0.50000000  1
  O  O68  1  0.27294021  0.25000000  0.25000000  1
  O  O69  1  0.27294021  0.25000000  0.75000000  1
  O  O70  1  0.77294021  0.25000000  0.25000000  1
  O  O71  1  0.77294021  0.25000000  0.75000000  1
  O  O72  1  0.27294021  0.25000000  0.00000000  1
  O  O73  1  0.27294021  0.25000000  0.50000000  1
  O  O74  1  0.77294021  0.25000000  0.00000000  1
  O  O75  1  0.77294021  0.25000000  0.50000000  1
  O  O76  1  0.22705979  0.75000000  0.25000000  1
  O  O77  1  0.22705979  0.75000000  0.75000000  1
  O  O78  1  0.72705979  0.75000000  0.25000000  1
  O  O79  1  0.72705979  0.75000000  0.75000000  1
