# generated using pymatgen
data_BaLiBO3
_symmetry_space_group_name_H-M   'P 1'
_cell_length_a   12.90112791
_cell_length_b   14.21817456
_cell_length_c   14.77672183
_cell_angle_alpha   90.00000000
_cell_angle_beta   117.53104223
_cell_angle_gamma   90.00000000
_symmetry_Int_Tables_number   1
_chemical_formula_structural   BaLiBO3
_chemical_formula_sum   'Ba32 Li32 B32 O96'
_cell_volume   2403.56558110
_cell_formula_units_Z   32
loop_
 _symmetry_equiv_pos_site_id
 _symmetry_equiv_pos_as_xyz
  1  'x, y, z'
loop_
 _atom_site_type_symbol
 _atom_site_label
 _atom_site_symmetry_multiplicity
 _atom_site_fract_x
 _atom_site_fract_y
 _atom_site_fract_z
 _atom_site_occupancy
  Ba  Ba0  1  0.41133506  0.18051654  0.33237055  1
  Ba  Ba1  1  0.41133506  0.18051654  0.83237055  1
  Ba  Ba2  1  0.41133506  0.68051654  0.33237055  1
  Ba  Ba3  1  0.41133506  0.68051654  0.83237055  1
  Ba  Ba4  1  0.91133506  0.18051654  0.33237055  1
  Ba  Ba5  1  0.91133506  0.18051654  0.83237055  1
  Ba  Ba6  1  0.91133506  0.68051654  0.33237055  1
  Ba  Ba7  1  0.91133506  0.68051654  0.83237055  1
  Ba  Ba8  1  0.08866494  0.43051654  0.41762945  1
  Ba  Ba9  1  0.08866494  0.43051654  0.91762945  1
  Ba  Ba10  1  0.08866494  0.93051654  0.41762945  1
  Ba  Ba11  1  0.08866494  0.93051654  0.91762945  1
  Ba  Ba12  1  0.58866494  0.43051654  0.41762945  1
  Ba  Ba13  1  0.58866494  0.43051654  0.91762945  1
  Ba  Ba14  1  0.58866494  0.93051654  0.41762945  1
  Ba  Ba15  1  0.58866494  0.93051654  0.91762945  1
  Ba  Ba16  1  0.08866494  0.31948346  0.16762945  1
  Ba  Ba17  1  0.08866494  0.31948346  0.66762945  1
  Ba  Ba18  1  0.08866494  0.81948346  0.16762945  1
  Ba  Ba19  1  0.08866494  0.81948346  0.66762945  1
  Ba  Ba20  1  0.58866494  0.31948346  0.16762945  1
  Ba  Ba21  1  0.58866494  0.31948346  0.66762945  1
  Ba  Ba22  1  0.58866494  0.81948346  0.16762945  1
  Ba  Ba23  1  0.58866494  0.81948346  0.66762945  1
  Ba  Ba24  1  0.41133506  0.06948346  0.08237055  1
  Ba  Ba25  1  0.41133506  0.06948346  0.58237055  1
  Ba  Ba26  1  0.41133506  0.56948346  0.08237055  1
  Ba  Ba27  1  0.41133506  0.56948346  0.58237055  1
  Ba  Ba28  1  0.91133506  0.06948346  0.08237055  1
  Ba  Ba29  1  0.91133506  0.06948346  0.58237055  1
  Ba  Ba30  1  0.91133506  0.56948346  0.08237055  1
  Ba  Ba31  1  0.91133506  0.56948346  0.58237055  1
  Li  Li32  1  0.20124389  0.21440834  0.40086485  1
  Li  Li33  1  0.20124389  0.21440834  0.90086485  1
  Li  Li34  1  0.20124389  0.71440834  0.40086485  1
  Li  Li35  1  0.20124389  0.71440834  0.90086485  1
  Li  Li36  1  0.70124389  0.21440834  0.40086485  1
  Li  Li37  1  0.70124389  0.21440834  0.90086485  1
  Li  Li38  1  0.70124389  0.71440834  0.40086485  1
  Li  Li39  1  0.70124389  0.71440834  0.90086485  1
  Li  Li40  1  0.29875611  0.46440834  0.34913515  1
  Li  Li41  1  0.29875611  0.46440834  0.84913515  1
  Li  Li42  1  0.29875611  0.96440834  0.34913515  1
  Li  Li43  1  0.29875611  0.96440834  0.84913515  1
  Li  Li44  1  0.79875611  0.46440834  0.34913515  1
  Li  Li45  1  0.79875611  0.46440834  0.84913515  1
  Li  Li46  1  0.79875611  0.96440834  0.34913515  1
  Li  Li47  1  0.79875611  0.96440834  0.84913515  1
  Li  Li48  1  0.29875611  0.28559166  0.09913515  1
  Li  Li49  1  0.29875611  0.28559166  0.59913515  1
  Li  Li50  1  0.29875611  0.78559166  0.09913515  1
  Li  Li51  1  0.29875611  0.78559166  0.59913515  1
  Li  Li52  1  0.79875611  0.28559166  0.09913515  1
  Li  Li53  1  0.79875611  0.28559166  0.59913515  1
  Li  Li54  1  0.79875611  0.78559166  0.09913515  1
  Li  Li55  1  0.79875611  0.78559166  0.59913515  1
  Li  Li56  1  0.20124389  0.03559166  0.15086485  1
  Li  Li57  1  0.20124389  0.03559166  0.65086485  1
  Li  Li58  1  0.20124389  0.53559166  0.15086485  1
  Li  Li59  1  0.20124389  0.53559166  0.65086485  1
  Li  Li60  1  0.70124389  0.03559166  0.15086485  1
  Li  Li61  1  0.70124389  0.03559166  0.65086485  1
  Li  Li62  1  0.70124389  0.53559166  0.15086485  1
  Li  Li63  1  0.70124389  0.53559166  0.65086485  1
  B  B64  1  0.35617791  0.33126738  0.45882929  1
  B  B65  1  0.35617791  0.33126738  0.95882929  1
  B  B66  1  0.35617791  0.83126738  0.45882929  1
  B  B67  1  0.35617791  0.83126738  0.95882929  1
  B  B68  1  0.85617791  0.33126738  0.45882929  1
  B  B69  1  0.85617791  0.33126738  0.95882929  1
  B  B70  1  0.85617791  0.83126738  0.45882929  1
  B  B71  1  0.85617791  0.83126738  0.95882929  1
  B  B72  1  0.14382209  0.08126738  0.29117071  1
  B  B73  1  0.14382209  0.08126738  0.79117071  1
  B  B74  1  0.14382209  0.58126738  0.29117071  1
  B  B75  1  0.14382209  0.58126738  0.79117071  1
  B  B76  1  0.64382209  0.08126738  0.29117071  1
  B  B77  1  0.64382209  0.08126738  0.79117071  1
  B  B78  1  0.64382209  0.58126738  0.29117071  1
  B  B79  1  0.64382209  0.58126738  0.79117071  1
  B  B80  1  0.14382209  0.16873262  0.04117071  1
  B  B81  1  0.14382209  0.16873262  0.54117071  1
  B  B82  1  0.14382209  0.66873262  0.04117071  1
  B  B83  1  0.14382209  0.66873262  0.54117071  1
  B  B84  1  0.64382209  0.16873262  0.04117071  1
  B  B85  1  0.64382209  0.16873262  0.54117071  1
  B  B86  1  0.64382209  0.66873262  0.04117071  1
  B  B87  1  0.64382209  0.66873262  0.54117071  1
  B  B88  1  0.35617791  0.41873262  0.20882929  1
  B  B89  1  0.35617791  0.41873262  0.70882929  1
  B  B90  1  0.35617791  0.91873262  0.20882929  1
  B  B91  1  0.35617791  0.91873262  0.70882929  1
  B  B92  1  0.85617791  0.41873262  0.20882929  1
  B  B93  1  0.85617791  0.41873262  0.70882929  1
  B  B94  1  0.85617791  0.91873262  0.20882929  1
  B  B95  1  0.85617791  0.91873262  0.70882929  1
  O  O96  1  0.07186454  0.09068814  0.01135176  1
  O  O97  1  0.07186454  0.09068814  0.51135176  1
  O  O98  1  0.07186454  0.59068814  0.01135176  1
  O  O99  1  0.07186454  0.59068814  0.51135176  1
  O  O100  1  0.57186454  0.09068814  0.01135176  1
  O  O101  1  0.57186454  0.09068814  0.51135176  1
  O  O102  1  0.57186454  0.59068814  0.01135176  1
  O  O103  1  0.57186454  0.59068814  0.51135176  1
  O  O104  1  0.24266210  0.08073660  0.38662248  1
  O  O105  1  0.24266210  0.08073660  0.88662248  1
  O  O106  1  0.24266210  0.58073660  0.38662248  1
  O  O107  1  0.24266210  0.58073660  0.88662248  1
  O  O108  1  0.74266210  0.08073660  0.38662248  1
  O  O109  1  0.74266210  0.08073660  0.88662248  1
  O  O110  1  0.74266210  0.58073660  0.38662248  1
  O  O111  1  0.74266210  0.58073660  0.88662248  1
  O  O112  1  0.25733790  0.41926340  0.11337752  1
  O  O113  1  0.25733790  0.41926340  0.61337752  1
  O  O114  1  0.25733790  0.91926340  0.11337752  1
  O  O115  1  0.25733790  0.91926340  0.61337752  1
  O  O116  1  0.75733790  0.41926340  0.11337752  1
  O  O117  1  0.75733790  0.41926340  0.61337752  1
  O  O118  1  0.75733790  0.91926340  0.11337752  1
  O  O119  1  0.75733790  0.91926340  0.61337752  1
  O  O120  1  0.24266210  0.16926340  0.13662248  1
  O  O121  1  0.24266210  0.16926340  0.63662248  1
  O  O122  1  0.24266210  0.66926340  0.13662248  1
  O  O123  1  0.24266210  0.66926340  0.63662248  1
  O  O124  1  0.74266210  0.16926340  0.13662248  1
  O  O125  1  0.74266210  0.16926340  0.63662248  1
  O  O126  1  0.74266210  0.66926340  0.13662248  1
  O  O127  1  0.74266210  0.66926340  0.63662248  1
  O  O128  1  0.12055382  0.00146398  0.23076824  1
  O  O129  1  0.12055382  0.00146398  0.73076824  1
  O  O130  1  0.12055382  0.50146398  0.23076824  1
  O  O131  1  0.12055382  0.50146398  0.73076824  1
  O  O132  1  0.62055382  0.00146398  0.23076824  1
  O  O133  1  0.62055382  0.00146398  0.73076824  1
  O  O134  1  0.62055382  0.50146398  0.23076824  1
  O  O135  1  0.62055382  0.50146398  0.73076824  1
  O  O136  1  0.37944618  0.25146398  0.01923176  1
  O  O137  1  0.37944618  0.25146398  0.51923176  1
  O  O138  1  0.37944618  0.75146398  0.01923176  1
  O  O139  1  0.37944618  0.75146398  0.51923176  1
  O  O140  1  0.87944618  0.25146398  0.01923176  1
  O  O141  1  0.87944618  0.25146398  0.51923176  1
  O  O142  1  0.87944618  0.75146398  0.01923176  1
  O  O143  1  0.87944618  0.75146398  0.51923176  1
  O  O144  1  0.37944618  0.49853602  0.26923176  1
  O  O145  1  0.37944618  0.49853602  0.76923176  1
  O  O146  1  0.37944618  0.99853602  0.26923176  1
  O  O147  1  0.37944618  0.99853602  0.76923176  1
  O  O148  1  0.87944618  0.49853602  0.26923176  1
  O  O149  1  0.87944618  0.49853602  0.76923176  1
  O  O150  1  0.87944618  0.99853602  0.26923176  1
  O  O151  1  0.87944618  0.99853602  0.76923176  1
  O  O152  1  0.12055382  0.24853602  0.48076824  1
  O  O153  1  0.12055382  0.24853602  0.98076824  1
  O  O154  1  0.12055382  0.74853602  0.48076824  1
  O  O155  1  0.12055382  0.74853602  0.98076824  1
  O  O156  1  0.62055382  0.24853602  0.48076824  1
  O  O157  1  0.62055382  0.24853602  0.98076824  1
  O  O158  1  0.62055382  0.74853602  0.48076824  1
  O  O159  1  0.62055382  0.74853602  0.98076824  1
  O  O160  1  0.42813546  0.40931186  0.48864824  1
  O  O161  1  0.42813546  0.40931186  0.98864824  1
  O  O162  1  0.42813546  0.90931186  0.48864824  1
  O  O163  1  0.42813546  0.90931186  0.98864824  1
  O  O164  1  0.92813546  0.40931186  0.48864824  1
  O  O165  1  0.92813546  0.40931186  0.98864824  1
  O  O166  1  0.92813546  0.90931186  0.48864824  1
  O  O167  1  0.92813546  0.90931186  0.98864824  1
  O  O168  1  0.07186454  0.15931186  0.26135176  1
  O  O169  1  0.07186454  0.15931186  0.76135176  1
  O  O170  1  0.07186454  0.65931186  0.26135176  1
  O  O171  1  0.07186454  0.65931186  0.76135176  1
  O  O172  1  0.57186454  0.15931186  0.26135176  1
  O  O173  1  0.57186454  0.15931186  0.76135176  1
  O  O174  1  0.57186454  0.65931186  0.26135176  1
  O  O175  1  0.57186454  0.65931186  0.76135176  1
  O  O176  1  0.25733790  0.33073660  0.36337752  1
  O  O177  1  0.25733790  0.33073660  0.86337752  1
  O  O178  1  0.25733790  0.83073660  0.36337752  1
  O  O179  1  0.25733790  0.83073660  0.86337752  1
  O  O180  1  0.75733790  0.33073660  0.36337752  1
  O  O181  1  0.75733790  0.33073660  0.86337752  1
  O  O182  1  0.75733790  0.83073660  0.36337752  1
  O  O183  1  0.75733790  0.83073660  0.86337752  1
  O  O184  1  0.42813546  0.34068814  0.23864824  1
  O  O185  1  0.42813546  0.34068814  0.73864824  1
  O  O186  1  0.42813546  0.84068814  0.23864824  1
  O  O187  1  0.42813546  0.84068814  0.73864824  1
  O  O188  1  0.92813546  0.34068814  0.23864824  1
  O  O189  1  0.92813546  0.34068814  0.73864824  1
  O  O190  1  0.92813546  0.84068814  0.23864824  1
  O  O191  1  0.92813546  0.84068814  0.73864824  1
