# generated using pymatgen
data_RbSbMoO6
_symmetry_space_group_name_H-M   'P 1'
_cell_length_a   21.63202545
_cell_length_b   20.26328667
_cell_length_c   15.20848867
_cell_angle_alpha   90.00000000
_cell_angle_beta   90.00000000
_cell_angle_gamma   90.00000000
_symmetry_Int_Tables_number   1
_chemical_formula_structural   RbSbMoO6
_chemical_formula_sum   'Rb48 Sb48 Mo48 O288'
_cell_volume   6666.42707132
_cell_formula_units_Z   48
loop_
 _symmetry_equiv_pos_site_id
 _symmetry_equiv_pos_as_xyz
  1  'x, y, z'
loop_
 _atom_site_type_symbol
 _atom_site_label
 _atom_site_symmetry_multiplicity
 _atom_site_fract_x
 _atom_site_fract_y
 _atom_site_fract_z
 _atom_site_occupancy
  Rb  Rb0  1  0.08333333  0.18043774  0.21716882  1
  Rb  Rb1  1  0.08333333  0.18043774  0.71716882  1
  Rb  Rb2  1  0.08333333  0.68043774  0.21716882  1
  Rb  Rb3  1  0.08333333  0.68043774  0.71716882  1
  Rb  Rb4  1  0.41666667  0.18043774  0.21716882  1
  Rb  Rb5  1  0.41666667  0.18043774  0.71716882  1
  Rb  Rb6  1  0.41666667  0.68043774  0.21716882  1
  Rb  Rb7  1  0.41666667  0.68043774  0.71716882  1
  Rb  Rb8  1  0.75000000  0.18043774  0.21716882  1
  Rb  Rb9  1  0.75000000  0.18043774  0.71716882  1
  Rb  Rb10  1  0.75000000  0.68043774  0.21716882  1
  Rb  Rb11  1  0.75000000  0.68043774  0.71716882  1
  Rb  Rb12  1  0.25000000  0.43043774  0.46716882  1
  Rb  Rb13  1  0.25000000  0.43043774  0.96716882  1
  Rb  Rb14  1  0.25000000  0.93043774  0.46716882  1
  Rb  Rb15  1  0.25000000  0.93043774  0.96716882  1
  Rb  Rb16  1  0.58333333  0.43043774  0.46716882  1
  Rb  Rb17  1  0.58333333  0.43043774  0.96716882  1
  Rb  Rb18  1  0.58333333  0.93043774  0.46716882  1
  Rb  Rb19  1  0.58333333  0.93043774  0.96716882  1
  Rb  Rb20  1  0.91666667  0.43043774  0.46716882  1
  Rb  Rb21  1  0.91666667  0.43043774  0.96716882  1
  Rb  Rb22  1  0.91666667  0.93043774  0.46716882  1
  Rb  Rb23  1  0.91666667  0.93043774  0.96716882  1
  Rb  Rb24  1  0.08333333  0.06956226  -0.03283118  1
  Rb  Rb25  1  0.08333333  0.06956226  0.46716882  1
  Rb  Rb26  1  0.08333333  0.56956226  -0.03283118  1
  Rb  Rb27  1  0.08333333  0.56956226  0.46716882  1
  Rb  Rb28  1  0.41666667  0.06956226  -0.03283118  1
  Rb  Rb29  1  0.41666667  0.06956226  0.46716882  1
  Rb  Rb30  1  0.41666667  0.56956226  -0.03283118  1
  Rb  Rb31  1  0.41666667  0.56956226  0.46716882  1
  Rb  Rb32  1  0.75000000  0.06956226  -0.03283118  1
  Rb  Rb33  1  0.75000000  0.06956226  0.46716882  1
  Rb  Rb34  1  0.75000000  0.56956226  -0.03283118  1
  Rb  Rb35  1  0.75000000  0.56956226  0.46716882  1
  Rb  Rb36  1  0.25000000  0.31956226  0.21716882  1
  Rb  Rb37  1  0.25000000  0.31956226  0.71716882  1
  Rb  Rb38  1  0.25000000  0.81956226  0.21716882  1
  Rb  Rb39  1  0.25000000  0.81956226  0.71716882  1
  Rb  Rb40  1  0.58333333  0.31956226  0.21716882  1
  Rb  Rb41  1  0.58333333  0.31956226  0.71716882  1
  Rb  Rb42  1  0.58333333  0.81956226  0.21716882  1
  Rb  Rb43  1  0.58333333  0.81956226  0.71716882  1
  Rb  Rb44  1  0.91666667  0.31956226  0.21716882  1
  Rb  Rb45  1  0.91666667  0.31956226  0.71716882  1
  Rb  Rb46  1  0.91666667  0.81956226  0.21716882  1
  Rb  Rb47  1  0.91666667  0.81956226  0.71716882  1
  Sb  Sb48  1  0.00000000  0.00000000  0.25404140  1
  Sb  Sb49  1  0.00000000  0.00000000  0.75404140  1
  Sb  Sb50  1  0.00000000  0.50000000  0.25404140  1
  Sb  Sb51  1  0.00000000  0.50000000  0.75404140  1
  Sb  Sb52  1  0.33333333  0.00000000  0.25404140  1
  Sb  Sb53  1  0.33333333  0.00000000  0.75404140  1
  Sb  Sb54  1  0.33333333  0.50000000  0.25404140  1
  Sb  Sb55  1  0.33333333  0.50000000  0.75404140  1
  Sb  Sb56  1  0.66666667  0.00000000  0.25404140  1
  Sb  Sb57  1  0.66666667  0.00000000  0.75404140  1
  Sb  Sb58  1  0.66666667  0.50000000  0.25404140  1
  Sb  Sb59  1  0.66666667  0.50000000  0.75404140  1
  Sb  Sb60  1  0.16666667  0.25000000  0.50404140  1
  Sb  Sb61  1  0.16666667  0.25000000  1.00404140  1
  Sb  Sb62  1  0.16666667  0.75000000  0.50404140  1
  Sb  Sb63  1  0.16666667  0.75000000  1.00404140  1
  Sb  Sb64  1  0.50000000  0.25000000  0.50404140  1
  Sb  Sb65  1  0.50000000  0.25000000  1.00404140  1
  Sb  Sb66  1  0.50000000  0.75000000  0.50404140  1
  Sb  Sb67  1  0.50000000  0.75000000  1.00404140  1
  Sb  Sb68  1  0.83333333  0.25000000  0.50404140  1
  Sb  Sb69  1  0.83333333  0.25000000  1.00404140  1
  Sb  Sb70  1  0.83333333  0.75000000  0.50404140  1
  Sb  Sb71  1  0.83333333  0.75000000  1.00404140  1
  Sb  Sb72  1  0.00000000  0.25000000  0.00404140  1
  Sb  Sb73  1  0.00000000  0.25000000  0.50404140  1
  Sb  Sb74  1  0.00000000  0.75000000  0.00404140  1
  Sb  Sb75  1  0.00000000  0.75000000  0.50404140  1
  Sb  Sb76  1  0.33333333  0.25000000  0.00404140  1
  Sb  Sb77  1  0.33333333  0.25000000  0.50404140  1
  Sb  Sb78  1  0.33333333  0.75000000  0.00404140  1
  Sb  Sb79  1  0.33333333  0.75000000  0.50404140  1
  Sb  Sb80  1  0.66666667  0.25000000  0.00404140  1
  Sb  Sb81  1  0.66666667  0.25000000  0.50404140  1
  Sb  Sb82  1  0.66666667  0.75000000  0.00404140  1
  Sb  Sb83  1  0.66666667  0.75000000  0.50404140  1
  Sb  Sb84  1  0.16666667  0.50000000  0.25404140  1
  Sb  Sb85  1  0.16666667  0.50000000  0.75404140  1
  Sb  Sb86  1  0.16666667  1.00000000  0.25404140  1
  Sb  Sb87  1  0.16666667  1.00000000  0.75404140  1
  Sb  Sb88  1  0.50000000  0.50000000  0.25404140  1
  Sb  Sb89  1  0.50000000  0.50000000  0.75404140  1
  Sb  Sb90  1  0.50000000  1.00000000  0.25404140  1
  Sb  Sb91  1  0.50000000  1.00000000  0.75404140  1
  Sb  Sb92  1  0.83333333  0.50000000  0.25404140  1
  Sb  Sb93  1  0.83333333  0.50000000  0.75404140  1
  Sb  Sb94  1  0.83333333  1.00000000  0.25404140  1
  Sb  Sb95  1  0.83333333  1.00000000  0.75404140  1
  Mo  Mo96  1  -0.08333333  0.13156316  0.36036109  1
  Mo  Mo97  1  -0.08333333  0.13156316  0.86036109  1
  Mo  Mo98  1  -0.08333333  0.63156316  0.36036109  1
  Mo  Mo99  1  -0.08333333  0.63156316  0.86036109  1
  Mo  Mo100  1  0.25000000  0.13156316  0.36036109  1
  Mo  Mo101  1  0.25000000  0.13156316  0.86036109  1
  Mo  Mo102  1  0.25000000  0.63156316  0.36036109  1
  Mo  Mo103  1  0.25000000  0.63156316  0.86036109  1
  Mo  Mo104  1  0.58333333  0.13156316  0.36036109  1
  Mo  Mo105  1  0.58333333  0.13156316  0.86036109  1
  Mo  Mo106  1  0.58333333  0.63156316  0.36036109  1
  Mo  Mo107  1  0.58333333  0.63156316  0.86036109  1
  Mo  Mo108  1  0.08333333  0.38156316  0.61036109  1
  Mo  Mo109  1  0.08333333  0.38156316  1.11036109  1
  Mo  Mo110  1  0.08333333  0.88156316  0.61036109  1
  Mo  Mo111  1  0.08333333  0.88156316  1.11036109  1
  Mo  Mo112  1  0.41666667  0.38156316  0.61036109  1
  Mo  Mo113  1  0.41666667  0.38156316  1.11036109  1
  Mo  Mo114  1  0.41666667  0.88156316  0.61036109  1
  Mo  Mo115  1  0.41666667  0.88156316  1.11036109  1
  Mo  Mo116  1  0.75000000  0.38156316  0.61036109  1
  Mo  Mo117  1  0.75000000  0.38156316  1.11036109  1
  Mo  Mo118  1  0.75000000  0.88156316  0.61036109  1
  Mo  Mo119  1  0.75000000  0.88156316  1.11036109  1
  Mo  Mo120  1  0.25000000  0.11843684  0.11036109  1
  Mo  Mo121  1  0.25000000  0.11843684  0.61036109  1
  Mo  Mo122  1  0.25000000  0.61843684  0.11036109  1
  Mo  Mo123  1  0.25000000  0.61843684  0.61036109  1
  Mo  Mo124  1  0.58333333  0.11843684  0.11036109  1
  Mo  Mo125  1  0.58333333  0.11843684  0.61036109  1
  Mo  Mo126  1  0.58333333  0.61843684  0.11036109  1
  Mo  Mo127  1  0.58333333  0.61843684  0.61036109  1
  Mo  Mo128  1  0.91666667  0.11843684  0.11036109  1
  Mo  Mo129  1  0.91666667  0.11843684  0.61036109  1
  Mo  Mo130  1  0.91666667  0.61843684  0.11036109  1
  Mo  Mo131  1  0.91666667  0.61843684  0.61036109  1
  Mo  Mo132  1  0.41666667  0.36843684  0.36036109  1
  Mo  Mo133  1  0.41666667  0.36843684  0.86036109  1
  Mo  Mo134  1  0.41666667  0.86843684  0.36036109  1
  Mo  Mo135  1  0.41666667  0.86843684  0.86036109  1
  Mo  Mo136  1  0.75000000  0.36843684  0.36036109  1
  Mo  Mo137  1  0.75000000  0.36843684  0.86036109  1
  Mo  Mo138  1  0.75000000  0.86843684  0.36036109  1
  Mo  Mo139  1  0.75000000  0.86843684  0.86036109  1
  Mo  Mo140  1  1.08333333  0.36843684  0.36036109  1
  Mo  Mo141  1  1.08333333  0.36843684  0.86036109  1
  Mo  Mo142  1  1.08333333  0.86843684  0.36036109  1
  Mo  Mo143  1  1.08333333  0.86843684  0.86036109  1
  O  O144  1  0.25000000  0.08958685  0.00102097  1
  O  O145  1  0.25000000  0.08958685  0.50102097  1
  O  O146  1  0.25000000  0.58958685  0.00102097  1
  O  O147  1  0.25000000  0.58958685  0.50102097  1
  O  O148  1  0.58333333  0.08958685  0.00102097  1
  O  O149  1  0.58333333  0.08958685  0.50102097  1
  O  O150  1  0.58333333  0.58958685  0.00102097  1
  O  O151  1  0.58333333  0.58958685  0.50102097  1
  O  O152  1  0.91666667  0.08958685  0.00102097  1
  O  O153  1  0.91666667  0.08958685  0.50102097  1
  O  O154  1  0.91666667  0.58958685  0.00102097  1
  O  O155  1  0.91666667  0.58958685  0.50102097  1
  O  O156  1  0.41666667  0.33958685  0.25102097  1
  O  O157  1  0.41666667  0.33958685  0.75102097  1
  O  O158  1  0.41666667  0.83958685  0.25102097  1
  O  O159  1  0.41666667  0.83958685  0.75102097  1
  O  O160  1  0.75000000  0.33958685  0.25102097  1
  O  O161  1  0.75000000  0.33958685  0.75102097  1
  O  O162  1  0.75000000  0.83958685  0.25102097  1
  O  O163  1  0.75000000  0.83958685  0.75102097  1
  O  O164  1  1.08333333  0.33958685  0.25102097  1
  O  O165  1  1.08333333  0.33958685  0.75102097  1
  O  O166  1  1.08333333  0.83958685  0.25102097  1
  O  O167  1  1.08333333  0.83958685  0.75102097  1
  O  O168  1  0.08333333  0.03966516  0.25706744  1
  O  O169  1  0.08333333  0.03966516  0.75706744  1
  O  O170  1  0.08333333  0.53966516  0.25706744  1
  O  O171  1  0.08333333  0.53966516  0.75706744  1
  O  O172  1  0.41666667  0.03966516  0.25706744  1
  O  O173  1  0.41666667  0.03966516  0.75706744  1
  O  O174  1  0.41666667  0.53966516  0.25706744  1
  O  O175  1  0.41666667  0.53966516  0.75706744  1
  O  O176  1  0.75000000  0.03966516  0.25706744  1
  O  O177  1  0.75000000  0.03966516  0.75706744  1
  O  O178  1  0.75000000  0.53966516  0.25706744  1
  O  O179  1  0.75000000  0.53966516  0.75706744  1
  O  O180  1  0.25000000  0.28966516  0.50706744  1
  O  O181  1  0.25000000  0.28966516  1.00706744  1
  O  O182  1  0.25000000  0.78966516  0.50706744  1
  O  O183  1  0.25000000  0.78966516  1.00706744  1
  O  O184  1  0.58333333  0.28966516  0.50706744  1
  O  O185  1  0.58333333  0.28966516  1.00706744  1
  O  O186  1  0.58333333  0.78966516  0.50706744  1
  O  O187  1  0.58333333  0.78966516  1.00706744  1
  O  O188  1  0.91666667  0.28966516  0.50706744  1
  O  O189  1  0.91666667  0.28966516  1.00706744  1
  O  O190  1  0.91666667  0.78966516  0.50706744  1
  O  O191  1  0.91666667  0.78966516  1.00706744  1
  O  O192  1  0.18773536  0.18613892  -0.09033593  1
  O  O193  1  0.18773536  0.18613892  0.40966407  1
  O  O194  1  0.18773536  0.68613892  -0.09033593  1
  O  O195  1  0.18773536  0.68613892  0.40966407  1
  O  O196  1  0.52106869  0.18613892  -0.09033593  1
  O  O197  1  0.52106869  0.18613892  0.40966407  1
  O  O198  1  0.52106869  0.68613892  -0.09033593  1
  O  O199  1  0.52106869  0.68613892  0.40966407  1
  O  O200  1  0.85440202  0.18613892  -0.09033593  1
  O  O201  1  0.85440202  0.18613892  0.40966407  1
  O  O202  1  0.85440202  0.68613892  -0.09033593  1
  O  O203  1  0.85440202  0.68613892  0.40966407  1
  O  O204  1  0.35440202  0.43613892  0.15966407  1
  O  O205  1  0.35440202  0.43613892  0.65966407  1
  O  O206  1  0.35440202  0.93613892  0.15966407  1
  O  O207  1  0.35440202  0.93613892  0.65966407  1
  O  O208  1  0.68773536  0.43613892  0.15966407  1
  O  O209  1  0.68773536  0.43613892  0.65966407  1
  O  O210  1  0.68773536  0.93613892  0.15966407  1
  O  O211  1  0.68773536  0.93613892  0.65966407  1
  O  O212  1  1.02106869  0.43613892  0.15966407  1
  O  O213  1  1.02106869  0.43613892  0.65966407  1
  O  O214  1  1.02106869  0.93613892  0.15966407  1
  O  O215  1  1.02106869  0.93613892  0.65966407  1
  O  O216  1  -0.02124778  0.18509067  0.09750608  1
  O  O217  1  -0.02124778  0.18509067  0.59750608  1
  O  O218  1  -0.02124778  0.68509067  0.09750608  1
  O  O219  1  -0.02124778  0.68509067  0.59750608  1
  O  O220  1  0.31208555  0.18509067  0.09750608  1
  O  O221  1  0.31208555  0.18509067  0.59750608  1
  O  O222  1  0.31208555  0.68509067  0.09750608  1
  O  O223  1  0.31208555  0.68509067  0.59750608  1
  O  O224  1  0.64541889  0.18509067  0.09750608  1
  O  O225  1  0.64541889  0.18509067  0.59750608  1
  O  O226  1  0.64541889  0.68509067  0.09750608  1
  O  O227  1  0.64541889  0.68509067  0.59750608  1
  O  O228  1  0.14541889  0.43509067  0.34750608  1
  O  O229  1  0.14541889  0.43509067  0.84750608  1
  O  O230  1  0.14541889  0.93509067  0.34750608  1
  O  O231  1  0.14541889  0.93509067  0.84750608  1
  O  O232  1  0.47875222  0.43509067  0.34750608  1
  O  O233  1  0.47875222  0.43509067  0.84750608  1
  O  O234  1  0.47875222  0.93509067  0.34750608  1
  O  O235  1  0.47875222  0.93509067  0.84750608  1
  O  O236  1  0.81208555  0.43509067  0.34750608  1
  O  O237  1  0.81208555  0.43509067  0.84750608  1
  O  O238  1  0.81208555  0.93509067  0.34750608  1
  O  O239  1  0.81208555  0.93509067  0.84750608  1
  O  O240  1  0.18791445  0.18509067  0.09750608  1
  O  O241  1  0.18791445  0.18509067  0.59750608  1
  O  O242  1  0.18791445  0.68509067  0.09750608  1
  O  O243  1  0.18791445  0.68509067  0.59750608  1
  O  O244  1  0.52124778  0.18509067  0.09750608  1
  O  O245  1  0.52124778  0.18509067  0.59750608  1
  O  O246  1  0.52124778  0.68509067  0.09750608  1
  O  O247  1  0.52124778  0.68509067  0.59750608  1
  O  O248  1  0.85458111  0.18509067  0.09750608  1
  O  O249  1  0.85458111  0.18509067  0.59750608  1
  O  O250  1  0.85458111  0.68509067  0.09750608  1
  O  O251  1  0.85458111  0.68509067  0.59750608  1
  O  O252  1  0.35458111  0.43509067  0.34750608  1
  O  O253  1  0.35458111  0.43509067  0.84750608  1
  O  O254  1  0.35458111  0.93509067  0.34750608  1
  O  O255  1  0.35458111  0.93509067  0.84750608  1
  O  O256  1  0.68791445  0.43509067  0.34750608  1
  O  O257  1  0.68791445  0.43509067  0.84750608  1
  O  O258  1  0.68791445  0.93509067  0.34750608  1
  O  O259  1  0.68791445  0.93509067  0.84750608  1
  O  O260  1  1.02124778  0.43509067  0.34750608  1
  O  O261  1  1.02124778  0.43509067  0.84750608  1
  O  O262  1  1.02124778  0.93509067  0.34750608  1
  O  O263  1  1.02124778  0.93509067  0.84750608  1
  O  O264  1  0.14559798  -0.06386108  0.15966407  1
  O  O265  1  0.14559798  -0.06386108  0.65966407  1
  O  O266  1  0.14559798  0.43613892  0.15966407  1
  O  O267  1  0.14559798  0.43613892  0.65966407  1
  O  O268  1  0.47893131  -0.06386108  0.15966407  1
  O  O269  1  0.47893131  -0.06386108  0.65966407  1
  O  O270  1  0.47893131  0.43613892  0.15966407  1
  O  O271  1  0.47893131  0.43613892  0.65966407  1
  O  O272  1  0.81226464  -0.06386108  0.15966407  1
  O  O273  1  0.81226464  -0.06386108  0.65966407  1
  O  O274  1  0.81226464  0.43613892  0.15966407  1
  O  O275  1  0.81226464  0.43613892  0.65966407  1
  O  O276  1  0.31226464  0.18613892  0.40966407  1
  O  O277  1  0.31226464  0.18613892  0.90966407  1
  O  O278  1  0.31226464  0.68613892  0.40966407  1
  O  O279  1  0.31226464  0.68613892  0.90966407  1
  O  O280  1  0.64559798  0.18613892  0.40966407  1
  O  O281  1  0.64559798  0.18613892  0.90966407  1
  O  O282  1  0.64559798  0.68613892  0.40966407  1
  O  O283  1  0.64559798  0.68613892  0.90966407  1
  O  O284  1  0.97893131  0.18613892  0.40966407  1
  O  O285  1  0.97893131  0.18613892  0.90966407  1
  O  O286  1  0.97893131  0.68613892  0.40966407  1
  O  O287  1  0.97893131  0.68613892  0.90966407  1
  O  O288  1  -0.08333333  0.16041315  0.25102097  1
  O  O289  1  -0.08333333  0.16041315  0.75102097  1
  O  O290  1  -0.08333333  0.66041315  0.25102097  1
  O  O291  1  -0.08333333  0.66041315  0.75102097  1
  O  O292  1  0.25000000  0.16041315  0.25102097  1
  O  O293  1  0.25000000  0.16041315  0.75102097  1
  O  O294  1  0.25000000  0.66041315  0.25102097  1
  O  O295  1  0.25000000  0.66041315  0.75102097  1
  O  O296  1  0.58333333  0.16041315  0.25102097  1
  O  O297  1  0.58333333  0.16041315  0.75102097  1
  O  O298  1  0.58333333  0.66041315  0.25102097  1
  O  O299  1  0.58333333  0.66041315  0.75102097  1
  O  O300  1  0.08333333  0.41041315  0.50102097  1
  O  O301  1  0.08333333  0.41041315  1.00102097  1
  O  O302  1  0.08333333  0.91041315  0.50102097  1
  O  O303  1  0.08333333  0.91041315  1.00102097  1
  O  O304  1  0.41666667  0.41041315  0.50102097  1
  O  O305  1  0.41666667  0.41041315  1.00102097  1
  O  O306  1  0.41666667  0.91041315  0.50102097  1
  O  O307  1  0.41666667  0.91041315  1.00102097  1
  O  O308  1  0.75000000  0.41041315  0.50102097  1
  O  O309  1  0.75000000  0.41041315  1.00102097  1
  O  O310  1  0.75000000  0.91041315  0.50102097  1
  O  O311  1  0.75000000  0.91041315  1.00102097  1
  O  O312  1  0.08333333  0.21033484  0.00706744  1
  O  O313  1  0.08333333  0.21033484  0.50706744  1
  O  O314  1  0.08333333  0.71033484  0.00706744  1
  O  O315  1  0.08333333  0.71033484  0.50706744  1
  O  O316  1  0.41666667  0.21033484  0.00706744  1
  O  O317  1  0.41666667  0.21033484  0.50706744  1
  O  O318  1  0.41666667  0.71033484  0.00706744  1
  O  O319  1  0.41666667  0.71033484  0.50706744  1
  O  O320  1  0.75000000  0.21033484  0.00706744  1
  O  O321  1  0.75000000  0.21033484  0.50706744  1
  O  O322  1  0.75000000  0.71033484  0.00706744  1
  O  O323  1  0.75000000  0.71033484  0.50706744  1
  O  O324  1  0.25000000  0.46033484  0.25706744  1
  O  O325  1  0.25000000  0.46033484  0.75706744  1
  O  O326  1  0.25000000  0.96033484  0.25706744  1
  O  O327  1  0.25000000  0.96033484  0.75706744  1
  O  O328  1  0.58333333  0.46033484  0.25706744  1
  O  O329  1  0.58333333  0.46033484  0.75706744  1
  O  O330  1  0.58333333  0.96033484  0.25706744  1
  O  O331  1  0.58333333  0.96033484  0.75706744  1
  O  O332  1  0.91666667  0.46033484  0.25706744  1
  O  O333  1  0.91666667  0.46033484  0.75706744  1
  O  O334  1  0.91666667  0.96033484  0.25706744  1
  O  O335  1  0.91666667  0.96033484  0.75706744  1
  O  O336  1  -0.02124778  0.06490933  0.34750608  1
  O  O337  1  -0.02124778  0.06490933  0.84750608  1
  O  O338  1  -0.02124778  0.56490933  0.34750608  1
  O  O339  1  -0.02124778  0.56490933  0.84750608  1
  O  O340  1  0.31208555  0.06490933  0.34750608  1
  O  O341  1  0.31208555  0.06490933  0.84750608  1
  O  O342  1  0.31208555  0.56490933  0.34750608  1
  O  O343  1  0.31208555  0.56490933  0.84750608  1
  O  O344  1  0.64541889  0.06490933  0.34750608  1
  O  O345  1  0.64541889  0.06490933  0.84750608  1
  O  O346  1  0.64541889  0.56490933  0.34750608  1
  O  O347  1  0.64541889  0.56490933  0.84750608  1
  O  O348  1  0.14541889  0.31490933  0.59750608  1
  O  O349  1  0.14541889  0.31490933  1.09750608  1
  O  O350  1  0.14541889  0.81490933  0.59750608  1
  O  O351  1  0.14541889  0.81490933  1.09750608  1
  O  O352  1  0.47875222  0.31490933  0.59750608  1
  O  O353  1  0.47875222  0.31490933  1.09750608  1
  O  O354  1  0.47875222  0.81490933  0.59750608  1
  O  O355  1  0.47875222  0.81490933  1.09750608  1
  O  O356  1  0.81208555  0.31490933  0.59750608  1
  O  O357  1  0.81208555  0.31490933  1.09750608  1
  O  O358  1  0.81208555  0.81490933  0.59750608  1
  O  O359  1  0.81208555  0.81490933  1.09750608  1
  O  O360  1  0.18773536  0.06386108  0.15966407  1
  O  O361  1  0.18773536  0.06386108  0.65966407  1
  O  O362  1  0.18773536  0.56386108  0.15966407  1
  O  O363  1  0.18773536  0.56386108  0.65966407  1
  O  O364  1  0.52106869  0.06386108  0.15966407  1
  O  O365  1  0.52106869  0.06386108  0.65966407  1
  O  O366  1  0.52106869  0.56386108  0.15966407  1
  O  O367  1  0.52106869  0.56386108  0.65966407  1
  O  O368  1  0.85440202  0.06386108  0.15966407  1
  O  O369  1  0.85440202  0.06386108  0.65966407  1
  O  O370  1  0.85440202  0.56386108  0.15966407  1
  O  O371  1  0.85440202  0.56386108  0.65966407  1
  O  O372  1  0.35440202  0.31386108  0.40966407  1
  O  O373  1  0.35440202  0.31386108  0.90966407  1
  O  O374  1  0.35440202  0.81386108  0.40966407  1
  O  O375  1  0.35440202  0.81386108  0.90966407  1
  O  O376  1  0.68773536  0.31386108  0.40966407  1
  O  O377  1  0.68773536  0.31386108  0.90966407  1
  O  O378  1  0.68773536  0.81386108  0.40966407  1
  O  O379  1  0.68773536  0.81386108  0.90966407  1
  O  O380  1  1.02106869  0.31386108  0.40966407  1
  O  O381  1  1.02106869  0.31386108  0.90966407  1
  O  O382  1  1.02106869  0.81386108  0.40966407  1
  O  O383  1  1.02106869  0.81386108  0.90966407  1
  O  O384  1  -0.02106869  0.06386108  0.15966407  1
  O  O385  1  -0.02106869  0.06386108  0.65966407  1
  O  O386  1  -0.02106869  0.56386108  0.15966407  1
  O  O387  1  -0.02106869  0.56386108  0.65966407  1
  O  O388  1  0.31226464  0.06386108  0.15966407  1
  O  O389  1  0.31226464  0.06386108  0.65966407  1
  O  O390  1  0.31226464  0.56386108  0.15966407  1
  O  O391  1  0.31226464  0.56386108  0.65966407  1
  O  O392  1  0.64559798  0.06386108  0.15966407  1
  O  O393  1  0.64559798  0.06386108  0.65966407  1
  O  O394  1  0.64559798  0.56386108  0.15966407  1
  O  O395  1  0.64559798  0.56386108  0.65966407  1
  O  O396  1  0.14559798  0.31386108  0.40966407  1
  O  O397  1  0.14559798  0.31386108  0.90966407  1
  O  O398  1  0.14559798  0.81386108  0.40966407  1
  O  O399  1  0.14559798  0.81386108  0.90966407  1
  O  O400  1  0.47893131  0.31386108  0.40966407  1
  O  O401  1  0.47893131  0.31386108  0.90966407  1
  O  O402  1  0.47893131  0.81386108  0.40966407  1
  O  O403  1  0.47893131  0.81386108  0.90966407  1
  O  O404  1  0.81226464  0.31386108  0.40966407  1
  O  O405  1  0.81226464  0.31386108  0.90966407  1
  O  O406  1  0.81226464  0.81386108  0.40966407  1
  O  O407  1  0.81226464  0.81386108  0.90966407  1
  O  O408  1  0.02124778  0.31490933  0.09750608  1
  O  O409  1  0.02124778  0.31490933  0.59750608  1
  O  O410  1  0.02124778  0.81490933  0.09750608  1
  O  O411  1  0.02124778  0.81490933  0.59750608  1
  O  O412  1  0.35458111  0.31490933  0.09750608  1
  O  O413  1  0.35458111  0.31490933  0.59750608  1
  O  O414  1  0.35458111  0.81490933  0.09750608  1
  O  O415  1  0.35458111  0.81490933  0.59750608  1
  O  O416  1  0.68791445  0.31490933  0.09750608  1
  O  O417  1  0.68791445  0.31490933  0.59750608  1
  O  O418  1  0.68791445  0.81490933  0.09750608  1
  O  O419  1  0.68791445  0.81490933  0.59750608  1
  O  O420  1  0.18791445  0.56490933  0.34750608  1
  O  O421  1  0.18791445  0.56490933  0.84750608  1
  O  O422  1  0.18791445  1.06490933  0.34750608  1
  O  O423  1  0.18791445  1.06490933  0.84750608  1
  O  O424  1  0.52124778  0.56490933  0.34750608  1
  O  O425  1  0.52124778  0.56490933  0.84750608  1
  O  O426  1  0.52124778  1.06490933  0.34750608  1
  O  O427  1  0.52124778  1.06490933  0.84750608  1
  O  O428  1  0.85458111  0.56490933  0.34750608  1
  O  O429  1  0.85458111  0.56490933  0.84750608  1
  O  O430  1  0.85458111  1.06490933  0.34750608  1
  O  O431  1  0.85458111  1.06490933  0.84750608  1
