# generated using pymatgen
data_Rb2PbO2
_symmetry_space_group_name_H-M   'P 1'
_cell_length_a   22.67727889
_cell_length_b   23.28718476
_cell_length_c   20.75900956
_cell_angle_alpha   84.34231205
_cell_angle_beta   69.97945492
_cell_angle_gamma   61.08327479
_symmetry_Int_Tables_number   1
_chemical_formula_structural   Rb2PbO2
_chemical_formula_sum   'Rb144 Pb72 O144'
_cell_volume   8986.03460635
_cell_formula_units_Z   72
loop_
 _symmetry_equiv_pos_site_id
 _symmetry_equiv_pos_as_xyz
  1  'x, y, z'
loop_
 _atom_site_type_symbol
 _atom_site_label
 _atom_site_symmetry_multiplicity
 _atom_site_fract_x
 _atom_site_fract_y
 _atom_site_fract_z
 _atom_site_occupancy
  Rb  Rb0  1  0.30913026  0.02198127  0.41110440  1
  Rb  Rb1  1  0.30913026  0.02198127  0.91110440  1
  Rb  Rb2  1  0.30913026  0.35531460  0.41110440  1
  Rb  Rb3  1  0.30913026  0.35531460  0.91110440  1
  Rb  Rb4  1  0.30913026  0.68864793  0.41110440  1
  Rb  Rb5  1  0.30913026  0.68864793  0.91110440  1
  Rb  Rb6  1  0.64246359  0.02198127  0.41110440  1
  Rb  Rb7  1  0.64246359  0.02198127  0.91110440  1
  Rb  Rb8  1  0.64246359  0.35531460  0.41110440  1
  Rb  Rb9  1  0.64246359  0.35531460  0.91110440  1
  Rb  Rb10  1  0.64246359  0.68864793  0.41110440  1
  Rb  Rb11  1  0.64246359  0.68864793  0.91110440  1
  Rb  Rb12  1  0.97579693  0.02198127  0.41110440  1
  Rb  Rb13  1  0.97579693  0.02198127  0.91110440  1
  Rb  Rb14  1  0.97579693  0.35531460  0.41110440  1
  Rb  Rb15  1  0.97579693  0.35531460  0.91110440  1
  Rb  Rb16  1  0.97579693  0.68864793  0.41110440  1
  Rb  Rb17  1  0.97579693  0.68864793  0.91110440  1
  Rb  Rb18  1  0.02420307  0.31135207  0.08889560  1
  Rb  Rb19  1  0.02420307  0.31135207  0.58889560  1
  Rb  Rb20  1  0.02420307  0.64468540  0.08889560  1
  Rb  Rb21  1  0.02420307  0.64468540  0.58889560  1
  Rb  Rb22  1  0.02420307  0.97801873  0.08889560  1
  Rb  Rb23  1  0.02420307  0.97801873  0.58889560  1
  Rb  Rb24  1  0.35753641  0.31135207  0.08889560  1
  Rb  Rb25  1  0.35753641  0.31135207  0.58889560  1
  Rb  Rb26  1  0.35753641  0.64468540  0.08889560  1
  Rb  Rb27  1  0.35753641  0.64468540  0.58889560  1
  Rb  Rb28  1  0.35753641  0.97801873  0.08889560  1
  Rb  Rb29  1  0.35753641  0.97801873  0.58889560  1
  Rb  Rb30  1  0.69086974  0.31135207  0.08889560  1
  Rb  Rb31  1  0.69086974  0.31135207  0.58889560  1
  Rb  Rb32  1  0.69086974  0.64468540  0.08889560  1
  Rb  Rb33  1  0.69086974  0.64468540  0.58889560  1
  Rb  Rb34  1  0.69086974  0.97801873  0.08889560  1
  Rb  Rb35  1  0.69086974  0.97801873  0.58889560  1
  Rb  Rb36  1  0.25323148  0.24468512  0.25225810  1
  Rb  Rb37  1  0.25323148  0.24468512  0.75225810  1
  Rb  Rb38  1  0.25323148  0.57801846  0.25225810  1
  Rb  Rb39  1  0.25323148  0.57801846  0.75225810  1
  Rb  Rb40  1  0.25323148  0.91135179  0.25225810  1
  Rb  Rb41  1  0.25323148  0.91135179  0.75225810  1
  Rb  Rb42  1  0.58656481  0.24468512  0.25225810  1
  Rb  Rb43  1  0.58656481  0.24468512  0.75225810  1
  Rb  Rb44  1  0.58656481  0.57801846  0.25225810  1
  Rb  Rb45  1  0.58656481  0.57801846  0.75225810  1
  Rb  Rb46  1  0.58656481  0.91135179  0.25225810  1
  Rb  Rb47  1  0.58656481  0.91135179  0.75225810  1
  Rb  Rb48  1  0.91989814  0.24468512  0.25225810  1
  Rb  Rb49  1  0.91989814  0.24468512  0.75225810  1
  Rb  Rb50  1  0.91989814  0.57801846  0.25225810  1
  Rb  Rb51  1  0.91989814  0.57801846  0.75225810  1
  Rb  Rb52  1  0.91989814  0.91135179  0.25225810  1
  Rb  Rb53  1  0.91989814  0.91135179  0.75225810  1
  Rb  Rb54  1  0.08010186  0.08864821  0.24774190  1
  Rb  Rb55  1  0.08010186  0.08864821  0.74774190  1
  Rb  Rb56  1  0.08010186  0.42198154  0.24774190  1
  Rb  Rb57  1  0.08010186  0.42198154  0.74774190  1
  Rb  Rb58  1  0.08010186  0.75531488  0.24774190  1
  Rb  Rb59  1  0.08010186  0.75531488  0.74774190  1
  Rb  Rb60  1  0.41343519  0.08864821  0.24774190  1
  Rb  Rb61  1  0.41343519  0.08864821  0.74774190  1
  Rb  Rb62  1  0.41343519  0.42198154  0.24774190  1
  Rb  Rb63  1  0.41343519  0.42198154  0.74774190  1
  Rb  Rb64  1  0.41343519  0.75531488  0.24774190  1
  Rb  Rb65  1  0.41343519  0.75531488  0.74774190  1
  Rb  Rb66  1  0.74676852  0.08864821  0.24774190  1
  Rb  Rb67  1  0.74676852  0.08864821  0.74774190  1
  Rb  Rb68  1  0.74676852  0.42198154  0.24774190  1
  Rb  Rb69  1  0.74676852  0.42198154  0.74774190  1
  Rb  Rb70  1  0.74676852  0.75531488  0.24774190  1
  Rb  Rb71  1  0.74676852  0.75531488  0.74774190  1
  Rb  Rb72  1  0.13200468  0.18964807  0.43045809  1
  Rb  Rb73  1  0.13200468  0.18964807  0.93045809  1
  Rb  Rb74  1  0.13200468  0.52298141  0.43045809  1
  Rb  Rb75  1  0.13200468  0.52298141  0.93045809  1
  Rb  Rb76  1  0.13200468  0.85631474  0.43045809  1
  Rb  Rb77  1  0.13200468  0.85631474  0.93045809  1
  Rb  Rb78  1  0.46533801  0.18964807  0.43045809  1
  Rb  Rb79  1  0.46533801  0.18964807  0.93045809  1
  Rb  Rb80  1  0.46533801  0.52298141  0.43045809  1
  Rb  Rb81  1  0.46533801  0.52298141  0.93045809  1
  Rb  Rb82  1  0.46533801  0.85631474  0.43045809  1
  Rb  Rb83  1  0.46533801  0.85631474  0.93045809  1
  Rb  Rb84  1  0.79867134  0.18964807  0.43045809  1
  Rb  Rb85  1  0.79867134  0.18964807  0.93045809  1
  Rb  Rb86  1  0.79867134  0.52298141  0.43045809  1
  Rb  Rb87  1  0.79867134  0.52298141  0.93045809  1
  Rb  Rb88  1  0.79867134  0.85631474  0.43045809  1
  Rb  Rb89  1  0.79867134  0.85631474  0.93045809  1
  Rb  Rb90  1  0.20132866  0.14368526  0.06954191  1
  Rb  Rb91  1  0.20132866  0.14368526  0.56954191  1
  Rb  Rb92  1  0.20132866  0.47701859  0.06954191  1
  Rb  Rb93  1  0.20132866  0.47701859  0.56954191  1
  Rb  Rb94  1  0.20132866  0.81035193  0.06954191  1
  Rb  Rb95  1  0.20132866  0.81035193  0.56954191  1
  Rb  Rb96  1  0.53466199  0.14368526  0.06954191  1
  Rb  Rb97  1  0.53466199  0.14368526  0.56954191  1
  Rb  Rb98  1  0.53466199  0.47701859  0.06954191  1
  Rb  Rb99  1  0.53466199  0.47701859  0.56954191  1
  Rb  Rb100  1  0.53466199  0.81035193  0.06954191  1
  Rb  Rb101  1  0.53466199  0.81035193  0.56954191  1
  Rb  Rb102  1  0.86799532  0.14368526  0.06954191  1
  Rb  Rb103  1  0.86799532  0.14368526  0.56954191  1
  Rb  Rb104  1  0.86799532  0.47701859  0.06954191  1
  Rb  Rb105  1  0.86799532  0.47701859  0.56954191  1
  Rb  Rb106  1  0.86799532  0.81035193  0.06954191  1
  Rb  Rb107  1  0.86799532  0.81035193  0.56954191  1
  Rb  Rb108  1  0.31135074  0.18361139  0.41452734  1
  Rb  Rb109  1  0.31135074  0.18361139  0.91452734  1
  Rb  Rb110  1  0.31135074  0.51694472  0.41452734  1
  Rb  Rb111  1  0.31135074  0.51694472  0.91452734  1
  Rb  Rb112  1  0.31135074  0.85027806  0.41452734  1
  Rb  Rb113  1  0.31135074  0.85027806  0.91452734  1
  Rb  Rb114  1  0.64468408  0.18361139  0.41452734  1
  Rb  Rb115  1  0.64468408  0.18361139  0.91452734  1
  Rb  Rb116  1  0.64468408  0.51694472  0.41452734  1
  Rb  Rb117  1  0.64468408  0.51694472  0.91452734  1
  Rb  Rb118  1  0.64468408  0.85027806  0.41452734  1
  Rb  Rb119  1  0.64468408  0.85027806  0.91452734  1
  Rb  Rb120  1  0.97801741  0.18361139  0.41452734  1
  Rb  Rb121  1  0.97801741  0.18361139  0.91452734  1
  Rb  Rb122  1  0.97801741  0.51694472  0.41452734  1
  Rb  Rb123  1  0.97801741  0.51694472  0.91452734  1
  Rb  Rb124  1  0.97801741  0.85027806  0.41452734  1
  Rb  Rb125  1  0.97801741  0.85027806  0.91452734  1
  Rb  Rb126  1  0.02198259  0.14972194  0.08547266  1
  Rb  Rb127  1  0.02198259  0.14972194  0.58547266  1
  Rb  Rb128  1  0.02198259  0.48305528  0.08547266  1
  Rb  Rb129  1  0.02198259  0.48305528  0.58547266  1
  Rb  Rb130  1  0.02198259  0.81638861  0.08547266  1
  Rb  Rb131  1  0.02198259  0.81638861  0.58547266  1
  Rb  Rb132  1  0.35531592  0.14972194  0.08547266  1
  Rb  Rb133  1  0.35531592  0.14972194  0.58547266  1
  Rb  Rb134  1  0.35531592  0.48305528  0.08547266  1
  Rb  Rb135  1  0.35531592  0.48305528  0.58547266  1
  Rb  Rb136  1  0.35531592  0.81638861  0.08547266  1
  Rb  Rb137  1  0.35531592  0.81638861  0.58547266  1
  Rb  Rb138  1  0.68864926  0.14972194  0.08547266  1
  Rb  Rb139  1  0.68864926  0.14972194  0.58547266  1
  Rb  Rb140  1  0.68864926  0.48305528  0.08547266  1
  Rb  Rb141  1  0.68864926  0.48305528  0.58547266  1
  Rb  Rb142  1  0.68864926  0.81638861  0.08547266  1
  Rb  Rb143  1  0.68864926  0.81638861  0.58547266  1
  Pb  Pb144  1  0.13402536  0.02015396  0.43604011  1
  Pb  Pb145  1  0.13402536  0.02015396  0.93604011  1
  Pb  Pb146  1  0.13402536  0.35348729  0.43604011  1
  Pb  Pb147  1  0.13402536  0.35348729  0.93604011  1
  Pb  Pb148  1  0.13402536  0.68682062  0.43604011  1
  Pb  Pb149  1  0.13402536  0.68682062  0.93604011  1
  Pb  Pb150  1  0.46735869  0.02015396  0.43604011  1
  Pb  Pb151  1  0.46735869  0.02015396  0.93604011  1
  Pb  Pb152  1  0.46735869  0.35348729  0.43604011  1
  Pb  Pb153  1  0.46735869  0.35348729  0.93604011  1
  Pb  Pb154  1  0.46735869  0.68682062  0.43604011  1
  Pb  Pb155  1  0.46735869  0.68682062  0.93604011  1
  Pb  Pb156  1  0.80069202  0.02015396  0.43604011  1
  Pb  Pb157  1  0.80069202  0.02015396  0.93604011  1
  Pb  Pb158  1  0.80069202  0.35348729  0.43604011  1
  Pb  Pb159  1  0.80069202  0.35348729  0.93604011  1
  Pb  Pb160  1  0.80069202  0.68682062  0.43604011  1
  Pb  Pb161  1  0.80069202  0.68682062  0.93604011  1
  Pb  Pb162  1  0.19930798  0.31317938  0.06395989  1
  Pb  Pb163  1  0.19930798  0.31317938  0.56395989  1
  Pb  Pb164  1  0.19930798  0.64651271  0.06395989  1
  Pb  Pb165  1  0.19930798  0.64651271  0.56395989  1
  Pb  Pb166  1  0.19930798  0.97984604  0.06395989  1
  Pb  Pb167  1  0.19930798  0.97984604  0.56395989  1
  Pb  Pb168  1  0.53264131  0.31317938  0.06395989  1
  Pb  Pb169  1  0.53264131  0.31317938  0.56395989  1
  Pb  Pb170  1  0.53264131  0.64651271  0.06395989  1
  Pb  Pb171  1  0.53264131  0.64651271  0.56395989  1
  Pb  Pb172  1  0.53264131  0.97984604  0.06395989  1
  Pb  Pb173  1  0.53264131  0.97984604  0.56395989  1
  Pb  Pb174  1  0.86597464  0.31317938  0.06395989  1
  Pb  Pb175  1  0.86597464  0.31317938  0.56395989  1
  Pb  Pb176  1  0.86597464  0.64651271  0.06395989  1
  Pb  Pb177  1  0.86597464  0.64651271  0.56395989  1
  Pb  Pb178  1  0.86597464  0.97984604  0.06395989  1
  Pb  Pb179  1  0.86597464  0.97984604  0.56395989  1
  Pb  Pb180  1  0.10148797  0.23584285  0.23541357  1
  Pb  Pb181  1  0.10148797  0.23584285  0.73541357  1
  Pb  Pb182  1  0.10148797  0.56917618  0.23541357  1
  Pb  Pb183  1  0.10148797  0.56917618  0.73541357  1
  Pb  Pb184  1  0.10148797  0.90250952  0.23541357  1
  Pb  Pb185  1  0.10148797  0.90250952  0.73541357  1
  Pb  Pb186  1  0.43482130  0.23584285  0.23541357  1
  Pb  Pb187  1  0.43482130  0.23584285  0.73541357  1
  Pb  Pb188  1  0.43482130  0.56917618  0.23541357  1
  Pb  Pb189  1  0.43482130  0.56917618  0.73541357  1
  Pb  Pb190  1  0.43482130  0.90250952  0.23541357  1
  Pb  Pb191  1  0.43482130  0.90250952  0.73541357  1
  Pb  Pb192  1  0.76815463  0.23584285  0.23541357  1
  Pb  Pb193  1  0.76815463  0.23584285  0.73541357  1
  Pb  Pb194  1  0.76815463  0.56917618  0.23541357  1
  Pb  Pb195  1  0.76815463  0.56917618  0.73541357  1
  Pb  Pb196  1  0.76815463  0.90250952  0.23541357  1
  Pb  Pb197  1  0.76815463  0.90250952  0.73541357  1
  Pb  Pb198  1  0.23184537  0.09749048  0.26458643  1
  Pb  Pb199  1  0.23184537  0.09749048  0.76458643  1
  Pb  Pb200  1  0.23184537  0.43082382  0.26458643  1
  Pb  Pb201  1  0.23184537  0.43082382  0.76458643  1
  Pb  Pb202  1  0.23184537  0.76415715  0.26458643  1
  Pb  Pb203  1  0.23184537  0.76415715  0.76458643  1
  Pb  Pb204  1  0.56517870  0.09749048  0.26458643  1
  Pb  Pb205  1  0.56517870  0.09749048  0.76458643  1
  Pb  Pb206  1  0.56517870  0.43082382  0.26458643  1
  Pb  Pb207  1  0.56517870  0.43082382  0.76458643  1
  Pb  Pb208  1  0.56517870  0.76415715  0.26458643  1
  Pb  Pb209  1  0.56517870  0.76415715  0.76458643  1
  Pb  Pb210  1  0.89851203  0.09749048  0.26458643  1
  Pb  Pb211  1  0.89851203  0.09749048  0.76458643  1
  Pb  Pb212  1  0.89851203  0.43082382  0.26458643  1
  Pb  Pb213  1  0.89851203  0.43082382  0.76458643  1
  Pb  Pb214  1  0.89851203  0.76415715  0.26458643  1
  Pb  Pb215  1  0.89851203  0.76415715  0.76458643  1
  O  O216  1  0.02133682  0.07188277  0.49042781  1
  O  O217  1  0.02133682  0.07188277  0.99042781  1
  O  O218  1  0.02133682  0.40521610  0.49042781  1
  O  O219  1  0.02133682  0.40521610  0.99042781  1
  O  O220  1  0.02133682  0.73854943  0.49042781  1
  O  O221  1  0.02133682  0.73854943  0.99042781  1
  O  O222  1  0.35467016  0.07188277  0.49042781  1
  O  O223  1  0.35467016  0.07188277  0.99042781  1
  O  O224  1  0.35467016  0.40521610  0.49042781  1
  O  O225  1  0.35467016  0.40521610  0.99042781  1
  O  O226  1  0.35467016  0.73854943  0.49042781  1
  O  O227  1  0.35467016  0.73854943  0.99042781  1
  O  O228  1  0.68800349  0.07188277  0.49042781  1
  O  O229  1  0.68800349  0.07188277  0.99042781  1
  O  O230  1  0.68800349  0.40521610  0.49042781  1
  O  O231  1  0.68800349  0.40521610  0.99042781  1
  O  O232  1  0.68800349  0.73854943  0.49042781  1
  O  O233  1  0.68800349  0.73854943  0.99042781  1
  O  O234  1  0.31199651  0.26145057  0.00957219  1
  O  O235  1  0.31199651  0.26145057  0.50957219  1
  O  O236  1  0.31199651  0.59478390  0.00957219  1
  O  O237  1  0.31199651  0.59478390  0.50957219  1
  O  O238  1  0.31199651  0.92811723  0.00957219  1
  O  O239  1  0.31199651  0.92811723  0.50957219  1
  O  O240  1  0.64532984  0.26145057  0.00957219  1
  O  O241  1  0.64532984  0.26145057  0.50957219  1
  O  O242  1  0.64532984  0.59478390  0.00957219  1
  O  O243  1  0.64532984  0.59478390  0.50957219  1
  O  O244  1  0.64532984  0.92811723  0.00957219  1
  O  O245  1  0.64532984  0.92811723  0.50957219  1
  O  O246  1  0.97866318  0.26145057  0.00957219  1
  O  O247  1  0.97866318  0.26145057  0.50957219  1
  O  O248  1  0.97866318  0.59478390  0.00957219  1
  O  O249  1  0.97866318  0.59478390  0.50957219  1
  O  O250  1  0.97866318  0.92811723  0.00957219  1
  O  O251  1  0.97866318  0.92811723  0.50957219  1
  O  O252  1  0.16803605  0.06519024  0.49681737  1
  O  O253  1  0.16803605  0.06519024  0.99681737  1
  O  O254  1  0.16803605  0.39852357  0.49681737  1
  O  O255  1  0.16803605  0.39852357  0.99681737  1
  O  O256  1  0.16803605  0.73185690  0.49681737  1
  O  O257  1  0.16803605  0.73185690  0.99681737  1
  O  O258  1  0.50136938  0.06519024  0.49681737  1
  O  O259  1  0.50136938  0.06519024  0.99681737  1
  O  O260  1  0.50136938  0.39852357  0.49681737  1
  O  O261  1  0.50136938  0.39852357  0.99681737  1
  O  O262  1  0.50136938  0.73185690  0.49681737  1
  O  O263  1  0.50136938  0.73185690  0.99681737  1
  O  O264  1  0.83470272  0.06519024  0.49681737  1
  O  O265  1  0.83470272  0.06519024  0.99681737  1
  O  O266  1  0.83470272  0.39852357  0.49681737  1
  O  O267  1  0.83470272  0.39852357  0.99681737  1
  O  O268  1  0.83470272  0.73185690  0.49681737  1
  O  O269  1  0.83470272  0.73185690  0.99681737  1
  O  O270  1  0.16529728  0.26814310  0.00318263  1
  O  O271  1  0.16529728  0.26814310  0.50318263  1
  O  O272  1  0.16529728  0.60147643  0.00318263  1
  O  O273  1  0.16529728  0.60147643  0.50318263  1
  O  O274  1  0.16529728  0.93480976  0.00318263  1
  O  O275  1  0.16529728  0.93480976  0.50318263  1
  O  O276  1  0.49863062  0.26814310  0.00318263  1
  O  O277  1  0.49863062  0.26814310  0.50318263  1
  O  O278  1  0.49863062  0.60147643  0.00318263  1
  O  O279  1  0.49863062  0.60147643  0.50318263  1
  O  O280  1  0.49863062  0.93480976  0.00318263  1
  O  O281  1  0.49863062  0.93480976  0.50318263  1
  O  O282  1  0.83196395  0.26814310  0.00318263  1
  O  O283  1  0.83196395  0.26814310  0.50318263  1
  O  O284  1  0.83196395  0.60147643  0.00318263  1
  O  O285  1  0.83196395  0.60147643  0.50318263  1
  O  O286  1  0.83196395  0.93480976  0.00318263  1
  O  O287  1  0.83196395  0.93480976  0.50318263  1
  O  O288  1  0.06480445  0.19797798  0.17600017  1
  O  O289  1  0.06480445  0.19797798  0.67600017  1
  O  O290  1  0.06480445  0.53131131  0.17600017  1
  O  O291  1  0.06480445  0.53131131  0.67600017  1
  O  O292  1  0.06480445  0.86464465  0.17600017  1
  O  O293  1  0.06480445  0.86464465  0.67600017  1
  O  O294  1  0.39813779  0.19797798  0.17600017  1
  O  O295  1  0.39813779  0.19797798  0.67600017  1
  O  O296  1  0.39813779  0.53131131  0.17600017  1
  O  O297  1  0.39813779  0.53131131  0.67600017  1
  O  O298  1  0.39813779  0.86464465  0.17600017  1
  O  O299  1  0.39813779  0.86464465  0.67600017  1
  O  O300  1  0.73147112  0.19797798  0.17600017  1
  O  O301  1  0.73147112  0.19797798  0.67600017  1
  O  O302  1  0.73147112  0.53131131  0.17600017  1
  O  O303  1  0.73147112  0.53131131  0.67600017  1
  O  O304  1  0.73147112  0.86464465  0.17600017  1
  O  O305  1  0.73147112  0.86464465  0.67600017  1
  O  O306  1  0.26852888  0.13535535  0.32399983  1
  O  O307  1  0.26852888  0.13535535  0.82399983  1
  O  O308  1  0.26852888  0.46868869  0.32399983  1
  O  O309  1  0.26852888  0.46868869  0.82399983  1
  O  O310  1  0.26852888  0.80202202  0.32399983  1
  O  O311  1  0.26852888  0.80202202  0.82399983  1
  O  O312  1  0.60186221  0.13535535  0.32399983  1
  O  O313  1  0.60186221  0.13535535  0.82399983  1
  O  O314  1  0.60186221  0.46868869  0.32399983  1
  O  O315  1  0.60186221  0.46868869  0.82399983  1
  O  O316  1  0.60186221  0.80202202  0.32399983  1
  O  O317  1  0.60186221  0.80202202  0.82399983  1
  O  O318  1  0.93519555  0.13535535  0.32399983  1
  O  O319  1  0.93519555  0.13535535  0.82399983  1
  O  O320  1  0.93519555  0.46868869  0.32399983  1
  O  O321  1  0.93519555  0.46868869  0.82399983  1
  O  O322  1  0.93519555  0.80202202  0.32399983  1
  O  O323  1  0.93519555  0.80202202  0.82399983  1
  O  O324  1  0.22031383  0.17165358  0.18588372  1
  O  O325  1  0.22031383  0.17165358  0.68588372  1
  O  O326  1  0.22031383  0.50498691  0.18588372  1
  O  O327  1  0.22031383  0.50498691  0.68588372  1
  O  O328  1  0.22031383  0.83832024  0.18588372  1
  O  O329  1  0.22031383  0.83832024  0.68588372  1
  O  O330  1  0.55364716  0.17165358  0.18588372  1
  O  O331  1  0.55364716  0.17165358  0.68588372  1
  O  O332  1  0.55364716  0.50498691  0.18588372  1
  O  O333  1  0.55364716  0.50498691  0.68588372  1
  O  O334  1  0.55364716  0.83832024  0.18588372  1
  O  O335  1  0.55364716  0.83832024  0.68588372  1
  O  O336  1  0.88698050  0.17165358  0.18588372  1
  O  O337  1  0.88698050  0.17165358  0.68588372  1
  O  O338  1  0.88698050  0.50498691  0.18588372  1
  O  O339  1  0.88698050  0.50498691  0.68588372  1
  O  O340  1  0.88698050  0.83832024  0.18588372  1
  O  O341  1  0.88698050  0.83832024  0.68588372  1
  O  O342  1  0.11301950  0.16167976  0.31411628  1
  O  O343  1  0.11301950  0.16167976  0.81411628  1
  O  O344  1  0.11301950  0.49501309  0.31411628  1
  O  O345  1  0.11301950  0.49501309  0.81411628  1
  O  O346  1  0.11301950  0.82834642  0.31411628  1
  O  O347  1  0.11301950  0.82834642  0.81411628  1
  O  O348  1  0.44635284  0.16167976  0.31411628  1
  O  O349  1  0.44635284  0.16167976  0.81411628  1
  O  O350  1  0.44635284  0.49501309  0.31411628  1
  O  O351  1  0.44635284  0.49501309  0.81411628  1
  O  O352  1  0.44635284  0.82834642  0.31411628  1
  O  O353  1  0.44635284  0.82834642  0.81411628  1
  O  O354  1  0.77968617  0.16167976  0.31411628  1
  O  O355  1  0.77968617  0.16167976  0.81411628  1
  O  O356  1  0.77968617  0.49501309  0.31411628  1
  O  O357  1  0.77968617  0.49501309  0.81411628  1
  O  O358  1  0.77968617  0.82834642  0.31411628  1
  O  O359  1  0.77968617  0.82834642  0.81411628  1
