# generated using pymatgen
data_Ca2BiAsO6
_symmetry_space_group_name_H-M   'P 1'
_cell_length_a   8.86608458
_cell_length_b   11.77701434
_cell_length_c   11.09817704
_cell_angle_alpha   90.00000000
_cell_angle_beta   90.00000000
_cell_angle_gamma   90.00000000
_symmetry_Int_Tables_number   1
_chemical_formula_structural   Ca2BiAsO6
_chemical_formula_sum   'Ca16 Bi8 As8 O48'
_cell_volume   1158.82731161
_cell_formula_units_Z   8
loop_
 _symmetry_equiv_pos_site_id
 _symmetry_equiv_pos_as_xyz
  1  'x, y, z'
loop_
 _atom_site_type_symbol
 _atom_site_label
 _atom_site_symmetry_multiplicity
 _atom_site_fract_x
 _atom_site_fract_y
 _atom_site_fract_z
 _atom_site_occupancy
  Ca  Ca0  1  0.19738889  0.10487876  0.11873896  1
  Ca  Ca1  1  0.19738889  0.10487876  0.61873896  1
  Ca  Ca2  1  0.69738889  0.60487876  0.11873896  1
  Ca  Ca3  1  0.69738889  0.60487876  0.61873896  1
  Ca  Ca4  1  0.80261111  0.10487876  0.11873896  1
  Ca  Ca5  1  0.80261111  0.10487876  0.61873896  1
  Ca  Ca6  1  1.30261111  0.60487876  0.11873896  1
  Ca  Ca7  1  1.30261111  0.60487876  0.61873896  1
  Ca  Ca8  1  0.19738889  -0.10487876  0.36873896  1
  Ca  Ca9  1  0.19738889  -0.10487876  0.86873896  1
  Ca  Ca10  1  0.69738889  0.39512124  0.36873896  1
  Ca  Ca11  1  0.69738889  0.39512124  0.86873896  1
  Ca  Ca12  1  0.80261111  -0.10487876  0.36873896  1
  Ca  Ca13  1  0.80261111  -0.10487876  0.86873896  1
  Ca  Ca14  1  1.30261111  0.39512124  0.36873896  1
  Ca  Ca15  1  1.30261111  0.39512124  0.86873896  1
  Bi  Bi16  1  0.50000000  0.09224109  0.37583662  1
  Bi  Bi17  1  0.50000000  0.09224109  0.87583662  1
  Bi  Bi18  1  1.00000000  0.59224109  0.37583662  1
  Bi  Bi19  1  1.00000000  0.59224109  0.87583662  1
  Bi  Bi20  1  0.50000000  -0.09224109  0.12583662  1
  Bi  Bi21  1  0.50000000  -0.09224109  0.62583662  1
  Bi  Bi22  1  1.00000000  0.40775891  0.12583662  1
  Bi  Bi23  1  1.00000000  0.40775891  0.62583662  1
  As  As24  1  0.50000000  0.31709959  0.09725812  1
  As  As25  1  0.50000000  0.31709959  0.59725812  1
  As  As26  1  1.00000000  0.81709959  0.09725812  1
  As  As27  1  1.00000000  0.81709959  0.59725812  1
  As  As28  1  0.50000000  -0.31709959  0.34725812  1
  As  As29  1  0.50000000  -0.31709959  0.84725812  1
  As  As30  1  1.00000000  0.18290041  0.34725812  1
  As  As31  1  1.00000000  0.18290041  0.84725812  1
  O  O32  1  0.34574947  0.00411925  0.24537934  1
  O  O33  1  0.34574947  0.00411925  0.74537934  1
  O  O34  1  0.84574947  0.50411925  0.24537934  1
  O  O35  1  0.84574947  0.50411925  0.74537934  1
  O  O36  1  0.34200769  0.25411423  0.03759226  1
  O  O37  1  0.34200769  0.25411423  0.53759226  1
  O  O38  1  0.84200769  0.75411423  0.03759226  1
  O  O39  1  0.84200769  0.75411423  0.53759226  1
  O  O40  1  0.34200769  -0.25411423  0.28759226  1
  O  O41  1  0.34200769  -0.25411423  0.78759226  1
  O  O42  1  0.84200769  0.24588577  0.28759226  1
  O  O43  1  0.84200769  0.24588577  0.78759226  1
  O  O44  1  0.65425053  0.00411925  0.24537934  1
  O  O45  1  0.65425053  0.00411925  0.74537934  1
  O  O46  1  1.15425053  0.50411925  0.24537934  1
  O  O47  1  1.15425053  0.50411925  0.74537934  1
  O  O48  1  0.50000000  -0.31245276  0.00136234  1
  O  O49  1  0.50000000  -0.31245276  0.50136234  1
  O  O50  1  1.00000000  0.18754724  0.00136234  1
  O  O51  1  1.00000000  0.18754724  0.50136234  1
  O  O52  1  0.65425053  -0.00411925  0.49537934  1
  O  O53  1  0.65425053  -0.00411925  0.99537934  1
  O  O54  1  1.15425053  0.49588075  0.49537934  1
  O  O55  1  1.15425053  0.49588075  0.99537934  1
  O  O56  1  0.50000000  0.31245276  0.25136234  1
  O  O57  1  0.50000000  0.31245276  0.75136234  1
  O  O58  1  1.00000000  0.81245276  0.25136234  1
  O  O59  1  1.00000000  0.81245276  0.75136234  1
  O  O60  1  0.34574947  -0.00411925  0.49537934  1
  O  O61  1  0.34574947  -0.00411925  0.99537934  1
  O  O62  1  0.84574947  0.49588075  0.49537934  1
  O  O63  1  0.84574947  0.49588075  0.99537934  1
  O  O64  1  0.50000000  -0.45165255  0.28512279  1
  O  O65  1  0.50000000  -0.45165255  0.78512279  1
  O  O66  1  1.00000000  0.04834745  0.28512279  1
  O  O67  1  1.00000000  0.04834745  0.78512279  1
  O  O68  1  0.65799231  -0.25411423  0.28759226  1
  O  O69  1  0.65799231  -0.25411423  0.78759226  1
  O  O70  1  1.15799231  0.24588577  0.28759226  1
  O  O71  1  1.15799231  0.24588577  0.78759226  1
  O  O72  1  0.50000000  0.45165255  0.03512279  1
  O  O73  1  0.50000000  0.45165255  0.53512279  1
  O  O74  1  1.00000000  0.95165255  0.03512279  1
  O  O75  1  1.00000000  0.95165255  0.53512279  1
  O  O76  1  0.65799231  0.25411423  0.03759226  1
  O  O77  1  0.65799231  0.25411423  0.53759226  1
  O  O78  1  1.15799231  0.75411423  0.03759226  1
  O  O79  1  1.15799231  0.75411423  0.53759226  1
