# generated using pymatgen
data_Na2MgGeO4
_symmetry_space_group_name_H-M   'P 1'
_cell_length_a   16.01789663
_cell_length_b   16.97211126
_cell_length_c   17.74273621
_cell_angle_alpha   90.00000000
_cell_angle_beta   126.94923546
_cell_angle_gamma   90.00000000
_symmetry_Int_Tables_number   1
_chemical_formula_structural   Na2MgGeO4
_chemical_formula_sum   'Na72 Mg36 Ge36 O144'
_cell_volume   3854.78588962
_cell_formula_units_Z   36
loop_
 _symmetry_equiv_pos_site_id
 _symmetry_equiv_pos_as_xyz
  1  'x, y, z'
loop_
 _atom_site_type_symbol
 _atom_site_label
 _atom_site_symmetry_multiplicity
 _atom_site_fract_x
 _atom_site_fract_y
 _atom_site_fract_z
 _atom_site_occupancy
  Na  Na0  1  0.08132413  0.10981588  0.40304484  1
  Na  Na1  1  0.08132413  0.10981588  0.90304484  1
  Na  Na2  1  0.08132413  0.44314921  0.40304484  1
  Na  Na3  1  0.08132413  0.44314921  0.90304484  1
  Na  Na4  1  0.08132413  0.77648255  0.40304484  1
  Na  Na5  1  0.08132413  0.77648255  0.90304484  1
  Na  Na6  1  0.41465746  0.10981588  0.40304484  1
  Na  Na7  1  0.41465746  0.10981588  0.90304484  1
  Na  Na8  1  0.41465746  0.44314921  0.40304484  1
  Na  Na9  1  0.41465746  0.44314921  0.90304484  1
  Na  Na10  1  0.41465746  0.77648255  0.40304484  1
  Na  Na11  1  0.41465746  0.77648255  0.90304484  1
  Na  Na12  1  0.74799079  0.10981588  0.40304484  1
  Na  Na13  1  0.74799079  0.10981588  0.90304484  1
  Na  Na14  1  0.74799079  0.44314921  0.40304484  1
  Na  Na15  1  0.74799079  0.44314921  0.90304484  1
  Na  Na16  1  0.74799079  0.77648255  0.40304484  1
  Na  Na17  1  0.74799079  0.77648255  0.90304484  1
  Na  Na18  1  0.08132413  0.22351745  0.15304484  1
  Na  Na19  1  0.08132413  0.22351745  0.65304484  1
  Na  Na20  1  0.08132413  0.55685079  0.15304484  1
  Na  Na21  1  0.08132413  0.55685079  0.65304484  1
  Na  Na22  1  0.08132413  0.89018412  0.15304484  1
  Na  Na23  1  0.08132413  0.89018412  0.65304484  1
  Na  Na24  1  0.41465746  0.22351745  0.15304484  1
  Na  Na25  1  0.41465746  0.22351745  0.65304484  1
  Na  Na26  1  0.41465746  0.55685079  0.15304484  1
  Na  Na27  1  0.41465746  0.55685079  0.65304484  1
  Na  Na28  1  0.41465746  0.89018412  0.15304484  1
  Na  Na29  1  0.41465746  0.89018412  0.65304484  1
  Na  Na30  1  0.74799079  0.22351745  0.15304484  1
  Na  Na31  1  0.74799079  0.22351745  0.65304484  1
  Na  Na32  1  0.74799079  0.55685079  0.15304484  1
  Na  Na33  1  0.74799079  0.55685079  0.65304484  1
  Na  Na34  1  0.74799079  0.89018412  0.15304484  1
  Na  Na35  1  0.74799079  0.89018412  0.65304484  1
  Na  Na36  1  0.16596594  0.05920377  0.28077688  1
  Na  Na37  1  0.16596594  0.05920377  0.78077688  1
  Na  Na38  1  0.16596594  0.39253710  0.28077688  1
  Na  Na39  1  0.16596594  0.39253710  0.78077688  1
  Na  Na40  1  0.16596594  0.72587044  0.28077688  1
  Na  Na41  1  0.16596594  0.72587044  0.78077688  1
  Na  Na42  1  0.49929927  0.05920377  0.28077688  1
  Na  Na43  1  0.49929927  0.05920377  0.78077688  1
  Na  Na44  1  0.49929927  0.39253710  0.28077688  1
  Na  Na45  1  0.49929927  0.39253710  0.78077688  1
  Na  Na46  1  0.49929927  0.72587044  0.28077688  1
  Na  Na47  1  0.49929927  0.72587044  0.78077688  1
  Na  Na48  1  0.83263260  0.05920377  0.28077688  1
  Na  Na49  1  0.83263260  0.05920377  0.78077688  1
  Na  Na50  1  0.83263260  0.39253710  0.28077688  1
  Na  Na51  1  0.83263260  0.39253710  0.78077688  1
  Na  Na52  1  0.83263260  0.72587044  0.28077688  1
  Na  Na53  1  0.83263260  0.72587044  0.78077688  1
  Na  Na54  1  0.16596594  0.27412956  0.03077688  1
  Na  Na55  1  0.16596594  0.27412956  0.53077688  1
  Na  Na56  1  0.16596594  0.60746290  0.03077688  1
  Na  Na57  1  0.16596594  0.60746290  0.53077688  1
  Na  Na58  1  0.16596594  0.94079623  0.03077688  1
  Na  Na59  1  0.16596594  0.94079623  0.53077688  1
  Na  Na60  1  0.49929927  0.27412956  0.03077688  1
  Na  Na61  1  0.49929927  0.27412956  0.53077688  1
  Na  Na62  1  0.49929927  0.60746290  0.03077688  1
  Na  Na63  1  0.49929927  0.60746290  0.53077688  1
  Na  Na64  1  0.49929927  0.94079623  0.03077688  1
  Na  Na65  1  0.49929927  0.94079623  0.53077688  1
  Na  Na66  1  0.83263260  0.27412956  0.03077688  1
  Na  Na67  1  0.83263260  0.27412956  0.53077688  1
  Na  Na68  1  0.83263260  0.60746290  0.03077688  1
  Na  Na69  1  0.83263260  0.60746290  0.53077688  1
  Na  Na70  1  0.83263260  0.94079623  0.03077688  1
  Na  Na71  1  0.83263260  0.94079623  0.53077688  1
  Mg  Mg72  1  0.32749532  0.27258832  0.27792608  1
  Mg  Mg73  1  0.32749532  0.27258832  0.77792608  1
  Mg  Mg74  1  0.32749532  0.60592165  0.27792608  1
  Mg  Mg75  1  0.32749532  0.60592165  0.77792608  1
  Mg  Mg76  1  0.32749532  0.93925498  0.27792608  1
  Mg  Mg77  1  0.32749532  0.93925498  0.77792608  1
  Mg  Mg78  1  0.66082865  0.27258832  0.27792608  1
  Mg  Mg79  1  0.66082865  0.27258832  0.77792608  1
  Mg  Mg80  1  0.66082865  0.60592165  0.27792608  1
  Mg  Mg81  1  0.66082865  0.60592165  0.77792608  1
  Mg  Mg82  1  0.66082865  0.93925498  0.27792608  1
  Mg  Mg83  1  0.66082865  0.93925498  0.77792608  1
  Mg  Mg84  1  0.99416199  0.27258832  0.27792608  1
  Mg  Mg85  1  0.99416199  0.27258832  0.77792608  1
  Mg  Mg86  1  0.99416199  0.60592165  0.27792608  1
  Mg  Mg87  1  0.99416199  0.60592165  0.77792608  1
  Mg  Mg88  1  0.99416199  0.93925498  0.27792608  1
  Mg  Mg89  1  0.99416199  0.93925498  0.77792608  1
  Mg  Mg90  1  0.32749532  0.06074502  0.02792608  1
  Mg  Mg91  1  0.32749532  0.06074502  0.52792608  1
  Mg  Mg92  1  0.32749532  0.39407835  0.02792608  1
  Mg  Mg93  1  0.32749532  0.39407835  0.52792608  1
  Mg  Mg94  1  0.32749532  0.72741168  0.02792608  1
  Mg  Mg95  1  0.32749532  0.72741168  0.52792608  1
  Mg  Mg96  1  0.66082865  0.06074502  0.02792608  1
  Mg  Mg97  1  0.66082865  0.06074502  0.52792608  1
  Mg  Mg98  1  0.66082865  0.39407835  0.02792608  1
  Mg  Mg99  1  0.66082865  0.39407835  0.52792608  1
  Mg  Mg100  1  0.66082865  0.72741168  0.02792608  1
  Mg  Mg101  1  0.66082865  0.72741168  0.52792608  1
  Mg  Mg102  1  0.99416199  0.06074502  0.02792608  1
  Mg  Mg103  1  0.99416199  0.06074502  0.52792608  1
  Mg  Mg104  1  0.99416199  0.39407835  0.02792608  1
  Mg  Mg105  1  0.99416199  0.39407835  0.52792608  1
  Mg  Mg106  1  0.99416199  0.72741168  0.02792608  1
  Mg  Mg107  1  0.99416199  0.72741168  0.52792608  1
  Ge  Ge108  1  0.24378521  0.22736109  0.40443735  1
  Ge  Ge109  1  0.24378521  0.22736109  0.90443735  1
  Ge  Ge110  1  0.24378521  0.56069443  0.40443735  1
  Ge  Ge111  1  0.24378521  0.56069443  0.90443735  1
  Ge  Ge112  1  0.24378521  0.89402776  0.40443735  1
  Ge  Ge113  1  0.24378521  0.89402776  0.90443735  1
  Ge  Ge114  1  0.57711855  0.22736109  0.40443735  1
  Ge  Ge115  1  0.57711855  0.22736109  0.90443735  1
  Ge  Ge116  1  0.57711855  0.56069443  0.40443735  1
  Ge  Ge117  1  0.57711855  0.56069443  0.90443735  1
  Ge  Ge118  1  0.57711855  0.89402776  0.40443735  1
  Ge  Ge119  1  0.57711855  0.89402776  0.90443735  1
  Ge  Ge120  1  0.91045188  0.22736109  0.40443735  1
  Ge  Ge121  1  0.91045188  0.22736109  0.90443735  1
  Ge  Ge122  1  0.91045188  0.56069443  0.40443735  1
  Ge  Ge123  1  0.91045188  0.56069443  0.90443735  1
  Ge  Ge124  1  0.91045188  0.89402776  0.40443735  1
  Ge  Ge125  1  0.91045188  0.89402776  0.90443735  1
  Ge  Ge126  1  0.24378521  0.10597224  0.15443735  1
  Ge  Ge127  1  0.24378521  0.10597224  0.65443735  1
  Ge  Ge128  1  0.24378521  0.43930557  0.15443735  1
  Ge  Ge129  1  0.24378521  0.43930557  0.65443735  1
  Ge  Ge130  1  0.24378521  0.77263891  0.15443735  1
  Ge  Ge131  1  0.24378521  0.77263891  0.65443735  1
  Ge  Ge132  1  0.57711855  0.10597224  0.15443735  1
  Ge  Ge133  1  0.57711855  0.10597224  0.65443735  1
  Ge  Ge134  1  0.57711855  0.43930557  0.15443735  1
  Ge  Ge135  1  0.57711855  0.43930557  0.65443735  1
  Ge  Ge136  1  0.57711855  0.77263891  0.15443735  1
  Ge  Ge137  1  0.57711855  0.77263891  0.65443735  1
  Ge  Ge138  1  0.91045188  0.10597224  0.15443735  1
  Ge  Ge139  1  0.91045188  0.10597224  0.65443735  1
  Ge  Ge140  1  0.91045188  0.43930557  0.15443735  1
  Ge  Ge141  1  0.91045188  0.43930557  0.65443735  1
  Ge  Ge142  1  0.91045188  0.77263891  0.15443735  1
  Ge  Ge143  1  0.91045188  0.77263891  0.65443735  1
  O  O144  1  0.22118828  0.26584529  0.29977439  1
  O  O145  1  0.22118828  0.26584529  0.79977439  1
  O  O146  1  0.22118828  0.59917863  0.29977439  1
  O  O147  1  0.22118828  0.59917863  0.79977439  1
  O  O148  1  0.22118828  0.93251196  0.29977439  1
  O  O149  1  0.22118828  0.93251196  0.79977439  1
  O  O150  1  0.55452161  0.26584529  0.29977439  1
  O  O151  1  0.55452161  0.26584529  0.79977439  1
  O  O152  1  0.55452161  0.59917863  0.29977439  1
  O  O153  1  0.55452161  0.59917863  0.79977439  1
  O  O154  1  0.55452161  0.93251196  0.29977439  1
  O  O155  1  0.55452161  0.93251196  0.79977439  1
  O  O156  1  0.88785495  0.26584529  0.29977439  1
  O  O157  1  0.88785495  0.26584529  0.79977439  1
  O  O158  1  0.88785495  0.59917863  0.29977439  1
  O  O159  1  0.88785495  0.59917863  0.79977439  1
  O  O160  1  0.88785495  0.93251196  0.29977439  1
  O  O161  1  0.88785495  0.93251196  0.79977439  1
  O  O162  1  0.22118828  0.06748804  0.04977439  1
  O  O163  1  0.22118828  0.06748804  0.54977439  1
  O  O164  1  0.22118828  0.40082137  0.04977439  1
  O  O165  1  0.22118828  0.40082137  0.54977439  1
  O  O166  1  0.22118828  0.73415471  0.04977439  1
  O  O167  1  0.22118828  0.73415471  0.54977439  1
  O  O168  1  0.55452161  0.06748804  0.04977439  1
  O  O169  1  0.55452161  0.06748804  0.54977439  1
  O  O170  1  0.55452161  0.40082137  0.04977439  1
  O  O171  1  0.55452161  0.40082137  0.54977439  1
  O  O172  1  0.55452161  0.73415471  0.04977439  1
  O  O173  1  0.55452161  0.73415471  0.54977439  1
  O  O174  1  0.88785495  0.06748804  0.04977439  1
  O  O175  1  0.88785495  0.06748804  0.54977439  1
  O  O176  1  0.88785495  0.40082137  0.04977439  1
  O  O177  1  0.88785495  0.40082137  0.54977439  1
  O  O178  1  0.88785495  0.73415471  0.04977439  1
  O  O179  1  0.88785495  0.73415471  0.54977439  1
  O  O180  1  0.28040001  0.12558662  0.41728345  1
  O  O181  1  0.28040001  0.12558662  0.91728345  1
  O  O182  1  0.28040001  0.45891996  0.41728345  1
  O  O183  1  0.28040001  0.45891996  0.91728345  1
  O  O184  1  0.28040001  0.79225329  0.41728345  1
  O  O185  1  0.28040001  0.79225329  0.91728345  1
  O  O186  1  0.61373335  0.12558662  0.41728345  1
  O  O187  1  0.61373335  0.12558662  0.91728345  1
  O  O188  1  0.61373335  0.45891996  0.41728345  1
  O  O189  1  0.61373335  0.45891996  0.91728345  1
  O  O190  1  0.61373335  0.79225329  0.41728345  1
  O  O191  1  0.61373335  0.79225329  0.91728345  1
  O  O192  1  0.94706668  0.12558662  0.41728345  1
  O  O193  1  0.94706668  0.12558662  0.91728345  1
  O  O194  1  0.94706668  0.45891996  0.41728345  1
  O  O195  1  0.94706668  0.45891996  0.91728345  1
  O  O196  1  0.94706668  0.79225329  0.41728345  1
  O  O197  1  0.94706668  0.79225329  0.91728345  1
  O  O198  1  0.28040001  0.20774671  0.16728345  1
  O  O199  1  0.28040001  0.20774671  0.66728345  1
  O  O200  1  0.28040001  0.54108004  0.16728345  1
  O  O201  1  0.28040001  0.54108004  0.66728345  1
  O  O202  1  0.28040001  0.87441338  0.16728345  1
  O  O203  1  0.28040001  0.87441338  0.66728345  1
  O  O204  1  0.61373335  0.20774671  0.16728345  1
  O  O205  1  0.61373335  0.20774671  0.66728345  1
  O  O206  1  0.61373335  0.54108004  0.16728345  1
  O  O207  1  0.61373335  0.54108004  0.66728345  1
  O  O208  1  0.61373335  0.87441338  0.16728345  1
  O  O209  1  0.61373335  0.87441338  0.66728345  1
  O  O210  1  0.94706668  0.20774671  0.16728345  1
  O  O211  1  0.94706668  0.20774671  0.66728345  1
  O  O212  1  0.94706668  0.54108004  0.16728345  1
  O  O213  1  0.94706668  0.54108004  0.66728345  1
  O  O214  1  0.94706668  0.87441338  0.16728345  1
  O  O215  1  0.94706668  0.87441338  0.66728345  1
  O  O216  1  0.12446971  0.23479854  0.39176512  1
  O  O217  1  0.12446971  0.23479854  0.89176512  1
  O  O218  1  0.12446971  0.56813187  0.39176512  1
  O  O219  1  0.12446971  0.56813187  0.89176512  1
  O  O220  1  0.12446971  0.90146520  0.39176512  1
  O  O221  1  0.12446971  0.90146520  0.89176512  1
  O  O222  1  0.45780304  0.23479854  0.39176512  1
  O  O223  1  0.45780304  0.23479854  0.89176512  1
  O  O224  1  0.45780304  0.56813187  0.39176512  1
  O  O225  1  0.45780304  0.56813187  0.89176512  1
  O  O226  1  0.45780304  0.90146520  0.39176512  1
  O  O227  1  0.45780304  0.90146520  0.89176512  1
  O  O228  1  0.79113638  0.23479854  0.39176512  1
  O  O229  1  0.79113638  0.23479854  0.89176512  1
  O  O230  1  0.79113638  0.56813187  0.39176512  1
  O  O231  1  0.79113638  0.56813187  0.89176512  1
  O  O232  1  0.79113638  0.90146520  0.39176512  1
  O  O233  1  0.79113638  0.90146520  0.89176512  1
  O  O234  1  0.12446971  0.09853480  0.14176512  1
  O  O235  1  0.12446971  0.09853480  0.64176512  1
  O  O236  1  0.12446971  0.43186813  0.14176512  1
  O  O237  1  0.12446971  0.43186813  0.64176512  1
  O  O238  1  0.12446971  0.76520146  0.14176512  1
  O  O239  1  0.12446971  0.76520146  0.64176512  1
  O  O240  1  0.45780304  0.09853480  0.14176512  1
  O  O241  1  0.45780304  0.09853480  0.64176512  1
  O  O242  1  0.45780304  0.43186813  0.14176512  1
  O  O243  1  0.45780304  0.43186813  0.64176512  1
  O  O244  1  0.45780304  0.76520146  0.14176512  1
  O  O245  1  0.45780304  0.76520146  0.64176512  1
  O  O246  1  0.79113638  0.09853480  0.14176512  1
  O  O247  1  0.79113638  0.09853480  0.64176512  1
  O  O248  1  0.79113638  0.43186813  0.14176512  1
  O  O249  1  0.79113638  0.43186813  0.64176512  1
  O  O250  1  0.79113638  0.76520146  0.14176512  1
  O  O251  1  0.79113638  0.76520146  0.64176512  1
  O  O252  1  0.00842640  0.28235445  0.00742790  1
  O  O253  1  0.00842640  0.28235445  0.50742790  1
  O  O254  1  0.00842640  0.61568779  0.00742790  1
  O  O255  1  0.00842640  0.61568779  0.50742790  1
  O  O256  1  0.00842640  0.94902112  0.00742790  1
  O  O257  1  0.00842640  0.94902112  0.50742790  1
  O  O258  1  0.34175973  0.28235445  0.00742790  1
  O  O259  1  0.34175973  0.28235445  0.50742790  1
  O  O260  1  0.34175973  0.61568779  0.00742790  1
  O  O261  1  0.34175973  0.61568779  0.50742790  1
  O  O262  1  0.34175973  0.94902112  0.00742790  1
  O  O263  1  0.34175973  0.94902112  0.50742790  1
  O  O264  1  0.67509306  0.28235445  0.00742790  1
  O  O265  1  0.67509306  0.28235445  0.50742790  1
  O  O266  1  0.67509306  0.61568779  0.00742790  1
  O  O267  1  0.67509306  0.61568779  0.50742790  1
  O  O268  1  0.67509306  0.94902112  0.00742790  1
  O  O269  1  0.67509306  0.94902112  0.50742790  1
  O  O270  1  0.00842640  0.05097888  0.25742790  1
  O  O271  1  0.00842640  0.05097888  0.75742790  1
  O  O272  1  0.00842640  0.38431221  0.25742790  1
  O  O273  1  0.00842640  0.38431221  0.75742790  1
  O  O274  1  0.00842640  0.71764555  0.25742790  1
  O  O275  1  0.00842640  0.71764555  0.75742790  1
  O  O276  1  0.34175973  0.05097888  0.25742790  1
  O  O277  1  0.34175973  0.05097888  0.75742790  1
  O  O278  1  0.34175973  0.38431221  0.25742790  1
  O  O279  1  0.34175973  0.38431221  0.75742790  1
  O  O280  1  0.34175973  0.71764555  0.25742790  1
  O  O281  1  0.34175973  0.71764555  0.75742790  1
  O  O282  1  0.67509306  0.05097888  0.25742790  1
  O  O283  1  0.67509306  0.05097888  0.75742790  1
  O  O284  1  0.67509306  0.38431221  0.25742790  1
  O  O285  1  0.67509306  0.38431221  0.75742790  1
  O  O286  1  0.67509306  0.71764555  0.25742790  1
  O  O287  1  0.67509306  0.71764555  0.75742790  1
