# generated using pymatgen
data_Na2SiO3
_symmetry_space_group_name_H-M   'P 1'
_cell_length_a   10.46616110
_cell_length_b   12.07844436
_cell_length_c   9.56609130
_cell_angle_alpha   90.00000000
_cell_angle_beta   90.00000000
_cell_angle_gamma   90.00000000
_symmetry_Int_Tables_number   1
_chemical_formula_structural   Na2SiO3
_chemical_formula_sum   'Na32 Si16 O48'
_cell_volume   1209.29689955
_cell_formula_units_Z   16
loop_
 _symmetry_equiv_pos_site_id
 _symmetry_equiv_pos_as_xyz
  1  'x, y, z'
loop_
 _atom_site_type_symbol
 _atom_site_label
 _atom_site_symmetry_multiplicity
 _atom_site_fract_x
 _atom_site_fract_y
 _atom_site_fract_z
 _atom_site_occupancy
  Na  Na0  1  0.33450173  0.08098084  0.00072184  1
  Na  Na1  1  0.33450173  0.08098084  0.50072184  1
  Na  Na2  1  0.33450173  0.58098084  0.00072184  1
  Na  Na3  1  0.33450173  0.58098084  0.50072184  1
  Na  Na4  1  0.83450173  0.33098084  0.00072184  1
  Na  Na5  1  0.83450173  0.33098084  0.50072184  1
  Na  Na6  1  0.83450173  0.83098084  0.00072184  1
  Na  Na7  1  0.83450173  0.83098084  0.50072184  1
  Na  Na8  1  0.66549827  0.08098084  0.00072184  1
  Na  Na9  1  0.66549827  0.08098084  0.50072184  1
  Na  Na10  1  0.66549827  0.58098084  0.00072184  1
  Na  Na11  1  0.66549827  0.58098084  0.50072184  1
  Na  Na12  1  1.16549827  0.33098084  0.00072184  1
  Na  Na13  1  1.16549827  0.33098084  0.50072184  1
  Na  Na14  1  1.16549827  0.83098084  0.00072184  1
  Na  Na15  1  1.16549827  0.83098084  0.50072184  1
  Na  Na16  1  0.66549827  -0.08098084  0.25072184  1
  Na  Na17  1  0.66549827  -0.08098084  0.75072184  1
  Na  Na18  1  0.66549827  0.41901916  0.25072184  1
  Na  Na19  1  0.66549827  0.41901916  0.75072184  1
  Na  Na20  1  1.16549827  0.16901916  0.25072184  1
  Na  Na21  1  1.16549827  0.16901916  0.75072184  1
  Na  Na22  1  1.16549827  0.66901916  0.25072184  1
  Na  Na23  1  1.16549827  0.66901916  0.75072184  1
  Na  Na24  1  0.33450173  -0.08098084  0.25072184  1
  Na  Na25  1  0.33450173  -0.08098084  0.75072184  1
  Na  Na26  1  0.33450173  0.41901916  0.25072184  1
  Na  Na27  1  0.33450173  0.41901916  0.75072184  1
  Na  Na28  1  0.83450173  0.16901916  0.25072184  1
  Na  Na29  1  0.83450173  0.16901916  0.75072184  1
  Na  Na30  1  0.83450173  0.66901916  0.25072184  1
  Na  Na31  1  0.83450173  0.66901916  0.75072184  1
  Si  Si32  1  0.50000000  -0.17014585  0.01955241  1
  Si  Si33  1  0.50000000  -0.17014585  0.51955241  1
  Si  Si34  1  0.50000000  0.32985415  0.01955241  1
  Si  Si35  1  0.50000000  0.32985415  0.51955241  1
  Si  Si36  1  1.00000000  0.07985415  0.01955241  1
  Si  Si37  1  1.00000000  0.07985415  0.51955241  1
  Si  Si38  1  1.00000000  0.57985415  0.01955241  1
  Si  Si39  1  1.00000000  0.57985415  0.51955241  1
  Si  Si40  1  0.50000000  0.17014585  0.26955241  1
  Si  Si41  1  0.50000000  0.17014585  0.76955241  1
  Si  Si42  1  0.50000000  0.67014585  0.26955241  1
  Si  Si43  1  0.50000000  0.67014585  0.76955241  1
  Si  Si44  1  1.00000000  0.42014585  0.26955241  1
  Si  Si45  1  1.00000000  0.42014585  0.76955241  1
  Si  Si46  1  1.00000000  0.92014585  0.26955241  1
  Si  Si47  1  1.00000000  0.92014585  0.76955241  1
  O  O48  1  0.50000000  0.20528418  0.44091819  1
  O  O49  1  0.50000000  0.20528418  0.94091819  1
  O  O50  1  0.50000000  0.70528418  0.44091819  1
  O  O51  1  0.50000000  0.70528418  0.94091819  1
  O  O52  1  1.00000000  0.45528418  0.44091819  1
  O  O53  1  1.00000000  0.45528418  0.94091819  1
  O  O54  1  1.00000000  0.95528418  0.44091819  1
  O  O55  1  1.00000000  0.95528418  0.94091819  1
  O  O56  1  0.50000000  -0.20528418  0.19091819  1
  O  O57  1  0.50000000  -0.20528418  0.69091819  1
  O  O58  1  0.50000000  0.29471582  0.19091819  1
  O  O59  1  0.50000000  0.29471582  0.69091819  1
  O  O60  1  1.00000000  0.04471582  0.19091819  1
  O  O61  1  1.00000000  0.04471582  0.69091819  1
  O  O62  1  1.00000000  0.54471582  0.19091819  1
  O  O63  1  1.00000000  0.54471582  0.69091819  1
  O  O64  1  0.63149451  -0.10464440  0.49069311  1
  O  O65  1  0.63149451  -0.10464440  0.99069311  1
  O  O66  1  0.63149451  0.39535560  0.49069311  1
  O  O67  1  0.63149451  0.39535560  0.99069311  1
  O  O68  1  1.13149451  0.14535560  0.49069311  1
  O  O69  1  1.13149451  0.14535560  0.99069311  1
  O  O70  1  1.13149451  0.64535560  0.49069311  1
  O  O71  1  1.13149451  0.64535560  0.99069311  1
  O  O72  1  0.36850549  0.10464440  0.24069311  1
  O  O73  1  0.36850549  0.10464440  0.74069311  1
  O  O74  1  0.36850549  0.60464440  0.24069311  1
  O  O75  1  0.36850549  0.60464440  0.74069311  1
  O  O76  1  0.86850549  0.35464440  0.24069311  1
  O  O77  1  0.86850549  0.35464440  0.74069311  1
  O  O78  1  0.86850549  0.85464440  0.24069311  1
  O  O79  1  0.86850549  0.85464440  0.74069311  1
  O  O80  1  0.36850549  -0.10464440  0.49069311  1
  O  O81  1  0.36850549  -0.10464440  0.99069311  1
  O  O82  1  0.36850549  0.39535560  0.49069311  1
  O  O83  1  0.36850549  0.39535560  0.99069311  1
  O  O84  1  0.86850549  0.14535560  0.49069311  1
  O  O85  1  0.86850549  0.14535560  0.99069311  1
  O  O86  1  0.86850549  0.64535560  0.49069311  1
  O  O87  1  0.86850549  0.64535560  0.99069311  1
  O  O88  1  0.63149451  0.10464440  0.24069311  1
  O  O89  1  0.63149451  0.10464440  0.74069311  1
  O  O90  1  0.63149451  0.60464440  0.24069311  1
  O  O91  1  0.63149451  0.60464440  0.74069311  1
  O  O92  1  1.13149451  0.35464440  0.24069311  1
  O  O93  1  1.13149451  0.35464440  0.74069311  1
  O  O94  1  1.13149451  0.85464440  0.24069311  1
  O  O95  1  1.13149451  0.85464440  0.74069311  1
