# generated using pymatgen
data_NaTaO3
_symmetry_space_group_name_H-M   'P 1'
_cell_length_a   16.55505766
_cell_length_b   15.50332729
_cell_length_c   16.30900667
_cell_angle_alpha   90.00000000
_cell_angle_beta   90.00000000
_cell_angle_gamma   90.00000000
_symmetry_Int_Tables_number   1
_chemical_formula_structural   NaTaO3
_chemical_formula_sum   'Na72 Ta72 O216'
_cell_volume   4185.84481652
_cell_formula_units_Z   72
loop_
 _symmetry_equiv_pos_site_id
 _symmetry_equiv_pos_as_xyz
  1  'x, y, z'
loop_
 _atom_site_type_symbol
 _atom_site_label
 _atom_site_symmetry_multiplicity
 _atom_site_fract_x
 _atom_site_fract_y
 _atom_site_fract_z
 _atom_site_occupancy
  Na  Na0  1  0.32393857  0.37500000  0.33150932  1
  Na  Na1  1  0.32393857  0.37500000  0.66484266  1
  Na  Na2  1  0.32393857  0.37500000  0.99817599  1
  Na  Na3  1  0.32393857  0.87500000  0.33150932  1
  Na  Na4  1  0.32393857  0.87500000  0.66484266  1
  Na  Na5  1  0.32393857  0.87500000  0.99817599  1
  Na  Na6  1  0.65727190  0.37500000  0.33150932  1
  Na  Na7  1  0.65727190  0.37500000  0.66484266  1
  Na  Na8  1  0.65727190  0.37500000  0.99817599  1
  Na  Na9  1  0.65727190  0.87500000  0.33150932  1
  Na  Na10  1  0.65727190  0.87500000  0.66484266  1
  Na  Na11  1  0.65727190  0.87500000  0.99817599  1
  Na  Na12  1  0.99060523  0.37500000  0.33150932  1
  Na  Na13  1  0.99060523  0.37500000  0.66484266  1
  Na  Na14  1  0.99060523  0.37500000  0.99817599  1
  Na  Na15  1  0.99060523  0.87500000  0.33150932  1
  Na  Na16  1  0.99060523  0.87500000  0.66484266  1
  Na  Na17  1  0.99060523  0.87500000  0.99817599  1
  Na  Na18  1  0.00939477  0.12500000  0.00182401  1
  Na  Na19  1  0.00939477  0.12500000  0.33515734  1
  Na  Na20  1  0.00939477  0.12500000  0.66849068  1
  Na  Na21  1  0.00939477  0.62500000  0.00182401  1
  Na  Na22  1  0.00939477  0.62500000  0.33515734  1
  Na  Na23  1  0.00939477  0.62500000  0.66849068  1
  Na  Na24  1  0.34272810  0.12500000  0.00182401  1
  Na  Na25  1  0.34272810  0.12500000  0.33515734  1
  Na  Na26  1  0.34272810  0.12500000  0.66849068  1
  Na  Na27  1  0.34272810  0.62500000  0.00182401  1
  Na  Na28  1  0.34272810  0.62500000  0.33515734  1
  Na  Na29  1  0.34272810  0.62500000  0.66849068  1
  Na  Na30  1  0.67606143  0.12500000  0.00182401  1
  Na  Na31  1  0.67606143  0.12500000  0.33515734  1
  Na  Na32  1  0.67606143  0.12500000  0.66849068  1
  Na  Na33  1  0.67606143  0.62500000  0.00182401  1
  Na  Na34  1  0.67606143  0.62500000  0.33515734  1
  Na  Na35  1  0.67606143  0.62500000  0.66849068  1
  Na  Na36  1  0.15727190  0.37500000  0.16849068  1
  Na  Na37  1  0.15727190  0.37500000  0.50182401  1
  Na  Na38  1  0.15727190  0.37500000  0.83515734  1
  Na  Na39  1  0.15727190  0.87500000  0.16849068  1
  Na  Na40  1  0.15727190  0.87500000  0.50182401  1
  Na  Na41  1  0.15727190  0.87500000  0.83515734  1
  Na  Na42  1  0.49060523  0.37500000  0.16849068  1
  Na  Na43  1  0.49060523  0.37500000  0.50182401  1
  Na  Na44  1  0.49060523  0.37500000  0.83515734  1
  Na  Na45  1  0.49060523  0.87500000  0.16849068  1
  Na  Na46  1  0.49060523  0.87500000  0.50182401  1
  Na  Na47  1  0.49060523  0.87500000  0.83515734  1
  Na  Na48  1  0.82393857  0.37500000  0.16849068  1
  Na  Na49  1  0.82393857  0.37500000  0.50182401  1
  Na  Na50  1  0.82393857  0.37500000  0.83515734  1
  Na  Na51  1  0.82393857  0.87500000  0.16849068  1
  Na  Na52  1  0.82393857  0.87500000  0.50182401  1
  Na  Na53  1  0.82393857  0.87500000  0.83515734  1
  Na  Na54  1  0.17606143  0.12500000  0.16484266  1
  Na  Na55  1  0.17606143  0.12500000  0.49817599  1
  Na  Na56  1  0.17606143  0.12500000  0.83150932  1
  Na  Na57  1  0.17606143  0.62500000  0.16484266  1
  Na  Na58  1  0.17606143  0.62500000  0.49817599  1
  Na  Na59  1  0.17606143  0.62500000  0.83150932  1
  Na  Na60  1  0.50939477  0.12500000  0.16484266  1
  Na  Na61  1  0.50939477  0.12500000  0.49817599  1
  Na  Na62  1  0.50939477  0.12500000  0.83150932  1
  Na  Na63  1  0.50939477  0.62500000  0.16484266  1
  Na  Na64  1  0.50939477  0.62500000  0.49817599  1
  Na  Na65  1  0.50939477  0.62500000  0.83150932  1
  Na  Na66  1  0.84272810  0.12500000  0.16484266  1
  Na  Na67  1  0.84272810  0.12500000  0.49817599  1
  Na  Na68  1  0.84272810  0.12500000  0.83150932  1
  Na  Na69  1  0.84272810  0.62500000  0.16484266  1
  Na  Na70  1  0.84272810  0.62500000  0.49817599  1
  Na  Na71  1  0.84272810  0.62500000  0.83150932  1
  Ta  Ta72  1  0.00000000  0.25000000  0.16666667  1
  Ta  Ta73  1  0.00000000  0.25000000  0.50000000  1
  Ta  Ta74  1  0.00000000  0.25000000  0.83333333  1
  Ta  Ta75  1  0.00000000  0.75000000  0.16666667  1
  Ta  Ta76  1  0.00000000  0.75000000  0.50000000  1
  Ta  Ta77  1  0.00000000  0.75000000  0.83333333  1
  Ta  Ta78  1  0.33333333  0.25000000  0.16666667  1
  Ta  Ta79  1  0.33333333  0.25000000  0.50000000  1
  Ta  Ta80  1  0.33333333  0.25000000  0.83333333  1
  Ta  Ta81  1  0.33333333  0.75000000  0.16666667  1
  Ta  Ta82  1  0.33333333  0.75000000  0.50000000  1
  Ta  Ta83  1  0.33333333  0.75000000  0.83333333  1
  Ta  Ta84  1  0.66666667  0.25000000  0.16666667  1
  Ta  Ta85  1  0.66666667  0.25000000  0.50000000  1
  Ta  Ta86  1  0.66666667  0.25000000  0.83333333  1
  Ta  Ta87  1  0.66666667  0.75000000  0.16666667  1
  Ta  Ta88  1  0.66666667  0.75000000  0.50000000  1
  Ta  Ta89  1  0.66666667  0.75000000  0.83333333  1
  Ta  Ta90  1  0.00000000  0.00000000  0.16666667  1
  Ta  Ta91  1  0.00000000  0.00000000  0.50000000  1
  Ta  Ta92  1  0.00000000  0.00000000  0.83333333  1
  Ta  Ta93  1  0.00000000  0.50000000  0.16666667  1
  Ta  Ta94  1  0.00000000  0.50000000  0.50000000  1
  Ta  Ta95  1  0.00000000  0.50000000  0.83333333  1
  Ta  Ta96  1  0.33333333  0.00000000  0.16666667  1
  Ta  Ta97  1  0.33333333  0.00000000  0.50000000  1
  Ta  Ta98  1  0.33333333  0.00000000  0.83333333  1
  Ta  Ta99  1  0.33333333  0.50000000  0.16666667  1
  Ta  Ta100  1  0.33333333  0.50000000  0.50000000  1
  Ta  Ta101  1  0.33333333  0.50000000  0.83333333  1
  Ta  Ta102  1  0.66666667  0.00000000  0.16666667  1
  Ta  Ta103  1  0.66666667  0.00000000  0.50000000  1
  Ta  Ta104  1  0.66666667  0.00000000  0.83333333  1
  Ta  Ta105  1  0.66666667  0.50000000  0.16666667  1
  Ta  Ta106  1  0.66666667  0.50000000  0.50000000  1
  Ta  Ta107  1  0.66666667  0.50000000  0.83333333  1
  Ta  Ta108  1  0.16666667  0.25000000  0.00000000  1
  Ta  Ta109  1  0.16666667  0.25000000  0.33333333  1
  Ta  Ta110  1  0.16666667  0.25000000  0.66666667  1
  Ta  Ta111  1  0.16666667  0.75000000  0.00000000  1
  Ta  Ta112  1  0.16666667  0.75000000  0.33333333  1
  Ta  Ta113  1  0.16666667  0.75000000  0.66666667  1
  Ta  Ta114  1  0.50000000  0.25000000  0.00000000  1
  Ta  Ta115  1  0.50000000  0.25000000  0.33333333  1
  Ta  Ta116  1  0.50000000  0.25000000  0.66666667  1
  Ta  Ta117  1  0.50000000  0.75000000  0.00000000  1
  Ta  Ta118  1  0.50000000  0.75000000  0.33333333  1
  Ta  Ta119  1  0.50000000  0.75000000  0.66666667  1
  Ta  Ta120  1  0.83333333  0.25000000  0.00000000  1
  Ta  Ta121  1  0.83333333  0.25000000  0.33333333  1
  Ta  Ta122  1  0.83333333  0.25000000  0.66666667  1
  Ta  Ta123  1  0.83333333  0.75000000  0.00000000  1
  Ta  Ta124  1  0.83333333  0.75000000  0.33333333  1
  Ta  Ta125  1  0.83333333  0.75000000  0.66666667  1
  Ta  Ta126  1  0.16666667  0.00000000  0.00000000  1
  Ta  Ta127  1  0.16666667  0.00000000  0.33333333  1
  Ta  Ta128  1  0.16666667  0.00000000  0.66666667  1
  Ta  Ta129  1  0.16666667  0.50000000  0.00000000  1
  Ta  Ta130  1  0.16666667  0.50000000  0.33333333  1
  Ta  Ta131  1  0.16666667  0.50000000  0.66666667  1
  Ta  Ta132  1  0.50000000  0.00000000  0.00000000  1
  Ta  Ta133  1  0.50000000  0.00000000  0.33333333  1
  Ta  Ta134  1  0.50000000  0.00000000  0.66666667  1
  Ta  Ta135  1  0.50000000  0.50000000  0.00000000  1
  Ta  Ta136  1  0.50000000  0.50000000  0.33333333  1
  Ta  Ta137  1  0.50000000  0.50000000  0.66666667  1
  Ta  Ta138  1  0.83333333  0.00000000  0.00000000  1
  Ta  Ta139  1  0.83333333  0.00000000  0.33333333  1
  Ta  Ta140  1  0.83333333  0.00000000  0.66666667  1
  Ta  Ta141  1  0.83333333  0.50000000  0.00000000  1
  Ta  Ta142  1  0.83333333  0.50000000  0.33333333  1
  Ta  Ta143  1  0.83333333  0.50000000  0.66666667  1
  O  O144  1  0.26297367  0.23086256  0.06995107  1
  O  O145  1  0.26297367  0.23086256  0.40328440  1
  O  O146  1  0.26297367  0.23086256  0.73661773  1
  O  O147  1  0.26297367  0.73086256  0.06995107  1
  O  O148  1  0.26297367  0.73086256  0.40328440  1
  O  O149  1  0.26297367  0.73086256  0.73661773  1
  O  O150  1  0.59630701  0.23086256  0.06995107  1
  O  O151  1  0.59630701  0.23086256  0.40328440  1
  O  O152  1  0.59630701  0.23086256  0.73661773  1
  O  O153  1  0.59630701  0.73086256  0.06995107  1
  O  O154  1  0.59630701  0.73086256  0.40328440  1
  O  O155  1  0.59630701  0.73086256  0.73661773  1
  O  O156  1  0.92964034  0.23086256  0.06995107  1
  O  O157  1  0.92964034  0.23086256  0.40328440  1
  O  O158  1  0.92964034  0.23086256  0.73661773  1
  O  O159  1  0.92964034  0.73086256  0.06995107  1
  O  O160  1  0.92964034  0.73086256  0.40328440  1
  O  O161  1  0.92964034  0.73086256  0.73661773  1
  O  O162  1  0.07035966  0.48086256  0.26338227  1
  O  O163  1  0.07035966  0.48086256  0.59671560  1
  O  O164  1  0.07035966  0.48086256  0.93004893  1
  O  O165  1  0.07035966  0.98086256  0.26338227  1
  O  O166  1  0.07035966  0.98086256  0.59671560  1
  O  O167  1  0.07035966  0.98086256  0.93004893  1
  O  O168  1  0.40369299  0.48086256  0.26338227  1
  O  O169  1  0.40369299  0.48086256  0.59671560  1
  O  O170  1  0.40369299  0.48086256  0.93004893  1
  O  O171  1  0.40369299  0.98086256  0.26338227  1
  O  O172  1  0.40369299  0.98086256  0.59671560  1
  O  O173  1  0.40369299  0.98086256  0.93004893  1
  O  O174  1  0.73702633  0.48086256  0.26338227  1
  O  O175  1  0.73702633  0.48086256  0.59671560  1
  O  O176  1  0.73702633  0.48086256  0.93004893  1
  O  O177  1  0.73702633  0.98086256  0.26338227  1
  O  O178  1  0.73702633  0.98086256  0.59671560  1
  O  O179  1  0.73702633  0.98086256  0.93004893  1
  O  O180  1  0.09630701  0.23086256  0.09671560  1
  O  O181  1  0.09630701  0.23086256  0.43004893  1
  O  O182  1  0.09630701  0.23086256  0.76338227  1
  O  O183  1  0.09630701  0.73086256  0.09671560  1
  O  O184  1  0.09630701  0.73086256  0.43004893  1
  O  O185  1  0.09630701  0.73086256  0.76338227  1
  O  O186  1  0.42964034  0.23086256  0.09671560  1
  O  O187  1  0.42964034  0.23086256  0.43004893  1
  O  O188  1  0.42964034  0.23086256  0.76338227  1
  O  O189  1  0.42964034  0.73086256  0.09671560  1
  O  O190  1  0.42964034  0.73086256  0.43004893  1
  O  O191  1  0.42964034  0.73086256  0.76338227  1
  O  O192  1  0.76297367  0.23086256  0.09671560  1
  O  O193  1  0.76297367  0.23086256  0.43004893  1
  O  O194  1  0.76297367  0.23086256  0.76338227  1
  O  O195  1  0.76297367  0.73086256  0.09671560  1
  O  O196  1  0.76297367  0.73086256  0.43004893  1
  O  O197  1  0.76297367  0.73086256  0.76338227  1
  O  O198  1  0.23702633  0.48086256  0.23661773  1
  O  O199  1  0.23702633  0.48086256  0.56995107  1
  O  O200  1  0.23702633  0.48086256  0.90328440  1
  O  O201  1  0.23702633  0.98086256  0.23661773  1
  O  O202  1  0.23702633  0.98086256  0.56995107  1
  O  O203  1  0.23702633  0.98086256  0.90328440  1
  O  O204  1  0.57035966  0.48086256  0.23661773  1
  O  O205  1  0.57035966  0.48086256  0.56995107  1
  O  O206  1  0.57035966  0.48086256  0.90328440  1
  O  O207  1  0.57035966  0.98086256  0.23661773  1
  O  O208  1  0.57035966  0.98086256  0.56995107  1
  O  O209  1  0.57035966  0.98086256  0.90328440  1
  O  O210  1  0.90369299  0.48086256  0.23661773  1
  O  O211  1  0.90369299  0.48086256  0.56995107  1
  O  O212  1  0.90369299  0.48086256  0.90328440  1
  O  O213  1  0.90369299  0.98086256  0.23661773  1
  O  O214  1  0.90369299  0.98086256  0.56995107  1
  O  O215  1  0.90369299  0.98086256  0.90328440  1
  O  O216  1  0.26297367  0.01913744  0.06995107  1
  O  O217  1  0.26297367  0.01913744  0.40328440  1
  O  O218  1  0.26297367  0.01913744  0.73661773  1
  O  O219  1  0.26297367  0.51913744  0.06995107  1
  O  O220  1  0.26297367  0.51913744  0.40328440  1
  O  O221  1  0.26297367  0.51913744  0.73661773  1
  O  O222  1  0.59630701  0.01913744  0.06995107  1
  O  O223  1  0.59630701  0.01913744  0.40328440  1
  O  O224  1  0.59630701  0.01913744  0.73661773  1
  O  O225  1  0.59630701  0.51913744  0.06995107  1
  O  O226  1  0.59630701  0.51913744  0.40328440  1
  O  O227  1  0.59630701  0.51913744  0.73661773  1
  O  O228  1  0.92964034  0.01913744  0.06995107  1
  O  O229  1  0.92964034  0.01913744  0.40328440  1
  O  O230  1  0.92964034  0.01913744  0.73661773  1
  O  O231  1  0.92964034  0.51913744  0.06995107  1
  O  O232  1  0.92964034  0.51913744  0.40328440  1
  O  O233  1  0.92964034  0.51913744  0.73661773  1
  O  O234  1  0.07035966  0.26913744  0.26338227  1
  O  O235  1  0.07035966  0.26913744  0.59671560  1
  O  O236  1  0.07035966  0.26913744  0.93004893  1
  O  O237  1  0.07035966  0.76913744  0.26338227  1
  O  O238  1  0.07035966  0.76913744  0.59671560  1
  O  O239  1  0.07035966  0.76913744  0.93004893  1
  O  O240  1  0.40369299  0.26913744  0.26338227  1
  O  O241  1  0.40369299  0.26913744  0.59671560  1
  O  O242  1  0.40369299  0.26913744  0.93004893  1
  O  O243  1  0.40369299  0.76913744  0.26338227  1
  O  O244  1  0.40369299  0.76913744  0.59671560  1
  O  O245  1  0.40369299  0.76913744  0.93004893  1
  O  O246  1  0.73702633  0.26913744  0.26338227  1
  O  O247  1  0.73702633  0.26913744  0.59671560  1
  O  O248  1  0.73702633  0.26913744  0.93004893  1
  O  O249  1  0.73702633  0.76913744  0.26338227  1
  O  O250  1  0.73702633  0.76913744  0.59671560  1
  O  O251  1  0.73702633  0.76913744  0.93004893  1
  O  O252  1  0.09630701  0.01913744  0.09671560  1
  O  O253  1  0.09630701  0.01913744  0.43004893  1
  O  O254  1  0.09630701  0.01913744  0.76338227  1
  O  O255  1  0.09630701  0.51913744  0.09671560  1
  O  O256  1  0.09630701  0.51913744  0.43004893  1
  O  O257  1  0.09630701  0.51913744  0.76338227  1
  O  O258  1  0.42964034  0.01913744  0.09671560  1
  O  O259  1  0.42964034  0.01913744  0.43004893  1
  O  O260  1  0.42964034  0.01913744  0.76338227  1
  O  O261  1  0.42964034  0.51913744  0.09671560  1
  O  O262  1  0.42964034  0.51913744  0.43004893  1
  O  O263  1  0.42964034  0.51913744  0.76338227  1
  O  O264  1  0.76297367  0.01913744  0.09671560  1
  O  O265  1  0.76297367  0.01913744  0.43004893  1
  O  O266  1  0.76297367  0.01913744  0.76338227  1
  O  O267  1  0.76297367  0.51913744  0.09671560  1
  O  O268  1  0.76297367  0.51913744  0.43004893  1
  O  O269  1  0.76297367  0.51913744  0.76338227  1
  O  O270  1  0.23702633  0.26913744  0.23661773  1
  O  O271  1  0.23702633  0.26913744  0.56995107  1
  O  O272  1  0.23702633  0.26913744  0.90328440  1
  O  O273  1  0.23702633  0.76913744  0.23661773  1
  O  O274  1  0.23702633  0.76913744  0.56995107  1
  O  O275  1  0.23702633  0.76913744  0.90328440  1
  O  O276  1  0.57035966  0.26913744  0.23661773  1
  O  O277  1  0.57035966  0.26913744  0.56995107  1
  O  O278  1  0.57035966  0.26913744  0.90328440  1
  O  O279  1  0.57035966  0.76913744  0.23661773  1
  O  O280  1  0.57035966  0.76913744  0.56995107  1
  O  O281  1  0.57035966  0.76913744  0.90328440  1
  O  O282  1  0.90369299  0.26913744  0.23661773  1
  O  O283  1  0.90369299  0.26913744  0.56995107  1
  O  O284  1  0.90369299  0.26913744  0.90328440  1
  O  O285  1  0.90369299  0.76913744  0.23661773  1
  O  O286  1  0.90369299  0.76913744  0.56995107  1
  O  O287  1  0.90369299  0.76913744  0.90328440  1
  O  O288  1  0.17199977  0.37500000  0.02481765  1
  O  O289  1  0.17199977  0.37500000  0.35815099  1
  O  O290  1  0.17199977  0.37500000  0.69148432  1
  O  O291  1  0.17199977  0.87500000  0.02481765  1
  O  O292  1  0.17199977  0.87500000  0.35815099  1
  O  O293  1  0.17199977  0.87500000  0.69148432  1
  O  O294  1  0.50533310  0.37500000  0.02481765  1
  O  O295  1  0.50533310  0.37500000  0.35815099  1
  O  O296  1  0.50533310  0.37500000  0.69148432  1
  O  O297  1  0.50533310  0.87500000  0.02481765  1
  O  O298  1  0.50533310  0.87500000  0.35815099  1
  O  O299  1  0.50533310  0.87500000  0.69148432  1
  O  O300  1  0.83866643  0.37500000  0.02481765  1
  O  O301  1  0.83866643  0.37500000  0.35815099  1
  O  O302  1  0.83866643  0.37500000  0.69148432  1
  O  O303  1  0.83866643  0.87500000  0.02481765  1
  O  O304  1  0.83866643  0.87500000  0.35815099  1
  O  O305  1  0.83866643  0.87500000  0.69148432  1
  O  O306  1  0.16133357  0.12500000  0.30851568  1
  O  O307  1  0.16133357  0.12500000  0.64184901  1
  O  O308  1  0.16133357  0.12500000  0.97518235  1
  O  O309  1  0.16133357  0.62500000  0.30851568  1
  O  O310  1  0.16133357  0.62500000  0.64184901  1
  O  O311  1  0.16133357  0.62500000  0.97518235  1
  O  O312  1  0.49466690  0.12500000  0.30851568  1
  O  O313  1  0.49466690  0.12500000  0.64184901  1
  O  O314  1  0.49466690  0.12500000  0.97518235  1
  O  O315  1  0.49466690  0.62500000  0.30851568  1
  O  O316  1  0.49466690  0.62500000  0.64184901  1
  O  O317  1  0.49466690  0.62500000  0.97518235  1
  O  O318  1  0.82800023  0.12500000  0.30851568  1
  O  O319  1  0.82800023  0.12500000  0.64184901  1
  O  O320  1  0.82800023  0.12500000  0.97518235  1
  O  O321  1  0.82800023  0.62500000  0.30851568  1
  O  O322  1  0.82800023  0.62500000  0.64184901  1
  O  O323  1  0.82800023  0.62500000  0.97518235  1
  O  O324  1  0.00533310  0.37500000  0.14184901  1
  O  O325  1  0.00533310  0.37500000  0.47518235  1
  O  O326  1  0.00533310  0.37500000  0.80851568  1
  O  O327  1  0.00533310  0.87500000  0.14184901  1
  O  O328  1  0.00533310  0.87500000  0.47518235  1
  O  O329  1  0.00533310  0.87500000  0.80851568  1
  O  O330  1  0.33866643  0.37500000  0.14184901  1
  O  O331  1  0.33866643  0.37500000  0.47518235  1
  O  O332  1  0.33866643  0.37500000  0.80851568  1
  O  O333  1  0.33866643  0.87500000  0.14184901  1
  O  O334  1  0.33866643  0.87500000  0.47518235  1
  O  O335  1  0.33866643  0.87500000  0.80851568  1
  O  O336  1  0.67199977  0.37500000  0.14184901  1
  O  O337  1  0.67199977  0.37500000  0.47518235  1
  O  O338  1  0.67199977  0.37500000  0.80851568  1
  O  O339  1  0.67199977  0.87500000  0.14184901  1
  O  O340  1  0.67199977  0.87500000  0.47518235  1
  O  O341  1  0.67199977  0.87500000  0.80851568  1
  O  O342  1  0.32800023  0.12500000  0.19148432  1
  O  O343  1  0.32800023  0.12500000  0.52481765  1
  O  O344  1  0.32800023  0.12500000  0.85815099  1
  O  O345  1  0.32800023  0.62500000  0.19148432  1
  O  O346  1  0.32800023  0.62500000  0.52481765  1
  O  O347  1  0.32800023  0.62500000  0.85815099  1
  O  O348  1  0.66133357  0.12500000  0.19148432  1
  O  O349  1  0.66133357  0.12500000  0.52481765  1
  O  O350  1  0.66133357  0.12500000  0.85815099  1
  O  O351  1  0.66133357  0.62500000  0.19148432  1
  O  O352  1  0.66133357  0.62500000  0.52481765  1
  O  O353  1  0.66133357  0.62500000  0.85815099  1
  O  O354  1  0.99466690  0.12500000  0.19148432  1
  O  O355  1  0.99466690  0.12500000  0.52481765  1
  O  O356  1  0.99466690  0.12500000  0.85815099  1
  O  O357  1  0.99466690  0.62500000  0.19148432  1
  O  O358  1  0.99466690  0.62500000  0.52481765  1
  O  O359  1  0.99466690  0.62500000  0.85815099  1
