# generated using pymatgen
data_Ba2Ca(BO3)2
_symmetry_space_group_name_H-M   'P 1'
_cell_length_a   19.33718270
_cell_length_b   16.30175878
_cell_length_c   19.79646216
_cell_angle_alpha   90.00000000
_cell_angle_beta   119.79755206
_cell_angle_gamma   90.00000000
_symmetry_Int_Tables_number   1
_chemical_formula_structural   Ba2Ca(BO3)2
_chemical_formula_sum   'Ba72 Ca36 B72 O216'
_cell_volume   5415.37118260
_cell_formula_units_Z   36
loop_
 _symmetry_equiv_pos_site_id
 _symmetry_equiv_pos_as_xyz
  1  'x, y, z'
loop_
 _atom_site_type_symbol
 _atom_site_label
 _atom_site_symmetry_multiplicity
 _atom_site_fract_x
 _atom_site_fract_y
 _atom_site_fract_z
 _atom_site_occupancy
  Ba  Ba0  1  0.10572264  -0.00000000  0.22852726  1
  Ba  Ba1  1  0.10572264  -0.00000000  0.56186060  1
  Ba  Ba2  1  0.10572264  -0.00000000  0.89519393  1
  Ba  Ba3  1  0.10572264  0.33333333  0.22852726  1
  Ba  Ba4  1  0.10572264  0.33333333  0.56186060  1
  Ba  Ba5  1  0.10572264  0.33333333  0.89519393  1
  Ba  Ba6  1  0.10572264  0.66666667  0.22852726  1
  Ba  Ba7  1  0.10572264  0.66666667  0.56186060  1
  Ba  Ba8  1  0.10572264  0.66666667  0.89519393  1
  Ba  Ba9  1  0.60572264  -0.00000000  0.22852726  1
  Ba  Ba10  1  0.60572264  -0.00000000  0.56186060  1
  Ba  Ba11  1  0.60572264  -0.00000000  0.89519393  1
  Ba  Ba12  1  0.60572264  0.33333333  0.22852726  1
  Ba  Ba13  1  0.60572264  0.33333333  0.56186060  1
  Ba  Ba14  1  0.60572264  0.33333333  0.89519393  1
  Ba  Ba15  1  0.60572264  0.66666667  0.22852726  1
  Ba  Ba16  1  0.60572264  0.66666667  0.56186060  1
  Ba  Ba17  1  0.60572264  0.66666667  0.89519393  1
  Ba  Ba18  1  0.35572264  0.16666667  0.22852726  1
  Ba  Ba19  1  0.35572264  0.16666667  0.56186060  1
  Ba  Ba20  1  0.35572264  0.16666667  0.89519393  1
  Ba  Ba21  1  0.35572264  0.50000000  0.22852726  1
  Ba  Ba22  1  0.35572264  0.50000000  0.56186060  1
  Ba  Ba23  1  0.35572264  0.50000000  0.89519393  1
  Ba  Ba24  1  0.35572264  0.83333333  0.22852726  1
  Ba  Ba25  1  0.35572264  0.83333333  0.56186060  1
  Ba  Ba26  1  0.35572264  0.83333333  0.89519393  1
  Ba  Ba27  1  0.85572264  0.16666667  0.22852726  1
  Ba  Ba28  1  0.85572264  0.16666667  0.56186060  1
  Ba  Ba29  1  0.85572264  0.16666667  0.89519393  1
  Ba  Ba30  1  0.85572264  0.50000000  0.22852726  1
  Ba  Ba31  1  0.85572264  0.50000000  0.56186060  1
  Ba  Ba32  1  0.85572264  0.50000000  0.89519393  1
  Ba  Ba33  1  0.85572264  0.83333333  0.22852726  1
  Ba  Ba34  1  0.85572264  0.83333333  0.56186060  1
  Ba  Ba35  1  0.85572264  0.83333333  0.89519393  1
  Ba  Ba36  1  0.39427736  0.00000000  0.10480607  1
  Ba  Ba37  1  0.39427736  0.00000000  0.43813940  1
  Ba  Ba38  1  0.39427736  0.00000000  0.77147274  1
  Ba  Ba39  1  0.39427736  0.33333333  0.10480607  1
  Ba  Ba40  1  0.39427736  0.33333333  0.43813940  1
  Ba  Ba41  1  0.39427736  0.33333333  0.77147274  1
  Ba  Ba42  1  0.39427736  0.66666667  0.10480607  1
  Ba  Ba43  1  0.39427736  0.66666667  0.43813940  1
  Ba  Ba44  1  0.39427736  0.66666667  0.77147274  1
  Ba  Ba45  1  0.89427736  0.00000000  0.10480607  1
  Ba  Ba46  1  0.89427736  0.00000000  0.43813940  1
  Ba  Ba47  1  0.89427736  0.00000000  0.77147274  1
  Ba  Ba48  1  0.89427736  0.33333333  0.10480607  1
  Ba  Ba49  1  0.89427736  0.33333333  0.43813940  1
  Ba  Ba50  1  0.89427736  0.33333333  0.77147274  1
  Ba  Ba51  1  0.89427736  0.66666667  0.10480607  1
  Ba  Ba52  1  0.89427736  0.66666667  0.43813940  1
  Ba  Ba53  1  0.89427736  0.66666667  0.77147274  1
  Ba  Ba54  1  0.64427736  0.16666667  0.10480607  1
  Ba  Ba55  1  0.64427736  0.16666667  0.43813940  1
  Ba  Ba56  1  0.64427736  0.16666667  0.77147274  1
  Ba  Ba57  1  0.64427736  0.50000000  0.10480607  1
  Ba  Ba58  1  0.64427736  0.50000000  0.43813940  1
  Ba  Ba59  1  0.64427736  0.50000000  0.77147274  1
  Ba  Ba60  1  0.64427736  0.83333333  0.10480607  1
  Ba  Ba61  1  0.64427736  0.83333333  0.43813940  1
  Ba  Ba62  1  0.64427736  0.83333333  0.77147274  1
  Ba  Ba63  1  1.14427736  0.16666667  0.10480607  1
  Ba  Ba64  1  1.14427736  0.16666667  0.43813940  1
  Ba  Ba65  1  1.14427736  0.16666667  0.77147274  1
  Ba  Ba66  1  1.14427736  0.50000000  0.10480607  1
  Ba  Ba67  1  1.14427736  0.50000000  0.43813940  1
  Ba  Ba68  1  1.14427736  0.50000000  0.77147274  1
  Ba  Ba69  1  1.14427736  0.83333333  0.10480607  1
  Ba  Ba70  1  1.14427736  0.83333333  0.43813940  1
  Ba  Ba71  1  1.14427736  0.83333333  0.77147274  1
  Ca  Ca72  1  0.00000000  0.00000000  0.00000000  1
  Ca  Ca73  1  0.00000000  0.00000000  0.33333333  1
  Ca  Ca74  1  0.00000000  0.00000000  0.66666667  1
  Ca  Ca75  1  0.00000000  0.33333333  0.00000000  1
  Ca  Ca76  1  0.00000000  0.33333333  0.33333333  1
  Ca  Ca77  1  0.00000000  0.33333333  0.66666667  1
  Ca  Ca78  1  0.00000000  0.66666667  0.00000000  1
  Ca  Ca79  1  0.00000000  0.66666667  0.33333333  1
  Ca  Ca80  1  0.00000000  0.66666667  0.66666667  1
  Ca  Ca81  1  0.50000000  0.00000000  0.00000000  1
  Ca  Ca82  1  0.50000000  0.00000000  0.33333333  1
  Ca  Ca83  1  0.50000000  0.00000000  0.66666667  1
  Ca  Ca84  1  0.50000000  0.33333333  0.00000000  1
  Ca  Ca85  1  0.50000000  0.33333333  0.33333333  1
  Ca  Ca86  1  0.50000000  0.33333333  0.66666667  1
  Ca  Ca87  1  0.50000000  0.66666667  0.00000000  1
  Ca  Ca88  1  0.50000000  0.66666667  0.33333333  1
  Ca  Ca89  1  0.50000000  0.66666667  0.66666667  1
  Ca  Ca90  1  0.25000000  0.16666667  0.00000000  1
  Ca  Ca91  1  0.25000000  0.16666667  0.33333333  1
  Ca  Ca92  1  0.25000000  0.16666667  0.66666667  1
  Ca  Ca93  1  0.25000000  0.50000000  0.00000000  1
  Ca  Ca94  1  0.25000000  0.50000000  0.33333333  1
  Ca  Ca95  1  0.25000000  0.50000000  0.66666667  1
  Ca  Ca96  1  0.25000000  0.83333333  0.00000000  1
  Ca  Ca97  1  0.25000000  0.83333333  0.33333333  1
  Ca  Ca98  1  0.25000000  0.83333333  0.66666667  1
  Ca  Ca99  1  0.75000000  0.16666667  0.00000000  1
  Ca  Ca100  1  0.75000000  0.16666667  0.33333333  1
  Ca  Ca101  1  0.75000000  0.16666667  0.66666667  1
  Ca  Ca102  1  0.75000000  0.50000000  0.00000000  1
  Ca  Ca103  1  0.75000000  0.50000000  0.33333333  1
  Ca  Ca104  1  0.75000000  0.50000000  0.66666667  1
  Ca  Ca105  1  0.75000000  0.83333333  0.00000000  1
  Ca  Ca106  1  0.75000000  0.83333333  0.33333333  1
  Ca  Ca107  1  0.75000000  0.83333333  0.66666667  1
  B  B108  1  0.28109700  0.00000000  0.25148674  1
  B  B109  1  0.28109700  0.00000000  0.58482008  1
  B  B110  1  0.28109700  0.00000000  0.91815341  1
  B  B111  1  0.28109700  0.33333333  0.25148674  1
  B  B112  1  0.28109700  0.33333333  0.58482008  1
  B  B113  1  0.28109700  0.33333333  0.91815341  1
  B  B114  1  0.28109700  0.66666667  0.25148674  1
  B  B115  1  0.28109700  0.66666667  0.58482008  1
  B  B116  1  0.28109700  0.66666667  0.91815341  1
  B  B117  1  0.78109700  0.00000000  0.25148674  1
  B  B118  1  0.78109700  0.00000000  0.58482008  1
  B  B119  1  0.78109700  0.00000000  0.91815341  1
  B  B120  1  0.78109700  0.33333333  0.25148674  1
  B  B121  1  0.78109700  0.33333333  0.58482008  1
  B  B122  1  0.78109700  0.33333333  0.91815341  1
  B  B123  1  0.78109700  0.66666667  0.25148674  1
  B  B124  1  0.78109700  0.66666667  0.58482008  1
  B  B125  1  0.78109700  0.66666667  0.91815341  1
  B  B126  1  0.53109700  0.16666667  0.25148674  1
  B  B127  1  0.53109700  0.16666667  0.58482008  1
  B  B128  1  0.53109700  0.16666667  0.91815341  1
  B  B129  1  0.53109700  0.50000000  0.25148674  1
  B  B130  1  0.53109700  0.50000000  0.58482008  1
  B  B131  1  0.53109700  0.50000000  0.91815341  1
  B  B132  1  0.53109700  0.83333333  0.25148674  1
  B  B133  1  0.53109700  0.83333333  0.58482008  1
  B  B134  1  0.53109700  0.83333333  0.91815341  1
  B  B135  1  1.03109700  0.16666667  0.25148674  1
  B  B136  1  1.03109700  0.16666667  0.58482008  1
  B  B137  1  1.03109700  0.16666667  0.91815341  1
  B  B138  1  1.03109700  0.50000000  0.25148674  1
  B  B139  1  1.03109700  0.50000000  0.58482008  1
  B  B140  1  1.03109700  0.50000000  0.91815341  1
  B  B141  1  1.03109700  0.83333333  0.25148674  1
  B  B142  1  1.03109700  0.83333333  0.58482008  1
  B  B143  1  1.03109700  0.83333333  0.91815341  1
  B  B144  1  0.21890300  -0.00000000  0.08184659  1
  B  B145  1  0.21890300  -0.00000000  0.41517992  1
  B  B146  1  0.21890300  -0.00000000  0.74851326  1
  B  B147  1  0.21890300  0.33333333  0.08184659  1
  B  B148  1  0.21890300  0.33333333  0.41517992  1
  B  B149  1  0.21890300  0.33333333  0.74851326  1
  B  B150  1  0.21890300  0.66666667  0.08184659  1
  B  B151  1  0.21890300  0.66666667  0.41517992  1
  B  B152  1  0.21890300  0.66666667  0.74851326  1
  B  B153  1  0.71890300  -0.00000000  0.08184659  1
  B  B154  1  0.71890300  -0.00000000  0.41517992  1
  B  B155  1  0.71890300  -0.00000000  0.74851326  1
  B  B156  1  0.71890300  0.33333333  0.08184659  1
  B  B157  1  0.71890300  0.33333333  0.41517992  1
  B  B158  1  0.71890300  0.33333333  0.74851326  1
  B  B159  1  0.71890300  0.66666667  0.08184659  1
  B  B160  1  0.71890300  0.66666667  0.41517992  1
  B  B161  1  0.71890300  0.66666667  0.74851326  1
  B  B162  1  0.46890300  0.16666667  0.08184659  1
  B  B163  1  0.46890300  0.16666667  0.41517992  1
  B  B164  1  0.46890300  0.16666667  0.74851326  1
  B  B165  1  0.46890300  0.50000000  0.08184659  1
  B  B166  1  0.46890300  0.50000000  0.41517992  1
  B  B167  1  0.46890300  0.50000000  0.74851326  1
  B  B168  1  0.46890300  0.83333333  0.08184659  1
  B  B169  1  0.46890300  0.83333333  0.41517992  1
  B  B170  1  0.46890300  0.83333333  0.74851326  1
  B  B171  1  0.96890300  0.16666667  0.08184659  1
  B  B172  1  0.96890300  0.16666667  0.41517992  1
  B  B173  1  0.96890300  0.16666667  0.74851326  1
  B  B174  1  0.96890300  0.50000000  0.08184659  1
  B  B175  1  0.96890300  0.50000000  0.41517992  1
  B  B176  1  0.96890300  0.50000000  0.74851326  1
  B  B177  1  0.96890300  0.83333333  0.08184659  1
  B  B178  1  0.96890300  0.83333333  0.41517992  1
  B  B179  1  0.96890300  0.83333333  0.74851326  1
  O  O180  1  0.36182592  0.00000000  0.27546262  1
  O  O181  1  0.36182592  0.00000000  0.60879596  1
  O  O182  1  0.36182592  0.00000000  0.94212929  1
  O  O183  1  0.36182592  0.33333333  0.27546262  1
  O  O184  1  0.36182592  0.33333333  0.60879596  1
  O  O185  1  0.36182592  0.33333333  0.94212929  1
  O  O186  1  0.36182592  0.66666667  0.27546262  1
  O  O187  1  0.36182592  0.66666667  0.60879596  1
  O  O188  1  0.36182592  0.66666667  0.94212929  1
  O  O189  1  0.86182592  0.00000000  0.27546262  1
  O  O190  1  0.86182592  0.00000000  0.60879596  1
  O  O191  1  0.86182592  0.00000000  0.94212929  1
  O  O192  1  0.86182592  0.33333333  0.27546262  1
  O  O193  1  0.86182592  0.33333333  0.60879596  1
  O  O194  1  0.86182592  0.33333333  0.94212929  1
  O  O195  1  0.86182592  0.66666667  0.27546262  1
  O  O196  1  0.86182592  0.66666667  0.60879596  1
  O  O197  1  0.86182592  0.66666667  0.94212929  1
  O  O198  1  0.61182592  0.16666667  0.27546262  1
  O  O199  1  0.61182592  0.16666667  0.60879596  1
  O  O200  1  0.61182592  0.16666667  0.94212929  1
  O  O201  1  0.61182592  0.50000000  0.27546262  1
  O  O202  1  0.61182592  0.50000000  0.60879596  1
  O  O203  1  0.61182592  0.50000000  0.94212929  1
  O  O204  1  0.61182592  0.83333333  0.27546262  1
  O  O205  1  0.61182592  0.83333333  0.60879596  1
  O  O206  1  0.61182592  0.83333333  0.94212929  1
  O  O207  1  1.11182592  0.16666667  0.27546262  1
  O  O208  1  1.11182592  0.16666667  0.60879596  1
  O  O209  1  1.11182592  0.16666667  0.94212929  1
  O  O210  1  1.11182592  0.50000000  0.27546262  1
  O  O211  1  1.11182592  0.50000000  0.60879596  1
  O  O212  1  1.11182592  0.50000000  0.94212929  1
  O  O213  1  1.11182592  0.83333333  0.27546262  1
  O  O214  1  1.11182592  0.83333333  0.60879596  1
  O  O215  1  1.11182592  0.83333333  0.94212929  1
  O  O216  1  0.25946058  0.07366811  0.09152553  1
  O  O217  1  0.25946058  0.07366811  0.42485886  1
  O  O218  1  0.25946058  0.07366811  0.75819220  1
  O  O219  1  0.25946058  0.40700144  0.09152553  1
  O  O220  1  0.25946058  0.40700144  0.42485886  1
  O  O221  1  0.25946058  0.40700144  0.75819220  1
  O  O222  1  0.25946058  0.74033478  0.09152553  1
  O  O223  1  0.25946058  0.74033478  0.42485886  1
  O  O224  1  0.25946058  0.74033478  0.75819220  1
  O  O225  1  0.75946058  0.07366811  0.09152553  1
  O  O226  1  0.75946058  0.07366811  0.42485886  1
  O  O227  1  0.75946058  0.07366811  0.75819220  1
  O  O228  1  0.75946058  0.40700144  0.09152553  1
  O  O229  1  0.75946058  0.40700144  0.42485886  1
  O  O230  1  0.75946058  0.40700144  0.75819220  1
  O  O231  1  0.75946058  0.74033478  0.09152553  1
  O  O232  1  0.75946058  0.74033478  0.42485886  1
  O  O233  1  0.75946058  0.74033478  0.75819220  1
  O  O234  1  0.50946058  0.24033478  0.09152553  1
  O  O235  1  0.50946058  0.24033478  0.42485886  1
  O  O236  1  0.50946058  0.24033478  0.75819220  1
  O  O237  1  0.50946058  0.57366811  0.09152553  1
  O  O238  1  0.50946058  0.57366811  0.42485886  1
  O  O239  1  0.50946058  0.57366811  0.75819220  1
  O  O240  1  0.50946058  0.90700144  0.09152553  1
  O  O241  1  0.50946058  0.90700144  0.42485886  1
  O  O242  1  0.50946058  0.90700144  0.75819220  1
  O  O243  1  1.00946058  0.24033478  0.09152553  1
  O  O244  1  1.00946058  0.24033478  0.42485886  1
  O  O245  1  1.00946058  0.24033478  0.75819220  1
  O  O246  1  1.00946058  0.57366811  0.09152553  1
  O  O247  1  1.00946058  0.57366811  0.42485886  1
  O  O248  1  1.00946058  0.57366811  0.75819220  1
  O  O249  1  1.00946058  0.90700144  0.09152553  1
  O  O250  1  1.00946058  0.90700144  0.42485886  1
  O  O251  1  1.00946058  0.90700144  0.75819220  1
  O  O252  1  0.24053942  0.07366811  0.24180780  1
  O  O253  1  0.24053942  0.07366811  0.57514114  1
  O  O254  1  0.24053942  0.07366811  0.90847447  1
  O  O255  1  0.24053942  0.40700144  0.24180780  1
  O  O256  1  0.24053942  0.40700144  0.57514114  1
  O  O257  1  0.24053942  0.40700144  0.90847447  1
  O  O258  1  0.24053942  0.74033478  0.24180780  1
  O  O259  1  0.24053942  0.74033478  0.57514114  1
  O  O260  1  0.24053942  0.74033478  0.90847447  1
  O  O261  1  0.74053942  0.07366811  0.24180780  1
  O  O262  1  0.74053942  0.07366811  0.57514114  1
  O  O263  1  0.74053942  0.07366811  0.90847447  1
  O  O264  1  0.74053942  0.40700144  0.24180780  1
  O  O265  1  0.74053942  0.40700144  0.57514114  1
  O  O266  1  0.74053942  0.40700144  0.90847447  1
  O  O267  1  0.74053942  0.74033478  0.24180780  1
  O  O268  1  0.74053942  0.74033478  0.57514114  1
  O  O269  1  0.74053942  0.74033478  0.90847447  1
  O  O270  1  0.49053942  0.24033478  0.24180780  1
  O  O271  1  0.49053942  0.24033478  0.57514114  1
  O  O272  1  0.49053942  0.24033478  0.90847447  1
  O  O273  1  0.49053942  0.57366811  0.24180780  1
  O  O274  1  0.49053942  0.57366811  0.57514114  1
  O  O275  1  0.49053942  0.57366811  0.90847447  1
  O  O276  1  0.49053942  0.90700144  0.24180780  1
  O  O277  1  0.49053942  0.90700144  0.57514114  1
  O  O278  1  0.49053942  0.90700144  0.90847447  1
  O  O279  1  0.99053942  0.24033478  0.24180780  1
  O  O280  1  0.99053942  0.24033478  0.57514114  1
  O  O281  1  0.99053942  0.24033478  0.90847447  1
  O  O282  1  0.99053942  0.57366811  0.24180780  1
  O  O283  1  0.99053942  0.57366811  0.57514114  1
  O  O284  1  0.99053942  0.57366811  0.90847447  1
  O  O285  1  0.99053942  0.90700144  0.24180780  1
  O  O286  1  0.99053942  0.90700144  0.57514114  1
  O  O287  1  0.99053942  0.90700144  0.90847447  1
  O  O288  1  0.13817408  0.00000000  0.05787071  1
  O  O289  1  0.13817408  0.00000000  0.39120404  1
  O  O290  1  0.13817408  0.00000000  0.72453738  1
  O  O291  1  0.13817408  0.33333333  0.05787071  1
  O  O292  1  0.13817408  0.33333333  0.39120404  1
  O  O293  1  0.13817408  0.33333333  0.72453738  1
  O  O294  1  0.13817408  0.66666667  0.05787071  1
  O  O295  1  0.13817408  0.66666667  0.39120404  1
  O  O296  1  0.13817408  0.66666667  0.72453738  1
  O  O297  1  0.63817408  0.00000000  0.05787071  1
  O  O298  1  0.63817408  0.00000000  0.39120404  1
  O  O299  1  0.63817408  0.00000000  0.72453738  1
  O  O300  1  0.63817408  0.33333333  0.05787071  1
  O  O301  1  0.63817408  0.33333333  0.39120404  1
  O  O302  1  0.63817408  0.33333333  0.72453738  1
  O  O303  1  0.63817408  0.66666667  0.05787071  1
  O  O304  1  0.63817408  0.66666667  0.39120404  1
  O  O305  1  0.63817408  0.66666667  0.72453738  1
  O  O306  1  0.38817408  0.16666667  0.05787071  1
  O  O307  1  0.38817408  0.16666667  0.39120404  1
  O  O308  1  0.38817408  0.16666667  0.72453738  1
  O  O309  1  0.38817408  0.50000000  0.05787071  1
  O  O310  1  0.38817408  0.50000000  0.39120404  1
  O  O311  1  0.38817408  0.50000000  0.72453738  1
  O  O312  1  0.38817408  0.83333333  0.05787071  1
  O  O313  1  0.38817408  0.83333333  0.39120404  1
  O  O314  1  0.38817408  0.83333333  0.72453738  1
  O  O315  1  0.88817408  0.16666667  0.05787071  1
  O  O316  1  0.88817408  0.16666667  0.39120404  1
  O  O317  1  0.88817408  0.16666667  0.72453738  1
  O  O318  1  0.88817408  0.50000000  0.05787071  1
  O  O319  1  0.88817408  0.50000000  0.39120404  1
  O  O320  1  0.88817408  0.50000000  0.72453738  1
  O  O321  1  0.88817408  0.83333333  0.05787071  1
  O  O322  1  0.88817408  0.83333333  0.39120404  1
  O  O323  1  0.88817408  0.83333333  0.72453738  1
  O  O324  1  0.25946058  -0.07366811  0.09152553  1
  O  O325  1  0.25946058  -0.07366811  0.42485886  1
  O  O326  1  0.25946058  -0.07366811  0.75819220  1
  O  O327  1  0.25946058  0.25966522  0.09152553  1
  O  O328  1  0.25946058  0.25966522  0.42485886  1
  O  O329  1  0.25946058  0.25966522  0.75819220  1
  O  O330  1  0.25946058  0.59299856  0.09152553  1
  O  O331  1  0.25946058  0.59299856  0.42485886  1
  O  O332  1  0.25946058  0.59299856  0.75819220  1
  O  O333  1  0.75946058  -0.07366811  0.09152553  1
  O  O334  1  0.75946058  -0.07366811  0.42485886  1
  O  O335  1  0.75946058  -0.07366811  0.75819220  1
  O  O336  1  0.75946058  0.25966522  0.09152553  1
  O  O337  1  0.75946058  0.25966522  0.42485886  1
  O  O338  1  0.75946058  0.25966522  0.75819220  1
  O  O339  1  0.75946058  0.59299856  0.09152553  1
  O  O340  1  0.75946058  0.59299856  0.42485886  1
  O  O341  1  0.75946058  0.59299856  0.75819220  1
  O  O342  1  0.50946058  0.09299856  0.09152553  1
  O  O343  1  0.50946058  0.09299856  0.42485886  1
  O  O344  1  0.50946058  0.09299856  0.75819220  1
  O  O345  1  0.50946058  0.42633189  0.09152553  1
  O  O346  1  0.50946058  0.42633189  0.42485886  1
  O  O347  1  0.50946058  0.42633189  0.75819220  1
  O  O348  1  0.50946058  0.75966522  0.09152553  1
  O  O349  1  0.50946058  0.75966522  0.42485886  1
  O  O350  1  0.50946058  0.75966522  0.75819220  1
  O  O351  1  1.00946058  0.09299856  0.09152553  1
  O  O352  1  1.00946058  0.09299856  0.42485886  1
  O  O353  1  1.00946058  0.09299856  0.75819220  1
  O  O354  1  1.00946058  0.42633189  0.09152553  1
  O  O355  1  1.00946058  0.42633189  0.42485886  1
  O  O356  1  1.00946058  0.42633189  0.75819220  1
  O  O357  1  1.00946058  0.75966522  0.09152553  1
  O  O358  1  1.00946058  0.75966522  0.42485886  1
  O  O359  1  1.00946058  0.75966522  0.75819220  1
  O  O360  1  0.24053942  -0.07366811  0.24180780  1
  O  O361  1  0.24053942  -0.07366811  0.57514114  1
  O  O362  1  0.24053942  -0.07366811  0.90847447  1
  O  O363  1  0.24053942  0.25966522  0.24180780  1
  O  O364  1  0.24053942  0.25966522  0.57514114  1
  O  O365  1  0.24053942  0.25966522  0.90847447  1
  O  O366  1  0.24053942  0.59299856  0.24180780  1
  O  O367  1  0.24053942  0.59299856  0.57514114  1
  O  O368  1  0.24053942  0.59299856  0.90847447  1
  O  O369  1  0.74053942  -0.07366811  0.24180780  1
  O  O370  1  0.74053942  -0.07366811  0.57514114  1
  O  O371  1  0.74053942  -0.07366811  0.90847447  1
  O  O372  1  0.74053942  0.25966522  0.24180780  1
  O  O373  1  0.74053942  0.25966522  0.57514114  1
  O  O374  1  0.74053942  0.25966522  0.90847447  1
  O  O375  1  0.74053942  0.59299856  0.24180780  1
  O  O376  1  0.74053942  0.59299856  0.57514114  1
  O  O377  1  0.74053942  0.59299856  0.90847447  1
  O  O378  1  0.49053942  0.09299856  0.24180780  1
  O  O379  1  0.49053942  0.09299856  0.57514114  1
  O  O380  1  0.49053942  0.09299856  0.90847447  1
  O  O381  1  0.49053942  0.42633189  0.24180780  1
  O  O382  1  0.49053942  0.42633189  0.57514114  1
  O  O383  1  0.49053942  0.42633189  0.90847447  1
  O  O384  1  0.49053942  0.75966522  0.24180780  1
  O  O385  1  0.49053942  0.75966522  0.57514114  1
  O  O386  1  0.49053942  0.75966522  0.90847447  1
  O  O387  1  0.99053942  0.09299856  0.24180780  1
  O  O388  1  0.99053942  0.09299856  0.57514114  1
  O  O389  1  0.99053942  0.09299856  0.90847447  1
  O  O390  1  0.99053942  0.42633189  0.24180780  1
  O  O391  1  0.99053942  0.42633189  0.57514114  1
  O  O392  1  0.99053942  0.42633189  0.90847447  1
  O  O393  1  0.99053942  0.75966522  0.24180780  1
  O  O394  1  0.99053942  0.75966522  0.57514114  1
  O  O395  1  0.99053942  0.75966522  0.90847447  1
