# generated using pymatgen
data_LiAgO
_symmetry_space_group_name_H-M   'P 1'
_cell_length_a   18.16972005
_cell_length_b   18.16972005
_cell_length_c   18.97463308
_cell_angle_alpha   90.00000000
_cell_angle_beta   90.00000000
_cell_angle_gamma   90.00000000
_symmetry_Int_Tables_number   1
_chemical_formula_structural   LiAgO
_chemical_formula_sum   'Li160 Ag160 O160'
_cell_volume   6264.26120806
_cell_formula_units_Z   160
loop_
 _symmetry_equiv_pos_site_id
 _symmetry_equiv_pos_as_xyz
  1  'x, y, z'
loop_
 _atom_site_type_symbol
 _atom_site_label
 _atom_site_symmetry_multiplicity
 _atom_site_fract_x
 _atom_site_fract_y
 _atom_site_fract_z
 _atom_site_occupancy
  Li  Li0  1  0.06941900  0.25000000  0.00000000  1
  Li  Li1  1  0.06941900  0.25000000  0.20000000  1
  Li  Li2  1  0.06941900  0.25000000  0.40000000  1
  Li  Li3  1  0.06941900  0.25000000  0.60000000  1
  Li  Li4  1  0.06941900  0.25000000  0.80000000  1
  Li  Li5  1  0.56941900  0.25000000  0.00000000  1
  Li  Li6  1  0.56941900  0.25000000  0.20000000  1
  Li  Li7  1  0.56941900  0.25000000  0.40000000  1
  Li  Li8  1  0.56941900  0.25000000  0.60000000  1
  Li  Li9  1  0.56941900  0.25000000  0.80000000  1
  Li  Li10  1  0.06941900  -0.25000000  0.00000000  1
  Li  Li11  1  0.06941900  -0.25000000  0.20000000  1
  Li  Li12  1  0.06941900  -0.25000000  0.40000000  1
  Li  Li13  1  0.06941900  -0.25000000  0.60000000  1
  Li  Li14  1  0.06941900  -0.25000000  0.80000000  1
  Li  Li15  1  0.56941900  -0.25000000  0.00000000  1
  Li  Li16  1  0.56941900  -0.25000000  0.20000000  1
  Li  Li17  1  0.56941900  -0.25000000  0.40000000  1
  Li  Li18  1  0.56941900  -0.25000000  0.60000000  1
  Li  Li19  1  0.56941900  -0.25000000  0.80000000  1
  Li  Li20  1  0.31941900  0.00000000  0.10000000  1
  Li  Li21  1  0.31941900  0.00000000  0.30000000  1
  Li  Li22  1  0.31941900  0.00000000  0.50000000  1
  Li  Li23  1  0.31941900  0.00000000  0.70000000  1
  Li  Li24  1  0.31941900  0.00000000  0.90000000  1
  Li  Li25  1  0.81941900  0.00000000  0.10000000  1
  Li  Li26  1  0.81941900  0.00000000  0.30000000  1
  Li  Li27  1  0.81941900  0.00000000  0.50000000  1
  Li  Li28  1  0.81941900  0.00000000  0.70000000  1
  Li  Li29  1  0.81941900  0.00000000  0.90000000  1
  Li  Li30  1  0.31941900  -0.50000000  0.10000000  1
  Li  Li31  1  0.31941900  -0.50000000  0.30000000  1
  Li  Li32  1  0.31941900  -0.50000000  0.50000000  1
  Li  Li33  1  0.31941900  -0.50000000  0.70000000  1
  Li  Li34  1  0.31941900  -0.50000000  0.90000000  1
  Li  Li35  1  0.81941900  -0.50000000  0.10000000  1
  Li  Li36  1  0.81941900  -0.50000000  0.30000000  1
  Li  Li37  1  0.81941900  -0.50000000  0.50000000  1
  Li  Li38  1  0.81941900  -0.50000000  0.70000000  1
  Li  Li39  1  0.81941900  -0.50000000  0.90000000  1
  Li  Li40  1  0.25000000  0.43058100  0.00000000  1
  Li  Li41  1  0.25000000  0.43058100  0.20000000  1
  Li  Li42  1  0.25000000  0.43058100  0.40000000  1
  Li  Li43  1  0.25000000  0.43058100  0.60000000  1
  Li  Li44  1  0.25000000  0.43058100  0.80000000  1
  Li  Li45  1  0.75000000  0.43058100  0.00000000  1
  Li  Li46  1  0.75000000  0.43058100  0.20000000  1
  Li  Li47  1  0.75000000  0.43058100  0.40000000  1
  Li  Li48  1  0.75000000  0.43058100  0.60000000  1
  Li  Li49  1  0.75000000  0.43058100  0.80000000  1
  Li  Li50  1  0.25000000  -0.06941900  0.00000000  1
  Li  Li51  1  0.25000000  -0.06941900  0.20000000  1
  Li  Li52  1  0.25000000  -0.06941900  0.40000000  1
  Li  Li53  1  0.25000000  -0.06941900  0.60000000  1
  Li  Li54  1  0.25000000  -0.06941900  0.80000000  1
  Li  Li55  1  0.75000000  -0.06941900  0.00000000  1
  Li  Li56  1  0.75000000  -0.06941900  0.20000000  1
  Li  Li57  1  0.75000000  -0.06941900  0.40000000  1
  Li  Li58  1  0.75000000  -0.06941900  0.60000000  1
  Li  Li59  1  0.75000000  -0.06941900  0.80000000  1
  Li  Li60  1  0.50000000  0.18058100  0.10000000  1
  Li  Li61  1  0.50000000  0.18058100  0.30000000  1
  Li  Li62  1  0.50000000  0.18058100  0.50000000  1
  Li  Li63  1  0.50000000  0.18058100  0.70000000  1
  Li  Li64  1  0.50000000  0.18058100  0.90000000  1
  Li  Li65  1  1.00000000  0.18058100  0.10000000  1
  Li  Li66  1  1.00000000  0.18058100  0.30000000  1
  Li  Li67  1  1.00000000  0.18058100  0.50000000  1
  Li  Li68  1  1.00000000  0.18058100  0.70000000  1
  Li  Li69  1  1.00000000  0.18058100  0.90000000  1
  Li  Li70  1  0.50000000  -0.31941900  0.10000000  1
  Li  Li71  1  0.50000000  -0.31941900  0.30000000  1
  Li  Li72  1  0.50000000  -0.31941900  0.50000000  1
  Li  Li73  1  0.50000000  -0.31941900  0.70000000  1
  Li  Li74  1  0.50000000  -0.31941900  0.90000000  1
  Li  Li75  1  1.00000000  -0.31941900  0.10000000  1
  Li  Li76  1  1.00000000  -0.31941900  0.30000000  1
  Li  Li77  1  1.00000000  -0.31941900  0.50000000  1
  Li  Li78  1  1.00000000  -0.31941900  0.70000000  1
  Li  Li79  1  1.00000000  -0.31941900  0.90000000  1
  Li  Li80  1  0.00000000  0.31941900  0.10000000  1
  Li  Li81  1  0.00000000  0.31941900  0.30000000  1
  Li  Li82  1  0.00000000  0.31941900  0.50000000  1
  Li  Li83  1  0.00000000  0.31941900  0.70000000  1
  Li  Li84  1  0.00000000  0.31941900  0.90000000  1
  Li  Li85  1  0.50000000  0.31941900  0.10000000  1
  Li  Li86  1  0.50000000  0.31941900  0.30000000  1
  Li  Li87  1  0.50000000  0.31941900  0.50000000  1
  Li  Li88  1  0.50000000  0.31941900  0.70000000  1
  Li  Li89  1  0.50000000  0.31941900  0.90000000  1
  Li  Li90  1  0.00000000  -0.18058100  0.10000000  1
  Li  Li91  1  0.00000000  -0.18058100  0.30000000  1
  Li  Li92  1  0.00000000  -0.18058100  0.50000000  1
  Li  Li93  1  0.00000000  -0.18058100  0.70000000  1
  Li  Li94  1  0.00000000  -0.18058100  0.90000000  1
  Li  Li95  1  0.50000000  -0.18058100  0.10000000  1
  Li  Li96  1  0.50000000  -0.18058100  0.30000000  1
  Li  Li97  1  0.50000000  -0.18058100  0.50000000  1
  Li  Li98  1  0.50000000  -0.18058100  0.70000000  1
  Li  Li99  1  0.50000000  -0.18058100  0.90000000  1
  Li  Li100  1  0.25000000  0.06941900  0.20000000  1
  Li  Li101  1  0.25000000  0.06941900  0.40000000  1
  Li  Li102  1  0.25000000  0.06941900  0.60000000  1
  Li  Li103  1  0.25000000  0.06941900  0.80000000  1
  Li  Li104  1  0.25000000  0.06941900  1.00000000  1
  Li  Li105  1  0.75000000  0.06941900  0.20000000  1
  Li  Li106  1  0.75000000  0.06941900  0.40000000  1
  Li  Li107  1  0.75000000  0.06941900  0.60000000  1
  Li  Li108  1  0.75000000  0.06941900  0.80000000  1
  Li  Li109  1  0.75000000  0.06941900  1.00000000  1
  Li  Li110  1  0.25000000  -0.43058100  0.20000000  1
  Li  Li111  1  0.25000000  -0.43058100  0.40000000  1
  Li  Li112  1  0.25000000  -0.43058100  0.60000000  1
  Li  Li113  1  0.25000000  -0.43058100  0.80000000  1
  Li  Li114  1  0.25000000  -0.43058100  1.00000000  1
  Li  Li115  1  0.75000000  -0.43058100  0.20000000  1
  Li  Li116  1  0.75000000  -0.43058100  0.40000000  1
  Li  Li117  1  0.75000000  -0.43058100  0.60000000  1
  Li  Li118  1  0.75000000  -0.43058100  0.80000000  1
  Li  Li119  1  0.75000000  -0.43058100  1.00000000  1
  Li  Li120  1  0.18058100  0.50000000  0.10000000  1
  Li  Li121  1  0.18058100  0.50000000  0.30000000  1
  Li  Li122  1  0.18058100  0.50000000  0.50000000  1
  Li  Li123  1  0.18058100  0.50000000  0.70000000  1
  Li  Li124  1  0.18058100  0.50000000  0.90000000  1
  Li  Li125  1  0.68058100  0.50000000  0.10000000  1
  Li  Li126  1  0.68058100  0.50000000  0.30000000  1
  Li  Li127  1  0.68058100  0.50000000  0.50000000  1
  Li  Li128  1  0.68058100  0.50000000  0.70000000  1
  Li  Li129  1  0.68058100  0.50000000  0.90000000  1
  Li  Li130  1  0.18058100  0.00000000  0.10000000  1
  Li  Li131  1  0.18058100  0.00000000  0.30000000  1
  Li  Li132  1  0.18058100  0.00000000  0.50000000  1
  Li  Li133  1  0.18058100  0.00000000  0.70000000  1
  Li  Li134  1  0.18058100  0.00000000  0.90000000  1
  Li  Li135  1  0.68058100  0.00000000  0.10000000  1
  Li  Li136  1  0.68058100  0.00000000  0.30000000  1
  Li  Li137  1  0.68058100  0.00000000  0.50000000  1
  Li  Li138  1  0.68058100  0.00000000  0.70000000  1
  Li  Li139  1  0.68058100  0.00000000  0.90000000  1
  Li  Li140  1  0.43058100  0.25000000  0.20000000  1
  Li  Li141  1  0.43058100  0.25000000  0.40000000  1
  Li  Li142  1  0.43058100  0.25000000  0.60000000  1
  Li  Li143  1  0.43058100  0.25000000  0.80000000  1
  Li  Li144  1  0.43058100  0.25000000  1.00000000  1
  Li  Li145  1  0.93058100  0.25000000  0.20000000  1
  Li  Li146  1  0.93058100  0.25000000  0.40000000  1
  Li  Li147  1  0.93058100  0.25000000  0.60000000  1
  Li  Li148  1  0.93058100  0.25000000  0.80000000  1
  Li  Li149  1  0.93058100  0.25000000  1.00000000  1
  Li  Li150  1  0.43058100  -0.25000000  0.20000000  1
  Li  Li151  1  0.43058100  -0.25000000  0.40000000  1
  Li  Li152  1  0.43058100  -0.25000000  0.60000000  1
  Li  Li153  1  0.43058100  -0.25000000  0.80000000  1
  Li  Li154  1  0.43058100  -0.25000000  1.00000000  1
  Li  Li155  1  0.93058100  -0.25000000  0.20000000  1
  Li  Li156  1  0.93058100  -0.25000000  0.40000000  1
  Li  Li157  1  0.93058100  -0.25000000  0.60000000  1
  Li  Li158  1  0.93058100  -0.25000000  0.80000000  1
  Li  Li159  1  0.93058100  -0.25000000  1.00000000  1
  Ag  Ag160  1  0.16898568  0.66898568  0.10000000  1
  Ag  Ag161  1  0.16898568  0.66898568  0.30000000  1
  Ag  Ag162  1  0.16898568  0.66898568  0.50000000  1
  Ag  Ag163  1  0.16898568  0.66898568  0.70000000  1
  Ag  Ag164  1  0.16898568  0.66898568  0.90000000  1
  Ag  Ag165  1  0.66898568  0.66898568  0.10000000  1
  Ag  Ag166  1  0.66898568  0.66898568  0.30000000  1
  Ag  Ag167  1  0.66898568  0.66898568  0.50000000  1
  Ag  Ag168  1  0.66898568  0.66898568  0.70000000  1
  Ag  Ag169  1  0.66898568  0.66898568  0.90000000  1
  Ag  Ag170  1  0.16898568  0.16898568  0.10000000  1
  Ag  Ag171  1  0.16898568  0.16898568  0.30000000  1
  Ag  Ag172  1  0.16898568  0.16898568  0.50000000  1
  Ag  Ag173  1  0.16898568  0.16898568  0.70000000  1
  Ag  Ag174  1  0.16898568  0.16898568  0.90000000  1
  Ag  Ag175  1  0.66898568  0.16898568  0.10000000  1
  Ag  Ag176  1  0.66898568  0.16898568  0.30000000  1
  Ag  Ag177  1  0.66898568  0.16898568  0.50000000  1
  Ag  Ag178  1  0.66898568  0.16898568  0.70000000  1
  Ag  Ag179  1  0.66898568  0.16898568  0.90000000  1
  Ag  Ag180  1  0.41898568  0.41898568  0.20000000  1
  Ag  Ag181  1  0.41898568  0.41898568  0.40000000  1
  Ag  Ag182  1  0.41898568  0.41898568  0.60000000  1
  Ag  Ag183  1  0.41898568  0.41898568  0.80000000  1
  Ag  Ag184  1  0.41898568  0.41898568  1.00000000  1
  Ag  Ag185  1  0.91898568  0.41898568  0.20000000  1
  Ag  Ag186  1  0.91898568  0.41898568  0.40000000  1
  Ag  Ag187  1  0.91898568  0.41898568  0.60000000  1
  Ag  Ag188  1  0.91898568  0.41898568  0.80000000  1
  Ag  Ag189  1  0.91898568  0.41898568  1.00000000  1
  Ag  Ag190  1  0.41898568  -0.08101432  0.20000000  1
  Ag  Ag191  1  0.41898568  -0.08101432  0.40000000  1
  Ag  Ag192  1  0.41898568  -0.08101432  0.60000000  1
  Ag  Ag193  1  0.41898568  -0.08101432  0.80000000  1
  Ag  Ag194  1  0.41898568  -0.08101432  1.00000000  1
  Ag  Ag195  1  0.91898568  -0.08101432  0.20000000  1
  Ag  Ag196  1  0.91898568  -0.08101432  0.40000000  1
  Ag  Ag197  1  0.91898568  -0.08101432  0.60000000  1
  Ag  Ag198  1  0.91898568  -0.08101432  0.80000000  1
  Ag  Ag199  1  0.91898568  -0.08101432  1.00000000  1
  Ag  Ag200  1  0.16898568  0.33101432  0.10000000  1
  Ag  Ag201  1  0.16898568  0.33101432  0.30000000  1
  Ag  Ag202  1  0.16898568  0.33101432  0.50000000  1
  Ag  Ag203  1  0.16898568  0.33101432  0.70000000  1
  Ag  Ag204  1  0.16898568  0.33101432  0.90000000  1
  Ag  Ag205  1  0.66898568  0.33101432  0.10000000  1
  Ag  Ag206  1  0.66898568  0.33101432  0.30000000  1
  Ag  Ag207  1  0.66898568  0.33101432  0.50000000  1
  Ag  Ag208  1  0.66898568  0.33101432  0.70000000  1
  Ag  Ag209  1  0.66898568  0.33101432  0.90000000  1
  Ag  Ag210  1  0.16898568  -0.16898568  0.10000000  1
  Ag  Ag211  1  0.16898568  -0.16898568  0.30000000  1
  Ag  Ag212  1  0.16898568  -0.16898568  0.50000000  1
  Ag  Ag213  1  0.16898568  -0.16898568  0.70000000  1
  Ag  Ag214  1  0.16898568  -0.16898568  0.90000000  1
  Ag  Ag215  1  0.66898568  -0.16898568  0.10000000  1
  Ag  Ag216  1  0.66898568  -0.16898568  0.30000000  1
  Ag  Ag217  1  0.66898568  -0.16898568  0.50000000  1
  Ag  Ag218  1  0.66898568  -0.16898568  0.70000000  1
  Ag  Ag219  1  0.66898568  -0.16898568  0.90000000  1
  Ag  Ag220  1  0.41898568  0.08101432  0.20000000  1
  Ag  Ag221  1  0.41898568  0.08101432  0.40000000  1
  Ag  Ag222  1  0.41898568  0.08101432  0.60000000  1
  Ag  Ag223  1  0.41898568  0.08101432  0.80000000  1
  Ag  Ag224  1  0.41898568  0.08101432  1.00000000  1
  Ag  Ag225  1  0.91898568  0.08101432  0.20000000  1
  Ag  Ag226  1  0.91898568  0.08101432  0.40000000  1
  Ag  Ag227  1  0.91898568  0.08101432  0.60000000  1
  Ag  Ag228  1  0.91898568  0.08101432  0.80000000  1
  Ag  Ag229  1  0.91898568  0.08101432  1.00000000  1
  Ag  Ag230  1  0.41898568  -0.41898568  0.20000000  1
  Ag  Ag231  1  0.41898568  -0.41898568  0.40000000  1
  Ag  Ag232  1  0.41898568  -0.41898568  0.60000000  1
  Ag  Ag233  1  0.41898568  -0.41898568  0.80000000  1
  Ag  Ag234  1  0.41898568  -0.41898568  1.00000000  1
  Ag  Ag235  1  0.91898568  -0.41898568  0.20000000  1
  Ag  Ag236  1  0.91898568  -0.41898568  0.40000000  1
  Ag  Ag237  1  0.91898568  -0.41898568  0.60000000  1
  Ag  Ag238  1  0.91898568  -0.41898568  0.80000000  1
  Ag  Ag239  1  0.91898568  -0.41898568  1.00000000  1
  Ag  Ag240  1  -0.16898568  0.33101432  0.10000000  1
  Ag  Ag241  1  -0.16898568  0.33101432  0.30000000  1
  Ag  Ag242  1  -0.16898568  0.33101432  0.50000000  1
  Ag  Ag243  1  -0.16898568  0.33101432  0.70000000  1
  Ag  Ag244  1  -0.16898568  0.33101432  0.90000000  1
  Ag  Ag245  1  0.33101432  0.33101432  0.10000000  1
  Ag  Ag246  1  0.33101432  0.33101432  0.30000000  1
  Ag  Ag247  1  0.33101432  0.33101432  0.50000000  1
  Ag  Ag248  1  0.33101432  0.33101432  0.70000000  1
  Ag  Ag249  1  0.33101432  0.33101432  0.90000000  1
  Ag  Ag250  1  -0.16898568  -0.16898568  0.10000000  1
  Ag  Ag251  1  -0.16898568  -0.16898568  0.30000000  1
  Ag  Ag252  1  -0.16898568  -0.16898568  0.50000000  1
  Ag  Ag253  1  -0.16898568  -0.16898568  0.70000000  1
  Ag  Ag254  1  -0.16898568  -0.16898568  0.90000000  1
  Ag  Ag255  1  0.33101432  -0.16898568  0.10000000  1
  Ag  Ag256  1  0.33101432  -0.16898568  0.30000000  1
  Ag  Ag257  1  0.33101432  -0.16898568  0.50000000  1
  Ag  Ag258  1  0.33101432  -0.16898568  0.70000000  1
  Ag  Ag259  1  0.33101432  -0.16898568  0.90000000  1
  Ag  Ag260  1  0.08101432  0.08101432  0.20000000  1
  Ag  Ag261  1  0.08101432  0.08101432  0.40000000  1
  Ag  Ag262  1  0.08101432  0.08101432  0.60000000  1
  Ag  Ag263  1  0.08101432  0.08101432  0.80000000  1
  Ag  Ag264  1  0.08101432  0.08101432  1.00000000  1
  Ag  Ag265  1  0.58101432  0.08101432  0.20000000  1
  Ag  Ag266  1  0.58101432  0.08101432  0.40000000  1
  Ag  Ag267  1  0.58101432  0.08101432  0.60000000  1
  Ag  Ag268  1  0.58101432  0.08101432  0.80000000  1
  Ag  Ag269  1  0.58101432  0.08101432  1.00000000  1
  Ag  Ag270  1  0.08101432  -0.41898568  0.20000000  1
  Ag  Ag271  1  0.08101432  -0.41898568  0.40000000  1
  Ag  Ag272  1  0.08101432  -0.41898568  0.60000000  1
  Ag  Ag273  1  0.08101432  -0.41898568  0.80000000  1
  Ag  Ag274  1  0.08101432  -0.41898568  1.00000000  1
  Ag  Ag275  1  0.58101432  -0.41898568  0.20000000  1
  Ag  Ag276  1  0.58101432  -0.41898568  0.40000000  1
  Ag  Ag277  1  0.58101432  -0.41898568  0.60000000  1
  Ag  Ag278  1  0.58101432  -0.41898568  0.80000000  1
  Ag  Ag279  1  0.58101432  -0.41898568  1.00000000  1
  Ag  Ag280  1  0.08101432  0.41898568  0.00000000  1
  Ag  Ag281  1  0.08101432  0.41898568  0.20000000  1
  Ag  Ag282  1  0.08101432  0.41898568  0.40000000  1
  Ag  Ag283  1  0.08101432  0.41898568  0.60000000  1
  Ag  Ag284  1  0.08101432  0.41898568  0.80000000  1
  Ag  Ag285  1  0.58101432  0.41898568  0.00000000  1
  Ag  Ag286  1  0.58101432  0.41898568  0.20000000  1
  Ag  Ag287  1  0.58101432  0.41898568  0.40000000  1
  Ag  Ag288  1  0.58101432  0.41898568  0.60000000  1
  Ag  Ag289  1  0.58101432  0.41898568  0.80000000  1
  Ag  Ag290  1  0.08101432  -0.08101432  0.00000000  1
  Ag  Ag291  1  0.08101432  -0.08101432  0.20000000  1
  Ag  Ag292  1  0.08101432  -0.08101432  0.40000000  1
  Ag  Ag293  1  0.08101432  -0.08101432  0.60000000  1
  Ag  Ag294  1  0.08101432  -0.08101432  0.80000000  1
  Ag  Ag295  1  0.58101432  -0.08101432  0.00000000  1
  Ag  Ag296  1  0.58101432  -0.08101432  0.20000000  1
  Ag  Ag297  1  0.58101432  -0.08101432  0.40000000  1
  Ag  Ag298  1  0.58101432  -0.08101432  0.60000000  1
  Ag  Ag299  1  0.58101432  -0.08101432  0.80000000  1
  Ag  Ag300  1  0.33101432  0.16898568  0.10000000  1
  Ag  Ag301  1  0.33101432  0.16898568  0.30000000  1
  Ag  Ag302  1  0.33101432  0.16898568  0.50000000  1
  Ag  Ag303  1  0.33101432  0.16898568  0.70000000  1
  Ag  Ag304  1  0.33101432  0.16898568  0.90000000  1
  Ag  Ag305  1  0.83101432  0.16898568  0.10000000  1
  Ag  Ag306  1  0.83101432  0.16898568  0.30000000  1
  Ag  Ag307  1  0.83101432  0.16898568  0.50000000  1
  Ag  Ag308  1  0.83101432  0.16898568  0.70000000  1
  Ag  Ag309  1  0.83101432  0.16898568  0.90000000  1
  Ag  Ag310  1  0.33101432  -0.33101432  0.10000000  1
  Ag  Ag311  1  0.33101432  -0.33101432  0.30000000  1
  Ag  Ag312  1  0.33101432  -0.33101432  0.50000000  1
  Ag  Ag313  1  0.33101432  -0.33101432  0.70000000  1
  Ag  Ag314  1  0.33101432  -0.33101432  0.90000000  1
  Ag  Ag315  1  0.83101432  -0.33101432  0.10000000  1
  Ag  Ag316  1  0.83101432  -0.33101432  0.30000000  1
  Ag  Ag317  1  0.83101432  -0.33101432  0.50000000  1
  Ag  Ag318  1  0.83101432  -0.33101432  0.70000000  1
  Ag  Ag319  1  0.83101432  -0.33101432  0.90000000  1
  O  O320  1  0.33913260  0.50000000  0.00000000  1
  O  O321  1  0.33913260  0.50000000  0.20000000  1
  O  O322  1  0.33913260  0.50000000  0.40000000  1
  O  O323  1  0.33913260  0.50000000  0.60000000  1
  O  O324  1  0.33913260  0.50000000  0.80000000  1
  O  O325  1  0.83913260  0.50000000  0.00000000  1
  O  O326  1  0.83913260  0.50000000  0.20000000  1
  O  O327  1  0.83913260  0.50000000  0.40000000  1
  O  O328  1  0.83913260  0.50000000  0.60000000  1
  O  O329  1  0.83913260  0.50000000  0.80000000  1
  O  O330  1  0.33913260  0.00000000  0.00000000  1
  O  O331  1  0.33913260  0.00000000  0.20000000  1
  O  O332  1  0.33913260  0.00000000  0.40000000  1
  O  O333  1  0.33913260  0.00000000  0.60000000  1
  O  O334  1  0.33913260  0.00000000  0.80000000  1
  O  O335  1  0.83913260  0.00000000  0.00000000  1
  O  O336  1  0.83913260  0.00000000  0.20000000  1
  O  O337  1  0.83913260  0.00000000  0.40000000  1
  O  O338  1  0.83913260  0.00000000  0.60000000  1
  O  O339  1  0.83913260  0.00000000  0.80000000  1
  O  O340  1  0.58913260  0.25000000  0.10000000  1
  O  O341  1  0.58913260  0.25000000  0.30000000  1
  O  O342  1  0.58913260  0.25000000  0.50000000  1
  O  O343  1  0.58913260  0.25000000  0.70000000  1
  O  O344  1  0.58913260  0.25000000  0.90000000  1
  O  O345  1  1.08913260  0.25000000  0.10000000  1
  O  O346  1  1.08913260  0.25000000  0.30000000  1
  O  O347  1  1.08913260  0.25000000  0.50000000  1
  O  O348  1  1.08913260  0.25000000  0.70000000  1
  O  O349  1  1.08913260  0.25000000  0.90000000  1
  O  O350  1  0.58913260  -0.25000000  0.10000000  1
  O  O351  1  0.58913260  -0.25000000  0.30000000  1
  O  O352  1  0.58913260  -0.25000000  0.50000000  1
  O  O353  1  0.58913260  -0.25000000  0.70000000  1
  O  O354  1  0.58913260  -0.25000000  0.90000000  1
  O  O355  1  1.08913260  -0.25000000  0.10000000  1
  O  O356  1  1.08913260  -0.25000000  0.30000000  1
  O  O357  1  1.08913260  -0.25000000  0.50000000  1
  O  O358  1  1.08913260  -0.25000000  0.70000000  1
  O  O359  1  1.08913260  -0.25000000  0.90000000  1
  O  O360  1  -0.00000000  0.16086740  0.00000000  1
  O  O361  1  -0.00000000  0.16086740  0.20000000  1
  O  O362  1  -0.00000000  0.16086740  0.40000000  1
  O  O363  1  -0.00000000  0.16086740  0.60000000  1
  O  O364  1  -0.00000000  0.16086740  0.80000000  1
  O  O365  1  0.50000000  0.16086740  0.00000000  1
  O  O366  1  0.50000000  0.16086740  0.20000000  1
  O  O367  1  0.50000000  0.16086740  0.40000000  1
  O  O368  1  0.50000000  0.16086740  0.60000000  1
  O  O369  1  0.50000000  0.16086740  0.80000000  1
  O  O370  1  -0.00000000  -0.33913260  0.00000000  1
  O  O371  1  -0.00000000  -0.33913260  0.20000000  1
  O  O372  1  -0.00000000  -0.33913260  0.40000000  1
  O  O373  1  -0.00000000  -0.33913260  0.60000000  1
  O  O374  1  -0.00000000  -0.33913260  0.80000000  1
  O  O375  1  0.50000000  -0.33913260  0.00000000  1
  O  O376  1  0.50000000  -0.33913260  0.20000000  1
  O  O377  1  0.50000000  -0.33913260  0.40000000  1
  O  O378  1  0.50000000  -0.33913260  0.60000000  1
  O  O379  1  0.50000000  -0.33913260  0.80000000  1
  O  O380  1  0.25000000  -0.08913260  0.10000000  1
  O  O381  1  0.25000000  -0.08913260  0.30000000  1
  O  O382  1  0.25000000  -0.08913260  0.50000000  1
  O  O383  1  0.25000000  -0.08913260  0.70000000  1
  O  O384  1  0.25000000  -0.08913260  0.90000000  1
  O  O385  1  0.75000000  -0.08913260  0.10000000  1
  O  O386  1  0.75000000  -0.08913260  0.30000000  1
  O  O387  1  0.75000000  -0.08913260  0.50000000  1
  O  O388  1  0.75000000  -0.08913260  0.70000000  1
  O  O389  1  0.75000000  -0.08913260  0.90000000  1
  O  O390  1  0.25000000  -0.58913260  0.10000000  1
  O  O391  1  0.25000000  -0.58913260  0.30000000  1
  O  O392  1  0.25000000  -0.58913260  0.50000000  1
  O  O393  1  0.25000000  -0.58913260  0.70000000  1
  O  O394  1  0.25000000  -0.58913260  0.90000000  1
  O  O395  1  0.75000000  -0.58913260  0.10000000  1
  O  O396  1  0.75000000  -0.58913260  0.30000000  1
  O  O397  1  0.75000000  -0.58913260  0.50000000  1
  O  O398  1  0.75000000  -0.58913260  0.70000000  1
  O  O399  1  0.75000000  -0.58913260  0.90000000  1
  O  O400  1  0.00000000  0.33913260  -0.00000000  1
  O  O401  1  0.00000000  0.33913260  0.20000000  1
  O  O402  1  0.00000000  0.33913260  0.40000000  1
  O  O403  1  0.00000000  0.33913260  0.60000000  1
  O  O404  1  0.00000000  0.33913260  0.80000000  1
  O  O405  1  0.50000000  0.33913260  -0.00000000  1
  O  O406  1  0.50000000  0.33913260  0.20000000  1
  O  O407  1  0.50000000  0.33913260  0.40000000  1
  O  O408  1  0.50000000  0.33913260  0.60000000  1
  O  O409  1  0.50000000  0.33913260  0.80000000  1
  O  O410  1  0.00000000  -0.16086740  -0.00000000  1
  O  O411  1  0.00000000  -0.16086740  0.20000000  1
  O  O412  1  0.00000000  -0.16086740  0.40000000  1
  O  O413  1  0.00000000  -0.16086740  0.60000000  1
  O  O414  1  0.00000000  -0.16086740  0.80000000  1
  O  O415  1  0.50000000  -0.16086740  -0.00000000  1
  O  O416  1  0.50000000  -0.16086740  0.20000000  1
  O  O417  1  0.50000000  -0.16086740  0.40000000  1
  O  O418  1  0.50000000  -0.16086740  0.60000000  1
  O  O419  1  0.50000000  -0.16086740  0.80000000  1
  O  O420  1  0.25000000  0.08913260  0.10000000  1
  O  O421  1  0.25000000  0.08913260  0.30000000  1
  O  O422  1  0.25000000  0.08913260  0.50000000  1
  O  O423  1  0.25000000  0.08913260  0.70000000  1
  O  O424  1  0.25000000  0.08913260  0.90000000  1
  O  O425  1  0.75000000  0.08913260  0.10000000  1
  O  O426  1  0.75000000  0.08913260  0.30000000  1
  O  O427  1  0.75000000  0.08913260  0.50000000  1
  O  O428  1  0.75000000  0.08913260  0.70000000  1
  O  O429  1  0.75000000  0.08913260  0.90000000  1
  O  O430  1  0.25000000  -0.41086740  0.10000000  1
  O  O431  1  0.25000000  -0.41086740  0.30000000  1
  O  O432  1  0.25000000  -0.41086740  0.50000000  1
  O  O433  1  0.25000000  -0.41086740  0.70000000  1
  O  O434  1  0.25000000  -0.41086740  0.90000000  1
  O  O435  1  0.75000000  -0.41086740  0.10000000  1
  O  O436  1  0.75000000  -0.41086740  0.30000000  1
  O  O437  1  0.75000000  -0.41086740  0.50000000  1
  O  O438  1  0.75000000  -0.41086740  0.70000000  1
  O  O439  1  0.75000000  -0.41086740  0.90000000  1
  O  O440  1  0.16086740  0.50000000  -0.00000000  1
  O  O441  1  0.16086740  0.50000000  0.20000000  1
  O  O442  1  0.16086740  0.50000000  0.40000000  1
  O  O443  1  0.16086740  0.50000000  0.60000000  1
  O  O444  1  0.16086740  0.50000000  0.80000000  1
  O  O445  1  0.66086740  0.50000000  -0.00000000  1
  O  O446  1  0.66086740  0.50000000  0.20000000  1
  O  O447  1  0.66086740  0.50000000  0.40000000  1
  O  O448  1  0.66086740  0.50000000  0.60000000  1
  O  O449  1  0.66086740  0.50000000  0.80000000  1
  O  O450  1  0.16086740  -0.00000000  -0.00000000  1
  O  O451  1  0.16086740  -0.00000000  0.20000000  1
  O  O452  1  0.16086740  -0.00000000  0.40000000  1
  O  O453  1  0.16086740  -0.00000000  0.60000000  1
  O  O454  1  0.16086740  -0.00000000  0.80000000  1
  O  O455  1  0.66086740  -0.00000000  -0.00000000  1
  O  O456  1  0.66086740  -0.00000000  0.20000000  1
  O  O457  1  0.66086740  -0.00000000  0.40000000  1
  O  O458  1  0.66086740  -0.00000000  0.60000000  1
  O  O459  1  0.66086740  -0.00000000  0.80000000  1
  O  O460  1  0.41086740  0.25000000  0.10000000  1
  O  O461  1  0.41086740  0.25000000  0.30000000  1
  O  O462  1  0.41086740  0.25000000  0.50000000  1
  O  O463  1  0.41086740  0.25000000  0.70000000  1
  O  O464  1  0.41086740  0.25000000  0.90000000  1
  O  O465  1  0.91086740  0.25000000  0.10000000  1
  O  O466  1  0.91086740  0.25000000  0.30000000  1
  O  O467  1  0.91086740  0.25000000  0.50000000  1
  O  O468  1  0.91086740  0.25000000  0.70000000  1
  O  O469  1  0.91086740  0.25000000  0.90000000  1
  O  O470  1  0.41086740  -0.25000000  0.10000000  1
  O  O471  1  0.41086740  -0.25000000  0.30000000  1
  O  O472  1  0.41086740  -0.25000000  0.50000000  1
  O  O473  1  0.41086740  -0.25000000  0.70000000  1
  O  O474  1  0.41086740  -0.25000000  0.90000000  1
  O  O475  1  0.91086740  -0.25000000  0.10000000  1
  O  O476  1  0.91086740  -0.25000000  0.30000000  1
  O  O477  1  0.91086740  -0.25000000  0.50000000  1
  O  O478  1  0.91086740  -0.25000000  0.70000000  1
  O  O479  1  0.91086740  -0.25000000  0.90000000  1
